2207
  Marvin  02231216192D 0   1.00000     0.00000     0

 14 15  0  0  0  0  0  0  0  0999 V2000
    0.1571   -1.0631    0.0000 O   0  0  0  0  0  0  0  0  0
    0.8716   -0.6506    0.0000 C   0  0  0  0  0  0  0  0  0
   -0.5574   -0.6506    0.0000 C   0  0  0  0  0  0  0  0  0
   -1.2718   -1.0631    0.0000 C   0  0  0  0  0  0  0  0  0
   -1.9863   -0.6506    0.0000 C   0  0  0  0  0  0  0  0  0
   -1.9863    0.1744    0.0000 C   0  0  0  0  0  0  0  0  0
   -2.7709    0.4293    0.0000 N   0  0  0  0  0  0  0  0  0
   -3.2558   -0.2381    0.0000 C   0  0  0  0  0  0  0  0  0
   -2.7709   -0.9056    0.0000 C   0  0  0  0  0  0  0  0  0
   -3.0259   -1.6902    0.0000 C   0  0  0  0  0  0  0  0  0
   -3.8328   -1.8617    0.0000 C   0  0  0  0  0  0  0  0  0
   -4.0878   -2.6464    0.0000 N   0  0  0  0  0  0  0  0  0
   -1.2718    0.5869    0.0000 C   0  0  0  0  0  0  0  0  0
   -0.5574    0.1744    0.0000 C   0  0  0  0  0  0  0  0  0
  1  2  1  0  0  0  0
  1  3  1  0  0  0  0
  3  4  4  0  0  0  0
  3 14  4  0  0  0  0
  4  5  4  0  0  0  0
  5  6  4  0  0  0  0
  5  9  4  0  0  0  0
  6  7  4  0  0  0  0
  6 13  4  0  0  0  0
  7  8  4  0  0  0  0
  8  9  4  0  0  0  0
  9 10  1  0  0  0  0
 10 11  1  0  0  0  0
 11 12  1  0  0  0  0
 13 14  4  0  0  0  0
M  STY  1   1 DAT
M  SAL   1  1   7
M  SDT   1 MRV_IMPLICIT_H                                        
M  SDD   1     0.0000    0.0000    DR    ALL  0       0  
M  SED   1 IMPL_H1
M  END
>  <Name_Molregno>
2207

>  <5-HT1B>
8.15

>  <5-HT1D>
8.32

>  <5-HT1E>
5.5

>  <5-HT2A>
6.83

>  <5-HT2C>
7.28

>  <5-HT6>
7.39

>  <5-HT7>
8.7

$$$$
2232
  Marvin  02231216192D 0   1.00000     0.00000     0

 16 17  0  0  0  0  0  0  0  0999 V2000
    0.0484   -1.1205    0.0000 O   0  0  0  0  0  0  0  0  0
    0.7628   -0.7080    0.0000 C   0  0  0  0  0  0  0  0  0
   -0.6661   -0.7080    0.0000 C   0  0  0  0  0  0  0  0  0
   -1.3806   -1.1205    0.0000 C   0  0  0  0  0  0  0  0  0
   -2.0951   -0.7080    0.0000 C   0  0  0  0  0  0  0  0  0
   -2.0951    0.1170    0.0000 C   0  0  0  0  0  0  0  0  0
   -2.8797    0.3720    0.0000 N   0  0  0  0  0  0  0  0  0
   -3.3646   -0.2955    0.0000 C   0  0  0  0  0  0  0  0  0
   -2.8797   -0.9629    0.0000 C   0  0  0  0  0  0  0  0  0
   -3.1346   -1.7475    0.0000 C   0  0  0  0  0  0  0  0  0
   -2.5826   -2.3606    0.0000 C   0  0  0  0  0  0  0  0  0
   -2.8375   -3.1452    0.0000 N   0  0  0  0  0  0  0  0  0
   -2.2855   -3.7583    0.0000 C   0  0  0  0  0  0  0  0  0
   -3.6445   -3.3168    0.0000 C   0  0  0  0  0  0  0  0  0
   -1.3806    0.5295    0.0000 C   0  0  0  0  0  0  0  0  0
   -0.6661    0.1170    0.0000 C   0  0  0  0  0  0  0  0  0
  1  2  1  0  0  0  0
  1  3  1  0  0  0  0
  3  4  4  0  0  0  0
  3 16  4  0  0  0  0
  4  5  4  0  0  0  0
  5  6  4  0  0  0  0
  5  9  4  0  0  0  0
  6  7  4  0  0  0  0
  6 15  4  0  0  0  0
  7  8  4  0  0  0  0
  8  9  4  0  0  0  0
  9 10  1  0  0  0  0
 10 11  1  0  0  0  0
 11 12  1  0  0  0  0
 12 13  1  0  0  0  0
 12 14  1  0  0  0  0
 15 16  4  0  0  0  0
M  STY  1   1 DAT
M  SAL   1  1   7
M  SDT   1 MRV_IMPLICIT_H                                        
M  SDD   1     0.0000    0.0000    DR    ALL  0       0  
M  SED   1 IMPL_H1
M  END
>  <Name_Molregno>
2232

>  <5-HT1B>
7.63

>  <5-HT1E>
6.28

>  <5-HT2A>
6.86

>  <5-HT2C>
7.38

>  <5-HT6>
7.5

$$$$
2246
  Marvin  02231216192D 0   1.00000     0.00000     0

 23 26  0  0  0  0  0  0  0  0999 V2000
    0.0748    1.8640    0.0000 Cl  0  0  0  0  0  0  0  0  0
    0.8818    1.6925    0.0000 C   0  0  0  0  0  0  0  0  0
    1.4339    2.3056    0.0000 C   0  0  0  0  0  0  0  0  0
    2.2408    2.1340    0.0000 C   0  0  0  0  0  0  0  0  0
    2.4958    1.3494    0.0000 C   0  0  0  0  0  0  0  0  0
    3.3027    1.1779    0.0000 N   0  0  0  0  0  0  0  0  0
    3.8548    1.7910    0.0000 C   0  0  0  0  0  0  0  0  0
    4.6617    1.6194    0.0000 C   0  0  0  0  0  0  0  0  0
    4.9167    0.8348    0.0000 N   0  0  0  0  0  0  0  0  0
    4.3646    0.2217    0.0000 C   0  0  0  0  0  0  0  0  0
    3.5577    0.3933    0.0000 C   0  0  0  0  0  0  0  0  0
    5.7237    0.6633    0.0000 C   0  0  0  0  0  0  0  0  0
    5.9786   -0.1213    0.0000 C   0  0  0  0  0  0  0  0  0
    6.7632   -0.3763    0.0000 C   0  0  0  0  0  0  0  0  0
    7.4777    0.0362    0.0000 C   0  0  0  0  0  0  0  0  0
    8.1922   -0.3763    0.0000 C   0  0  0  0  0  0  0  0  0
    8.1922   -1.2013    0.0000 C   0  0  0  0  0  0  0  0  0
    7.4777   -1.6138    0.0000 N   0  0  0  0  0  0  0  0  0
    6.7632   -1.2013    0.0000 C   0  0  0  0  0  0  0  0  0
    5.9786   -1.4562    0.0000 N   0  0  0  0  0  0  0  0  0
    5.4937   -0.7888    0.0000 C   0  0  0  0  0  0  0  0  0
    1.9437    0.7363    0.0000 C   0  0  0  0  0  0  0  0  0
    1.1368    0.9078    0.0000 C   0  0  0  0  0  0  0  0  0
  1  2  1  0  0  0  0
  2  3  4  0  0  0  0
  2 23  4  0  0  0  0
  3  4  4  0  0  0  0
  4  5  4  0  0  0  0
  5  6  1  0  0  0  0
  5 22  4  0  0  0  0
  6  7  1  0  0  0  0
  6 11  1  0  0  0  0
  7  8  1  0  0  0  0
  8  9  1  0  0  0  0
  9 10  1  0  0  0  0
  9 12  1  0  0  0  0
 10 11  1  0  0  0  0
 12 13  1  0  0  0  0
 13 14  4  0  0  0  0
 13 21  4  0  0  0  0
 14 15  4  0  0  0  0
 14 19  4  0  0  0  0
 15 16  4  0  0  0  0
 16 17  4  0  0  0  0
 17 18  4  0  0  0  0
 18 19  4  0  0  0  0
 19 20  4  0  0  0  0
 20 21  4  0  0  0  0
 22 23  4  0  0  0  0
M  STY  1   1 DAT
M  SAL   1  1  20
M  SDT   1 MRV_IMPLICIT_H                                        
M  SDD   1     0.0000    0.0000    DR    ALL  0       0  
M  SED   1 IMPL_H1
M  END
>  <Name_Molregno>
2246

>  <5-HT1A>
5.18

>  <5-HT1B>
5

>  <5-HT1D>
5

>  <5-HT1E>
5

>  <5-HT2A>
6.17

>  <5-HT2C>
5.5

>  <5-HT5>
5

>  <5-HT6>
5.78

>  <5-HT7>
6.65

>  <DOPAMINE D2>
5.31

>  <DOPAMINE D3>
5.16

>  <DOPAMINE D4>
9.34

$$$$
6593
  Marvin  02231216192D 0   1.00000     0.00000     0

 26 30  0  0  1  0  0  0  0  0999 V2000
    6.3424    1.1120    0.0000 O   0  0  0  0  0  0  0  0  0
    5.8040    0.4869    0.0000 C   0  0  0  0  0  0  0  0  0
    6.0761   -0.2920    0.0000 C   0  0  0  0  0  0  0  0  0
    5.5377   -0.9170    0.0000 C   0  0  0  0  0  0  0  0  0
    4.7272   -0.7633    0.0000 C   0  0  0  0  0  0  0  0  0
    4.4550    0.0155    0.0000 C   0  0  0  0  0  0  0  0  0
    3.6445    0.1692    0.0000 C   0  0  0  0  0  0  0  0  0
    3.1061   -0.4559    0.0000 C   0  0  0  0  0  0  0  0  0
    3.3782   -1.2347    0.0000 N   0  0  0  0  0  0  0  0  0
    4.1888   -1.3884    0.0000 C   0  0  0  0  0  0  0  0  0
    2.8398   -1.8598    0.0000 C   0  0  0  0  0  0  0  0  0
    2.0292   -1.7061    0.0000 C   0  0  0  0  0  0  0  0  0
    1.7571   -0.9272    0.0000 C   0  0  0  0  0  0  0  0  0
    2.2955   -0.3021    0.0000 C   0  0  0  0  0  0  0  0  0
    1.8674    0.4031    0.0000 N   0  0  0  0  0  0  0  0  0
    1.0644    0.2138    0.0000 C   0  0  0  0  0  0  0  0  0
    0.9962   -0.6083    0.0000 C   0  0  0  0  0  0  0  0  0
    0.2501   -0.9604    0.0000 C   0  0  0  0  0  0  0  0  0
   -0.4278   -0.4903    0.0000 C   0  0  0  0  0  0  0  0  0
   -0.3597    0.3319    0.0000 C   0  0  0  0  0  0  0  0  0
    0.3864    0.6840    0.0000 C   0  0  0  0  0  0  0  0  0
    4.9934    0.6406    0.0000 C   0  0  0  0  0  0  0  0  0
    4.7213    1.4194    0.0000 C   0  0  0  0  0  0  0  0  0
    5.2597    2.0445    0.0000 O   0  0  0  0  0  0  0  0  0
    4.9875    2.8233    0.0000 C   0  0  0  0  0  0  0  0  0
    3.9107    1.5731    0.0000 O   0  0  0  0  0  0  0  0  0
  1  2  1  0  0  0  0
  2  3  1  0  0  0  0
  2 22  1  0  0  0  0
  3  4  1  0  0  0  0
  4  5  1  0  0  0  0
  5  6  1  0  0  0  0
  5 10  1  0  0  0  0
  6  7  1  0  0  0  0
  6 22  1  0  0  0  0
  7  8  1  0  0  0  0
  8  9  1  0  0  0  0
  8 14  1  0  0  0  0
  9 10  1  0  0  0  0
  9 11  1  0  0  0  0
 11 12  1  0  0  0  0
 12 13  1  0  0  0  0
 13 14  4  0  0  0  0
 13 17  4  0  0  0  0
 14 15  4  0  0  0  0
 15 16  4  0  0  0  0
 16 17  4  0  0  0  0
 16 21  4  0  0  0  0
 17 18  4  0  0  0  0
 18 19  4  0  0  0  0
 19 20  4  0  0  0  0
 20 21  4  0  0  0  0
 22 23  1  0  0  0  0
 23 24  1  0  0  0  0
 23 26  2  0  0  0  0
 24 25  1  0  0  0  0
M  STY  1   1 DAT
M  SAL   1  1  15
M  SDT   1 MRV_IMPLICIT_H                                        
M  SDD   1     0.0000    0.0000    DR    ALL  0       0  
M  SED   1 IMPL_H1
M  END
>  <Name_Molregno>
6593

>  <5-HT1A>
6.3

>  <5-HT1B>
7.45

>  <5-HT1D>
7.09

>  <5-HT1E>
5.75

>  <5-HT2A>
5.66

>  <5-HT2C>
5.49

>  <5-HT7>
5.55

>  <Alpha-1A>
6.32

>  <Alpha-1B>
6.42

>  <Alpha-2A>
8.74

>  <Alpha-2B>
8.53

>  <Alpha-2C>
9.21

>  <DOPAMINE D1>
5

>  <DOPAMINE D2>
6.48

>  <DOPAMINE D3>
5.5

>  <Serotonin transporter>
6

$$$$
16396
  Marvin  02231216192D 0   1.00000     0.00000     0

 37 41  0  0  0  0  0  0  0  0999 V2000
    9.4469    5.2044    0.0000 O   0  0  0  0  0  0  0  0  0
    9.1920    4.4198    0.0000 N   0  0  0  0  0  0  0  0  0
    8.3670    4.4198    0.0000 C   0  0  0  0  0  0  0  0  0
    8.1121    5.2044    0.0000 N   0  0  0  0  0  0  0  0  0
    8.7795    5.6894    0.0000 C   0  0  0  0  0  0  0  0  0
    8.7795    6.5144    0.0000 C   0  0  0  0  0  0  0  0  0
    7.8821    3.7524    0.0000 C   0  0  0  0  0  0  0  0  0
    8.2176    2.9987    0.0000 C   0  0  0  0  0  0  0  0  0
    7.7327    2.3313    0.0000 C   0  0  0  0  0  0  0  0  0
    8.0683    1.5776    0.0000 C   0  0  0  0  0  0  0  0  0
    6.9122    2.4175    0.0000 C   0  0  0  0  0  0  0  0  0
    6.5767    3.1712    0.0000 C   0  0  0  0  0  0  0  0  0
    7.0616    3.8386    0.0000 C   0  0  0  0  0  0  0  0  0
    6.4273    1.7501    0.0000 C   0  0  0  0  0  0  0  0  0
    6.7629    0.9964    0.0000 C   0  0  0  0  0  0  0  0  0
    6.2779    0.3289    0.0000 C   0  0  0  0  0  0  0  0  0
    5.4575    0.4152    0.0000 C   0  0  0  0  0  0  0  0  0
    5.1219    1.1689    0.0000 C   0  0  0  0  0  0  0  0  0
    5.6068    1.8363    0.0000 C   0  0  0  0  0  0  0  0  0
    4.9725   -0.2523    0.0000 C   0  0  0  0  0  0  0  0  0
    4.1521   -0.1660    0.0000 O   0  0  0  0  0  0  0  0  0
    5.3081   -1.0059    0.0000 N   0  0  0  0  0  0  0  0  0
    4.8232   -1.6734    0.0000 C   0  0  0  0  0  0  0  0  0
    5.1587   -2.4270    0.0000 C   0  0  0  0  0  0  0  0  0
    4.6738   -3.0945    0.0000 C   0  0  0  0  0  0  0  0  0
    5.0094   -3.8482    0.0000 N   0  0  0  0  0  0  0  0  0
    5.8298   -3.9344    0.0000 C   0  0  0  0  0  0  0  0  0
    6.1654   -4.6881    0.0000 C   0  0  0  0  0  0  0  0  0
    5.6805   -5.3555    0.0000 N   0  0  0  0  0  0  0  0  0
    4.8600   -5.2693    0.0000 C   0  0  0  0  0  0  0  0  0
    4.5244   -4.5156    0.0000 C   0  0  0  0  0  0  0  0  0
    6.0160   -6.1092    0.0000 C   0  0  0  0  0  0  0  0  0
    3.8533   -3.0082    0.0000 C   0  0  0  0  0  0  0  0  0
    3.3684   -3.6757    0.0000 O   0  0  0  0  0  0  0  0  0
    2.5479   -3.5894    0.0000 C   0  0  0  0  0  0  0  0  0
    3.5178   -2.2546    0.0000 C   0  0  0  0  0  0  0  0  0
    4.0027   -1.5871    0.0000 C   0  0  0  0  0  0  0  0  0
  1  2  4  0  0  0  0
  1  5  4  0  0  0  0
  2  3  4  0  0  0  0
  3  4  4  0  0  0  0
  3  7  1  0  0  0  0
  4  5  4  0  0  0  0
  5  6  1  0  0  0  0
  7  8  4  0  0  0  0
  7 13  4  0  0  0  0
  8  9  4  0  0  0  0
  9 10  1  0  0  0  0
  9 11  4  0  0  0  0
 11 12  4  0  0  0  0
 11 14  1  0  0  0  0
 12 13  4  0  0  0  0
 14 15  4  0  0  0  0
 14 19  4  0  0  0  0
 15 16  4  0  0  0  0
 16 17  4  0  0  0  0
 17 18  4  0  0  0  0
 17 20  1  0  0  0  0
 18 19  4  0  0  0  0
 20 21  2  0  0  0  0
 20 22  1  0  0  0  0
 22 23  1  0  0  0  0
 23 24  4  0  0  0  0
 23 37  4  0  0  0  0
 24 25  4  0  0  0  0
 25 26  1  0  0  0  0
 25 33  4  0  0  0  0
 26 27  1  0  0  0  0
 26 31  1  0  0  0  0
 27 28  1  0  0  0  0
 28 29  1  0  0  0  0
 29 30  1  0  0  0  0
 29 32  1  0  0  0  0
 30 31  1  0  0  0  0
 33 34  1  0  0  0  0
 33 36  4  0  0  0  0
 34 35  1  0  0  0  0
 36 37  4  0  0  0  0
M  END
>  <Name_Molregno>
16396

>  <5-HT1A>
7.14

>  <5-HT1B>
9.05

>  <5-HT1D>
8.78

>  <5-HT1E>
5.4

>  <5-HT2A>
7.59

>  <5-HT2C>
6.99

>  <5-HT5>
5.2

>  <5-HT6>
5.27

>  <5-HT7>
5.4

>  <DOPAMINE D1>
5

>  <DOPAMINE D2>
5

>  <DOPAMINE D3>
5

>  <DOPAMINE D4>
5

>  <DOPAMINE D5>
5

>  <HISTAMINE H1>
5

>  <Muscarinic acetylcholine receptor M1>
5

>  <Muscarinic acetylcholine receptor M2>
5

>  <Muscarinic acetylcholine receptor M3>
5

>  <Muscarinic acetylcholine receptor M4>
5

>  <Muscarinic acetylcholine receptor M5>
5

$$$$
16538
  Marvin  02231216192D 0   1.00000     0.00000     0

 37 42  0  0  0  0  0  0  0  0999 V2000
    8.4534   -5.5454    0.0000 O   0  0  0  0  0  0  0  0  0
    7.9412   -4.8987    0.0000 N   0  0  0  0  0  0  0  0  0
    8.3980   -4.2117    0.0000 C   0  0  0  0  0  0  0  0  0
    9.1925   -4.4338    0.0000 N   0  0  0  0  0  0  0  0  0
    9.2268   -5.2581    0.0000 C   0  0  0  0  0  0  0  0  0
    9.9138   -5.7149    0.0000 C   0  0  0  0  0  0  0  0  0
    8.1106   -3.4383    0.0000 C   0  0  0  0  0  0  0  0  0
    7.2972   -3.3005    0.0000 C   0  0  0  0  0  0  0  0  0
    7.0099   -2.5271    0.0000 C   0  0  0  0  0  0  0  0  0
    6.1965   -2.3892    0.0000 C   0  0  0  0  0  0  0  0  0
    7.5360   -1.8916    0.0000 C   0  0  0  0  0  0  0  0  0
    8.3494   -2.0295    0.0000 C   0  0  0  0  0  0  0  0  0
    8.6367   -2.8028    0.0000 C   0  0  0  0  0  0  0  0  0
    7.2487   -1.1182    0.0000 C   0  0  0  0  0  0  0  0  0
    6.4353   -0.9804    0.0000 C   0  0  0  0  0  0  0  0  0
    6.1480   -0.2070    0.0000 C   0  0  0  0  0  0  0  0  0
    6.6741    0.4285    0.0000 C   0  0  0  0  0  0  0  0  0
    7.4875    0.2906    0.0000 C   0  0  0  0  0  0  0  0  0
    7.7748   -0.4828    0.0000 C   0  0  0  0  0  0  0  0  0
    6.3868    1.2018    0.0000 C   0  0  0  0  0  0  0  0  0
    6.9129    1.8373    0.0000 O   0  0  0  0  0  0  0  0  0
    5.5734    1.3397    0.0000 N   0  0  0  0  0  0  0  0  0
    5.2861    2.1130    0.0000 C   0  0  0  0  0  0  0  0  0
    4.4727    2.2509    0.0000 C   0  0  0  0  0  0  0  0  0
    4.1854    3.0242    0.0000 C   0  0  0  0  0  0  0  0  0
    4.7115    3.6597    0.0000 C   0  0  0  0  0  0  0  0  0
    4.2696    4.3565    0.0000 O   0  0  0  0  0  0  0  0  0
    3.4705    4.1516    0.0000 C   0  0  0  0  0  0  0  0  0
    3.4184    3.3282    0.0000 C   0  0  0  0  0  0  0  0  0
    3.4527    2.5039    0.0000 C   0  0  0  0  0  0  0  0  0
    2.7560    2.0621    0.0000 C   0  0  0  0  0  0  0  0  0
    2.0250    2.4446    0.0000 N   0  0  0  0  0  0  0  0  0
    1.9907    3.2689    0.0000 C   0  0  0  0  0  0  0  0  0
    2.6874    3.7107    0.0000 C   0  0  0  0  0  0  0  0  0
    1.3282    2.0027    0.0000 C   0  0  0  0  0  0  0  0  0
    5.5249    3.5219    0.0000 C   0  0  0  0  0  0  0  0  0
    5.8122    2.7485    0.0000 C   0  0  0  0  0  0  0  0  0
  1  2  4  0  0  0  0
  1  5  4  0  0  0  0
  2  3  4  0  0  0  0
  3  4  4  0  0  0  0
  3  7  1  0  0  0  0
  4  5  4  0  0  0  0
  5  6  1  0  0  0  0
  7  8  4  0  0  0  0
  7 13  4  0  0  0  0
  8  9  4  0  0  0  0
  9 10  1  0  0  0  0
  9 11  4  0  0  0  0
 11 12  4  0  0  0  0
 11 14  1  0  0  0  0
 12 13  4  0  0  0  0
 14 15  4  0  0  0  0
 14 19  4  0  0  0  0
 15 16  4  0  0  0  0
 16 17  4  0  0  0  0
 17 18  4  0  0  0  0
 17 20  1  0  0  0  0
 18 19  4  0  0  0  0
 20 21  2  0  0  0  0
 20 22  1  0  0  0  0
 22 23  1  0  0  0  0
 23 24  4  0  0  0  0
 23 37  4  0  0  0  0
 24 25  4  0  0  0  0
 25 26  4  0  0  0  0
 25 29  1  0  0  0  0
 26 27  1  0  0  0  0
 26 36  4  0  0  0  0
 27 28  1  0  0  0  0
 28 29  1  0  0  0  0
 29 30  1  0  0  0  0
 29 34  1  0  0  0  0
 30 31  1  0  0  0  0
 31 32  1  0  0  0  0
 32 33  1  0  0  0  0
 32 35  1  0  0  0  0
 33 34  1  0  0  0  0
 36 37  4  0  0  0  0
M  END
>  <Name_Molregno>
16538

>  <5-HT1B>
7.5

>  <5-HT1D>
5.7

>  <5-HT2A>
6

$$$$
21325
  Marvin  02231216192D 0   1.00000     0.00000     0

 15 16  0  0  0  0  0  0  0  0999 V2000
    0.7633   -0.9168    0.0000 O   0  0  0  0  0  0  0  0  0
    0.0489   -1.3293    0.0000 C   0  0  0  0  0  0  0  0  0
    0.0489   -2.1543    0.0000 N   0  0  0  0  0  0  0  0  0
   -0.6656   -0.9168    0.0000 C   0  0  0  0  0  0  0  0  0
   -1.3801   -1.3293    0.0000 C   0  0  0  0  0  0  0  0  0
   -2.0946   -0.9168    0.0000 C   0  0  0  0  0  0  0  0  0
   -2.0946   -0.0918    0.0000 C   0  0  0  0  0  0  0  0  0
   -2.8792    0.1632    0.0000 N   0  0  0  0  0  0  0  0  0
   -3.3641   -0.5043    0.0000 C   0  0  0  0  0  0  0  0  0
   -2.8792   -1.1717    0.0000 C   0  0  0  0  0  0  0  0  0
   -3.1341   -1.9563    0.0000 C   0  0  0  0  0  0  0  0  0
   -3.9411   -2.1279    0.0000 C   0  0  0  0  0  0  0  0  0
   -4.1960   -2.9125    0.0000 N   0  0  0  0  0  0  0  0  0
   -1.3801    0.3207    0.0000 C   0  0  0  0  0  0  0  0  0
   -0.6656   -0.0918    0.0000 C   0  0  0  0  0  0  0  0  0
  1  2  2  0  0  0  0
  2  3  1  0  0  0  0
  2  4  1  0  0  0  0
  4  5  4  0  0  0  0
  4 15  4  0  0  0  0
  5  6  4  0  0  0  0
  6  7  4  0  0  0  0
  6 10  4  0  0  0  0
  7  8  4  0  0  0  0
  7 14  4  0  0  0  0
  8  9  4  0  0  0  0
  9 10  4  0  0  0  0
 10 11  1  0  0  0  0
 11 12  1  0  0  0  0
 12 13  1  0  0  0  0
 14 15  4  0  0  0  0
M  STY  1   1 DAT
M  SAL   1  1   8
M  SDT   1 MRV_IMPLICIT_H                                        
M  SDD   1     0.0000    0.0000    DR    ALL  0       0  
M  SED   1 IMPL_H1
M  END
>  <Name_Molregno>
21325

>  <5-HT1A>
8.99

>  <5-HT1B>
8.91

>  <5-HT1D>
9.01

>  <5-HT1E>
5.37

>  <5-HT2A>
6.38

>  <5-HT2C>
6.15

>  <5-HT5>
7.7

>  <5-HT6>
6.29

>  <5-HT7>
9.22

$$$$
21432
  Marvin  02231216192D 0   1.00000     0.00000     0

 16 18  0  0  0  0  0  0  0  0999 V2000
    1.8647   -2.8014    0.0000 N   0  0  0  0  0  0  0  0  0
    1.1503   -2.3889    0.0000 C   0  0  0  0  0  0  0  0  0
    1.1503   -1.5639    0.0000 C   0  0  0  0  0  0  0  0  0
    1.8647   -1.1514    0.0000 N   0  0  0  0  0  0  0  0  0
    2.5792   -1.5639    0.0000 C   0  0  0  0  0  0  0  0  0
    2.5792   -2.3889    0.0000 C   0  0  0  0  0  0  0  0  0
    1.8647   -0.3264    0.0000 C   0  0  0  0  0  0  0  0  0
    2.5792    0.0861    0.0000 C   0  0  0  0  0  0  0  0  0
    2.5792    0.9111    0.0000 C   0  0  0  0  0  0  0  0  0
    1.8647    1.3236    0.0000 C   0  0  0  0  0  0  0  0  0
    1.1503    0.9111    0.0000 C   0  0  0  0  0  0  0  0  0
    1.1503    0.0861    0.0000 C   0  0  0  0  0  0  0  0  0
    3.2937    1.3236    0.0000 C   0  0  0  0  0  0  0  0  0
    4.0081    0.9111    0.0000 C   0  0  0  0  0  0  0  0  0
    4.0081    0.0861    0.0000 C   0  0  0  0  0  0  0  0  0
    3.2937   -0.3264    0.0000 C   0  0  0  0  0  0  0  0  0
  1  2  1  0  0  0  0
  1  6  1  0  0  0  0
  2  3  1  0  0  0  0
  3  4  1  0  0  0  0
  4  5  1  0  0  0  0
  4  7  1  0  0  0  0
  5  6  1  0  0  0  0
  7  8  4  0  0  0  0
  7 12  4  0  0  0  0
  8  9  4  0  0  0  0
  8 16  4  0  0  0  0
  9 10  4  0  0  0  0
  9 13  4  0  0  0  0
 10 11  4  0  0  0  0
 11 12  4  0  0  0  0
 13 14  4  0  0  0  0
 14 15  4  0  0  0  0
 15 16  4  0  0  0  0
M  END
>  <Name_Molregno>
21432

>  <5-HT1A>
8.04

>  <5-HT1B>
8.02

>  <5-HT1D>
8.09

>  <5-HT1E>
6.68

>  <5-HT6>
6.96

>  <5-HT7>
7.08

$$$$
21433
  Marvin  02231216192D 0   1.00000     0.00000     0

 16 18  0  0  0  0  0  0  0  0999 V2000
   -5.1872   -0.9630    0.0000 N   0  0  0  0  0  0  0  0  0
   -5.1872   -0.1380    0.0000 C   0  0  0  0  0  0  0  0  0
   -4.4727    0.2745    0.0000 C   0  0  0  0  0  0  0  0  0
   -3.7582   -0.1380    0.0000 N   0  0  0  0  0  0  0  0  0
   -3.7582   -0.9630    0.0000 C   0  0  0  0  0  0  0  0  0
   -4.4727   -1.3755    0.0000 C   0  0  0  0  0  0  0  0  0
   -3.0437    0.2745    0.0000 C   0  0  0  0  0  0  0  0  0
   -2.3293   -0.1380    0.0000 C   0  0  0  0  0  0  0  0  0
   -1.6148    0.2745    0.0000 C   0  0  0  0  0  0  0  0  0
   -1.6148    1.0995    0.0000 C   0  0  0  0  0  0  0  0  0
   -2.3293    1.5120    0.0000 C   0  0  0  0  0  0  0  0  0
   -3.0437    1.0995    0.0000 C   0  0  0  0  0  0  0  0  0
   -0.9003    1.5120    0.0000 C   0  0  0  0  0  0  0  0  0
   -0.1859    1.0995    0.0000 C   0  0  0  0  0  0  0  0  0
   -0.1859    0.2745    0.0000 C   0  0  0  0  0  0  0  0  0
   -0.9003   -0.1380    0.0000 C   0  0  0  0  0  0  0  0  0
  1  2  1  0  0  0  0
  1  6  1  0  0  0  0
  2  3  1  0  0  0  0
  3  4  1  0  0  0  0
  4  5  1  0  0  0  0
  4  7  1  0  0  0  0
  5  6  1  0  0  0  0
  7  8  4  0  0  0  0
  7 12  4  0  0  0  0
  8  9  4  0  0  0  0
  9 10  4  0  0  0  0
  9 16  4  0  0  0  0
 10 11  4  0  0  0  0
 10 13  4  0  0  0  0
 11 12  4  0  0  0  0
 13 14  4  0  0  0  0
 14 15  4  0  0  0  0
 15 16  4  0  0  0  0
M  END
>  <Name_Molregno>
21433

>  <5-HT1A>
8.04

>  <5-HT1B>
8

>  <5-HT1D>
8.21

$$$$
24530
  Marvin  02231216192D 0   1.00000     0.00000     0

 26 28  0  0  0  0  0  0  0  0999 V2000
    3.3482    3.4830    0.0000 Br  0  0  0  0  0  0  0  0  0
    3.3482    2.6580    0.0000 C   0  0  0  0  0  0  0  0  0
    4.0627    2.2455    0.0000 C   0  0  0  0  0  0  0  0  0
    4.0627    1.4205    0.0000 C   0  0  0  0  0  0  0  0  0
    3.3482    1.0080    0.0000 C   0  0  0  0  0  0  0  0  0
    2.6338    1.4205    0.0000 C   0  0  0  0  0  0  0  0  0
    2.6338    2.2455    0.0000 C   0  0  0  0  0  0  0  0  0
    1.9193    2.6580    0.0000 C   0  0  0  0  0  0  0  0  0
    3.3482    0.1830    0.0000 C   0  0  0  0  0  0  0  0  0
    2.6338   -0.2295    0.0000 O   0  0  0  0  0  0  0  0  0
    4.0627   -0.2295    0.0000 N   0  0  0  0  0  0  0  0  0
    4.0627   -1.0545    0.0000 C   0  0  0  0  0  0  0  0  0
    4.7772   -1.4670    0.0000 C   0  0  0  0  0  0  0  0  0
    4.7772   -2.2920    0.0000 C   0  0  0  0  0  0  0  0  0
    5.4917   -2.7045    0.0000 N   0  0  0  0  0  0  0  0  0
    6.2061   -2.2920    0.0000 C   0  0  0  0  0  0  0  0  0
    6.9206   -2.7045    0.0000 C   0  0  0  0  0  0  0  0  0
    6.9206   -3.5295    0.0000 N   0  0  0  0  0  0  0  0  0
    6.2061   -3.9420    0.0000 C   0  0  0  0  0  0  0  0  0
    5.4917   -3.5295    0.0000 C   0  0  0  0  0  0  0  0  0
    7.6351   -3.9420    0.0000 C   0  0  0  0  0  0  0  0  0
    4.0627   -2.7045    0.0000 C   0  0  0  0  0  0  0  0  0
    4.0627   -3.5295    0.0000 O   0  0  0  0  0  0  0  0  0
    3.3482   -3.9420    0.0000 C   0  0  0  0  0  0  0  0  0
    3.3482   -2.2920    0.0000 C   0  0  0  0  0  0  0  0  0
    3.3482   -1.4670    0.0000 C   0  0  0  0  0  0  0  0  0
  1  2  1  0  0  0  0
  2  3  4  0  0  0  0
  2  7  4  0  0  0  0
  3  4  4  0  0  0  0
  4  5  4  0  0  0  0
  5  6  4  0  0  0  0
  5  9  1  0  0  0  0
  6  7  4  0  0  0  0
  7  8  1  0  0  0  0
  9 10  2  0  0  0  0
  9 11  1  0  0  0  0
 11 12  1  0  0  0  0
 12 13  4  0  0  0  0
 12 26  4  0  0  0  0
 13 14  4  0  0  0  0
 14 15  1  0  0  0  0
 14 22  4  0  0  0  0
 15 16  1  0  0  0  0
 15 20  1  0  0  0  0
 16 17  1  0  0  0  0
 17 18  1  0  0  0  0
 18 19  1  0  0  0  0
 18 21  1  0  0  0  0
 19 20  1  0  0  0  0
 22 23  1  0  0  0  0
 22 25  4  0  0  0  0
 23 24  1  0  0  0  0
 25 26  4  0  0  0  0
M  END
>  <Name_Molregno>
24530

>  <5-HT1B>
8.2

>  <5-HT1D>
7.9

>  <5-HT2A>
6.7

$$$$
25409
  Marvin  02231216192D 0   1.00000     0.00000     0

 25 27  0  0  0  0  0  0  0  0999 V2000
    3.1920    3.3219    0.0000 Br  0  0  0  0  0  0  0  0  0
    3.1920    2.4969    0.0000 C   0  0  0  0  0  0  0  0  0
    3.9065    2.0844    0.0000 C   0  0  0  0  0  0  0  0  0
    3.9065    1.2594    0.0000 C   0  0  0  0  0  0  0  0  0
    3.1920    0.8469    0.0000 C   0  0  0  0  0  0  0  0  0
    2.4775    1.2594    0.0000 C   0  0  0  0  0  0  0  0  0
    2.4775    2.0844    0.0000 C   0  0  0  0  0  0  0  0  0
    1.7630    2.4969    0.0000 C   0  0  0  0  0  0  0  0  0
    3.1920    0.0219    0.0000 C   0  0  0  0  0  0  0  0  0
    2.4775   -0.3906    0.0000 O   0  0  0  0  0  0  0  0  0
    3.9065   -0.3906    0.0000 N   0  0  0  0  0  0  0  0  0
    3.9065   -1.2156    0.0000 C   0  0  0  0  0  0  0  0  0
    4.6209   -1.6281    0.0000 C   0  0  0  0  0  0  0  0  0
    4.6209   -2.4531    0.0000 C   0  0  0  0  0  0  0  0  0
    5.3354   -2.8656    0.0000 N   0  0  0  0  0  0  0  0  0
    6.0499   -2.4531    0.0000 C   0  0  0  0  0  0  0  0  0
    6.7643   -2.8656    0.0000 C   0  0  0  0  0  0  0  0  0
    6.7643   -3.6906    0.0000 N   0  0  0  0  0  0  0  0  0
    6.0499   -4.1031    0.0000 C   0  0  0  0  0  0  0  0  0
    5.3354   -3.6906    0.0000 C   0  0  0  0  0  0  0  0  0
    7.4788   -4.1031    0.0000 C   0  0  0  0  0  0  0  0  0
    3.9065   -2.8656    0.0000 C   0  0  0  0  0  0  0  0  0
    3.1920   -2.4531    0.0000 C   0  0  0  0  0  0  0  0  0
    3.1920   -1.6281    0.0000 C   0  0  0  0  0  0  0  0  0
    3.9065   -3.6906    0.0000 C   0  0  0  0  0  0  0  0  0
  1  2  1  0  0  0  0
  2  3  4  0  0  0  0
  2  7  4  0  0  0  0
  3  4  4  0  0  0  0
  4  5  4  0  0  0  0
  5  6  4  0  0  0  0
  5  9  1  0  0  0  0
  6  7  4  0  0  0  0
  7  8  1  0  0  0  0
  9 10  2  0  0  0  0
  9 11  1  0  0  0  0
 11 12  1  0  0  0  0
 12 13  4  0  0  0  0
 12 24  4  0  0  0  0
 13 14  4  0  0  0  0
 14 15  1  0  0  0  0
 14 22  4  0  0  0  0
 15 16  1  0  0  0  0
 15 20  1  0  0  0  0
 16 17  1  0  0  0  0
 17 18  1  0  0  0  0
 18 19  1  0  0  0  0
 18 21  1  0  0  0  0
 19 20  1  0  0  0  0
 22 23  4  0  0  0  0
 22 25  1  0  0  0  0
 23 24  4  0  0  0  0
M  END
>  <Name_Molregno>
25409

>  <5-HT1B>
7.9

>  <5-HT1D>
7.4

>  <5-HT2A>
6.9

$$$$
26085
  Marvin  02231216192D 0   1.00000     0.00000     0

 38 42  0  0  0  0  0  0  0  0999 V2000
  -11.9980   -2.1508    0.0000 O   0  0  0  0  0  0  0  0  0
  -11.2836   -1.7383    0.0000 N   0  0  0  0  0  0  0  0  0
  -10.6705   -2.2903    0.0000 C   0  0  0  0  0  0  0  0  0
  -11.0060   -3.0440    0.0000 N   0  0  0  0  0  0  0  0  0
  -11.8265   -2.9577    0.0000 C   0  0  0  0  0  0  0  0  0
  -12.3785   -3.5708    0.0000 C   0  0  0  0  0  0  0  0  0
   -9.8635   -2.1188    0.0000 C   0  0  0  0  0  0  0  0  0
   -9.6086   -1.3342    0.0000 C   0  0  0  0  0  0  0  0  0
   -8.8016   -1.1626    0.0000 C   0  0  0  0  0  0  0  0  0
   -8.5467   -0.3780    0.0000 C   0  0  0  0  0  0  0  0  0
   -8.2496   -1.7757    0.0000 C   0  0  0  0  0  0  0  0  0
   -8.5045   -2.5603    0.0000 C   0  0  0  0  0  0  0  0  0
   -9.3115   -2.7319    0.0000 C   0  0  0  0  0  0  0  0  0
   -7.4426   -1.6042    0.0000 C   0  0  0  0  0  0  0  0  0
   -7.1877   -0.8196    0.0000 C   0  0  0  0  0  0  0  0  0
   -6.3807   -0.6480    0.0000 C   0  0  0  0  0  0  0  0  0
   -5.8286   -1.2611    0.0000 C   0  0  0  0  0  0  0  0  0
   -6.0836   -2.0458    0.0000 C   0  0  0  0  0  0  0  0  0
   -6.8906   -2.2173    0.0000 C   0  0  0  0  0  0  0  0  0
   -5.0217   -1.0896    0.0000 C   0  0  0  0  0  0  0  0  0
   -4.4696   -1.7027    0.0000 O   0  0  0  0  0  0  0  0  0
   -4.7667   -0.3050    0.0000 N   0  0  0  0  0  0  0  0  0
   -5.2517    0.3624    0.0000 C   0  0  0  0  0  0  0  0  0
   -4.7667    1.0299    0.0000 C   0  0  0  0  0  0  0  0  0
   -3.9821    0.7749    0.0000 C   0  0  0  0  0  0  0  0  0
   -3.2676    1.1874    0.0000 C   0  0  0  0  0  0  0  0  0
   -2.5532    0.7749    0.0000 C   0  0  0  0  0  0  0  0  0
   -1.8387    1.1874    0.0000 O   0  0  0  0  0  0  0  0  0
   -1.8387    2.0124    0.0000 C   0  0  0  0  0  0  0  0  0
   -2.5532   -0.0501    0.0000 C   0  0  0  0  0  0  0  0  0
   -1.8387   -0.4626    0.0000 O   0  0  0  0  0  0  0  0  0
   -1.1242   -0.0501    0.0000 C   0  0  0  0  0  0  0  0  0
   -1.1242    0.7749    0.0000 C   0  0  0  0  0  0  0  0  0
   -0.4098    1.1874    0.0000 N   0  0  0  0  0  0  0  0  0
   -0.4098    2.0124    0.0000 C   0  0  0  0  0  0  0  0  0
    0.3047    0.7749    0.0000 C   0  0  0  0  0  0  0  0  0
   -3.2676   -0.4626    0.0000 C   0  0  0  0  0  0  0  0  0
   -3.9821   -0.0501    0.0000 C   0  0  0  0  0  0  0  0  0
  1  2  4  0  0  0  0
  1  5  4  0  0  0  0
  2  3  4  0  0  0  0
  3  4  4  0  0  0  0
  3  7  1  0  0  0  0
  4  5  4  0  0  0  0
  5  6  1  0  0  0  0
  7  8  4  0  0  0  0
  7 13  4  0  0  0  0
  8  9  4  0  0  0  0
  9 10  1  0  0  0  0
  9 11  4  0  0  0  0
 11 12  4  0  0  0  0
 11 14  1  0  0  0  0
 12 13  4  0  0  0  0
 14 15  4  0  0  0  0
 14 19  4  0  0  0  0
 15 16  4  0  0  0  0
 16 17  4  0  0  0  0
 17 18  4  0  0  0  0
 17 20  1  0  0  0  0
 18 19  4  0  0  0  0
 20 21  2  0  0  0  0
 20 22  1  0  0  0  0
 22 23  1  0  0  0  0
 22 38  1  0  0  0  0
 23 24  1  0  0  0  0
 24 25  1  0  0  0  0
 25 26  4  0  0  0  0
 25 38  4  0  0  0  0
 26 27  4  0  0  0  0
 27 28  1  0  0  0  0
 27 30  4  0  0  0  0
 28 29  1  0  0  0  0
 30 31  1  0  0  0  0
 30 37  4  0  0  0  0
 31 32  1  0  0  0  0
 32 33  1  0  0  0  0
 33 34  1  0  0  0  0
 34 35  1  0  0  0  0
 34 36  1  0  0  0  0
 37 38  4  0  0  0  0
M  END
>  <Name_Molregno>
26085

>  <5-HT1B>
9.3

>  <5-HT1D>
8.3

>  <5-HT2A>
6.5

$$$$
26106
  Marvin  02231216192D 0   1.00000     0.00000     0

 36 39  0  0  0  0  0  0  0  0999 V2000
    9.1536    3.6599    0.0000 O   0  0  0  0  0  0  0  0  0
    8.8986    2.8753    0.0000 N   0  0  0  0  0  0  0  0  0
    8.0736    2.8753    0.0000 C   0  0  0  0  0  0  0  0  0
    7.8187    3.6599    0.0000 N   0  0  0  0  0  0  0  0  0
    8.4861    4.1448    0.0000 C   0  0  0  0  0  0  0  0  0
    8.4861    4.9698    0.0000 C   0  0  0  0  0  0  0  0  0
    7.5887    2.2078    0.0000 C   0  0  0  0  0  0  0  0  0
    7.9243    1.4542    0.0000 C   0  0  0  0  0  0  0  0  0
    7.4393    0.7867    0.0000 C   0  0  0  0  0  0  0  0  0
    7.7749    0.0330    0.0000 C   0  0  0  0  0  0  0  0  0
    6.6189    0.8730    0.0000 C   0  0  0  0  0  0  0  0  0
    6.2833    1.6266    0.0000 C   0  0  0  0  0  0  0  0  0
    6.7682    2.2941    0.0000 C   0  0  0  0  0  0  0  0  0
    6.1339    0.2055    0.0000 C   0  0  0  0  0  0  0  0  0
    6.4695   -0.5482    0.0000 C   0  0  0  0  0  0  0  0  0
    5.9846   -1.2156    0.0000 C   0  0  0  0  0  0  0  0  0
    5.1641   -1.1294    0.0000 C   0  0  0  0  0  0  0  0  0
    4.8285   -0.3757    0.0000 C   0  0  0  0  0  0  0  0  0
    5.3134    0.2918    0.0000 C   0  0  0  0  0  0  0  0  0
    4.6792   -1.7968    0.0000 C   0  0  0  0  0  0  0  0  0
    3.8587   -1.7106    0.0000 O   0  0  0  0  0  0  0  0  0
    5.0147   -2.5505    0.0000 N   0  0  0  0  0  0  0  0  0
    4.5298   -3.2179    0.0000 C   0  0  0  0  0  0  0  0  0
    4.8654   -3.9716    0.0000 C   0  0  0  0  0  0  0  0  0
    4.3804   -4.6390    0.0000 C   0  0  0  0  0  0  0  0  0
    4.7160   -5.3927    0.0000 N   0  0  0  0  0  0  0  0  0
    4.2311   -6.0601    0.0000 C   0  0  0  0  0  0  0  0  0
    4.5666   -6.8138    0.0000 C   0  0  0  0  0  0  0  0  0
    4.0817   -7.4813    0.0000 N   0  0  0  0  0  0  0  0  0
    4.4173   -8.2349    0.0000 C   0  0  0  0  0  0  0  0  0
    3.2612   -7.3950    0.0000 C   0  0  0  0  0  0  0  0  0
    3.5600   -4.5528    0.0000 C   0  0  0  0  0  0  0  0  0
    3.0750   -5.2202    0.0000 O   0  0  0  0  0  0  0  0  0
    2.2545   -5.1340    0.0000 C   0  0  0  0  0  0  0  0  0
    3.2244   -3.7991    0.0000 C   0  0  0  0  0  0  0  0  0
    3.7093   -3.1317    0.0000 C   0  0  0  0  0  0  0  0  0
  1  2  4  0  0  0  0
  1  5  4  0  0  0  0
  2  3  4  0  0  0  0
  3  4  4  0  0  0  0
  3  7  1  0  0  0  0
  4  5  4  0  0  0  0
  5  6  1  0  0  0  0
  7  8  4  0  0  0  0
  7 13  4  0  0  0  0
  8  9  4  0  0  0  0
  9 10  1  0  0  0  0
  9 11  4  0  0  0  0
 11 12  4  0  0  0  0
 11 14  1  0  0  0  0
 12 13  4  0  0  0  0
 14 15  4  0  0  0  0
 14 19  4  0  0  0  0
 15 16  4  0  0  0  0
 16 17  4  0  0  0  0
 17 18  4  0  0  0  0
 17 20  1  0  0  0  0
 18 19  4  0  0  0  0
 20 21  2  0  0  0  0
 20 22  1  0  0  0  0
 22 23  1  0  0  0  0
 23 24  4  0  0  0  0
 23 36  4  0  0  0  0
 24 25  4  0  0  0  0
 25 26  1  0  0  0  0
 25 32  4  0  0  0  0
 26 27  1  0  0  0  0
 27 28  1  0  0  0  0
 28 29  1  0  0  0  0
 29 30  1  0  0  0  0
 29 31  1  0  0  0  0
 32 33  1  0  0  0  0
 32 35  4  0  0  0  0
 33 34  1  0  0  0  0
 35 36  4  0  0  0  0
M  END
>  <Name_Molregno>
26106

>  <5-HT1B>
8.6

>  <5-HT1D>
7.4

>  <5-HT2A>
8.3

$$$$
26118
  Marvin  02231216192D 0   1.00000     0.00000     0

 39 45  0  0  0  0  0  0  0  0999 V2000
   -1.4437   -5.0537    0.0000 O   0  0  0  0  0  0  0  0  0
   -2.2211   -4.7775    0.0000 N   0  0  0  0  0  0  0  0  0
   -2.1987   -3.9528    0.0000 C   0  0  0  0  0  0  0  0  0
   -1.4074   -3.7193    0.0000 N   0  0  0  0  0  0  0  0  0
   -0.9408   -4.3997    0.0000 C   0  0  0  0  0  0  0  0  0
   -0.1161   -4.4221    0.0000 C   0  0  0  0  0  0  0  0  0
   -2.8527   -3.4499    0.0000 C   0  0  0  0  0  0  0  0  0
   -3.6152   -3.7648    0.0000 C   0  0  0  0  0  0  0  0  0
   -4.2692   -3.2619    0.0000 C   0  0  0  0  0  0  0  0  0
   -5.0317   -3.5769    0.0000 C   0  0  0  0  0  0  0  0  0
   -4.1607   -2.4441    0.0000 C   0  0  0  0  0  0  0  0  0
   -3.3981   -2.1292    0.0000 C   0  0  0  0  0  0  0  0  0
   -2.7441   -2.6321    0.0000 C   0  0  0  0  0  0  0  0  0
   -4.8147   -1.9412    0.0000 C   0  0  0  0  0  0  0  0  0
   -5.5772   -2.2561    0.0000 C   0  0  0  0  0  0  0  0  0
   -6.2312   -1.7532    0.0000 C   0  0  0  0  0  0  0  0  0
   -6.1227   -0.9354    0.0000 C   0  0  0  0  0  0  0  0  0
   -5.3601   -0.6205    0.0000 C   0  0  0  0  0  0  0  0  0
   -4.7061   -1.1234    0.0000 C   0  0  0  0  0  0  0  0  0
   -6.7767   -0.4325    0.0000 C   0  0  0  0  0  0  0  0  0
   -7.5392   -0.7474    0.0000 O   0  0  0  0  0  0  0  0  0
   -6.6681    0.3853    0.0000 N   0  0  0  0  0  0  0  0  0
   -5.9427    0.7783    0.0000 C   0  0  0  0  0  0  0  0  0
   -6.0922    1.5896    0.0000 C   0  0  0  0  0  0  0  0  0
   -6.9101    1.6981    0.0000 C   0  0  0  0  0  0  0  0  0
   -7.2660    0.9539    0.0000 C   0  0  0  0  0  0  0  0  0
   -8.0885    0.8900    0.0000 C   0  0  0  0  0  0  0  0  0
   -8.5551    1.5704    0.0000 C   0  0  0  0  0  0  0  0  0
   -8.1992    2.3146    0.0000 C   0  0  0  0  0  0  0  0  0
   -8.7970    2.8831    0.0000 O   0  0  0  0  0  0  0  0  0
   -9.5224    2.4902    0.0000 C   0  0  0  0  0  0  0  0  0
   -9.3729    1.6789    0.0000 C   0  0  0  0  0  0  0  0  0
   -9.1394    0.8876    0.0000 C   0  0  0  0  0  0  0  0  0
   -9.7079    0.2898    0.0000 C   0  0  0  0  0  0  0  0  0
  -10.5099    0.4832    0.0000 N   0  0  0  0  0  0  0  0  0
  -10.7434    1.2745    0.0000 C   0  0  0  0  0  0  0  0  0
  -10.1749    1.8723    0.0000 C   0  0  0  0  0  0  0  0  0
  -11.0785   -0.1147    0.0000 C   0  0  0  0  0  0  0  0  0
   -7.3766    2.3785    0.0000 C   0  0  0  0  0  0  0  0  0
  1  2  4  0  0  0  0
  1  5  4  0  0  0  0
  2  3  4  0  0  0  0
  3  4  4  0  0  0  0
  3  7  1  0  0  0  0
  4  5  4  0  0  0  0
  5  6  1  0  0  0  0
  7  8  4  0  0  0  0
  7 13  4  0  0  0  0
  8  9  4  0  0  0  0
  9 10  1  0  0  0  0
  9 11  4  0  0  0  0
 11 12  4  0  0  0  0
 11 14  1  0  0  0  0
 12 13  4  0  0  0  0
 14 15  4  0  0  0  0
 14 19  4  0  0  0  0
 15 16  4  0  0  0  0
 16 17  4  0  0  0  0
 17 18  4  0  0  0  0
 17 20  1  0  0  0  0
 18 19  4  0  0  0  0
 20 21  2  0  0  0  0
 20 22  1  0  0  0  0
 22 23  1  0  0  0  0
 22 26  1  0  0  0  0
 23 24  1  0  0  0  0
 24 25  1  0  0  0  0
 25 26  4  0  0  0  0
 25 39  4  0  0  0  0
 26 27  4  0  0  0  0
 27 28  4  0  0  0  0
 28 29  4  0  0  0  0
 28 32  1  0  0  0  0
 29 30  1  0  0  0  0
 29 39  4  0  0  0  0
 30 31  1  0  0  0  0
 31 32  1  0  0  0  0
 32 33  1  0  0  0  0
 32 37  1  0  0  0  0
 33 34  1  0  0  0  0
 34 35  1  0  0  0  0
 35 36  1  0  0  0  0
 35 38  1  0  0  0  0
 36 37  1  0  0  0  0
M  END
>  <Name_Molregno>
26118

>  <5-HT1A>
6

>  <5-HT1B>
8.1

>  <5-HT1D>
6.36

>  <5-HT1E>
5

>  <5-HT2A>
5.67

>  <5-HT2C>
5.95

>  <5-HT6>
5.67

>  <5-HT7>
6

$$$$
26144
  Marvin  02231216192D 0   1.00000     0.00000     0

 24 26  0  0  0  0  0  0  0  0999 V2000
    3.0131    5.4000    0.0000 Br  0  0  0  0  0  0  0  0  0
    3.0131    4.5750    0.0000 C   0  0  0  0  0  0  0  0  0
    3.7275    4.1625    0.0000 C   0  0  0  0  0  0  0  0  0
    3.7275    3.3375    0.0000 C   0  0  0  0  0  0  0  0  0
    3.0131    2.9250    0.0000 C   0  0  0  0  0  0  0  0  0
    2.2986    3.3375    0.0000 C   0  0  0  0  0  0  0  0  0
    2.2986    4.1625    0.0000 C   0  0  0  0  0  0  0  0  0
    1.5841    4.5750    0.0000 C   0  0  0  0  0  0  0  0  0
    3.0131    2.1000    0.0000 C   0  0  0  0  0  0  0  0  0
    2.2986    1.6875    0.0000 O   0  0  0  0  0  0  0  0  0
    3.7275    1.6875    0.0000 N   0  0  0  0  0  0  0  0  0
    3.7275    0.8625    0.0000 C   0  0  0  0  0  0  0  0  0
    4.4420    0.4500    0.0000 C   0  0  0  0  0  0  0  0  0
    4.4420   -0.3750    0.0000 C   0  0  0  0  0  0  0  0  0
    5.1565   -0.7875    0.0000 N   0  0  0  0  0  0  0  0  0
    5.8709   -0.3750    0.0000 C   0  0  0  0  0  0  0  0  0
    6.5854   -0.7875    0.0000 C   0  0  0  0  0  0  0  0  0
    6.5854   -1.6125    0.0000 N   0  0  0  0  0  0  0  0  0
    5.8709   -2.0250    0.0000 C   0  0  0  0  0  0  0  0  0
    5.1565   -1.6125    0.0000 C   0  0  0  0  0  0  0  0  0
    7.2999   -2.0250    0.0000 C   0  0  0  0  0  0  0  0  0
    3.7275   -0.7875    0.0000 C   0  0  0  0  0  0  0  0  0
    3.0131   -0.3750    0.0000 C   0  0  0  0  0  0  0  0  0
    3.0131    0.4500    0.0000 C   0  0  0  0  0  0  0  0  0
  1  2  1  0  0  0  0
  2  3  4  0  0  0  0
  2  7  4  0  0  0  0
  3  4  4  0  0  0  0
  4  5  4  0  0  0  0
  5  6  4  0  0  0  0
  5  9  1  0  0  0  0
  6  7  4  0  0  0  0
  7  8  1  0  0  0  0
  9 10  2  0  0  0  0
  9 11  1  0  0  0  0
 11 12  1  0  0  0  0
 12 13  4  0  0  0  0
 12 24  4  0  0  0  0
 13 14  4  0  0  0  0
 14 15  1  0  0  0  0
 14 22  4  0  0  0  0
 15 16  1  0  0  0  0
 15 20  1  0  0  0  0
 16 17  1  0  0  0  0
 17 18  1  0  0  0  0
 18 19  1  0  0  0  0
 18 21  1  0  0  0  0
 19 20  1  0  0  0  0
 22 23  4  0  0  0  0
 23 24  4  0  0  0  0
M  END
>  <Name_Molregno>
26144

>  <5-HT1B>
6.9

>  <5-HT1D>
6.7

>  <5-HT2A>
6.5

$$$$
26180
  Marvin  02231216192D 0   1.00000     0.00000     0

 36 39  0  0  0  0  0  0  0  0999 V2000
    9.1536    3.6599    0.0000 O   0  0  0  0  0  0  0  0  0
    8.8986    2.8753    0.0000 N   0  0  0  0  0  0  0  0  0
    8.0736    2.8753    0.0000 C   0  0  0  0  0  0  0  0  0
    7.8187    3.6599    0.0000 N   0  0  0  0  0  0  0  0  0
    8.4861    4.1448    0.0000 C   0  0  0  0  0  0  0  0  0
    8.4861    4.9698    0.0000 C   0  0  0  0  0  0  0  0  0
    7.5887    2.2078    0.0000 C   0  0  0  0  0  0  0  0  0
    7.9243    1.4542    0.0000 C   0  0  0  0  0  0  0  0  0
    7.4393    0.7867    0.0000 C   0  0  0  0  0  0  0  0  0
    7.7749    0.0330    0.0000 C   0  0  0  0  0  0  0  0  0
    6.6189    0.8730    0.0000 C   0  0  0  0  0  0  0  0  0
    6.2833    1.6266    0.0000 C   0  0  0  0  0  0  0  0  0
    6.7682    2.2941    0.0000 C   0  0  0  0  0  0  0  0  0
    6.1339    0.2055    0.0000 C   0  0  0  0  0  0  0  0  0
    6.4695   -0.5482    0.0000 C   0  0  0  0  0  0  0  0  0
    5.9846   -1.2156    0.0000 C   0  0  0  0  0  0  0  0  0
    5.1641   -1.1294    0.0000 C   0  0  0  0  0  0  0  0  0
    4.8285   -0.3757    0.0000 C   0  0  0  0  0  0  0  0  0
    5.3134    0.2918    0.0000 C   0  0  0  0  0  0  0  0  0
    4.6792   -1.7968    0.0000 C   0  0  0  0  0  0  0  0  0
    3.8587   -1.7106    0.0000 O   0  0  0  0  0  0  0  0  0
    5.0147   -2.5505    0.0000 N   0  0  0  0  0  0  0  0  0
    4.5298   -3.2179    0.0000 C   0  0  0  0  0  0  0  0  0
    4.8654   -3.9716    0.0000 C   0  0  0  0  0  0  0  0  0
    4.3804   -4.6390    0.0000 C   0  0  0  0  0  0  0  0  0
    4.7160   -5.3927    0.0000 O   0  0  0  0  0  0  0  0  0
    4.2311   -6.0601    0.0000 C   0  0  0  0  0  0  0  0  0
    4.5666   -6.8138    0.0000 C   0  0  0  0  0  0  0  0  0
    4.0817   -7.4813    0.0000 N   0  0  0  0  0  0  0  0  0
    4.4173   -8.2349    0.0000 C   0  0  0  0  0  0  0  0  0
    3.2612   -7.3950    0.0000 C   0  0  0  0  0  0  0  0  0
    3.5600   -4.5528    0.0000 C   0  0  0  0  0  0  0  0  0
    3.0750   -5.2202    0.0000 O   0  0  0  0  0  0  0  0  0
    2.2545   -5.1340    0.0000 C   0  0  0  0  0  0  0  0  0
    3.2244   -3.7991    0.0000 C   0  0  0  0  0  0  0  0  0
    3.7093   -3.1317    0.0000 C   0  0  0  0  0  0  0  0  0
  1  2  4  0  0  0  0
  1  5  4  0  0  0  0
  2  3  4  0  0  0  0
  3  4  4  0  0  0  0
  3  7  1  0  0  0  0
  4  5  4  0  0  0  0
  5  6  1  0  0  0  0
  7  8  4  0  0  0  0
  7 13  4  0  0  0  0
  8  9  4  0  0  0  0
  9 10  1  0  0  0  0
  9 11  4  0  0  0  0
 11 12  4  0  0  0  0
 11 14  1  0  0  0  0
 12 13  4  0  0  0  0
 14 15  4  0  0  0  0
 14 19  4  0  0  0  0
 15 16  4  0  0  0  0
 16 17  4  0  0  0  0
 17 18  4  0  0  0  0
 17 20  1  0  0  0  0
 18 19  4  0  0  0  0
 20 21  2  0  0  0  0
 20 22  1  0  0  0  0
 22 23  1  0  0  0  0
 23 24  4  0  0  0  0
 23 36  4  0  0  0  0
 24 25  4  0  0  0  0
 25 26  1  0  0  0  0
 25 32  4  0  0  0  0
 26 27  1  0  0  0  0
 27 28  1  0  0  0  0
 28 29  1  0  0  0  0
 29 30  1  0  0  0  0
 29 31  1  0  0  0  0
 32 33  1  0  0  0  0
 32 35  4  0  0  0  0
 33 34  1  0  0  0  0
 35 36  4  0  0  0  0
M  END
>  <Name_Molregno>
26180

>  <5-HT1A>
6.3

>  <5-HT1B>
8.7

>  <5-HT1D>
7.67

>  <5-HT1E>
6

>  <5-HT2A>
7.3

>  <5-HT2C>
6.8

>  <5-HT6>
5.5

>  <5-HT7>
5

$$$$
26262
  Marvin  02231216192D 0   1.00000     0.00000     0

 36 39  0  0  0  0  0  0  0  0999 V2000
    9.1536    3.6599    0.0000 O   0  0  0  0  0  0  0  0  0
    8.8986    2.8753    0.0000 N   0  0  0  0  0  0  0  0  0
    8.0736    2.8753    0.0000 C   0  0  0  0  0  0  0  0  0
    7.8187    3.6599    0.0000 N   0  0  0  0  0  0  0  0  0
    8.4861    4.1448    0.0000 C   0  0  0  0  0  0  0  0  0
    8.4861    4.9698    0.0000 C   0  0  0  0  0  0  0  0  0
    7.5887    2.2078    0.0000 C   0  0  0  0  0  0  0  0  0
    7.9243    1.4542    0.0000 C   0  0  0  0  0  0  0  0  0
    7.4393    0.7867    0.0000 C   0  0  0  0  0  0  0  0  0
    7.7749    0.0330    0.0000 C   0  0  0  0  0  0  0  0  0
    6.6189    0.8730    0.0000 C   0  0  0  0  0  0  0  0  0
    6.2833    1.6266    0.0000 C   0  0  0  0  0  0  0  0  0
    6.7682    2.2941    0.0000 C   0  0  0  0  0  0  0  0  0
    6.1339    0.2055    0.0000 C   0  0  0  0  0  0  0  0  0
    6.4695   -0.5482    0.0000 C   0  0  0  0  0  0  0  0  0
    5.9846   -1.2156    0.0000 C   0  0  0  0  0  0  0  0  0
    5.1641   -1.1294    0.0000 C   0  0  0  0  0  0  0  0  0
    4.8285   -0.3757    0.0000 C   0  0  0  0  0  0  0  0  0
    5.3134    0.2918    0.0000 C   0  0  0  0  0  0  0  0  0
    4.6792   -1.7968    0.0000 C   0  0  0  0  0  0  0  0  0
    3.8587   -1.7106    0.0000 O   0  0  0  0  0  0  0  0  0
    5.0147   -2.5505    0.0000 N   0  0  0  0  0  0  0  0  0
    4.5298   -3.2179    0.0000 C   0  0  0  0  0  0  0  0  0
    4.8654   -3.9716    0.0000 C   0  0  0  0  0  0  0  0  0
    4.3804   -4.6390    0.0000 C   0  0  0  0  0  0  0  0  0
    4.7160   -5.3927    0.0000 C   0  0  0  0  0  0  0  0  0
    4.2311   -6.0601    0.0000 C   0  0  0  0  0  0  0  0  0
    4.5666   -6.8138    0.0000 C   0  0  0  0  0  0  0  0  0
    4.0817   -7.4813    0.0000 N   0  0  0  0  0  0  0  0  0
    4.4173   -8.2349    0.0000 C   0  0  0  0  0  0  0  0  0
    3.2612   -7.3950    0.0000 C   0  0  0  0  0  0  0  0  0
    3.5600   -4.5528    0.0000 C   0  0  0  0  0  0  0  0  0
    3.0750   -5.2202    0.0000 O   0  0  0  0  0  0  0  0  0
    2.2545   -5.1340    0.0000 C   0  0  0  0  0  0  0  0  0
    3.2244   -3.7991    0.0000 C   0  0  0  0  0  0  0  0  0
    3.7093   -3.1317    0.0000 C   0  0  0  0  0  0  0  0  0
  1  2  4  0  0  0  0
  1  5  4  0  0  0  0
  2  3  4  0  0  0  0
  3  4  4  0  0  0  0
  3  7  1  0  0  0  0
  4  5  4  0  0  0  0
  5  6  1  0  0  0  0
  7  8  4  0  0  0  0
  7 13  4  0  0  0  0
  8  9  4  0  0  0  0
  9 10  1  0  0  0  0
  9 11  4  0  0  0  0
 11 12  4  0  0  0  0
 11 14  1  0  0  0  0
 12 13  4  0  0  0  0
 14 15  4  0  0  0  0
 14 19  4  0  0  0  0
 15 16  4  0  0  0  0
 16 17  4  0  0  0  0
 17 18  4  0  0  0  0
 17 20  1  0  0  0  0
 18 19  4  0  0  0  0
 20 21  2  0  0  0  0
 20 22  1  0  0  0  0
 22 23  1  0  0  0  0
 23 24  4  0  0  0  0
 23 36  4  0  0  0  0
 24 25  4  0  0  0  0
 25 26  1  0  0  0  0
 25 32  4  0  0  0  0
 26 27  1  0  0  0  0
 27 28  1  0  0  0  0
 28 29  1  0  0  0  0
 29 30  1  0  0  0  0
 29 31  1  0  0  0  0
 32 33  1  0  0  0  0
 32 35  4  0  0  0  0
 33 34  1  0  0  0  0
 35 36  4  0  0  0  0
M  END
>  <Name_Molregno>
26262

>  <5-HT1B>
8.5

>  <5-HT1D>
7

>  <5-HT2A>
8.2

$$$$
26293
  Marvin  02231216192D 0   1.00000     0.00000     0

 37 41  0  0  0  0  0  0  0  0999 V2000
   11.3076    3.4626    0.0000 O   0  0  0  0  0  0  0  0  0
   10.7555    2.8495    0.0000 N   0  0  0  0  0  0  0  0  0
   10.0019    3.1851    0.0000 C   0  0  0  0  0  0  0  0  0
   10.0881    4.0056    0.0000 N   0  0  0  0  0  0  0  0  0
   10.8951    4.1771    0.0000 C   0  0  0  0  0  0  0  0  0
   11.2306    4.9308    0.0000 C   0  0  0  0  0  0  0  0  0
    9.2874    2.7726    0.0000 C   0  0  0  0  0  0  0  0  0
    9.2874    1.9476    0.0000 C   0  0  0  0  0  0  0  0  0
    8.5729    1.5351    0.0000 C   0  0  0  0  0  0  0  0  0
    8.5729    0.7101    0.0000 C   0  0  0  0  0  0  0  0  0
    7.8585    1.9476    0.0000 C   0  0  0  0  0  0  0  0  0
    7.8585    2.7726    0.0000 C   0  0  0  0  0  0  0  0  0
    8.5729    3.1851    0.0000 C   0  0  0  0  0  0  0  0  0
    7.1440    1.5351    0.0000 C   0  0  0  0  0  0  0  0  0
    7.1440    0.7101    0.0000 C   0  0  0  0  0  0  0  0  0
    6.4295    0.2976    0.0000 C   0  0  0  0  0  0  0  0  0
    5.7150    0.7101    0.0000 C   0  0  0  0  0  0  0  0  0
    5.7150    1.5351    0.0000 C   0  0  0  0  0  0  0  0  0
    6.4295    1.9476    0.0000 C   0  0  0  0  0  0  0  0  0
    5.0006    0.2976    0.0000 C   0  0  0  0  0  0  0  0  0
    4.2861    0.7101    0.0000 O   0  0  0  0  0  0  0  0  0
    5.0006   -0.5274    0.0000 N   0  0  0  0  0  0  0  0  0
    4.2861   -0.9399    0.0000 C   0  0  0  0  0  0  0  0  0
    4.2861   -1.7649    0.0000 C   0  0  0  0  0  0  0  0  0
    3.5716   -2.1774    0.0000 C   0  0  0  0  0  0  0  0  0
    3.5716   -3.0024    0.0000 O   0  0  0  0  0  0  0  0  0
    2.8572   -3.4149    0.0000 C   0  0  0  0  0  0  0  0  0
    2.8572   -4.2399    0.0000 C   0  0  0  0  0  0  0  0  0
    2.1427   -4.6524    0.0000 N   0  0  0  0  0  0  0  0  0
    2.1427   -5.4774    0.0000 C   0  0  0  0  0  0  0  0  0
    1.4282   -4.2399    0.0000 C   0  0  0  0  0  0  0  0  0
    2.8572   -1.7649    0.0000 C   0  0  0  0  0  0  0  0  0
    2.0725   -2.0199    0.0000 O   0  0  0  0  0  0  0  0  0
    1.5876   -1.3524    0.0000 C   0  0  0  0  0  0  0  0  0
    2.0725   -0.6850    0.0000 C   0  0  0  0  0  0  0  0  0
    2.8572   -0.9399    0.0000 C   0  0  0  0  0  0  0  0  0
    3.5716   -0.5274    0.0000 C   0  0  0  0  0  0  0  0  0
  1  2  4  0  0  0  0
  1  5  4  0  0  0  0
  2  3  4  0  0  0  0
  3  4  4  0  0  0  0
  3  7  1  0  0  0  0
  4  5  4  0  0  0  0
  5  6  1  0  0  0  0
  7  8  4  0  0  0  0
  7 13  4  0  0  0  0
  8  9  4  0  0  0  0
  9 10  1  0  0  0  0
  9 11  4  0  0  0  0
 11 12  4  0  0  0  0
 11 14  1  0  0  0  0
 12 13  4  0  0  0  0
 14 15  4  0  0  0  0
 14 19  4  0  0  0  0
 15 16  4  0  0  0  0
 16 17  4  0  0  0  0
 17 18  4  0  0  0  0
 17 20  1  0  0  0  0
 18 19  4  0  0  0  0
 20 21  2  0  0  0  0
 20 22  1  0  0  0  0
 22 23  1  0  0  0  0
 23 24  4  0  0  0  0
 23 37  4  0  0  0  0
 24 25  4  0  0  0  0
 25 26  1  0  0  0  0
 25 32  4  0  0  0  0
 26 27  1  0  0  0  0
 27 28  1  0  0  0  0
 28 29  1  0  0  0  0
 29 30  1  0  0  0  0
 29 31  1  0  0  0  0
 32 33  1  0  0  0  0
 32 36  4  0  0  0  0
 33 34  1  0  0  0  0
 34 35  1  0  0  0  0
 35 36  1  0  0  0  0
 36 37  4  0  0  0  0
M  END
>  <Name_Molregno>
26293

>  <5-HT1B>
8.8

>  <5-HT1D>
7.6

>  <5-HT2A>
7.3

$$$$
26294
  Marvin  02231216192D 0   1.00000     0.00000     0

 37 41  0  0  0  0  0  0  0  0999 V2000
    0.5069    1.0922    0.0000 O   0  0  0  0  0  0  0  0  0
    1.3139    0.9207    0.0000 N   0  0  0  0  0  0  0  0  0
    1.4001    0.1002    0.0000 C   0  0  0  0  0  0  0  0  0
    0.6464   -0.2354    0.0000 N   0  0  0  0  0  0  0  0  0
    0.0944    0.3777    0.0000 C   0  0  0  0  0  0  0  0  0
   -0.7261    0.2915    0.0000 C   0  0  0  0  0  0  0  0  0
    2.1146   -0.3123    0.0000 C   0  0  0  0  0  0  0  0  0
    2.8291    0.1002    0.0000 C   0  0  0  0  0  0  0  0  0
    3.5435   -0.3123    0.0000 C   0  0  0  0  0  0  0  0  0
    4.2580    0.1002    0.0000 C   0  0  0  0  0  0  0  0  0
    3.5435   -1.1373    0.0000 C   0  0  0  0  0  0  0  0  0
    2.8291   -1.5498    0.0000 C   0  0  0  0  0  0  0  0  0
    2.1146   -1.1373    0.0000 C   0  0  0  0  0  0  0  0  0
    4.2580   -1.5498    0.0000 C   0  0  0  0  0  0  0  0  0
    4.9725   -1.1373    0.0000 C   0  0  0  0  0  0  0  0  0
    5.6869   -1.5498    0.0000 C   0  0  0  0  0  0  0  0  0
    5.6869   -2.3748    0.0000 C   0  0  0  0  0  0  0  0  0
    4.9725   -2.7873    0.0000 C   0  0  0  0  0  0  0  0  0
    4.2580   -2.3748    0.0000 C   0  0  0  0  0  0  0  0  0
    6.4014   -2.7873    0.0000 C   0  0  0  0  0  0  0  0  0
    6.4014   -3.6123    0.0000 O   0  0  0  0  0  0  0  0  0
    7.1159   -2.3748    0.0000 N   0  0  0  0  0  0  0  0  0
    7.8304   -2.7873    0.0000 C   0  0  0  0  0  0  0  0  0
    8.5448   -2.3748    0.0000 C   0  0  0  0  0  0  0  0  0
    9.2593   -2.7873    0.0000 C   0  0  0  0  0  0  0  0  0
    9.9738   -2.3748    0.0000 N   0  0  0  0  0  0  0  0  0
   10.6882   -2.7873    0.0000 C   0  0  0  0  0  0  0  0  0
   10.6882   -3.6123    0.0000 C   0  0  0  0  0  0  0  0  0
    9.9738   -4.0248    0.0000 O   0  0  0  0  0  0  0  0  0
    9.2593   -3.6123    0.0000 C   0  0  0  0  0  0  0  0  0
    8.5448   -4.0248    0.0000 C   0  0  0  0  0  0  0  0  0
    7.8304   -3.6123    0.0000 C   0  0  0  0  0  0  0  0  0
    9.9738   -1.5498    0.0000 C   0  0  0  0  0  0  0  0  0
    9.2593   -1.1373    0.0000 C   0  0  0  0  0  0  0  0  0
    9.2593   -0.3123    0.0000 N   0  0  0  0  0  0  0  0  0
    9.9738    0.1002    0.0000 C   0  0  0  0  0  0  0  0  0
    8.5448    0.1002    0.0000 C   0  0  0  0  0  0  0  0  0
  1  2  4  0  0  0  0
  1  5  4  0  0  0  0
  2  3  4  0  0  0  0
  3  4  4  0  0  0  0
  3  7  1  0  0  0  0
  4  5  4  0  0  0  0
  5  6  1  0  0  0  0
  7  8  4  0  0  0  0
  7 13  4  0  0  0  0
  8  9  4  0  0  0  0
  9 10  1  0  0  0  0
  9 11  4  0  0  0  0
 11 12  4  0  0  0  0
 11 14  1  0  0  0  0
 12 13  4  0  0  0  0
 14 15  4  0  0  0  0
 14 19  4  0  0  0  0
 15 16  4  0  0  0  0
 16 17  4  0  0  0  0
 17 18  4  0  0  0  0
 17 20  1  0  0  0  0
 18 19  4  0  0  0  0
 20 21  2  0  0  0  0
 20 22  1  0  0  0  0
 22 23  1  0  0  0  0
 23 24  4  0  0  0  0
 23 32  4  0  0  0  0
 24 25  4  0  0  0  0
 25 26  1  0  0  0  0
 25 30  4  0  0  0  0
 26 27  1  0  0  0  0
 26 33  1  0  0  0  0
 27 28  1  0  0  0  0
 28 29  1  0  0  0  0
 29 30  1  0  0  0  0
 30 31  4  0  0  0  0
 31 32  4  0  0  0  0
 33 34  1  0  0  0  0
 34 35  1  0  0  0  0
 35 36  1  0  0  0  0
 35 37  1  0  0  0  0
M  END
>  <Name_Molregno>
26294

>  <5-HT1B>
8.6

>  <5-HT1D>
7.7

>  <5-HT2A>
8.4

$$$$
26653
  Marvin  02231216192D 0   1.00000     0.00000     0

 19 20  0  0  0  0  0  0  0  0999 V2000
   -1.2820   -3.8402    0.0000 S   0  0  0  0  0  0  0  0  0
   -1.6945   -3.1258    0.0000 N   0  0  0  0  0  0  0  0  0
   -1.1424   -2.5127    0.0000 C   0  0  0  0  0  0  0  0  0
   -1.3140   -1.7057    0.0000 C   0  0  0  0  0  0  0  0  0
   -2.0986   -1.4508    0.0000 C   0  0  0  0  0  0  0  0  0
   -2.2701   -0.6438    0.0000 N   0  0  0  0  0  0  0  0  0
   -1.6570   -0.0918    0.0000 C   0  0  0  0  0  0  0  0  0
   -0.8724   -0.3467    0.0000 C   0  0  0  0  0  0  0  0  0
   -0.7009   -1.1537    0.0000 C   0  0  0  0  0  0  0  0  0
   -3.0547   -0.3889    0.0000 C   0  0  0  0  0  0  0  0  0
   -0.3888   -2.8482    0.0000 C   0  0  0  0  0  0  0  0  0
    0.3257   -2.4357    0.0000 O   0  0  0  0  0  0  0  0  0
    1.0402   -2.8482    0.0000 C   0  0  0  0  0  0  0  0  0
    1.7547   -2.4357    0.0000 C   0  0  0  0  0  0  0  0  0
    2.4691   -2.8482    0.0000 C   0  0  0  0  0  0  0  0  0
    3.1836   -2.4357    0.0000 C   0  0  0  0  0  0  0  0  0
    3.8981   -2.8482    0.0000 C   0  0  0  0  0  0  0  0  0
    4.6125   -2.4357    0.0000 C   0  0  0  0  0  0  0  0  0
   -0.4750   -3.6687    0.0000 N   0  0  0  0  0  0  0  0  0
  1  2  4  0  0  0  0
  1 19  4  0  0  0  0
  2  3  4  0  0  0  0
  3  4  1  0  0  0  0
  3 11  4  0  0  0  0
  4  5  1  0  0  0  0
  4  9  2  0  0  0  0
  5  6  1  0  0  0  0
  6  7  1  0  0  0  0
  6 10  1  0  0  0  0
  7  8  1  0  0  0  0
  8  9  1  0  0  0  0
 11 12  1  0  0  0  0
 11 19  4  0  0  0  0
 12 13  1  0  0  0  0
 13 14  1  0  0  0  0
 14 15  1  0  0  0  0
 15 16  1  0  0  0  0
 16 17  1  0  0  0  0
 17 18  1  0  0  0  0
M  END
>  <Name_Molregno>
26653

>  <5-HT1A>
7.2

>  <5-HT1B>
7.3

>  <5-HT1D>
8.2

>  <5-HT1E>
5.6

>  <5-HT2A>
6.9

>  <5-HT2C>
7.4

>  <5-HT6>
5.9

>  <5-HT7>
6.9

>  <Alpha-1B>
5.8

>  <DOPAMINE D2>
6

>  <DOPAMINE D3>
6.4

>  <Muscarinic acetylcholine receptor M1>
6.52

>  <Muscarinic acetylcholine receptor M2>
7.1

>  <Muscarinic acetylcholine receptor M3>
7.25

>  <Muscarinic acetylcholine receptor M4>
7.55

>  <Muscarinic acetylcholine receptor M5>
6.32

$$$$
35324
  Marvin  02231216192D 0   1.00000     0.00000     0

 18 19  0  0  1  0  0  0  0  0999 V2000
    0.9450   -1.8585    0.0000 O   0  0  0  0  0  0  0  0  0
    0.5325   -1.1440    0.0000 C   0  0  0  0  0  0  0  0  0
   -0.2925   -1.1440    0.0000 C   0  0  0  0  0  0  0  0  0
   -0.7050   -1.8585    0.0000 C   0  0  0  0  0  0  0  0  0
   -1.5300   -1.8585    0.0000 C   0  0  0  0  0  0  0  0  0
   -1.9425   -2.5729    0.0000 N   0  0  0  0  0  0  0  0  0
   -2.7675   -2.5729    0.0000 C   0  0  0  0  0  0  0  0  0
   -3.1800   -3.2874    0.0000 C   0  0  0  0  0  0  0  0  0
   -4.0050   -3.2874    0.0000 C   0  0  0  0  0  0  0  0  0
   -1.5300   -3.2874    0.0000 C   0  0  0  0  0  0  0  0  0
   -0.7050   -3.2874    0.0000 C   0  0  0  0  0  0  0  0  0
   -0.2925   -4.0019    0.0000 C   0  0  0  0  0  0  0  0  0
   -1.9425   -1.1440    0.0000 C   0  0  0  0  0  0  0  0  0
   -1.5300   -0.4295    0.0000 C   0  0  0  0  0  0  0  0  0
   -0.7050   -0.4295    0.0000 C   0  0  0  0  0  0  0  0  0
   -0.2925    0.2849    0.0000 C   0  0  0  0  0  0  0  0  0
    0.5325    0.2849    0.0000 C   0  0  0  0  0  0  0  0  0
    0.9450   -0.4295    0.0000 C   0  0  0  0  0  0  0  0  0
  1  2  1  0  0  0  0
  2  3  4  0  0  0  0
  2 18  4  0  0  0  0
  3  4  1  0  0  0  0
  3 15  4  0  0  0  0
  4  5  1  0  0  0  0
  5  6  1  0  0  0  0
  5 13  1  0  0  0  0
  6  7  1  0  0  0  0
  6 10  1  0  0  0  0
  7  8  1  0  0  0  0
  8  9  1  0  0  0  0
 10 11  1  0  0  0  0
 11 12  1  0  0  0  0
 13 14  1  0  0  0  0
 14 15  1  0  0  0  0
 15 16  4  0  0  0  0
 16 17  4  0  0  0  0
 17 18  4  0  0  0  0
M  END
>  <Name_Molregno>
35324

>  <5-HT1A>
8.41

>  <5-HT1B>
6.44

>  <5-HT1D>
6.48

>  <5-HT1E>
5.78

>  <5-HT2A>
5.34

>  <5-HT2C>
5.46

>  <5-HT5>
5.6

>  <5-HT6>
5

>  <5-HT7>
6.52

>  <Alpha-1A>
6.21

>  <Alpha-1B>
6

>  <DOPAMINE D1>
5

>  <DOPAMINE D2>
6.1

>  <DOPAMINE D3>
6.35

>  <DOPAMINE D4>
5.38

$$$$
40060
  Marvin  02231216192D 0   1.00000     0.00000     0

 23 26  0  0  0  0  0  0  0  0999 V2000
   -5.1381   -0.8657    0.0000 F   0  0  0  0  0  0  0  0  0
   -5.3930   -0.0811    0.0000 C   0  0  0  0  0  0  0  0  0
   -6.2000    0.0904    0.0000 C   0  0  0  0  0  0  0  0  0
   -6.4549    0.8751    0.0000 C   0  0  0  0  0  0  0  0  0
   -5.9029    1.4882    0.0000 C   0  0  0  0  0  0  0  0  0
   -5.0959    1.3166    0.0000 C   0  0  0  0  0  0  0  0  0
   -4.8410    0.5320    0.0000 C   0  0  0  0  0  0  0  0  0
   -4.0340    0.3605    0.0000 N   0  0  0  0  0  0  0  0  0
   -3.4820    0.9736    0.0000 C   0  0  0  0  0  0  0  0  0
   -2.6750    0.8021    0.0000 C   0  0  0  0  0  0  0  0  0
   -2.4201    0.0174    0.0000 N   0  0  0  0  0  0  0  0  0
   -2.9721   -0.5957    0.0000 C   0  0  0  0  0  0  0  0  0
   -3.7791   -0.4241    0.0000 C   0  0  0  0  0  0  0  0  0
   -1.6131   -0.1541    0.0000 C   0  0  0  0  0  0  0  0  0
   -1.3581   -0.9387    0.0000 C   0  0  0  0  0  0  0  0  0
   -0.5735   -1.1937    0.0000 C   0  0  0  0  0  0  0  0  0
    0.1409   -0.7812    0.0000 C   0  0  0  0  0  0  0  0  0
    0.8554   -1.1937    0.0000 C   0  0  0  0  0  0  0  0  0
    0.8554   -2.0187    0.0000 C   0  0  0  0  0  0  0  0  0
    0.1409   -2.4312    0.0000 N   0  0  0  0  0  0  0  0  0
   -0.5735   -2.0187    0.0000 C   0  0  0  0  0  0  0  0  0
   -1.3581   -2.2736    0.0000 N   0  0  0  0  0  0  0  0  0
   -1.8431   -1.6062    0.0000 C   0  0  0  0  0  0  0  0  0
  1  2  1  0  0  0  0
  2  3  4  0  0  0  0
  2  7  4  0  0  0  0
  3  4  4  0  0  0  0
  4  5  4  0  0  0  0
  5  6  4  0  0  0  0
  6  7  4  0  0  0  0
  7  8  1  0  0  0  0
  8  9  1  0  0  0  0
  8 13  1  0  0  0  0
  9 10  1  0  0  0  0
 10 11  1  0  0  0  0
 11 12  1  0  0  0  0
 11 14  1  0  0  0  0
 12 13  1  0  0  0  0
 14 15  1  0  0  0  0
 15 16  4  0  0  0  0
 15 23  4  0  0  0  0
 16 17  4  0  0  0  0
 16 21  4  0  0  0  0
 17 18  4  0  0  0  0
 18 19  4  0  0  0  0
 19 20  4  0  0  0  0
 20 21  4  0  0  0  0
 21 22  4  0  0  0  0
 22 23  4  0  0  0  0
M  STY  1   1 DAT
M  SAL   1  1  22
M  SDT   1 MRV_IMPLICIT_H                                        
M  SDD   1     0.0000    0.0000    DR    ALL  0       0  
M  SED   1 IMPL_H1
M  END
>  <Name_Molregno>
40060

>  <5-HT1A>
6

>  <5-HT1B>
5

>  <5-HT1D>
5

>  <5-HT1E>
5

>  <5-HT2A>
6.62

>  <5-HT2C>
5

>  <5-HT5>
5

>  <5-HT6>
5

>  <5-HT7>
6.67

$$$$
40138
  Marvin  02231216192D 0   1.00000     0.00000     0

 28 32  0  0  0  0  0  0  0  0999 V2000
    1.1413   -2.5831    0.0000 N   0  0  0  0  0  0  0  0  0
    0.6563   -1.9156    0.0000 C   0  0  0  0  0  0  0  0  0
    1.1413   -1.2482    0.0000 C   0  0  0  0  0  0  0  0  0
    1.9259   -1.5031    0.0000 C   0  0  0  0  0  0  0  0  0
    2.6403   -1.0906    0.0000 C   0  0  0  0  0  0  0  0  0
    3.3548   -1.5031    0.0000 C   0  0  0  0  0  0  0  0  0
    3.3548   -2.3281    0.0000 C   0  0  0  0  0  0  0  0  0
    2.6403   -2.7406    0.0000 N   0  0  0  0  0  0  0  0  0
    1.9259   -2.3281    0.0000 C   0  0  0  0  0  0  0  0  0
    0.8863   -0.4636    0.0000 C   0  0  0  0  0  0  0  0  0
    1.4384    0.1495    0.0000 N   0  0  0  0  0  0  0  0  0
    1.1834    0.9341    0.0000 C   0  0  0  0  0  0  0  0  0
    1.7354    1.5472    0.0000 C   0  0  0  0  0  0  0  0  0
    2.5424    1.3757    0.0000 N   0  0  0  0  0  0  0  0  0
    2.7974    0.5911    0.0000 C   0  0  0  0  0  0  0  0  0
    2.2453   -0.0220    0.0000 C   0  0  0  0  0  0  0  0  0
    3.0944    1.9888    0.0000 C   0  0  0  0  0  0  0  0  0
    2.8395    2.7734    0.0000 C   0  0  0  0  0  0  0  0  0
    3.3915    3.3865    0.0000 C   0  0  0  0  0  0  0  0  0
    4.1985    3.2150    0.0000 C   0  0  0  0  0  0  0  0  0
    4.4535    2.4304    0.0000 C   0  0  0  0  0  0  0  0  0
    3.9014    1.8173    0.0000 C   0  0  0  0  0  0  0  0  0
    4.7505    3.8281    0.0000 C   0  0  0  0  0  0  0  0  0
    4.4956    4.6127    0.0000 C   0  0  0  0  0  0  0  0  0
    5.0476    5.2258    0.0000 C   0  0  0  0  0  0  0  0  0
    5.8546    5.0543    0.0000 C   0  0  0  0  0  0  0  0  0
    6.1096    4.2697    0.0000 C   0  0  0  0  0  0  0  0  0
    5.5575    3.6566    0.0000 C   0  0  0  0  0  0  0  0  0
  1  2  4  0  0  0  0
  1  9  4  0  0  0  0
  2  3  4  0  0  0  0
  3  4  4  0  0  0  0
  3 10  1  0  0  0  0
  4  5  4  0  0  0  0
  4  9  4  0  0  0  0
  5  6  4  0  0  0  0
  6  7  4  0  0  0  0
  7  8  4  0  0  0  0
  8  9  4  0  0  0  0
 10 11  1  0  0  0  0
 11 12  1  0  0  0  0
 11 16  1  0  0  0  0
 12 13  1  0  0  0  0
 13 14  1  0  0  0  0
 14 15  1  0  0  0  0
 14 17  1  0  0  0  0
 15 16  1  0  0  0  0
 17 18  4  0  0  0  0
 17 22  4  0  0  0  0
 18 19  4  0  0  0  0
 19 20  4  0  0  0  0
 20 21  4  0  0  0  0
 20 23  1  0  0  0  0
 21 22  4  0  0  0  0
 23 24  4  0  0  0  0
 23 28  4  0  0  0  0
 24 25  4  0  0  0  0
 25 26  4  0  0  0  0
 26 27  4  0  0  0  0
 27 28  4  0  0  0  0
M  STY  1   1 DAT
M  SAL   1  1   1
M  SDT   1 MRV_IMPLICIT_H                                        
M  SDD   1     0.0000    0.0000    DR    ALL  0       0  
M  SED   1 IMPL_H1
M  END
>  <Name_Molregno>
40138

>  <5-HT1A>
5

>  <5-HT1B>
5

>  <5-HT1D>
5

>  <5-HT1E>
5

>  <5-HT2A>
5.71

>  <5-HT2C>
5

>  <5-HT5>
5

>  <5-HT6>
5

>  <5-HT7>
5

$$$$
40141
  Marvin  02231216192D 0   1.00000     0.00000     0

 25 28  0  0  0  0  0  0  0  0999 V2000
    0.8591   -2.0056    0.0000 N   0  0  0  0  0  0  0  0  0
    0.3742   -1.3381    0.0000 C   0  0  0  0  0  0  0  0  0
    0.8591   -0.6707    0.0000 C   0  0  0  0  0  0  0  0  0
    1.6437   -0.9256    0.0000 C   0  0  0  0  0  0  0  0  0
    2.3582   -0.5131    0.0000 C   0  0  0  0  0  0  0  0  0
    3.0727   -0.9256    0.0000 C   0  0  0  0  0  0  0  0  0
    3.0727   -1.7506    0.0000 C   0  0  0  0  0  0  0  0  0
    2.3582   -2.1631    0.0000 N   0  0  0  0  0  0  0  0  0
    1.6437   -1.7506    0.0000 C   0  0  0  0  0  0  0  0  0
    0.6042    0.1139    0.0000 C   0  0  0  0  0  0  0  0  0
    1.1562    0.7270    0.0000 N   0  0  0  0  0  0  0  0  0
    0.9013    1.5116    0.0000 C   0  0  0  0  0  0  0  0  0
    1.4533    2.1247    0.0000 C   0  0  0  0  0  0  0  0  0
    2.2603    1.9532    0.0000 N   0  0  0  0  0  0  0  0  0
    2.5152    1.1686    0.0000 C   0  0  0  0  0  0  0  0  0
    1.9632    0.5555    0.0000 C   0  0  0  0  0  0  0  0  0
    2.8123    2.5663    0.0000 C   0  0  0  0  0  0  0  0  0
    2.5574    3.3509    0.0000 C   0  0  0  0  0  0  0  0  0
    3.1094    3.9640    0.0000 C   0  0  0  0  0  0  0  0  0
    3.9164    3.7925    0.0000 C   0  0  0  0  0  0  0  0  0
    4.1713    3.0079    0.0000 C   0  0  0  0  0  0  0  0  0
    3.6193    2.3948    0.0000 C   0  0  0  0  0  0  0  0  0
    4.4684    4.4056    0.0000 C   0  0  0  0  0  0  0  0  0
    5.2754    4.2341    0.0000 C   0  0  0  0  0  0  0  0  0
    5.8274    4.8472    0.0000 C   0  0  0  0  0  0  0  0  0
  1  2  4  0  0  0  0
  1  9  4  0  0  0  0
  2  3  4  0  0  0  0
  3  4  4  0  0  0  0
  3 10  1  0  0  0  0
  4  5  4  0  0  0  0
  4  9  4  0  0  0  0
  5  6  4  0  0  0  0
  6  7  4  0  0  0  0
  7  8  4  0  0  0  0
  8  9  4  0  0  0  0
 10 11  1  0  0  0  0
 11 12  1  0  0  0  0
 11 16  1  0  0  0  0
 12 13  1  0  0  0  0
 13 14  1  0  0  0  0
 14 15  1  0  0  0  0
 14 17  1  0  0  0  0
 15 16  1  0  0  0  0
 17 18  4  0  0  0  0
 17 22  4  0  0  0  0
 18 19  4  0  0  0  0
 19 20  4  0  0  0  0
 20 21  4  0  0  0  0
 20 23  1  0  0  0  0
 21 22  4  0  0  0  0
 23 24  1  0  0  0  0
 24 25  1  0  0  0  0
M  STY  1   1 DAT
M  SAL   1  1   1
M  SDT   1 MRV_IMPLICIT_H                                        
M  SDD   1     0.0000    0.0000    DR    ALL  0       0  
M  SED   1 IMPL_H1
M  END
>  <Name_Molregno>
40141

>  <5-HT1A>
5

>  <5-HT1B>
5

>  <5-HT1D>
5

>  <5-HT1E>
5

>  <5-HT2A>
5

>  <5-HT2C>
5

>  <5-HT5>
5

>  <5-HT6>
5.19

>  <5-HT7>
6.15

$$$$
40142
  Marvin  02231216192D 0   1.00000     0.00000     0

 24 27  0  0  0  0  0  0  0  0999 V2000
    0.8175   -1.8909    0.0000 N   0  0  0  0  0  0  0  0  0
    0.3326   -1.2235    0.0000 C   0  0  0  0  0  0  0  0  0
    0.8175   -0.5560    0.0000 C   0  0  0  0  0  0  0  0  0
    1.6022   -0.8110    0.0000 C   0  0  0  0  0  0  0  0  0
    2.3166   -0.3985    0.0000 C   0  0  0  0  0  0  0  0  0
    3.0311   -0.8110    0.0000 C   0  0  0  0  0  0  0  0  0
    3.0311   -1.6360    0.0000 C   0  0  0  0  0  0  0  0  0
    2.3166   -2.0485    0.0000 N   0  0  0  0  0  0  0  0  0
    1.6022   -1.6360    0.0000 C   0  0  0  0  0  0  0  0  0
    0.5626    0.2286    0.0000 C   0  0  0  0  0  0  0  0  0
    1.1146    0.8417    0.0000 N   0  0  0  0  0  0  0  0  0
    0.8597    1.6263    0.0000 C   0  0  0  0  0  0  0  0  0
    1.4117    2.2394    0.0000 C   0  0  0  0  0  0  0  0  0
    2.2187    2.0679    0.0000 N   0  0  0  0  0  0  0  0  0
    2.4736    1.2832    0.0000 C   0  0  0  0  0  0  0  0  0
    1.9216    0.6701    0.0000 C   0  0  0  0  0  0  0  0  0
    2.7707    2.6810    0.0000 C   0  0  0  0  0  0  0  0  0
    2.5158    3.4656    0.0000 C   0  0  0  0  0  0  0  0  0
    3.0678    4.0787    0.0000 C   0  0  0  0  0  0  0  0  0
    3.8748    3.9071    0.0000 C   0  0  0  0  0  0  0  0  0
    4.1297    3.1225    0.0000 C   0  0  0  0  0  0  0  0  0
    3.5777    2.5094    0.0000 C   0  0  0  0  0  0  0  0  0
    4.4268    4.5202    0.0000 C   0  0  0  0  0  0  0  0  0
    4.1719    5.3049    0.0000 C   0  0  0  0  0  0  0  0  0
  1  2  4  0  0  0  0
  1  9  4  0  0  0  0
  2  3  4  0  0  0  0
  3  4  4  0  0  0  0
  3 10  1  0  0  0  0
  4  5  4  0  0  0  0
  4  9  4  0  0  0  0
  5  6  4  0  0  0  0
  6  7  4  0  0  0  0
  7  8  4  0  0  0  0
  8  9  4  0  0  0  0
 10 11  1  0  0  0  0
 11 12  1  0  0  0  0
 11 16  1  0  0  0  0
 12 13  1  0  0  0  0
 13 14  1  0  0  0  0
 14 15  1  0  0  0  0
 14 17  1  0  0  0  0
 15 16  1  0  0  0  0
 17 18  4  0  0  0  0
 17 22  4  0  0  0  0
 18 19  4  0  0  0  0
 19 20  4  0  0  0  0
 20 21  4  0  0  0  0
 20 23  1  0  0  0  0
 21 22  4  0  0  0  0
 23 24  1  0  0  0  0
M  STY  1   1 DAT
M  SAL   1  1   1
M  SDT   1 MRV_IMPLICIT_H                                        
M  SDD   1     0.0000    0.0000    DR    ALL  0       0  
M  SED   1 IMPL_H1
M  END
>  <Name_Molregno>
40142

>  <5-HT1A>
5

>  <5-HT1B>
5

>  <5-HT1D>
5

>  <5-HT1E>
5

>  <5-HT2A>
6.2

>  <5-HT2C>
5

>  <5-HT5>
5

>  <5-HT6>
5.35

>  <5-HT7>
6.39

$$$$
40143
  Marvin  02231216192D 0   1.00000     0.00000     0

 24 27  0  0  0  0  0  0  0  0999 V2000
   -4.8672   -0.8164    0.0000 O   0  0  0  0  0  0  0  0  0
   -5.4192   -1.4295    0.0000 C   0  0  0  0  0  0  0  0  0
   -5.1221   -0.0318    0.0000 C   0  0  0  0  0  0  0  0  0
   -5.9291    0.1397    0.0000 C   0  0  0  0  0  0  0  0  0
   -6.1840    0.9243    0.0000 C   0  0  0  0  0  0  0  0  0
   -5.6320    1.5374    0.0000 C   0  0  0  0  0  0  0  0  0
   -4.8250    1.3659    0.0000 C   0  0  0  0  0  0  0  0  0
   -4.5701    0.5813    0.0000 C   0  0  0  0  0  0  0  0  0
   -3.7631    0.4098    0.0000 N   0  0  0  0  0  0  0  0  0
   -3.2111    1.0229    0.0000 C   0  0  0  0  0  0  0  0  0
   -2.4041    0.8513    0.0000 C   0  0  0  0  0  0  0  0  0
   -2.1492    0.0667    0.0000 N   0  0  0  0  0  0  0  0  0
   -2.7012   -0.5464    0.0000 C   0  0  0  0  0  0  0  0  0
   -3.5082   -0.3749    0.0000 C   0  0  0  0  0  0  0  0  0
   -1.3422   -0.1048    0.0000 C   0  0  0  0  0  0  0  0  0
   -1.0873   -0.8894    0.0000 C   0  0  0  0  0  0  0  0  0
   -0.3026   -1.1444    0.0000 C   0  0  0  0  0  0  0  0  0
    0.4118   -0.7319    0.0000 C   0  0  0  0  0  0  0  0  0
    1.1263   -1.1444    0.0000 C   0  0  0  0  0  0  0  0  0
    1.1263   -1.9694    0.0000 C   0  0  0  0  0  0  0  0  0
    0.4118   -2.3819    0.0000 N   0  0  0  0  0  0  0  0  0
   -0.3026   -1.9694    0.0000 C   0  0  0  0  0  0  0  0  0
   -1.0873   -2.2243    0.0000 N   0  0  0  0  0  0  0  0  0
   -1.5722   -1.5569    0.0000 C   0  0  0  0  0  0  0  0  0
  1  2  1  0  0  0  0
  1  3  1  0  0  0  0
  3  4  4  0  0  0  0
  3  8  4  0  0  0  0
  4  5  4  0  0  0  0
  5  6  4  0  0  0  0
  6  7  4  0  0  0  0
  7  8  4  0  0  0  0
  8  9  1  0  0  0  0
  9 10  1  0  0  0  0
  9 14  1  0  0  0  0
 10 11  1  0  0  0  0
 11 12  1  0  0  0  0
 12 13  1  0  0  0  0
 12 15  1  0  0  0  0
 13 14  1  0  0  0  0
 15 16  1  0  0  0  0
 16 17  4  0  0  0  0
 16 24  4  0  0  0  0
 17 18  4  0  0  0  0
 17 22  4  0  0  0  0
 18 19  4  0  0  0  0
 19 20  4  0  0  0  0
 20 21  4  0  0  0  0
 21 22  4  0  0  0  0
 22 23  4  0  0  0  0
 23 24  4  0  0  0  0
M  STY  1   1 DAT
M  SAL   1  1  23
M  SDT   1 MRV_IMPLICIT_H                                        
M  SDD   1     0.0000    0.0000    DR    ALL  0       0  
M  SED   1 IMPL_H1
M  END
>  <Name_Molregno>
40143

>  <5-HT1A>
6.39

>  <5-HT1B>
5

>  <5-HT1D>
5

>  <5-HT1E>
5

>  <5-HT2A>
5.64

>  <5-HT2C>
5

>  <5-HT5>
5

>  <5-HT6>
5.13

>  <5-HT7>
6.99

$$$$
40144
  Marvin  02231216192D 0   1.00000     0.00000     0

 24 27  0  0  0  0  0  0  0  0999 V2000
    0.8175   -1.8909    0.0000 N   0  0  0  0  0  0  0  0  0
    0.3326   -1.2235    0.0000 C   0  0  0  0  0  0  0  0  0
    0.8175   -0.5560    0.0000 C   0  0  0  0  0  0  0  0  0
    1.6022   -0.8110    0.0000 C   0  0  0  0  0  0  0  0  0
    2.3166   -0.3985    0.0000 C   0  0  0  0  0  0  0  0  0
    3.0311   -0.8110    0.0000 C   0  0  0  0  0  0  0  0  0
    3.0311   -1.6360    0.0000 C   0  0  0  0  0  0  0  0  0
    2.3166   -2.0485    0.0000 N   0  0  0  0  0  0  0  0  0
    1.6022   -1.6360    0.0000 C   0  0  0  0  0  0  0  0  0
    0.5626    0.2286    0.0000 C   0  0  0  0  0  0  0  0  0
    1.1146    0.8417    0.0000 N   0  0  0  0  0  0  0  0  0
    0.8597    1.6263    0.0000 C   0  0  0  0  0  0  0  0  0
    1.4117    2.2394    0.0000 C   0  0  0  0  0  0  0  0  0
    2.2187    2.0679    0.0000 N   0  0  0  0  0  0  0  0  0
    2.4736    1.2832    0.0000 C   0  0  0  0  0  0  0  0  0
    1.9216    0.6701    0.0000 C   0  0  0  0  0  0  0  0  0
    2.7707    2.6810    0.0000 C   0  0  0  0  0  0  0  0  0
    2.5158    3.4656    0.0000 C   0  0  0  0  0  0  0  0  0
    3.0678    4.0787    0.0000 C   0  0  0  0  0  0  0  0  0
    3.8748    3.9071    0.0000 C   0  0  0  0  0  0  0  0  0
    4.1297    3.1225    0.0000 C   0  0  0  0  0  0  0  0  0
    3.5777    2.5094    0.0000 C   0  0  0  0  0  0  0  0  0
    4.4268    4.5202    0.0000 C   0  0  0  0  0  0  0  0  0
    4.1719    5.3049    0.0000 C   0  0  0  0  0  0  0  0  0
  1  2  4  0  0  0  0
  1  9  4  0  0  0  0
  2  3  4  0  0  0  0
  3  4  4  0  0  0  0
  3 10  1  0  0  0  0
  4  5  4  0  0  0  0
  4  9  4  0  0  0  0
  5  6  4  0  0  0  0
  6  7  4  0  0  0  0
  7  8  4  0  0  0  0
  8  9  4  0  0  0  0
 10 11  1  0  0  0  0
 11 12  1  0  0  0  0
 11 16  1  0  0  0  0
 12 13  1  0  0  0  0
 13 14  1  0  0  0  0
 14 15  1  0  0  0  0
 14 17  1  0  0  0  0
 15 16  1  0  0  0  0
 17 18  4  0  0  0  0
 17 22  4  0  0  0  0
 18 19  4  0  0  0  0
 19 20  4  0  0  0  0
 20 21  4  0  0  0  0
 20 23  1  0  0  0  0
 21 22  4  0  0  0  0
 23 24  2  0  0  0  0
M  STY  1   1 DAT
M  SAL   1  1   1
M  SDT   1 MRV_IMPLICIT_H                                        
M  SDD   1     0.0000    0.0000    DR    ALL  0       0  
M  SED   1 IMPL_H1
M  END
>  <Name_Molregno>
40144

>  <5-HT1A>
5.4

>  <5-HT1B>
5

>  <5-HT1D>
5

>  <5-HT1E>
5

>  <5-HT2A>
6.29

>  <5-HT2C>
5

>  <5-HT5>
5

>  <5-HT6>
5

>  <5-HT7>
5

$$$$
40145
  Marvin  02231216192D 0   1.00000     0.00000     0

 26 29  0  0  0  0  0  0  0  0999 V2000
    0.0657    1.7835    0.0000 F   0  0  0  0  0  0  0  0  0
    0.8727    1.6120    0.0000 C   0  0  0  0  0  0  0  0  0
    0.7011    0.8050    0.0000 F   0  0  0  0  0  0  0  0  0
    1.0442    2.4190    0.0000 F   0  0  0  0  0  0  0  0  0
    1.6796    1.4405    0.0000 C   0  0  0  0  0  0  0  0  0
    2.2317    2.0536    0.0000 C   0  0  0  0  0  0  0  0  0
    3.0386    1.8820    0.0000 C   0  0  0  0  0  0  0  0  0
    3.2936    1.0974    0.0000 C   0  0  0  0  0  0  0  0  0
    4.1005    0.9259    0.0000 N   0  0  0  0  0  0  0  0  0
    4.6526    1.5390    0.0000 C   0  0  0  0  0  0  0  0  0
    5.4595    1.3675    0.0000 C   0  0  0  0  0  0  0  0  0
    5.7145    0.5828    0.0000 N   0  0  0  0  0  0  0  0  0
    5.1625   -0.0303    0.0000 C   0  0  0  0  0  0  0  0  0
    4.3555    0.1413    0.0000 C   0  0  0  0  0  0  0  0  0
    6.5215    0.4113    0.0000 C   0  0  0  0  0  0  0  0  0
    6.7764   -0.3733    0.0000 C   0  0  0  0  0  0  0  0  0
    7.5610   -0.6282    0.0000 C   0  0  0  0  0  0  0  0  0
    8.2755   -0.2157    0.0000 C   0  0  0  0  0  0  0  0  0
    8.9900   -0.6282    0.0000 C   0  0  0  0  0  0  0  0  0
    8.9900   -1.4532    0.0000 C   0  0  0  0  0  0  0  0  0
    8.2755   -1.8657    0.0000 N   0  0  0  0  0  0  0  0  0
    7.5610   -1.4532    0.0000 C   0  0  0  0  0  0  0  0  0
    6.7764   -1.7082    0.0000 N   0  0  0  0  0  0  0  0  0
    6.2915   -1.0407    0.0000 C   0  0  0  0  0  0  0  0  0
    2.7415    0.4843    0.0000 C   0  0  0  0  0  0  0  0  0
    1.9346    0.6559    0.0000 C   0  0  0  0  0  0  0  0  0
  1  2  1  0  0  0  0
  2  3  1  0  0  0  0
  2  4  1  0  0  0  0
  2  5  1  0  0  0  0
  5  6  4  0  0  0  0
  5 26  4  0  0  0  0
  6  7  4  0  0  0  0
  7  8  4  0  0  0  0
  8  9  1  0  0  0  0
  8 25  4  0  0  0  0
  9 10  1  0  0  0  0
  9 14  1  0  0  0  0
 10 11  1  0  0  0  0
 11 12  1  0  0  0  0
 12 13  1  0  0  0  0
 12 15  1  0  0  0  0
 13 14  1  0  0  0  0
 15 16  1  0  0  0  0
 16 17  4  0  0  0  0
 16 24  4  0  0  0  0
 17 18  4  0  0  0  0
 17 22  4  0  0  0  0
 18 19  4  0  0  0  0
 19 20  4  0  0  0  0
 20 21  4  0  0  0  0
 21 22  4  0  0  0  0
 22 23  4  0  0  0  0
 23 24  4  0  0  0  0
 25 26  4  0  0  0  0
M  STY  1   1 DAT
M  SAL   1  1  23
M  SDT   1 MRV_IMPLICIT_H                                        
M  SDD   1     0.0000    0.0000    DR    ALL  0       0  
M  SED   1 IMPL_H1
M  END
>  <Name_Molregno>
40145

>  <5-HT1A>
5

>  <5-HT1B>
5

>  <5-HT1D>
5

>  <5-HT1E>
5

>  <5-HT2A>
5.55

>  <5-HT2C>
5

>  <5-HT5>
5

>  <5-HT6>
5.15

>  <5-HT7>
6.5

$$$$
40178
  Marvin  02231216192D 0   1.00000     0.00000     0

 24 27  0  0  0  0  0  0  0  0999 V2000
   -8.4666    1.7569    0.0000 S   0  0  0  0  0  0  0  0  0
   -9.0187    1.1438    0.0000 C   0  0  0  0  0  0  0  0  0
   -7.6597    1.5853    0.0000 C   0  0  0  0  0  0  0  0  0
   -7.1076    2.1984    0.0000 C   0  0  0  0  0  0  0  0  0
   -6.3007    2.0269    0.0000 C   0  0  0  0  0  0  0  0  0
   -6.0457    1.2423    0.0000 C   0  0  0  0  0  0  0  0  0
   -5.2387    1.0708    0.0000 N   0  0  0  0  0  0  0  0  0
   -4.6867    1.6839    0.0000 C   0  0  0  0  0  0  0  0  0
   -3.8797    1.5123    0.0000 C   0  0  0  0  0  0  0  0  0
   -3.6248    0.7277    0.0000 N   0  0  0  0  0  0  0  0  0
   -4.1768    0.1146    0.0000 C   0  0  0  0  0  0  0  0  0
   -4.9838    0.2861    0.0000 C   0  0  0  0  0  0  0  0  0
   -2.8178    0.5562    0.0000 C   0  0  0  0  0  0  0  0  0
   -2.5629   -0.2284    0.0000 C   0  0  0  0  0  0  0  0  0
   -1.7783   -0.4834    0.0000 C   0  0  0  0  0  0  0  0  0
   -1.0638   -0.0709    0.0000 C   0  0  0  0  0  0  0  0  0
   -0.3493   -0.4834    0.0000 C   0  0  0  0  0  0  0  0  0
   -0.3493   -1.3084    0.0000 C   0  0  0  0  0  0  0  0  0
   -1.0638   -1.7209    0.0000 N   0  0  0  0  0  0  0  0  0
   -1.7783   -1.3084    0.0000 C   0  0  0  0  0  0  0  0  0
   -2.5629   -1.5633    0.0000 N   0  0  0  0  0  0  0  0  0
   -3.0478   -0.8959    0.0000 C   0  0  0  0  0  0  0  0  0
   -6.5977    0.6292    0.0000 C   0  0  0  0  0  0  0  0  0
   -7.4047    0.8007    0.0000 C   0  0  0  0  0  0  0  0  0
  1  2  1  0  0  0  0
  1  3  1  0  0  0  0
  3  4  4  0  0  0  0
  3 24  4  0  0  0  0
  4  5  4  0  0  0  0
  5  6  4  0  0  0  0
  6  7  1  0  0  0  0
  6 23  4  0  0  0  0
  7  8  1  0  0  0  0
  7 12  1  0  0  0  0
  8  9  1  0  0  0  0
  9 10  1  0  0  0  0
 10 11  1  0  0  0  0
 10 13  1  0  0  0  0
 11 12  1  0  0  0  0
 13 14  1  0  0  0  0
 14 15  4  0  0  0  0
 14 22  4  0  0  0  0
 15 16  4  0  0  0  0
 15 20  4  0  0  0  0
 16 17  4  0  0  0  0
 17 18  4  0  0  0  0
 18 19  4  0  0  0  0
 19 20  4  0  0  0  0
 20 21  4  0  0  0  0
 21 22  4  0  0  0  0
 23 24  4  0  0  0  0
M  STY  1   1 DAT
M  SAL   1  1  21
M  SDT   1 MRV_IMPLICIT_H                                        
M  SDD   1     0.0000    0.0000    DR    ALL  0       0  
M  SED   1 IMPL_H1
M  END
>  <Name_Molregno>
40178

>  <5-HT1A>
5

>  <5-HT1B>
5

>  <5-HT1D>
5

>  <5-HT1E>
5

>  <5-HT2A>
5

>  <5-HT2C>
5

>  <5-HT5>
5

>  <5-HT6>
5

>  <5-HT7>
6.47

$$$$
40961
  Marvin  02231216192D 0   1.00000     0.00000     0

 24 27  0  0  0  0  0  0  0  0999 V2000
   -8.4666    1.7569    0.0000 O   0  0  0  0  0  0  0  0  0
   -9.0187    1.1438    0.0000 C   0  0  0  0  0  0  0  0  0
   -7.6597    1.5853    0.0000 C   0  0  0  0  0  0  0  0  0
   -7.1076    2.1984    0.0000 C   0  0  0  0  0  0  0  0  0
   -6.3007    2.0269    0.0000 C   0  0  0  0  0  0  0  0  0
   -6.0457    1.2423    0.0000 C   0  0  0  0  0  0  0  0  0
   -5.2387    1.0708    0.0000 N   0  0  0  0  0  0  0  0  0
   -4.6867    1.6839    0.0000 C   0  0  0  0  0  0  0  0  0
   -3.8797    1.5123    0.0000 C   0  0  0  0  0  0  0  0  0
   -3.6248    0.7277    0.0000 N   0  0  0  0  0  0  0  0  0
   -4.1768    0.1146    0.0000 C   0  0  0  0  0  0  0  0  0
   -4.9838    0.2861    0.0000 C   0  0  0  0  0  0  0  0  0
   -2.8178    0.5562    0.0000 C   0  0  0  0  0  0  0  0  0
   -2.5629   -0.2284    0.0000 C   0  0  0  0  0  0  0  0  0
   -1.7783   -0.4834    0.0000 C   0  0  0  0  0  0  0  0  0
   -1.0638   -0.0709    0.0000 C   0  0  0  0  0  0  0  0  0
   -0.3493   -0.4834    0.0000 C   0  0  0  0  0  0  0  0  0
   -0.3493   -1.3084    0.0000 C   0  0  0  0  0  0  0  0  0
   -1.0638   -1.7209    0.0000 N   0  0  0  0  0  0  0  0  0
   -1.7783   -1.3084    0.0000 C   0  0  0  0  0  0  0  0  0
   -2.5629   -1.5633    0.0000 N   0  0  0  0  0  0  0  0  0
   -3.0478   -0.8959    0.0000 C   0  0  0  0  0  0  0  0  0
   -6.5977    0.6292    0.0000 C   0  0  0  0  0  0  0  0  0
   -7.4047    0.8007    0.0000 C   0  0  0  0  0  0  0  0  0
  1  2  1  0  0  0  0
  1  3  1  0  0  0  0
  3  4  4  0  0  0  0
  3 24  4  0  0  0  0
  4  5  4  0  0  0  0
  5  6  4  0  0  0  0
  6  7  1  0  0  0  0
  6 23  4  0  0  0  0
  7  8  1  0  0  0  0
  7 12  1  0  0  0  0
  8  9  1  0  0  0  0
  9 10  1  0  0  0  0
 10 11  1  0  0  0  0
 10 13  1  0  0  0  0
 11 12  1  0  0  0  0
 13 14  1  0  0  0  0
 14 15  4  0  0  0  0
 14 22  4  0  0  0  0
 15 16  4  0  0  0  0
 15 20  4  0  0  0  0
 16 17  4  0  0  0  0
 17 18  4  0  0  0  0
 18 19  4  0  0  0  0
 19 20  4  0  0  0  0
 20 21  4  0  0  0  0
 21 22  4  0  0  0  0
 23 24  4  0  0  0  0
M  STY  1   1 DAT
M  SAL   1  1  21
M  SDT   1 MRV_IMPLICIT_H                                        
M  SDD   1     0.0000    0.0000    DR    ALL  0       0  
M  SED   1 IMPL_H1
M  END
>  <Name_Molregno>
40961

>  <5-HT1A>
5

>  <5-HT1B>
5

>  <5-HT1D>
5

>  <5-HT1E>
5

>  <5-HT2A>
5

>  <5-HT2C>
5

>  <5-HT5>
5

>  <5-HT6>
5

>  <5-HT7>
5

>  <DOPAMINE D2>
5.82

>  <DOPAMINE D3>
5.41

>  <DOPAMINE D4>
8.89

$$$$
40962
  Marvin  02231216192D 0   1.00000     0.00000     0

 23 26  0  0  0  0  0  0  0  0999 V2000
    0.0748    1.8640    0.0000 F   0  0  0  0  0  0  0  0  0
    0.8818    1.6925    0.0000 C   0  0  0  0  0  0  0  0  0
    1.4339    2.3056    0.0000 C   0  0  0  0  0  0  0  0  0
    2.2408    2.1340    0.0000 C   0  0  0  0  0  0  0  0  0
    2.4958    1.3494    0.0000 C   0  0  0  0  0  0  0  0  0
    3.3027    1.1779    0.0000 N   0  0  0  0  0  0  0  0  0
    3.8548    1.7910    0.0000 C   0  0  0  0  0  0  0  0  0
    4.6617    1.6194    0.0000 C   0  0  0  0  0  0  0  0  0
    4.9167    0.8348    0.0000 N   0  0  0  0  0  0  0  0  0
    4.3646    0.2217    0.0000 C   0  0  0  0  0  0  0  0  0
    3.5577    0.3933    0.0000 C   0  0  0  0  0  0  0  0  0
    5.7237    0.6633    0.0000 C   0  0  0  0  0  0  0  0  0
    5.9786   -0.1213    0.0000 C   0  0  0  0  0  0  0  0  0
    6.7632   -0.3763    0.0000 C   0  0  0  0  0  0  0  0  0
    7.4777    0.0362    0.0000 C   0  0  0  0  0  0  0  0  0
    8.1922   -0.3763    0.0000 C   0  0  0  0  0  0  0  0  0
    8.1922   -1.2013    0.0000 C   0  0  0  0  0  0  0  0  0
    7.4777   -1.6138    0.0000 N   0  0  0  0  0  0  0  0  0
    6.7632   -1.2013    0.0000 C   0  0  0  0  0  0  0  0  0
    5.9786   -1.4562    0.0000 N   0  0  0  0  0  0  0  0  0
    5.4937   -0.7888    0.0000 C   0  0  0  0  0  0  0  0  0
    1.9437    0.7363    0.0000 C   0  0  0  0  0  0  0  0  0
    1.1368    0.9078    0.0000 C   0  0  0  0  0  0  0  0  0
  1  2  1  0  0  0  0
  2  3  4  0  0  0  0
  2 23  4  0  0  0  0
  3  4  4  0  0  0  0
  4  5  4  0  0  0  0
  5  6  1  0  0  0  0
  5 22  4  0  0  0  0
  6  7  1  0  0  0  0
  6 11  1  0  0  0  0
  7  8  1  0  0  0  0
  8  9  1  0  0  0  0
  9 10  1  0  0  0  0
  9 12  1  0  0  0  0
 10 11  1  0  0  0  0
 12 13  1  0  0  0  0
 13 14  4  0  0  0  0
 13 21  4  0  0  0  0
 14 15  4  0  0  0  0
 14 19  4  0  0  0  0
 15 16  4  0  0  0  0
 16 17  4  0  0  0  0
 17 18  4  0  0  0  0
 18 19  4  0  0  0  0
 19 20  4  0  0  0  0
 20 21  4  0  0  0  0
 22 23  4  0  0  0  0
M  STY  1   1 DAT
M  SAL   1  1  20
M  SDT   1 MRV_IMPLICIT_H                                        
M  SDD   1     0.0000    0.0000    DR    ALL  0       0  
M  SED   1 IMPL_H1
M  END
>  <Name_Molregno>
40962

>  <5-HT1A>
5.56

>  <5-HT1B>
5

>  <5-HT1D>
5

>  <5-HT1E>
5

>  <5-HT2A>
6.63

>  <5-HT2C>
5

>  <5-HT5>
5

>  <5-HT6>
5

>  <5-HT7>
6.38

$$$$
42179
  Marvin  02231216192D 0   1.00000     0.00000     0

 31 34  0  0  0  0  0  0  0  0999 V2000
    0.8929    1.6421    0.0000 O   0  0  0  0  0  0  0  0  0
    1.6074    2.0546    0.0000 C   0  0  0  0  0  0  0  0  0
    0.8929    0.8171    0.0000 C   0  0  0  0  0  0  0  0  0
    1.6074    0.4046    0.0000 C   0  0  0  0  0  0  0  0  0
    1.6074   -0.4204    0.0000 C   0  0  0  0  0  0  0  0  0
    0.8929   -0.8329    0.0000 C   0  0  0  0  0  0  0  0  0
    0.1785   -0.4204    0.0000 C   0  0  0  0  0  0  0  0  0
    0.1785    0.4046    0.0000 C   0  0  0  0  0  0  0  0  0
   -0.5360    0.8171    0.0000 N   0  0  0  0  0  0  0  0  0
   -1.2505    0.4046    0.0000 C   0  0  0  0  0  0  0  0  0
   -1.9649    0.8171    0.0000 C   0  0  0  0  0  0  0  0  0
   -1.9649    1.6421    0.0000 N   0  0  0  0  0  0  0  0  0
   -1.2505    2.0546    0.0000 C   0  0  0  0  0  0  0  0  0
   -0.5360    1.6421    0.0000 C   0  0  0  0  0  0  0  0  0
   -2.6794    2.0546    0.0000 C   0  0  0  0  0  0  0  0  0
   -3.3939    1.6421    0.0000 C   0  0  0  0  0  0  0  0  0
   -4.1083    2.0546    0.0000 N   0  0  0  0  0  0  0  0  0
   -4.8228    1.6421    0.0000 C   0  0  0  0  0  0  0  0  0
   -4.8228    0.8171    0.0000 O   0  0  0  0  0  0  0  0  0
   -5.5373    2.0546    0.0000 C   0  0  0  0  0  0  0  0  0
   -6.2518    1.6421    0.0000 C   0  0  0  0  0  0  0  0  0
   -6.9662    2.0546    0.0000 C   0  0  0  0  0  0  0  0  0
   -6.9662    2.8796    0.0000 C   0  0  0  0  0  0  0  0  0
   -6.2518    3.2921    0.0000 C   0  0  0  0  0  0  0  0  0
   -5.5373    2.8796    0.0000 C   0  0  0  0  0  0  0  0  0
   -4.1083    2.8796    0.0000 C   0  0  0  0  0  0  0  0  0
   -4.8228    3.2921    0.0000 N   0  0  0  0  0  0  0  0  0
   -4.8228    4.1171    0.0000 C   0  0  0  0  0  0  0  0  0
   -4.1083    4.5296    0.0000 C   0  0  0  0  0  0  0  0  0
   -3.3939    4.1171    0.0000 C   0  0  0  0  0  0  0  0  0
   -3.3939    3.2921    0.0000 C   0  0  0  0  0  0  0  0  0
  1  2  1  0  0  0  0
  1  3  1  0  0  0  0
  3  4  4  0  0  0  0
  3  8  4  0  0  0  0
  4  5  4  0  0  0  0
  5  6  4  0  0  0  0
  6  7  4  0  0  0  0
  7  8  4  0  0  0  0
  8  9  1  0  0  0  0
  9 10  1  0  0  0  0
  9 14  1  0  0  0  0
 10 11  1  0  0  0  0
 11 12  1  0  0  0  0
 12 13  1  0  0  0  0
 12 15  1  0  0  0  0
 13 14  1  0  0  0  0
 15 16  1  0  0  0  0
 16 17  1  0  0  0  0
 17 18  1  0  0  0  0
 17 26  1  0  0  0  0
 18 19  2  0  0  0  0
 18 20  1  0  0  0  0
 20 21  1  0  0  0  0
 20 25  1  0  0  0  0
 21 22  1  0  0  0  0
 22 23  1  0  0  0  0
 23 24  1  0  0  0  0
 24 25  1  0  0  0  0
 26 27  4  0  0  0  0
 26 31  4  0  0  0  0
 27 28  4  0  0  0  0
 28 29  4  0  0  0  0
 29 30  4  0  0  0  0
 30 31  4  0  0  0  0
M  END
>  <Name_Molregno>
42179

>  <5-HT1A>
9.12

>  <5-HT1B>
5

>  <5-HT1D>
5

>  <5-HT1E>
5

>  <5-HT2A>
5.2

>  <5-HT5>
5

>  <5-HT6>
5

>  <5-HT7>
5

>  <Alpha-1A>
7.71

>  <Alpha-1B>
6.33

>  <Alpha-2A>
5

>  <Alpha-2B>
5

>  <Alpha-2C>
5.59

>  <DOPAMINE D1>
5

>  <DOPAMINE D2>
6.57

>  <DOPAMINE D3>
7.17

>  <DOPAMINE D4>
7.79

>  <DOPAMINE D5>
5

>  <HISTAMINE H1>
5

>  <HISTAMINE H2>
5

>  <HISTAMINE H4>
5

>  <Muscarinic acetylcholine receptor M2>
5

>  <Muscarinic acetylcholine receptor M5>
5

$$$$
43030
  Marvin  02231216192D 0   1.00000     0.00000     0

 33 37  0  0  0  0  0  0  0  0999 V2000
   -0.3583   -1.4885    0.0000 O   0  0  0  0  0  0  0  0  0
   -1.0727   -1.0760    0.0000 C   0  0  0  0  0  0  0  0  0
   -1.0727   -0.2510    0.0000 C   0  0  0  0  0  0  0  0  0
   -0.3583    0.1615    0.0000 O   0  0  0  0  0  0  0  0  0
   -0.3583    0.9865    0.0000 C   0  0  0  0  0  0  0  0  0
   -1.0727    1.3990    0.0000 C   0  0  0  0  0  0  0  0  0
   -1.0727    2.2240    0.0000 C   0  0  0  0  0  0  0  0  0
   -0.3583    2.6365    0.0000 C   0  0  0  0  0  0  0  0  0
   -0.5298    3.4435    0.0000 N   0  0  0  0  0  0  0  0  0
   -1.3503    3.5297    0.0000 C   0  0  0  0  0  0  0  0  0
   -1.6858    2.7760    0.0000 C   0  0  0  0  0  0  0  0  0
   -2.4928    2.6045    0.0000 C   0  0  0  0  0  0  0  0  0
   -3.0448    3.2176    0.0000 C   0  0  0  0  0  0  0  0  0
   -3.8518    3.0461    0.0000 N   0  0  0  0  0  0  0  0  0
    0.3562    2.2240    0.0000 C   0  0  0  0  0  0  0  0  0
    0.3562    1.3990    0.0000 C   0  0  0  0  0  0  0  0  0
    0.3562   -1.0760    0.0000 C   0  0  0  0  0  0  0  0  0
    1.0707   -1.4885    0.0000 C   0  0  0  0  0  0  0  0  0
    1.7851   -1.0760    0.0000 C   0  0  0  0  0  0  0  0  0
    1.7851   -0.2510    0.0000 C   0  0  0  0  0  0  0  0  0
    1.0707    0.1615    0.0000 C   0  0  0  0  0  0  0  0  0
    0.3562   -0.2510    0.0000 C   0  0  0  0  0  0  0  0  0
    2.4996    0.1615    0.0000 C   0  0  0  0  0  0  0  0  0
    3.2141   -0.2510    0.0000 C   0  0  0  0  0  0  0  0  0
    3.2141   -1.0760    0.0000 C   0  0  0  0  0  0  0  0  0
    2.4996   -1.4885    0.0000 C   0  0  0  0  0  0  0  0  0
    2.4996   -2.3135    0.0000 N   0  0  0  0  0  0  0  0  0
    3.2141   -2.7260    0.0000 C   0  0  0  0  0  0  0  0  0
    3.2141   -3.5510    0.0000 C   0  0  0  0  0  0  0  0  0
    2.4996   -3.9635    0.0000 N   0  0  0  0  0  0  0  0  0
    1.7851   -3.5510    0.0000 C   0  0  0  0  0  0  0  0  0
    1.7851   -2.7260    0.0000 C   0  0  0  0  0  0  0  0  0
    2.4996   -4.7885    0.0000 C   0  0  0  0  0  0  0  0  0
  1  2  1  0  0  0  0
  1 17  1  0  0  0  0
  2  3  1  0  0  0  0
  3  4  1  0  0  0  0
  4  5  1  0  0  0  0
  5  6  4  0  0  0  0
  5 16  4  0  0  0  0
  6  7  4  0  0  0  0
  7  8  4  0  0  0  0
  7 11  4  0  0  0  0
  8  9  4  0  0  0  0
  8 15  4  0  0  0  0
  9 10  4  0  0  0  0
 10 11  4  0  0  0  0
 11 12  1  0  0  0  0
 12 13  1  0  0  0  0
 13 14  1  0  0  0  0
 15 16  4  0  0  0  0
 17 18  4  0  0  0  0
 17 22  4  0  0  0  0
 18 19  4  0  0  0  0
 19 20  4  0  0  0  0
 19 26  4  0  0  0  0
 20 21  4  0  0  0  0
 20 23  4  0  0  0  0
 21 22  4  0  0  0  0
 23 24  4  0  0  0  0
 24 25  4  0  0  0  0
 25 26  4  0  0  0  0
 26 27  1  0  0  0  0
 27 28  1  0  0  0  0
 27 32  1  0  0  0  0
 28 29  1  0  0  0  0
 29 30  1  0  0  0  0
 30 31  1  0  0  0  0
 30 33  1  0  0  0  0
 31 32  1  0  0  0  0
M  STY  1   1 DAT
M  SAL   1  1   9
M  SDT   1 MRV_IMPLICIT_H                                        
M  SDD   1     0.0000    0.0000    DR    ALL  0       0  
M  SED   1 IMPL_H1
M  END
>  <Name_Molregno>
43030

>  <5-HT1B>
9.12

>  <5-HT1D>
9.4

$$$$
66613
  Marvin  02231216192D 0   1.00000     0.00000     0

 14 15  0  0  1  0  0  0  0  0999 V2000
   -3.5937   -0.7341    0.0000 O   0  0  0  0  0  0  0  0  0
   -2.8091   -0.9890    0.0000 C   0  0  0  0  0  0  0  0  0
   -2.0946   -0.5765    0.0000 C   0  0  0  0  0  0  0  0  0
   -1.3801   -0.9890    0.0000 C   0  0  0  0  0  0  0  0  0
   -1.3801   -1.8140    0.0000 C   0  0  0  0  0  0  0  0  0
   -2.0946   -2.2265    0.0000 C   0  0  0  0  0  0  0  0  0
   -2.8091   -1.8140    0.0000 C   0  0  0  0  0  0  0  0  0
   -3.5937   -2.0690    0.0000 O   0  0  0  0  0  0  0  0  0
   -4.0786   -1.4015    0.0000 C   0  0  0  0  0  0  0  0  0
   -0.6657   -0.5765    0.0000 C   0  0  0  0  0  0  0  0  0
   -0.6657    0.2485    0.0000 C   0  0  0  0  0  0  0  0  0
    0.0488    0.6610    0.0000 N   0  0  0  0  0  0  0  0  0
    0.0488    1.4860    0.0000 C   0  0  0  0  0  0  0  0  0
   -1.3801    0.6610    0.0000 C   0  0  0  0  0  0  0  0  0
  1  2  1  0  0  0  0
  1  9  1  0  0  0  0
  2  3  4  0  0  0  0
  2  7  4  0  0  0  0
  3  4  4  0  0  0  0
  4  5  4  0  0  0  0
  4 10  1  0  0  0  0
  5  6  4  0  0  0  0
  6  7  4  0  0  0  0
  7  8  1  0  0  0  0
  8  9  1  0  0  0  0
 10 11  1  0  0  0  0
 11 12  1  0  0  0  0
 11 14  1  0  0  0  0
 12 13  1  0  0  0  0
M  END
>  <Name_Molregno>
66613

>  <5-HT1A>
5

>  <5-HT1B>
5

>  <5-HT1D>
5

>  <5-HT1E>
5

>  <5-HT2A>
5

>  <5-HT3>
5

>  <5-HT5>
5

>  <5-HT6>
5

>  <5-HT7>
5

>  <Alpha-1A>
5

>  <Alpha-1B>
5

>  <Alpha-2A>
5.6

>  <Alpha-2B>
5.75

>  <Alpha-2C>
5.95

>  <Beta-1>
5

>  <Beta-2>
5

>  <DOPAMINE D1>
5

>  <DOPAMINE D2>
5

>  <DOPAMINE D3>
5

>  <DOPAMINE D4>
5

>  <DOPAMINE D5>
5

>  <Dopamine transporter>
5

>  <HISTAMINE H1>
5.67

>  <HISTAMINE H2>
5

>  <Muscarinic acetylcholine receptor M1>
5

>  <Muscarinic acetylcholine receptor M2>
5

>  <Muscarinic acetylcholine receptor M3>
5.73

>  <Muscarinic acetylcholine receptor M4>
5.08

>  <Muscarinic acetylcholine receptor M5>
5.2

>  <Norepinephrine transporter>
5

>  <Serotonin transporter>
7.24

$$$$
70579
  Marvin  02231216192D 0   1.00000     0.00000     0

 20 22  0  0  1  0  0  0  0  0999 V2000
   -1.3411   -0.1324    0.0000 N   0  0  0  0  0  0  0  0  0
   -1.8261    0.5350    0.0000 C   0  0  0  0  0  0  0  0  0
   -1.3411    1.2025    0.0000 C   0  0  0  0  0  0  0  0  0
   -0.5565    0.9475    0.0000 C   0  0  0  0  0  0  0  0  0
    0.1580    1.3600    0.0000 C   0  0  0  0  0  0  0  0  0
    0.8724    0.9475    0.0000 C   0  0  0  0  0  0  0  0  0
    0.8724    0.1225    0.0000 C   0  0  0  0  0  0  0  0  0
    0.1580   -0.2900    0.0000 C   0  0  0  0  0  0  0  0  0
   -0.5565    0.1225    0.0000 C   0  0  0  0  0  0  0  0  0
    1.5869    1.3600    0.0000 C   0  0  0  0  0  0  0  0  0
    2.3014    1.7725    0.0000 C   0  0  0  0  0  0  0  0  0
    1.1744    2.0745    0.0000 C   0  0  0  0  0  0  0  0  0
    1.9994    0.6456    0.0000 C   0  0  0  0  0  0  0  0  0
   -1.5961    1.9871    0.0000 C   0  0  0  0  0  0  0  0  0
   -1.0440    2.6002    0.0000 C   0  0  0  0  0  0  0  0  0
   -1.2156    3.4072    0.0000 N   0  0  0  0  0  0  0  0  0
   -0.5011    3.8197    0.0000 C   0  0  0  0  0  0  0  0  0
    0.1120    3.2676    0.0000 C   0  0  0  0  0  0  0  0  0
   -0.2236    2.5139    0.0000 C   0  0  0  0  0  0  0  0  0
   -1.9693    3.7427    0.0000 C   0  0  0  0  0  0  0  0  0
  1  2  4  0  0  0  0
  1  9  4  0  0  0  0
  2  3  4  0  0  0  0
  3  4  4  0  0  0  0
  3 14  1  0  0  0  0
  4  5  4  0  0  0  0
  4  9  4  0  0  0  0
  5  6  4  0  0  0  0
  6  7  4  0  0  0  0
  6 10  1  0  0  0  0
  7  8  4  0  0  0  0
  8  9  4  0  0  0  0
 10 11  1  0  0  0  0
 10 12  1  0  0  0  0
 10 13  1  0  0  0  0
 14 15  1  0  0  0  0
 15 16  1  0  0  0  0
 15 19  1  0  0  0  0
 16 17  1  0  0  0  0
 16 20  1  0  0  0  0
 17 18  1  0  0  0  0
 18 19  1  0  0  0  0
M  STY  1   1 DAT
M  SAL   1  1   1
M  SDT   1 MRV_IMPLICIT_H                                        
M  SDD   1     0.0000    0.0000    DR    ALL  0       0  
M  SED   1 IMPL_H1
M  END
>  <Name_Molregno>
70579

>  <5-HT1B>
7.81

>  <5-HT1D>
9.6

$$$$
70581
  Marvin  02231216192D 0   1.00000     0.00000     0

 17 19  0  0  1  0  0  0  0  0999 V2000
    0.0790   -0.6124    0.0000 N   0  0  0  0  0  0  0  0  0
   -0.4060    0.0550    0.0000 C   0  0  0  0  0  0  0  0  0
    0.0790    0.7224    0.0000 C   0  0  0  0  0  0  0  0  0
    0.8636    0.4675    0.0000 C   0  0  0  0  0  0  0  0  0
    1.5780    0.8800    0.0000 C   0  0  0  0  0  0  0  0  0
    2.2925    0.4675    0.0000 C   0  0  0  0  0  0  0  0  0
    2.2925   -0.3575    0.0000 C   0  0  0  0  0  0  0  0  0
    1.5780   -0.7700    0.0000 C   0  0  0  0  0  0  0  0  0
    0.8636   -0.3575    0.0000 C   0  0  0  0  0  0  0  0  0
    3.0070    0.8800    0.0000 C   0  0  0  0  0  0  0  0  0
   -0.1760    1.5071    0.0000 C   0  0  0  0  0  0  0  0  0
    0.3760    2.1202    0.0000 C   0  0  0  0  0  0  0  0  0
    0.2045    2.9271    0.0000 N   0  0  0  0  0  0  0  0  0
    0.9190    3.3396    0.0000 C   0  0  0  0  0  0  0  0  0
    1.5321    2.7876    0.0000 C   0  0  0  0  0  0  0  0  0
    1.1965    2.0339    0.0000 C   0  0  0  0  0  0  0  0  0
   -0.5492    3.2627    0.0000 C   0  0  0  0  0  0  0  0  0
  1  2  4  0  0  0  0
  1  9  4  0  0  0  0
  2  3  4  0  0  0  0
  3  4  4  0  0  0  0
  3 11  1  0  0  0  0
  4  5  4  0  0  0  0
  4  9  4  0  0  0  0
  5  6  4  0  0  0  0
  6  7  4  0  0  0  0
  6 10  1  0  0  0  0
  7  8  4  0  0  0  0
  8  9  4  0  0  0  0
 11 12  1  0  0  0  0
 12 13  1  0  0  0  0
 12 16  1  0  0  0  0
 13 14  1  0  0  0  0
 13 17  1  0  0  0  0
 14 15  1  0  0  0  0
 15 16  1  0  0  0  0
M  STY  1   1 DAT
M  SAL   1  1   1
M  SDT   1 MRV_IMPLICIT_H                                        
M  SDD   1     0.0000    0.0000    DR    ALL  0       0  
M  SED   1 IMPL_H1
M  END
>  <Name_Molregno>
70581

>  <5-HT1B>
6.93

>  <5-HT1D>
8.46

$$$$
70607
  Marvin  02231216192D 0   1.00000     0.00000     0

 19 21  0  0  1  0  0  0  0  0999 V2000
   -1.1036   -0.2048    0.0000 N   0  0  0  0  0  0  0  0  0
   -1.5886    0.4627    0.0000 C   0  0  0  0  0  0  0  0  0
   -1.1036    1.1301    0.0000 C   0  0  0  0  0  0  0  0  0
   -0.3190    0.8752    0.0000 C   0  0  0  0  0  0  0  0  0
    0.3954    1.2877    0.0000 C   0  0  0  0  0  0  0  0  0
    1.1099    0.8752    0.0000 C   0  0  0  0  0  0  0  0  0
    1.1099    0.0502    0.0000 C   0  0  0  0  0  0  0  0  0
    0.3954   -0.3623    0.0000 C   0  0  0  0  0  0  0  0  0
   -0.3190    0.0502    0.0000 C   0  0  0  0  0  0  0  0  0
    1.8244    1.2877    0.0000 C   0  0  0  0  0  0  0  0  0
    2.5389    0.8752    0.0000 C   0  0  0  0  0  0  0  0  0
    1.8244    2.1127    0.0000 C   0  0  0  0  0  0  0  0  0
   -1.3586    1.9147    0.0000 C   0  0  0  0  0  0  0  0  0
   -0.8066    2.5278    0.0000 C   0  0  0  0  0  0  0  0  0
   -0.9781    3.3348    0.0000 N   0  0  0  0  0  0  0  0  0
   -0.2636    3.7473    0.0000 C   0  0  0  0  0  0  0  0  0
    0.3495    3.1953    0.0000 C   0  0  0  0  0  0  0  0  0
    0.0139    2.4416    0.0000 C   0  0  0  0  0  0  0  0  0
   -1.7318    3.6704    0.0000 C   0  0  0  0  0  0  0  0  0
  1  2  4  0  0  0  0
  1  9  4  0  0  0  0
  2  3  4  0  0  0  0
  3  4  4  0  0  0  0
  3 13  1  0  0  0  0
  4  5  4  0  0  0  0
  4  9  4  0  0  0  0
  5  6  4  0  0  0  0
  6  7  4  0  0  0  0
  6 10  1  0  0  0  0
  7  8  4  0  0  0  0
  8  9  4  0  0  0  0
 10 11  1  0  0  0  0
 10 12  1  0  0  0  0
 13 14  1  0  0  0  0
 14 15  1  0  0  0  0
 14 18  1  0  0  0  0
 15 16  1  0  0  0  0
 15 19  1  0  0  0  0
 16 17  1  0  0  0  0
 17 18  1  0  0  0  0
M  STY  1   1 DAT
M  SAL   1  1   1
M  SDT   1 MRV_IMPLICIT_H                                        
M  SDD   1     0.0000    0.0000    DR    ALL  0       0  
M  SED   1 IMPL_H1
M  END
>  <Name_Molregno>
70607

>  <5-HT1B>
7.98

>  <5-HT1D>
9.54

$$$$
70974
  Marvin  02231216192D 0   1.00000     0.00000     0

 20 22  0  0  0  0  0  0  0  0999 V2000
   -0.1806    0.0320    0.0000 N   0  0  0  0  0  0  0  0  0
   -0.6656    0.6995    0.0000 C   0  0  0  0  0  0  0  0  0
   -0.1806    1.3669    0.0000 C   0  0  0  0  0  0  0  0  0
    0.6040    1.1120    0.0000 C   0  0  0  0  0  0  0  0  0
    1.3184    1.5245    0.0000 C   0  0  0  0  0  0  0  0  0
    2.0329    1.1120    0.0000 C   0  0  0  0  0  0  0  0  0
    2.0329    0.2870    0.0000 C   0  0  0  0  0  0  0  0  0
    1.3184   -0.1255    0.0000 C   0  0  0  0  0  0  0  0  0
    0.6040    0.2870    0.0000 C   0  0  0  0  0  0  0  0  0
    2.7474    1.5245    0.0000 C   0  0  0  0  0  0  0  0  0
    3.4619    1.9370    0.0000 C   0  0  0  0  0  0  0  0  0
    2.3349    2.2389    0.0000 C   0  0  0  0  0  0  0  0  0
    3.1599    0.8100    0.0000 C   0  0  0  0  0  0  0  0  0
   -0.4356    2.1515    0.0000 C   0  0  0  0  0  0  0  0  0
   -1.2426    2.3231    0.0000 C   0  0  0  0  0  0  0  0  0
   -1.4975    3.1077    0.0000 N   0  0  0  0  0  0  0  0  0
   -2.2821    3.3626    0.0000 C   0  0  0  0  0  0  0  0  0
   -2.2821    4.1876    0.0000 C   0  0  0  0  0  0  0  0  0
   -1.4975    4.4426    0.0000 C   0  0  0  0  0  0  0  0  0
   -1.0126    3.7751    0.0000 C   0  0  0  0  0  0  0  0  0
  1  2  4  0  0  0  0
  1  9  4  0  0  0  0
  2  3  4  0  0  0  0
  3  4  4  0  0  0  0
  3 14  1  0  0  0  0
  4  5  4  0  0  0  0
  4  9  4  0  0  0  0
  5  6  4  0  0  0  0
  6  7  4  0  0  0  0
  6 10  1  0  0  0  0
  7  8  4  0  0  0  0
  8  9  4  0  0  0  0
 10 11  1  0  0  0  0
 10 12  1  0  0  0  0
 10 13  1  0  0  0  0
 14 15  1  0  0  0  0
 15 16  1  0  0  0  0
 16 17  1  0  0  0  0
 16 20  1  0  0  0  0
 17 18  1  0  0  0  0
 18 19  1  0  0  0  0
 19 20  1  0  0  0  0
M  STY  1   1 DAT
M  SAL   1  1   1
M  SDT   1 MRV_IMPLICIT_H                                        
M  SDD   1     0.0000    0.0000    DR    ALL  0       0  
M  SED   1 IMPL_H1
M  END
>  <Name_Molregno>
70974

>  <5-HT1B>
6.51

>  <5-HT1D>
8.6

$$$$
70975
  Marvin  02231216192D 0   1.00000     0.00000     0

 18 20  0  0  1  0  0  0  0  0999 V2000
   -0.8826   -0.2505    0.0000 N   0  0  0  0  0  0  0  0  0
   -1.3675    0.4169    0.0000 C   0  0  0  0  0  0  0  0  0
   -0.8826    1.0844    0.0000 C   0  0  0  0  0  0  0  0  0
   -0.0980    0.8294    0.0000 C   0  0  0  0  0  0  0  0  0
    0.6165    1.2419    0.0000 C   0  0  0  0  0  0  0  0  0
    1.3309    0.8294    0.0000 C   0  0  0  0  0  0  0  0  0
    1.3309    0.0044    0.0000 C   0  0  0  0  0  0  0  0  0
    0.6165   -0.4081    0.0000 C   0  0  0  0  0  0  0  0  0
   -0.0980    0.0044    0.0000 C   0  0  0  0  0  0  0  0  0
    2.0454    1.2419    0.0000 C   0  0  0  0  0  0  0  0  0
    2.7599    0.8294    0.0000 C   0  0  0  0  0  0  0  0  0
   -1.1376    1.8690    0.0000 C   0  0  0  0  0  0  0  0  0
   -0.5855    2.4821    0.0000 C   0  0  0  0  0  0  0  0  0
   -0.7571    3.2890    0.0000 N   0  0  0  0  0  0  0  0  0
   -0.0426    3.7015    0.0000 C   0  0  0  0  0  0  0  0  0
    0.5705    3.1495    0.0000 C   0  0  0  0  0  0  0  0  0
    0.2350    2.3958    0.0000 C   0  0  0  0  0  0  0  0  0
   -1.5107    3.6246    0.0000 C   0  0  0  0  0  0  0  0  0
  1  2  4  0  0  0  0
  1  9  4  0  0  0  0
  2  3  4  0  0  0  0
  3  4  4  0  0  0  0
  3 12  1  0  0  0  0
  4  5  4  0  0  0  0
  4  9  4  0  0  0  0
  5  6  4  0  0  0  0
  6  7  4  0  0  0  0
  6 10  1  0  0  0  0
  7  8  4  0  0  0  0
  8  9  4  0  0  0  0
 10 11  1  0  0  0  0
 12 13  1  0  0  0  0
 13 14  1  0  0  0  0
 13 17  1  0  0  0  0
 14 15  1  0  0  0  0
 14 18  1  0  0  0  0
 15 16  1  0  0  0  0
 16 17  1  0  0  0  0
M  STY  1   1 DAT
M  SAL   1  1   1
M  SDT   1 MRV_IMPLICIT_H                                        
M  SDD   1     0.0000    0.0000    DR    ALL  0       0  
M  SED   1 IMPL_H1
M  END
>  <Name_Molregno>
70975

>  <5-HT1B>
7.33

>  <5-HT1D>
9.01

$$$$
71087
  Marvin  02231216192D 0   1.00000     0.00000     0

 16 17  0  0  0  0  0  0  0  0999 V2000
   -0.4053    0.0666    0.0000 N   0  0  0  0  0  0  0  0  0
   -0.8902    0.7340    0.0000 C   0  0  0  0  0  0  0  0  0
   -0.4053    1.4014    0.0000 C   0  0  0  0  0  0  0  0  0
    0.3793    1.1465    0.0000 C   0  0  0  0  0  0  0  0  0
    1.0938    1.5590    0.0000 C   0  0  0  0  0  0  0  0  0
    1.8083    1.1465    0.0000 C   0  0  0  0  0  0  0  0  0
    1.8083    0.3215    0.0000 C   0  0  0  0  0  0  0  0  0
    1.0938   -0.0910    0.0000 C   0  0  0  0  0  0  0  0  0
    0.3793    0.3215    0.0000 C   0  0  0  0  0  0  0  0  0
    2.5228    1.5590    0.0000 C   0  0  0  0  0  0  0  0  0
    3.2372    1.1465    0.0000 C   0  0  0  0  0  0  0  0  0
   -0.6602    2.1861    0.0000 C   0  0  0  0  0  0  0  0  0
   -1.4672    2.3576    0.0000 C   0  0  0  0  0  0  0  0  0
   -1.7221    3.1422    0.0000 N   0  0  0  0  0  0  0  0  0
   -2.5291    3.3137    0.0000 C   0  0  0  0  0  0  0  0  0
   -1.1701    3.7553    0.0000 C   0  0  0  0  0  0  0  0  0
  1  2  4  0  0  0  0
  1  9  4  0  0  0  0
  2  3  4  0  0  0  0
  3  4  4  0  0  0  0
  3 12  1  0  0  0  0
  4  5  4  0  0  0  0
  4  9  4  0  0  0  0
  5  6  4  0  0  0  0
  6  7  4  0  0  0  0
  6 10  1  0  0  0  0
  7  8  4  0  0  0  0
  8  9  4  0  0  0  0
 10 11  1  0  0  0  0
 12 13  1  0  0  0  0
 13 14  1  0  0  0  0
 14 15  1  0  0  0  0
 14 16  1  0  0  0  0
M  STY  1   1 DAT
M  SAL   1  1   1
M  SDT   1 MRV_IMPLICIT_H                                        
M  SDD   1     0.0000    0.0000    DR    ALL  0       0  
M  SED   1 IMPL_H1
M  END
>  <Name_Molregno>
71087

>  <5-HT1B>
6.54

>  <5-HT1D>
7.8

$$$$
71088
  Marvin  02231216192D 0   1.00000     0.00000     0

 18 20  0  0  0  0  0  0  0  0999 V2000
   -1.7715   -0.7619    0.0000 N   0  0  0  0  0  0  0  0  0
   -2.2564   -0.0944    0.0000 C   0  0  0  0  0  0  0  0  0
   -1.7715    0.5730    0.0000 C   0  0  0  0  0  0  0  0  0
   -0.9869    0.3181    0.0000 C   0  0  0  0  0  0  0  0  0
   -0.2724    0.7306    0.0000 C   0  0  0  0  0  0  0  0  0
    0.4421    0.3181    0.0000 C   0  0  0  0  0  0  0  0  0
    0.4421   -0.5069    0.0000 C   0  0  0  0  0  0  0  0  0
   -0.2724   -0.9194    0.0000 C   0  0  0  0  0  0  0  0  0
   -0.9869   -0.5069    0.0000 C   0  0  0  0  0  0  0  0  0
    1.1566    0.7306    0.0000 C   0  0  0  0  0  0  0  0  0
    1.8710    0.3181    0.0000 C   0  0  0  0  0  0  0  0  0
   -2.0264    1.3576    0.0000 C   0  0  0  0  0  0  0  0  0
   -2.8334    1.5291    0.0000 C   0  0  0  0  0  0  0  0  0
   -3.0883    2.3138    0.0000 N   0  0  0  0  0  0  0  0  0
   -3.8730    2.5687    0.0000 C   0  0  0  0  0  0  0  0  0
   -3.8730    3.3937    0.0000 C   0  0  0  0  0  0  0  0  0
   -3.0883    3.6486    0.0000 C   0  0  0  0  0  0  0  0  0
   -2.6034    2.9812    0.0000 C   0  0  0  0  0  0  0  0  0
  1  2  4  0  0  0  0
  1  9  4  0  0  0  0
  2  3  4  0  0  0  0
  3  4  4  0  0  0  0
  3 12  1  0  0  0  0
  4  5  4  0  0  0  0
  4  9  4  0  0  0  0
  5  6  4  0  0  0  0
  6  7  4  0  0  0  0
  6 10  1  0  0  0  0
  7  8  4  0  0  0  0
  8  9  4  0  0  0  0
 10 11  1  0  0  0  0
 12 13  1  0  0  0  0
 13 14  1  0  0  0  0
 14 15  1  0  0  0  0
 14 18  1  0  0  0  0
 15 16  1  0  0  0  0
 16 17  1  0  0  0  0
 17 18  1  0  0  0  0
M  STY  1   1 DAT
M  SAL   1  1   1
M  SDT   1 MRV_IMPLICIT_H                                        
M  SDD   1     0.0000    0.0000    DR    ALL  0       0  
M  SED   1 IMPL_H1
M  END
>  <Name_Molregno>
71088

>  <5-HT1B>
5.79

>  <5-HT1D>
7.35

$$$$
71089
  Marvin  02231216192D 0   1.00000     0.00000     0

 17 18  0  0  0  0  0  0  0  0999 V2000
   -1.2824    0.0325    0.0000 N   0  0  0  0  0  0  0  0  0
   -1.7673    0.7000    0.0000 C   0  0  0  0  0  0  0  0  0
   -1.2824    1.3674    0.0000 C   0  0  0  0  0  0  0  0  0
   -0.4978    1.1125    0.0000 C   0  0  0  0  0  0  0  0  0
    0.2167    1.5250    0.0000 C   0  0  0  0  0  0  0  0  0
    0.9312    1.1125    0.0000 C   0  0  0  0  0  0  0  0  0
    0.9312    0.2875    0.0000 C   0  0  0  0  0  0  0  0  0
    0.2167   -0.1250    0.0000 C   0  0  0  0  0  0  0  0  0
   -0.4978    0.2875    0.0000 C   0  0  0  0  0  0  0  0  0
    1.6456    1.5250    0.0000 C   0  0  0  0  0  0  0  0  0
    2.3601    1.1125    0.0000 C   0  0  0  0  0  0  0  0  0
    1.6456    2.3500    0.0000 C   0  0  0  0  0  0  0  0  0
   -1.5373    2.1520    0.0000 C   0  0  0  0  0  0  0  0  0
   -2.3443    2.3236    0.0000 C   0  0  0  0  0  0  0  0  0
   -2.5993    3.1082    0.0000 N   0  0  0  0  0  0  0  0  0
   -3.4062    3.2797    0.0000 C   0  0  0  0  0  0  0  0  0
   -2.0472    3.7213    0.0000 C   0  0  0  0  0  0  0  0  0
  1  2  4  0  0  0  0
  1  9  4  0  0  0  0
  2  3  4  0  0  0  0
  3  4  4  0  0  0  0
  3 13  1  0  0  0  0
  4  5  4  0  0  0  0
  4  9  4  0  0  0  0
  5  6  4  0  0  0  0
  6  7  4  0  0  0  0
  6 10  1  0  0  0  0
  7  8  4  0  0  0  0
  8  9  4  0  0  0  0
 10 11  1  0  0  0  0
 10 12  1  0  0  0  0
 13 14  1  0  0  0  0
 14 15  1  0  0  0  0
 15 16  1  0  0  0  0
 15 17  1  0  0  0  0
M  STY  1   1 DAT
M  SAL   1  1   1
M  SDT   1 MRV_IMPLICIT_H                                        
M  SDD   1     0.0000    0.0000    DR    ALL  0       0  
M  SED   1 IMPL_H1
M  END
>  <Name_Molregno>
71089

>  <5-HT1B>
7.85

>  <5-HT1D>
9.4

$$$$
71123
  Marvin  02231216192D 0   1.00000     0.00000     0

 19 21  0  0  0  0  0  0  0  0999 V2000
   -1.6076   -0.3860    0.0000 N   0  0  0  0  0  0  0  0  0
   -2.0925    0.2814    0.0000 C   0  0  0  0  0  0  0  0  0
   -1.6076    0.9489    0.0000 C   0  0  0  0  0  0  0  0  0
   -0.8230    0.6939    0.0000 C   0  0  0  0  0  0  0  0  0
   -0.1085    1.1064    0.0000 C   0  0  0  0  0  0  0  0  0
    0.6060    0.6939    0.0000 C   0  0  0  0  0  0  0  0  0
    0.6060   -0.1311    0.0000 C   0  0  0  0  0  0  0  0  0
   -0.1085   -0.5436    0.0000 C   0  0  0  0  0  0  0  0  0
   -0.8230   -0.1311    0.0000 C   0  0  0  0  0  0  0  0  0
    1.3204    1.1064    0.0000 C   0  0  0  0  0  0  0  0  0
    2.0349    0.6939    0.0000 C   0  0  0  0  0  0  0  0  0
    1.3204    1.9314    0.0000 C   0  0  0  0  0  0  0  0  0
   -1.8625    1.7335    0.0000 C   0  0  0  0  0  0  0  0  0
   -2.6695    1.9050    0.0000 C   0  0  0  0  0  0  0  0  0
   -2.9245    2.6896    0.0000 N   0  0  0  0  0  0  0  0  0
   -3.7091    2.9446    0.0000 C   0  0  0  0  0  0  0  0  0
   -3.7091    3.7696    0.0000 C   0  0  0  0  0  0  0  0  0
   -2.9245    4.0245    0.0000 C   0  0  0  0  0  0  0  0  0
   -2.4395    3.3571    0.0000 C   0  0  0  0  0  0  0  0  0
  1  2  4  0  0  0  0
  1  9  4  0  0  0  0
  2  3  4  0  0  0  0
  3  4  4  0  0  0  0
  3 13  1  0  0  0  0
  4  5  4  0  0  0  0
  4  9  4  0  0  0  0
  5  6  4  0  0  0  0
  6  7  4  0  0  0  0
  6 10  1  0  0  0  0
  7  8  4  0  0  0  0
  8  9  4  0  0  0  0
 10 11  1  0  0  0  0
 10 12  1  0  0  0  0
 13 14  1  0  0  0  0
 14 15  1  0  0  0  0
 15 16  1  0  0  0  0
 15 19  1  0  0  0  0
 16 17  1  0  0  0  0
 17 18  1  0  0  0  0
 18 19  1  0  0  0  0
M  STY  1   1 DAT
M  SAL   1  1   1
M  SDT   1 MRV_IMPLICIT_H                                        
M  SDD   1     0.0000    0.0000    DR    ALL  0       0  
M  SED   1 IMPL_H1
M  END
>  <Name_Molregno>
71123

>  <5-HT1B>
6.33

>  <5-HT1D>
8.28

$$$$
88815
  Marvin  02231216192D 0   1.00000     0.00000     0

 14 15  0  0  1  0  0  0  0  0999 V2000
   -3.2072   -0.1654    0.0000 S   0  0  0  0  0  0  0  0  0
   -2.4226   -0.4204    0.0000 C   0  0  0  0  0  0  0  0  0
   -1.7081   -0.0079    0.0000 C   0  0  0  0  0  0  0  0  0
   -0.9937   -0.4204    0.0000 C   0  0  0  0  0  0  0  0  0
   -0.2792   -0.0079    0.0000 N   0  0  0  0  0  0  0  0  0
    0.4353   -0.4204    0.0000 C   0  0  0  0  0  0  0  0  0
    1.1498   -0.0079    0.0000 C   0  0  0  0  0  0  0  0  0
    1.8642   -0.4204    0.0000 C   0  0  0  0  0  0  0  0  0
   -0.9937   -1.2454    0.0000 C   0  0  0  0  0  0  0  0  0
   -1.7081   -1.6579    0.0000 C   0  0  0  0  0  0  0  0  0
   -2.4226   -1.2454    0.0000 C   0  0  0  0  0  0  0  0  0
   -3.2072   -1.5003    0.0000 N   0  0  0  0  0  0  0  0  0
   -3.6921   -0.8329    0.0000 C   0  0  0  0  0  0  0  0  0
   -4.5171   -0.8329    0.0000 N   0  0  0  0  0  0  0  0  0
  1  2  4  0  0  0  0
  1 13  4  0  0  0  0
  2  3  1  0  0  0  0
  2 11  4  0  0  0  0
  3  4  1  0  0  0  0
  4  5  1  0  0  0  0
  4  9  1  0  0  0  0
  5  6  1  0  0  0  0
  6  7  1  0  0  0  0
  7  8  1  0  0  0  0
  9 10  1  0  0  0  0
 10 11  1  0  0  0  0
 11 12  4  0  0  0  0
 12 13  4  0  0  0  0
 13 14  1  0  0  0  0
M  END
>  <Name_Molregno>
88815

>  <5-HT1A>
5.67

>  <5-HT1B>
5.26

>  <5-HT1D>
5.39

>  <5-HT1E>
5

>  <5-HT2A>
5

>  <5-HT2C>
5

>  <5-HT3>
5

>  <5-HT5>
5

>  <5-HT6>
5

>  <5-HT7>
5.93

>  <Alpha-1A>
5

>  <Alpha-1B>
5

>  <Alpha-2A>
6.44

>  <Alpha-2B>
6.68

>  <Alpha-2C>
6.14

>  <Beta-1>
5

>  <Beta-2>
5

>  <DOPAMINE D1>
5

>  <DOPAMINE D2>
6.55

>  <DOPAMINE D3>
8.51

>  <DOPAMINE D4>
7.4

>  <DOPAMINE D5>
5

>  <Dopamine transporter>
5

>  <HISTAMINE H1>
5

>  <HISTAMINE H2>
5.57

>  <HISTAMINE H4>
5

>  <Muscarinic acetylcholine receptor M1>
5

>  <Muscarinic acetylcholine receptor M2>
5

>  <Muscarinic acetylcholine receptor M3>
5

>  <Muscarinic acetylcholine receptor M4>
5

>  <Muscarinic acetylcholine receptor M5>
5

>  <Norepinephrine transporter>
5

>  <Serotonin transporter>
5

$$$$
114333
  Marvin  02231216192D 0   1.00000     0.00000     0

 14 15  0  0  0  0  0  0  0  0999 V2000
    1.0624   -2.5539    0.0000 N   0  0  0  0  0  0  0  0  0
    0.8075   -3.3385    0.0000 C   0  0  0  0  0  0  0  0  0
   -0.0175   -3.3385    0.0000 C   0  0  0  0  0  0  0  0  0
   -0.2725   -2.5539    0.0000 N   0  0  0  0  0  0  0  0  0
    0.3950   -2.0690    0.0000 C   0  0  0  0  0  0  0  0  0
    0.3950   -1.2440    0.0000 C   0  0  0  0  0  0  0  0  0
    1.1094   -0.8315    0.0000 C   0  0  0  0  0  0  0  0  0
    1.1094   -0.0065    0.0000 C   0  0  0  0  0  0  0  0  0
    1.8239    0.4060    0.0000 C   0  0  0  0  0  0  0  0  0
    2.5384   -0.0065    0.0000 C   0  0  0  0  0  0  0  0  0
    2.5384   -0.8315    0.0000 C   0  0  0  0  0  0  0  0  0
    1.8239   -1.2440    0.0000 C   0  0  0  0  0  0  0  0  0
    1.8239   -2.0690    0.0000 C   0  0  0  0  0  0  0  0  0
    0.3950    0.4060    0.0000 C   0  0  0  0  0  0  0  0  0
  1  2  1  0  0  0  0
  1  5  1  0  0  0  0
  2  3  1  0  0  0  0
  3  4  1  0  0  0  0
  4  5  2  0  0  0  0
  5  6  1  0  0  0  0
  6  7  1  0  0  0  0
  7  8  4  0  0  0  0
  7 12  4  0  0  0  0
  8  9  4  0  0  0  0
  8 14  1  0  0  0  0
  9 10  4  0  0  0  0
 10 11  4  0  0  0  0
 11 12  4  0  0  0  0
 12 13  1  0  0  0  0
M  END
>  <Name_Molregno>
114333

>  <5-HT1B>
5

>  <5-HT1D>
5.66

$$$$
114810
  Marvin  02231216192D 0   1.00000     0.00000     0

 18 19  0  0  0  0  0  0  0  0999 V2000
    1.8709   -1.9497    0.0000 N   0  0  0  0  0  0  0  0  0
    1.6160   -2.7344    0.0000 C   0  0  0  0  0  0  0  0  0
    0.7910   -2.7344    0.0000 C   0  0  0  0  0  0  0  0  0
    0.5360   -1.9497    0.0000 N   0  0  0  0  0  0  0  0  0
    1.2035   -1.4648    0.0000 C   0  0  0  0  0  0  0  0  0
    1.2035   -0.6398    0.0000 C   0  0  0  0  0  0  0  0  0
    1.9179   -0.2273    0.0000 C   0  0  0  0  0  0  0  0  0
    1.9179    0.5977    0.0000 C   0  0  0  0  0  0  0  0  0
    2.6324    1.0102    0.0000 C   0  0  0  0  0  0  0  0  0
    3.3469    0.5977    0.0000 C   0  0  0  0  0  0  0  0  0
    3.3469   -0.2273    0.0000 C   0  0  0  0  0  0  0  0  0
    2.6324   -0.6398    0.0000 C   0  0  0  0  0  0  0  0  0
    2.6324   -1.4648    0.0000 C   0  0  0  0  0  0  0  0  0
    4.0613    1.0102    0.0000 C   0  0  0  0  0  0  0  0  0
    4.7758    1.4227    0.0000 C   0  0  0  0  0  0  0  0  0
    4.4738    0.2957    0.0000 C   0  0  0  0  0  0  0  0  0
    3.6488    1.7246    0.0000 C   0  0  0  0  0  0  0  0  0
    1.2035    1.0102    0.0000 C   0  0  0  0  0  0  0  0  0
  1  2  1  0  0  0  0
  1  5  1  0  0  0  0
  2  3  1  0  0  0  0
  3  4  1  0  0  0  0
  4  5  2  0  0  0  0
  5  6  1  0  0  0  0
  6  7  1  0  0  0  0
  7  8  4  0  0  0  0
  7 12  4  0  0  0  0
  8  9  4  0  0  0  0
  8 18  1  0  0  0  0
  9 10  4  0  0  0  0
 10 11  4  0  0  0  0
 10 14  1  0  0  0  0
 11 12  4  0  0  0  0
 12 13  1  0  0  0  0
 14 15  1  0  0  0  0
 14 16  1  0  0  0  0
 14 17  1  0  0  0  0
M  END
>  <Name_Molregno>
114810

>  <5-HT1B>
7.89

>  <5-HT1D>
9.15

>  <Alpha-1A>
7.04

>  <Alpha-2A>
7.82

>  <Alpha-2B>
5.98

>  <Alpha-2C>
6.89

$$$$
115272
  Marvin  02231216192D 0   1.00000     0.00000     0

 19 20  0  0  0  0  0  0  0  0999 V2000
   -1.9497   -1.8962    0.0000 N   0  0  0  0  0  0  0  0  0
   -2.2047   -2.6809    0.0000 C   0  0  0  0  0  0  0  0  0
   -3.0297   -2.6809    0.0000 C   0  0  0  0  0  0  0  0  0
   -3.2846   -1.8962    0.0000 N   0  0  0  0  0  0  0  0  0
   -4.0692   -1.6413    0.0000 C   0  0  0  0  0  0  0  0  0
   -2.6172   -1.4113    0.0000 C   0  0  0  0  0  0  0  0  0
   -2.6172   -0.5863    0.0000 C   0  0  0  0  0  0  0  0  0
   -1.9027   -0.1738    0.0000 C   0  0  0  0  0  0  0  0  0
   -1.9027    0.6512    0.0000 C   0  0  0  0  0  0  0  0  0
   -1.1882    1.0637    0.0000 C   0  0  0  0  0  0  0  0  0
   -0.4738    0.6512    0.0000 C   0  0  0  0  0  0  0  0  0
   -0.4738   -0.1738    0.0000 C   0  0  0  0  0  0  0  0  0
   -1.1882   -0.5863    0.0000 C   0  0  0  0  0  0  0  0  0
   -1.1882   -1.4113    0.0000 C   0  0  0  0  0  0  0  0  0
    0.2407    1.0637    0.0000 C   0  0  0  0  0  0  0  0  0
    0.9552    1.4762    0.0000 C   0  0  0  0  0  0  0  0  0
    0.6532    0.3492    0.0000 C   0  0  0  0  0  0  0  0  0
   -0.1718    1.7782    0.0000 C   0  0  0  0  0  0  0  0  0
   -2.6172    1.0637    0.0000 C   0  0  0  0  0  0  0  0  0
  1  2  1  0  0  0  0
  1  6  2  0  0  0  0
  2  3  1  0  0  0  0
  3  4  1  0  0  0  0
  4  5  1  0  0  0  0
  4  6  1  0  0  0  0
  6  7  1  0  0  0  0
  7  8  1  0  0  0  0
  8  9  4  0  0  0  0
  8 13  4  0  0  0  0
  9 10  4  0  0  0  0
  9 19  1  0  0  0  0
 10 11  4  0  0  0  0
 11 12  4  0  0  0  0
 11 15  1  0  0  0  0
 12 13  4  0  0  0  0
 13 14  1  0  0  0  0
 15 16  1  0  0  0  0
 15 17  1  0  0  0  0
 15 18  1  0  0  0  0
M  END
>  <Name_Molregno>
115272

>  <5-HT1B>
5.3

>  <5-HT1D>
7.07

$$$$
115336
  Marvin  02231216192D 0   1.00000     0.00000     0

 15 16  0  0  0  0  0  0  0  0999 V2000
    0.3789    2.5368    0.0000 Br  0  0  0  0  0  0  0  0  0
    1.0933    2.1243    0.0000 C   0  0  0  0  0  0  0  0  0
    1.8078    2.5368    0.0000 C   0  0  0  0  0  0  0  0  0
    2.5223    2.1243    0.0000 C   0  0  0  0  0  0  0  0  0
    3.2368    2.5368    0.0000 C   0  0  0  0  0  0  0  0  0
    2.5223    1.2993    0.0000 C   0  0  0  0  0  0  0  0  0
    3.2368    0.8868    0.0000 C   0  0  0  0  0  0  0  0  0
    3.2368    0.0618    0.0000 C   0  0  0  0  0  0  0  0  0
    3.9042   -0.4231    0.0000 N   0  0  0  0  0  0  0  0  0
    3.6493   -1.2078    0.0000 C   0  0  0  0  0  0  0  0  0
    2.8243   -1.2078    0.0000 C   0  0  0  0  0  0  0  0  0
    2.5693   -0.4231    0.0000 N   0  0  0  0  0  0  0  0  0
    1.8078    0.8868    0.0000 C   0  0  0  0  0  0  0  0  0
    1.0933    1.2993    0.0000 C   0  0  0  0  0  0  0  0  0
    1.8078    0.0618    0.0000 C   0  0  0  0  0  0  0  0  0
  1  2  1  0  0  0  0
  2  3  4  0  0  0  0
  2 14  4  0  0  0  0
  3  4  4  0  0  0  0
  4  5  1  0  0  0  0
  4  6  4  0  0  0  0
  6  7  1  0  0  0  0
  6 13  4  0  0  0  0
  7  8  1  0  0  0  0
  8  9  1  0  0  0  0
  8 12  2  0  0  0  0
  9 10  1  0  0  0  0
 10 11  1  0  0  0  0
 11 12  1  0  0  0  0
 13 14  4  0  0  0  0
 13 15  1  0  0  0  0
M  END
>  <Name_Molregno>
115336

>  <5-HT1B>
5.8

>  <5-HT1D>
7.13

$$$$
131346
  Marvin  02231216192D 0   1.00000     0.00000     0

 31 35  0  0  1  0  0  0  0  0999 V2000
    2.5980    4.3890    0.0000 F   0  0  0  0  0  0  0  0  0
    3.1500    3.7759    0.0000 C   0  0  0  0  0  0  0  0  0
    3.9570    3.9474    0.0000 C   0  0  0  0  0  0  0  0  0
    4.5090    3.3343    0.0000 C   0  0  0  0  0  0  0  0  0
    5.3340    3.3343    0.0000 N   0  0  0  0  0  0  0  0  0
    5.5890    2.5497    0.0000 C   0  0  0  0  0  0  0  0  0
    4.9215    2.0648    0.0000 C   0  0  0  0  0  0  0  0  0
    4.2541    2.5497    0.0000 C   0  0  0  0  0  0  0  0  0
    3.4471    2.3782    0.0000 C   0  0  0  0  0  0  0  0  0
    2.8951    2.9912    0.0000 C   0  0  0  0  0  0  0  0  0
    4.9215    1.2398    0.0000 C   0  0  0  0  0  0  0  0  0
    5.6360    0.8273    0.0000 C   0  0  0  0  0  0  0  0  0
    5.6360    0.0023    0.0000 C   0  0  0  0  0  0  0  0  0
    4.9215   -0.4102    0.0000 N   0  0  0  0  0  0  0  0  0
    4.2071    0.0023    0.0000 C   0  0  0  0  0  0  0  0  0
    4.2071    0.8273    0.0000 C   0  0  0  0  0  0  0  0  0
    4.9215   -1.2352    0.0000 C   0  0  0  0  0  0  0  0  0
    5.6360   -1.6477    0.0000 C   0  0  0  0  0  0  0  0  0
    5.6360   -2.4727    0.0000 C   0  0  0  0  0  0  0  0  0
    4.9215   -2.8852    0.0000 O   0  0  0  0  0  0  0  0  0
    4.9215   -3.7102    0.0000 C   0  0  0  0  0  0  0  0  0
    5.6360   -4.1227    0.0000 C   0  0  0  0  0  0  0  0  0
    6.3505   -3.7102    0.0000 C   0  0  0  0  0  0  0  0  0
    6.3505   -2.8852    0.0000 C   0  0  0  0  0  0  0  0  0
    7.0649   -2.4727    0.0000 C   0  0  0  0  0  0  0  0  0
    7.7794   -2.8852    0.0000 C   0  0  0  0  0  0  0  0  0
    7.7794   -3.7102    0.0000 C   0  0  0  0  0  0  0  0  0
    7.0649   -4.1227    0.0000 C   0  0  0  0  0  0  0  0  0
    8.4939   -4.1227    0.0000 C   0  0  0  0  0  0  0  0  0
    9.2084   -3.7102    0.0000 O   0  0  0  0  0  0  0  0  0
    8.4939   -4.9477    0.0000 N   0  0  0  0  0  0  0  0  0
  1  2  1  0  0  0  0
  2  3  4  0  0  0  0
  2 10  4  0  0  0  0
  3  4  4  0  0  0  0
  4  5  4  0  0  0  0
  4  8  4  0  0  0  0
  5  6  4  0  0  0  0
  6  7  4  0  0  0  0
  7  8  4  0  0  0  0
  7 11  1  0  0  0  0
  8  9  4  0  0  0  0
  9 10  4  0  0  0  0
 11 12  1  0  0  0  0
 11 16  2  0  0  0  0
 12 13  1  0  0  0  0
 13 14  1  0  0  0  0
 14 15  1  0  0  0  0
 14 17  1  0  0  0  0
 15 16  1  0  0  0  0
 17 18  1  0  0  0  0
 18 19  1  0  0  0  0
 19 20  1  0  0  0  0
 19 24  1  0  0  0  0
 20 21  1  0  0  0  0
 21 22  1  0  0  0  0
 22 23  1  0  0  0  0
 23 24  4  0  0  0  0
 23 28  4  0  0  0  0
 24 25  4  0  0  0  0
 25 26  4  0  0  0  0
 26 27  4  0  0  0  0
 27 28  4  0  0  0  0
 27 29  1  0  0  0  0
 29 30  2  0  0  0  0
 29 31  1  0  0  0  0
M  STY  1   1 DAT
M  SAL   1  1   5
M  SDT   1 MRV_IMPLICIT_H                                        
M  SDD   1     0.0000    0.0000    DR    ALL  0       0  
M  SED   1 IMPL_H1
M  END
>  <Name_Molregno>
131346

>  <5-HT1B>
6.62

>  <5-HT1D>
7.68

>  <Alpha-1A>
7.8

>  <Alpha-1B>
7.8

>  <DOPAMINE D2>
8.33

>  <Serotonin transporter>
10

$$$$
137398
  Marvin  02231216192D 0   1.00000     0.00000     0

 33 37  0  0  0  0  0  0  0  0999 V2000
    3.8943    2.1300    0.0000 O   0  0  0  0  0  0  0  0  0
    3.1798    2.5425    0.0000 C   0  0  0  0  0  0  0  0  0
    2.4653    2.1300    0.0000 N   0  0  0  0  0  0  0  0  0
    2.4653    1.3050    0.0000 C   0  0  0  0  0  0  0  0  0
    3.1798    0.8925    0.0000 C   0  0  0  0  0  0  0  0  0
    3.1798    0.0675    0.0000 C   0  0  0  0  0  0  0  0  0
    2.4653   -0.3450    0.0000 C   0  0  0  0  0  0  0  0  0
    1.7509    0.0675    0.0000 C   0  0  0  0  0  0  0  0  0
    1.7509    0.8925    0.0000 C   0  0  0  0  0  0  0  0  0
    2.4653   -1.1700    0.0000 C   0  0  0  0  0  0  0  0  0
    1.7509   -1.5825    0.0000 C   0  0  0  0  0  0  0  0  0
    1.7509   -2.4075    0.0000 N   0  0  0  0  0  0  0  0  0
    2.4653   -2.8200    0.0000 C   0  0  0  0  0  0  0  0  0
    2.4653   -3.6450    0.0000 C   0  0  0  0  0  0  0  0  0
    1.7509   -4.0575    0.0000 C   0  0  0  0  0  0  0  0  0
    1.7509   -4.8825    0.0000 C   0  0  0  0  0  0  0  0  0
    1.0364   -5.2950    0.0000 C   0  0  0  0  0  0  0  0  0
    0.3219   -4.8825    0.0000 C   0  0  0  0  0  0  0  0  0
    0.3219   -4.0575    0.0000 C   0  0  0  0  0  0  0  0  0
    1.0364   -3.6450    0.0000 C   0  0  0  0  0  0  0  0  0
    1.0364   -2.8200    0.0000 C   0  0  0  0  0  0  0  0  0
    1.0364   -6.1200    0.0000 C   0  0  0  0  0  0  0  0  0
    1.0364   -6.9450    0.0000 N   0  0  0  0  0  0  0  0  0
    3.1798    3.3675    0.0000 C   0  0  0  0  0  0  0  0  0
    3.8943    3.7800    0.0000 C   0  0  0  0  0  0  0  0  0
    3.8943    4.6050    0.0000 C   0  0  0  0  0  0  0  0  0
    3.1798    5.0175    0.0000 N   0  0  0  0  0  0  0  0  0
    2.4653    4.6050    0.0000 C   0  0  0  0  0  0  0  0  0
    2.4653    3.7800    0.0000 C   0  0  0  0  0  0  0  0  0
    4.6088    5.0175    0.0000 C   0  0  0  0  0  0  0  0  0
    5.3232    4.6050    0.0000 C   0  0  0  0  0  0  0  0  0
    5.3232    3.7800    0.0000 C   0  0  0  0  0  0  0  0  0
    4.6088    3.3675    0.0000 C   0  0  0  0  0  0  0  0  0
  1  2  2  0  0  0  0
  2  3  1  0  0  0  0
  2 24  1  0  0  0  0
  3  4  1  0  0  0  0
  4  5  1  0  0  0  0
  4  9  1  0  0  0  0
  5  6  1  0  0  0  0
  6  7  1  0  0  0  0
  7  8  1  0  0  0  0
  7 10  1  0  0  0  0
  8  9  1  0  0  0  0
 10 11  1  0  0  0  0
 11 12  1  0  0  0  0
 12 13  1  0  0  0  0
 12 21  1  0  0  0  0
 13 14  1  0  0  0  0
 14 15  1  0  0  0  0
 15 16  4  0  0  0  0
 15 20  4  0  0  0  0
 16 17  4  0  0  0  0
 17 18  4  0  0  0  0
 17 22  1  0  0  0  0
 18 19  4  0  0  0  0
 19 20  4  0  0  0  0
 20 21  1  0  0  0  0
 22 23  3  0  0  0  0
 24 25  4  0  0  0  0
 24 29  4  0  0  0  0
 25 26  4  0  0  0  0
 25 33  4  0  0  0  0
 26 27  4  0  0  0  0
 26 30  4  0  0  0  0
 27 28  4  0  0  0  0
 28 29  4  0  0  0  0
 30 31  4  0  0  0  0
 31 32  4  0  0  0  0
 32 33  4  0  0  0  0
M  END
>  <Name_Molregno>
137398

>  <5-HT1A>
5.3

>  <5-HT1B>
5.2

>  <5-HT1D>
5.85

>  <5-HT1E>
5

>  <5-HT2A>
5

>  <5-HT2C>
5

>  <5-HT6>
5

>  <5-HT7>
5

>  <DOPAMINE D2>
6.17

>  <DOPAMINE D3>
8.18

$$$$
157077
  Marvin  02231216192D 0   1.00000     0.00000     0

 32 36  0  0  0  0  0  0  0  0999 V2000
   -0.2324    0.2724    0.0000 S   0  0  0  0  0  0  0  0  0
    0.1801    0.9869    0.0000 O   0  0  0  0  0  0  0  0  0
   -0.6449   -0.4420    0.0000 O   0  0  0  0  0  0  0  0  0
    0.4820   -0.1401    0.0000 N   0  0  0  0  0  0  0  0  0
    1.1965    0.2724    0.0000 C   0  0  0  0  0  0  0  0  0
    1.9110   -0.1401    0.0000 C   0  0  0  0  0  0  0  0  0
    2.6254    0.2724    0.0000 C   0  0  0  0  0  0  0  0  0
    2.6254    1.0974    0.0000 C   0  0  0  0  0  0  0  0  0
    3.3399    1.5099    0.0000 N   0  0  0  0  0  0  0  0  0
    4.0544    1.0974    0.0000 C   0  0  0  0  0  0  0  0  0
    4.0544    0.2724    0.0000 C   0  0  0  0  0  0  0  0  0
    3.3399   -0.1401    0.0000 C   0  0  0  0  0  0  0  0  0
    3.3399   -0.9651    0.0000 N   0  0  0  0  0  0  0  0  0
    4.0544   -1.3776    0.0000 C   0  0  0  0  0  0  0  0  0
    4.0544   -2.2026    0.0000 C   0  0  0  0  0  0  0  0  0
    3.3399   -2.6151    0.0000 N   0  0  0  0  0  0  0  0  0
    2.6254   -2.2026    0.0000 C   0  0  0  0  0  0  0  0  0
    2.6254   -1.3776    0.0000 C   0  0  0  0  0  0  0  0  0
    1.9110    1.5099    0.0000 C   0  0  0  0  0  0  0  0  0
    1.1965    1.0974    0.0000 C   0  0  0  0  0  0  0  0  0
   -0.9469    0.6849    0.0000 C   0  0  0  0  0  0  0  0  0
   -1.6614    0.2724    0.0000 C   0  0  0  0  0  0  0  0  0
   -2.3759    0.6849    0.0000 C   0  0  0  0  0  0  0  0  0
   -2.3759    1.5099    0.0000 C   0  0  0  0  0  0  0  0  0
   -1.6614    1.9224    0.0000 C   0  0  0  0  0  0  0  0  0
   -0.9469    1.5099    0.0000 C   0  0  0  0  0  0  0  0  0
   -3.0903    1.9224    0.0000 C   0  0  0  0  0  0  0  0  0
   -3.8048    1.5099    0.0000 C   0  0  0  0  0  0  0  0  0
   -4.5193    1.9224    0.0000 C   0  0  0  0  0  0  0  0  0
   -4.5193    2.7474    0.0000 C   0  0  0  0  0  0  0  0  0
   -3.8048    3.1599    0.0000 C   0  0  0  0  0  0  0  0  0
   -3.0903    2.7474    0.0000 C   0  0  0  0  0  0  0  0  0
  1  2  2  0  0  0  0
  1  3  2  0  0  0  0
  1  4  1  0  0  0  0
  1 21  1  0  0  0  0
  4  5  1  0  0  0  0
  5  6  4  0  0  0  0
  5 20  4  0  0  0  0
  6  7  4  0  0  0  0
  7  8  4  0  0  0  0
  7 12  4  0  0  0  0
  8  9  4  0  0  0  0
  8 19  4  0  0  0  0
  9 10  4  0  0  0  0
 10 11  4  0  0  0  0
 11 12  4  0  0  0  0
 12 13  1  0  0  0  0
 13 14  1  0  0  0  0
 13 18  1  0  0  0  0
 14 15  1  0  0  0  0
 15 16  1  0  0  0  0
 16 17  1  0  0  0  0
 17 18  1  0  0  0  0
 19 20  4  0  0  0  0
 21 22  4  0  0  0  0
 21 26  4  0  0  0  0
 22 23  4  0  0  0  0
 23 24  4  0  0  0  0
 24 25  4  0  0  0  0
 24 27  1  0  0  0  0
 25 26  4  0  0  0  0
 27 28  4  0  0  0  0
 27 32  4  0  0  0  0
 28 29  4  0  0  0  0
 29 30  4  0  0  0  0
 30 31  4  0  0  0  0
 31 32  4  0  0  0  0
M  STY  1   1 DAT
M  SAL   1  1   9
M  SDT   1 MRV_IMPLICIT_H                                        
M  SDD   1     0.0000    0.0000    DR    ALL  0       0  
M  SED   1 IMPL_H1
M  END
>  <Name_Molregno>
157077

>  <5-HT1A>
6.2

>  <5-HT1B>
6.5

>  <5-HT1D>
6.8

>  <5-HT2A>
6.3

>  <5-HT6>
9.3

>  <5-HT7>
5

>  <DOPAMINE D2>
5.3

>  <DOPAMINE D3>
5.5

$$$$
157459
  Marvin  02231216192D 0   1.00000     0.00000     0

 32 36  0  0  0  0  0  0  0  0999 V2000
    0.5977    1.2497    0.0000 Cl  0  0  0  0  0  0  0  0  0
    1.0102    0.5352    0.0000 C   0  0  0  0  0  0  0  0  0
    1.8352    0.5352    0.0000 C   0  0  0  0  0  0  0  0  0
    2.2477   -0.1792    0.0000 C   0  0  0  0  0  0  0  0  0
    1.8352   -0.8937    0.0000 C   0  0  0  0  0  0  0  0  0
    2.3873   -1.5068    0.0000 S   0  0  0  0  0  0  0  0  0
    3.1409   -1.1712    0.0000 C   0  0  0  0  0  0  0  0  0
    3.8554   -1.5837    0.0000 S   0  0  0  0  0  0  0  0  0
    3.4429   -2.2982    0.0000 O   0  0  0  0  0  0  0  0  0
    4.2679   -0.8693    0.0000 O   0  0  0  0  0  0  0  0  0
    4.5699   -1.9962    0.0000 N   0  0  0  0  0  0  0  0  0
    5.2843   -1.5837    0.0000 C   0  0  0  0  0  0  0  0  0
    5.9988   -1.9962    0.0000 C   0  0  0  0  0  0  0  0  0
    6.7133   -1.5837    0.0000 C   0  0  0  0  0  0  0  0  0
    6.7133   -0.7587    0.0000 C   0  0  0  0  0  0  0  0  0
    7.4278   -0.3462    0.0000 N   0  0  0  0  0  0  0  0  0
    8.1422   -0.7587    0.0000 C   0  0  0  0  0  0  0  0  0
    8.1422   -1.5837    0.0000 C   0  0  0  0  0  0  0  0  0
    7.4278   -1.9962    0.0000 C   0  0  0  0  0  0  0  0  0
    7.4278   -2.8212    0.0000 N   0  0  0  0  0  0  0  0  0
    8.1422   -3.2337    0.0000 C   0  0  0  0  0  0  0  0  0
    8.1422   -4.0587    0.0000 C   0  0  0  0  0  0  0  0  0
    7.4278   -4.4712    0.0000 N   0  0  0  0  0  0  0  0  0
    6.7133   -4.0587    0.0000 C   0  0  0  0  0  0  0  0  0
    6.7133   -3.2337    0.0000 C   0  0  0  0  0  0  0  0  0
    8.8567   -0.3462    0.0000 C   0  0  0  0  0  0  0  0  0
    5.9988   -0.3462    0.0000 C   0  0  0  0  0  0  0  0  0
    5.2843   -0.7587    0.0000 C   0  0  0  0  0  0  0  0  0
    3.0547   -0.3508    0.0000 C   0  0  0  0  0  0  0  0  0
    3.6678    0.2013    0.0000 C   0  0  0  0  0  0  0  0  0
    1.0102   -0.8937    0.0000 C   0  0  0  0  0  0  0  0  0
    0.5977   -0.1792    0.0000 C   0  0  0  0  0  0  0  0  0
  1  2  1  0  0  0  0
  2  3  4  0  0  0  0
  2 32  4  0  0  0  0
  3  4  4  0  0  0  0
  4  5  4  0  0  0  0
  4 29  4  0  0  0  0
  5  6  4  0  0  0  0
  5 31  4  0  0  0  0
  6  7  4  0  0  0  0
  7  8  1  0  0  0  0
  7 29  4  0  0  0  0
  8  9  2  0  0  0  0
  8 10  2  0  0  0  0
  8 11  1  0  0  0  0
 11 12  1  0  0  0  0
 12 13  4  0  0  0  0
 12 28  4  0  0  0  0
 13 14  4  0  0  0  0
 14 15  4  0  0  0  0
 14 19  4  0  0  0  0
 15 16  4  0  0  0  0
 15 27  4  0  0  0  0
 16 17  4  0  0  0  0
 17 18  4  0  0  0  0
 17 26  1  0  0  0  0
 18 19  4  0  0  0  0
 19 20  1  0  0  0  0
 20 21  1  0  0  0  0
 20 25  1  0  0  0  0
 21 22  1  0  0  0  0
 22 23  1  0  0  0  0
 23 24  1  0  0  0  0
 24 25  1  0  0  0  0
 27 28  4  0  0  0  0
 29 30  1  0  0  0  0
 31 32  4  0  0  0  0
M  STY  1   1 DAT
M  SAL   1  1  16
M  SDT   1 MRV_IMPLICIT_H                                        
M  SDD   1     0.0000    0.0000    DR    ALL  0       0  
M  SED   1 IMPL_H1
M  END
>  <Name_Molregno>
157459

>  <5-HT1A>
6.1

>  <5-HT1B>
5.9

>  <5-HT1D>
6.5

>  <5-HT2A>
5.7

>  <5-HT2C>
5.6

>  <5-HT6>
8.9

>  <5-HT7>
5.3

>  <DOPAMINE D2>
5.2

>  <DOPAMINE D3>
6

$$$$
157806
  Marvin  02231216192D 0   1.00000     0.00000     0

 32 36  0  0  0  0  0  0  0  0999 V2000
    0.6766    1.5468    0.0000 Cl  0  0  0  0  0  0  0  0  0
    1.0891    0.8324    0.0000 C   0  0  0  0  0  0  0  0  0
    1.9141    0.8324    0.0000 C   0  0  0  0  0  0  0  0  0
    2.3266    0.1179    0.0000 C   0  0  0  0  0  0  0  0  0
    1.9141   -0.5966    0.0000 C   0  0  0  0  0  0  0  0  0
    2.4662   -1.2097    0.0000 S   0  0  0  0  0  0  0  0  0
    3.2198   -0.8741    0.0000 C   0  0  0  0  0  0  0  0  0
    3.9343   -1.2866    0.0000 S   0  0  0  0  0  0  0  0  0
    3.5218   -2.0011    0.0000 O   0  0  0  0  0  0  0  0  0
    4.3468   -0.5721    0.0000 O   0  0  0  0  0  0  0  0  0
    4.6488   -1.6991    0.0000 N   0  0  0  0  0  0  0  0  0
    5.3633   -1.2866    0.0000 C   0  0  0  0  0  0  0  0  0
    6.0777   -1.6991    0.0000 C   0  0  0  0  0  0  0  0  0
    6.7922   -1.2866    0.0000 C   0  0  0  0  0  0  0  0  0
    6.7922   -0.4616    0.0000 C   0  0  0  0  0  0  0  0  0
    7.5067   -0.0491    0.0000 N   0  0  0  0  0  0  0  0  0
    8.2211   -0.4616    0.0000 C   0  0  0  0  0  0  0  0  0
    8.2211   -1.2866    0.0000 C   0  0  0  0  0  0  0  0  0
    7.5067   -1.6991    0.0000 C   0  0  0  0  0  0  0  0  0
    7.5067   -2.5241    0.0000 N   0  0  0  0  0  0  0  0  0
    8.2211   -2.9366    0.0000 C   0  0  0  0  0  0  0  0  0
    8.2211   -3.7616    0.0000 C   0  0  0  0  0  0  0  0  0
    7.5067   -4.1741    0.0000 N   0  0  0  0  0  0  0  0  0
    6.7922   -3.7616    0.0000 C   0  0  0  0  0  0  0  0  0
    6.7922   -2.9366    0.0000 C   0  0  0  0  0  0  0  0  0
    7.5067   -4.9991    0.0000 C   0  0  0  0  0  0  0  0  0
    6.0777   -0.0491    0.0000 C   0  0  0  0  0  0  0  0  0
    5.3633   -0.4616    0.0000 C   0  0  0  0  0  0  0  0  0
    3.1336   -0.0536    0.0000 C   0  0  0  0  0  0  0  0  0
    3.7467    0.4984    0.0000 C   0  0  0  0  0  0  0  0  0
    1.0891   -0.5966    0.0000 C   0  0  0  0  0  0  0  0  0
    0.6766    0.1179    0.0000 C   0  0  0  0  0  0  0  0  0
  1  2  1  0  0  0  0
  2  3  4  0  0  0  0
  2 32  4  0  0  0  0
  3  4  4  0  0  0  0
  4  5  4  0  0  0  0
  4 29  4  0  0  0  0
  5  6  4  0  0  0  0
  5 31  4  0  0  0  0
  6  7  4  0  0  0  0
  7  8  1  0  0  0  0
  7 29  4  0  0  0  0
  8  9  2  0  0  0  0
  8 10  2  0  0  0  0
  8 11  1  0  0  0  0
 11 12  1  0  0  0  0
 12 13  4  0  0  0  0
 12 28  4  0  0  0  0
 13 14  4  0  0  0  0
 14 15  4  0  0  0  0
 14 19  4  0  0  0  0
 15 16  4  0  0  0  0
 15 27  4  0  0  0  0
 16 17  4  0  0  0  0
 17 18  4  0  0  0  0
 18 19  4  0  0  0  0
 19 20  1  0  0  0  0
 20 21  1  0  0  0  0
 20 25  1  0  0  0  0
 21 22  1  0  0  0  0
 22 23  1  0  0  0  0
 23 24  1  0  0  0  0
 23 26  1  0  0  0  0
 24 25  1  0  0  0  0
 27 28  4  0  0  0  0
 29 30  1  0  0  0  0
 31 32  4  0  0  0  0
M  STY  1   1 DAT
M  SAL   1  1  16
M  SDT   1 MRV_IMPLICIT_H                                        
M  SDD   1     0.0000    0.0000    DR    ALL  0       0  
M  SED   1 IMPL_H1
M  END
>  <Name_Molregno>
157806

>  <5-HT1A>
6.1

>  <5-HT1B>
6.3

>  <5-HT1D>
6.6

>  <5-HT2A>
6

>  <5-HT2C>
5.3

>  <5-HT6>
9

>  <5-HT7>
5.7

>  <DOPAMINE D2>
5.1

>  <DOPAMINE D3>
5.4

$$$$
157834
  Marvin  02231216192D 0   1.00000     0.00000     0

 31 35  0  0  0  0  0  0  0  0999 V2000
   -0.2147    0.7807    0.0000 Cl  0  0  0  0  0  0  0  0  0
    0.4998    1.1932    0.0000 C   0  0  0  0  0  0  0  0  0
    1.2143    0.7807    0.0000 C   0  0  0  0  0  0  0  0  0
    1.9287    1.1932    0.0000 C   0  0  0  0  0  0  0  0  0
    2.6432    0.7807    0.0000 C   0  0  0  0  0  0  0  0  0
    2.6432   -0.0443    0.0000 C   0  0  0  0  0  0  0  0  0
    3.3577   -0.4568    0.0000 S   0  0  0  0  0  0  0  0  0
    2.9452   -1.1712    0.0000 O   0  0  0  0  0  0  0  0  0
    3.7702    0.2577    0.0000 O   0  0  0  0  0  0  0  0  0
    4.0721   -0.8693    0.0000 N   0  0  0  0  0  0  0  0  0
    4.7866   -0.4568    0.0000 C   0  0  0  0  0  0  0  0  0
    5.5011   -0.8693    0.0000 C   0  0  0  0  0  0  0  0  0
    6.2156   -0.4568    0.0000 C   0  0  0  0  0  0  0  0  0
    6.2156    0.3682    0.0000 C   0  0  0  0  0  0  0  0  0
    6.9300    0.7807    0.0000 N   0  0  0  0  0  0  0  0  0
    7.6445    0.3682    0.0000 C   0  0  0  0  0  0  0  0  0
    7.6445   -0.4568    0.0000 C   0  0  0  0  0  0  0  0  0
    6.9300   -0.8693    0.0000 C   0  0  0  0  0  0  0  0  0
    6.9300   -1.6943    0.0000 N   0  0  0  0  0  0  0  0  0
    7.6445   -2.1068    0.0000 C   0  0  0  0  0  0  0  0  0
    7.6445   -2.9318    0.0000 C   0  0  0  0  0  0  0  0  0
    6.9300   -3.3443    0.0000 N   0  0  0  0  0  0  0  0  0
    6.2156   -2.9318    0.0000 C   0  0  0  0  0  0  0  0  0
    6.2156   -2.1068    0.0000 C   0  0  0  0  0  0  0  0  0
    5.5011    0.7807    0.0000 C   0  0  0  0  0  0  0  0  0
    4.7866    0.3682    0.0000 C   0  0  0  0  0  0  0  0  0
    1.9287   -0.4568    0.0000 C   0  0  0  0  0  0  0  0  0
    1.2143   -0.0443    0.0000 C   0  0  0  0  0  0  0  0  0
    1.9287    2.0182    0.0000 C   0  0  0  0  0  0  0  0  0
    1.2143    2.4307    0.0000 C   0  0  0  0  0  0  0  0  0
    0.4998    2.0182    0.0000 C   0  0  0  0  0  0  0  0  0
  1  2  1  0  0  0  0
  2  3  4  0  0  0  0
  2 31  4  0  0  0  0
  3  4  4  0  0  0  0
  3 28  4  0  0  0  0
  4  5  4  0  0  0  0
  4 29  4  0  0  0  0
  5  6  4  0  0  0  0
  6  7  1  0  0  0  0
  6 27  4  0  0  0  0
  7  8  2  0  0  0  0
  7  9  2  0  0  0  0
  7 10  1  0  0  0  0
 10 11  1  0  0  0  0
 11 12  4  0  0  0  0
 11 26  4  0  0  0  0
 12 13  4  0  0  0  0
 13 14  4  0  0  0  0
 13 18  4  0  0  0  0
 14 15  4  0  0  0  0
 14 25  4  0  0  0  0
 15 16  4  0  0  0  0
 16 17  4  0  0  0  0
 17 18  4  0  0  0  0
 18 19  1  0  0  0  0
 19 20  1  0  0  0  0
 19 24  1  0  0  0  0
 20 21  1  0  0  0  0
 21 22  1  0  0  0  0
 22 23  1  0  0  0  0
 23 24  1  0  0  0  0
 25 26  4  0  0  0  0
 27 28  4  0  0  0  0
 29 30  4  0  0  0  0
 30 31  4  0  0  0  0
M  STY  1   1 DAT
M  SAL   1  1  15
M  SDT   1 MRV_IMPLICIT_H                                        
M  SDD   1     0.0000    0.0000    DR    ALL  0       0  
M  SED   1 IMPL_H1
M  END
>  <Name_Molregno>
157834

>  <5-HT1A>
6.8

>  <5-HT1B>
6.2

>  <5-HT1D>
6.7

>  <5-HT2A>
6

>  <5-HT2C>
5.6

>  <5-HT6>
9

>  <5-HT7>
5.6

>  <DOPAMINE D2>
5.3

>  <DOPAMINE D3>
5.6

$$$$
157908
  Marvin  02231216192D 0   1.00000     0.00000     0

 30 33  0  0  0  0  0  0  0  0999 V2000
   -1.7605   -0.6940    0.0000 S   0  0  0  0  0  0  0  0  0
   -1.3480    0.0205    0.0000 O   0  0  0  0  0  0  0  0  0
   -2.1730   -1.4085    0.0000 O   0  0  0  0  0  0  0  0  0
   -1.0461   -1.1065    0.0000 N   0  0  0  0  0  0  0  0  0
   -0.3316   -0.6940    0.0000 C   0  0  0  0  0  0  0  0  0
    0.3829   -1.1065    0.0000 C   0  0  0  0  0  0  0  0  0
    1.0973   -0.6940    0.0000 C   0  0  0  0  0  0  0  0  0
    1.0973    0.1310    0.0000 C   0  0  0  0  0  0  0  0  0
    1.8118    0.5435    0.0000 N   0  0  0  0  0  0  0  0  0
    2.5263    0.1310    0.0000 C   0  0  0  0  0  0  0  0  0
    2.5263   -0.6940    0.0000 C   0  0  0  0  0  0  0  0  0
    1.8118   -1.1065    0.0000 C   0  0  0  0  0  0  0  0  0
    1.8118   -1.9315    0.0000 N   0  0  0  0  0  0  0  0  0
    2.5263   -2.3440    0.0000 C   0  0  0  0  0  0  0  0  0
    2.5263   -3.1690    0.0000 C   0  0  0  0  0  0  0  0  0
    1.8118   -3.5815    0.0000 N   0  0  0  0  0  0  0  0  0
    1.0973   -3.1690    0.0000 C   0  0  0  0  0  0  0  0  0
    1.0973   -2.3440    0.0000 C   0  0  0  0  0  0  0  0  0
    0.3829    0.5435    0.0000 C   0  0  0  0  0  0  0  0  0
   -0.3316    0.1310    0.0000 C   0  0  0  0  0  0  0  0  0
   -2.4750   -0.2815    0.0000 C   0  0  0  0  0  0  0  0  0
   -3.1895   -0.6940    0.0000 C   0  0  0  0  0  0  0  0  0
   -3.9040   -0.2815    0.0000 C   0  0  0  0  0  0  0  0  0
   -3.9040    0.5435    0.0000 C   0  0  0  0  0  0  0  0  0
   -3.1895    0.9560    0.0000 C   0  0  0  0  0  0  0  0  0
   -2.4750    0.5435    0.0000 C   0  0  0  0  0  0  0  0  0
   -4.6184    0.9560    0.0000 C   0  0  0  0  0  0  0  0  0
   -5.3329    1.3685    0.0000 C   0  0  0  0  0  0  0  0  0
   -4.2059    1.6705    0.0000 C   0  0  0  0  0  0  0  0  0
   -5.0309    0.2415    0.0000 C   0  0  0  0  0  0  0  0  0
  1  2  2  0  0  0  0
  1  3  2  0  0  0  0
  1  4  1  0  0  0  0
  1 21  1  0  0  0  0
  4  5  1  0  0  0  0
  5  6  4  0  0  0  0
  5 20  4  0  0  0  0
  6  7  4  0  0  0  0
  7  8  4  0  0  0  0
  7 12  4  0  0  0  0
  8  9  4  0  0  0  0
  8 19  4  0  0  0  0
  9 10  4  0  0  0  0
 10 11  4  0  0  0  0
 11 12  4  0  0  0  0
 12 13  1  0  0  0  0
 13 14  1  0  0  0  0
 13 18  1  0  0  0  0
 14 15  1  0  0  0  0
 15 16  1  0  0  0  0
 16 17  1  0  0  0  0
 17 18  1  0  0  0  0
 19 20  4  0  0  0  0
 21 22  4  0  0  0  0
 21 26  4  0  0  0  0
 22 23  4  0  0  0  0
 23 24  4  0  0  0  0
 24 25  4  0  0  0  0
 24 27  1  0  0  0  0
 25 26  4  0  0  0  0
 27 28  1  0  0  0  0
 27 29  1  0  0  0  0
 27 30  1  0  0  0  0
M  STY  1   1 DAT
M  SAL   1  1   9
M  SDT   1 MRV_IMPLICIT_H                                        
M  SDD   1     0.0000    0.0000    DR    ALL  0       0  
M  SED   1 IMPL_H1
M  END
>  <Name_Molregno>
157908

>  <5-HT1A>
6.1

>  <5-HT1B>
5.8

>  <5-HT1D>
5.9

>  <5-HT2A>
5.5

>  <5-HT2C>
5.7

>  <5-HT6>
9.2

>  <5-HT7>
5

>  <DOPAMINE D2>
5

>  <DOPAMINE D3>
5.3

$$$$
157986
  Marvin  02231216192D 0   1.00000     0.00000     0

 32 36  0  0  1  0  0  0  0  0999 V2000
    0.6566    1.4750    0.0000 Cl  0  0  0  0  0  0  0  0  0
    1.0691    0.7605    0.0000 C   0  0  0  0  0  0  0  0  0
    1.8941    0.7605    0.0000 C   0  0  0  0  0  0  0  0  0
    2.3066    0.0461    0.0000 C   0  0  0  0  0  0  0  0  0
    1.8941   -0.6684    0.0000 C   0  0  0  0  0  0  0  0  0
    2.4461   -1.2815    0.0000 S   0  0  0  0  0  0  0  0  0
    3.1998   -0.9460    0.0000 C   0  0  0  0  0  0  0  0  0
    3.9142   -1.3585    0.0000 S   0  0  0  0  0  0  0  0  0
    3.5017   -2.0729    0.0000 O   0  0  0  0  0  0  0  0  0
    4.3267   -0.6440    0.0000 O   0  0  0  0  0  0  0  0  0
    4.6287   -1.7710    0.0000 N   0  0  0  0  0  0  0  0  0
    5.3432   -1.3585    0.0000 C   0  0  0  0  0  0  0  0  0
    6.0576   -1.7710    0.0000 C   0  0  0  0  0  0  0  0  0
    6.7721   -1.3585    0.0000 C   0  0  0  0  0  0  0  0  0
    6.7721   -0.5335    0.0000 C   0  0  0  0  0  0  0  0  0
    7.4866   -0.1210    0.0000 N   0  0  0  0  0  0  0  0  0
    8.2011   -0.5335    0.0000 C   0  0  0  0  0  0  0  0  0
    8.2011   -1.3585    0.0000 C   0  0  0  0  0  0  0  0  0
    7.4866   -1.7710    0.0000 C   0  0  0  0  0  0  0  0  0
    7.4866   -2.5960    0.0000 N   0  0  0  0  0  0  0  0  0
    8.2011   -3.0085    0.0000 C   0  0  0  0  0  0  0  0  0
    8.2011   -3.8335    0.0000 C   0  0  0  0  0  0  0  0  0
    7.4866   -4.2460    0.0000 N   0  0  0  0  0  0  0  0  0
    6.7721   -3.8335    0.0000 C   0  0  0  0  0  0  0  0  0
    6.7721   -3.0085    0.0000 C   0  0  0  0  0  0  0  0  0
    8.9155   -4.2460    0.0000 C   0  0  0  0  0  0  0  0  0
    6.0576   -0.1210    0.0000 C   0  0  0  0  0  0  0  0  0
    5.3432   -0.5335    0.0000 C   0  0  0  0  0  0  0  0  0
    3.1135   -0.1255    0.0000 C   0  0  0  0  0  0  0  0  0
    3.7266    0.4266    0.0000 C   0  0  0  0  0  0  0  0  0
    1.0691   -0.6684    0.0000 C   0  0  0  0  0  0  0  0  0
    0.6566    0.0461    0.0000 C   0  0  0  0  0  0  0  0  0
  1  2  1  0  0  0  0
  2  3  4  0  0  0  0
  2 32  4  0  0  0  0
  3  4  4  0  0  0  0
  4  5  4  0  0  0  0
  4 29  4  0  0  0  0
  5  6  4  0  0  0  0
  5 31  4  0  0  0  0
  6  7  4  0  0  0  0
  7  8  1  0  0  0  0
  7 29  4  0  0  0  0
  8  9  2  0  0  0  0
  8 10  2  0  0  0  0
  8 11  1  0  0  0  0
 11 12  1  0  0  0  0
 12 13  4  0  0  0  0
 12 28  4  0  0  0  0
 13 14  4  0  0  0  0
 14 15  4  0  0  0  0
 14 19  4  0  0  0  0
 15 16  4  0  0  0  0
 15 27  4  0  0  0  0
 16 17  4  0  0  0  0
 17 18  4  0  0  0  0
 18 19  4  0  0  0  0
 19 20  1  0  0  0  0
 20 21  1  0  0  0  0
 20 25  1  0  0  0  0
 21 22  1  0  0  0  0
 22 23  1  0  0  0  0
 22 26  1  0  0  0  0
 23 24  1  0  0  0  0
 24 25  1  0  0  0  0
 27 28  4  0  0  0  0
 29 30  1  0  0  0  0
 31 32  4  0  0  0  0
M  STY  1   1 DAT
M  SAL   1  1  16
M  SDT   1 MRV_IMPLICIT_H                                        
M  SDD   1     0.0000    0.0000    DR    ALL  0       0  
M  SED   1 IMPL_H1
M  END
>  <Name_Molregno>
157986

>  <5-HT1A>
6

>  <5-HT1B>
5.6

>  <5-HT1D>
6.4

>  <5-HT2A>
5.6

>  <5-HT2C>
5.4

>  <5-HT6>
8.9

>  <5-HT7>
5.3

>  <DOPAMINE D2>
5.5

>  <DOPAMINE D3>
5.7

$$$$
158033
  Marvin  02231216192D 0   1.00000     0.00000     0

 31 35  0  0  0  0  0  0  0  0999 V2000
   -3.7032   -0.0442    0.0000 Cl  0  0  0  0  0  0  0  0  0
   -4.2552   -0.6573    0.0000 C   0  0  0  0  0  0  0  0  0
   -4.0003   -1.4419    0.0000 C   0  0  0  0  0  0  0  0  0
   -4.5523   -2.0550    0.0000 C   0  0  0  0  0  0  0  0  0
   -5.3593   -1.8835    0.0000 C   0  0  0  0  0  0  0  0  0
   -5.7718   -2.5979    0.0000 S   0  0  0  0  0  0  0  0  0
   -5.2198   -3.2110    0.0000 C   0  0  0  0  0  0  0  0  0
   -5.3913   -4.0180    0.0000 C   0  0  0  0  0  0  0  0  0
   -4.4661   -2.8755    0.0000 C   0  0  0  0  0  0  0  0  0
   -3.7516   -3.2880    0.0000 S   0  0  0  0  0  0  0  0  0
   -4.1641   -4.0024    0.0000 O   0  0  0  0  0  0  0  0  0
   -3.3391   -2.5735    0.0000 O   0  0  0  0  0  0  0  0  0
   -3.0372   -3.7005    0.0000 N   0  0  0  0  0  0  0  0  0
   -2.3227   -3.2880    0.0000 C   0  0  0  0  0  0  0  0  0
   -1.6082   -3.7005    0.0000 C   0  0  0  0  0  0  0  0  0
   -0.8937   -3.2880    0.0000 C   0  0  0  0  0  0  0  0  0
   -0.8937   -2.4630    0.0000 C   0  0  0  0  0  0  0  0  0
   -0.1793   -2.0505    0.0000 N   0  0  0  0  0  0  0  0  0
    0.5352   -2.4630    0.0000 C   0  0  0  0  0  0  0  0  0
    0.5352   -3.2880    0.0000 C   0  0  0  0  0  0  0  0  0
   -0.1793   -3.7005    0.0000 C   0  0  0  0  0  0  0  0  0
   -0.1793   -4.5255    0.0000 N   0  0  0  0  0  0  0  0  0
    0.5352   -4.9380    0.0000 C   0  0  0  0  0  0  0  0  0
    0.5352   -5.7630    0.0000 C   0  0  0  0  0  0  0  0  0
   -0.1793   -6.1755    0.0000 N   0  0  0  0  0  0  0  0  0
   -0.8937   -5.7630    0.0000 C   0  0  0  0  0  0  0  0  0
   -0.8937   -4.9380    0.0000 C   0  0  0  0  0  0  0  0  0
   -1.6082   -2.0505    0.0000 C   0  0  0  0  0  0  0  0  0
   -2.3227   -2.4630    0.0000 C   0  0  0  0  0  0  0  0  0
   -5.6142   -1.0988    0.0000 C   0  0  0  0  0  0  0  0  0
   -5.0622   -0.4858    0.0000 C   0  0  0  0  0  0  0  0  0
  1  2  1  0  0  0  0
  2  3  4  0  0  0  0
  2 31  4  0  0  0  0
  3  4  4  0  0  0  0
  4  5  4  0  0  0  0
  4  9  4  0  0  0  0
  5  6  4  0  0  0  0
  5 30  4  0  0  0  0
  6  7  4  0  0  0  0
  7  8  1  0  0  0  0
  7  9  4  0  0  0  0
  9 10  1  0  0  0  0
 10 11  2  0  0  0  0
 10 12  2  0  0  0  0
 10 13  1  0  0  0  0
 13 14  1  0  0  0  0
 14 15  4  0  0  0  0
 14 29  4  0  0  0  0
 15 16  4  0  0  0  0
 16 17  4  0  0  0  0
 16 21  4  0  0  0  0
 17 18  4  0  0  0  0
 17 28  4  0  0  0  0
 18 19  4  0  0  0  0
 19 20  4  0  0  0  0
 20 21  4  0  0  0  0
 21 22  1  0  0  0  0
 22 23  1  0  0  0  0
 22 27  1  0  0  0  0
 23 24  1  0  0  0  0
 24 25  1  0  0  0  0
 25 26  1  0  0  0  0
 26 27  1  0  0  0  0
 28 29  4  0  0  0  0
 30 31  4  0  0  0  0
M  STY  1   1 DAT
M  SAL   1  1  18
M  SDT   1 MRV_IMPLICIT_H                                        
M  SDD   1     0.0000    0.0000    DR    ALL  0       0  
M  SED   1 IMPL_H1
M  END
>  <Name_Molregno>
158033

>  <5-HT1A>
6.6

>  <5-HT1B>
6.3

>  <5-HT1D>
6.4

>  <5-HT2A>
5.7

>  <5-HT2C>
5.9

>  <5-HT6>
9

>  <5-HT7>
5.8

>  <DOPAMINE D2>
5.4

>  <DOPAMINE D3>
5.8

$$$$
158053
  Marvin  02231216192D 0   1.00000     0.00000     0

 31 35  0  0  0  0  0  0  0  0999 V2000
    0.7824    2.2935    0.0000 Cl  0  0  0  0  0  0  0  0  0
    1.1949    1.5790    0.0000 C   0  0  0  0  0  0  0  0  0
    2.0199    1.5790    0.0000 C   0  0  0  0  0  0  0  0  0
    2.4324    0.8645    0.0000 C   0  0  0  0  0  0  0  0  0
    2.0199    0.1501    0.0000 C   0  0  0  0  0  0  0  0  0
    2.5720   -0.4630    0.0000 S   0  0  0  0  0  0  0  0  0
    3.3256   -0.1275    0.0000 C   0  0  0  0  0  0  0  0  0
    4.0401   -0.5400    0.0000 S   0  0  0  0  0  0  0  0  0
    3.6276   -1.2545    0.0000 O   0  0  0  0  0  0  0  0  0
    4.4526    0.1745    0.0000 O   0  0  0  0  0  0  0  0  0
    4.7546   -0.9525    0.0000 N   0  0  0  0  0  0  0  0  0
    5.4691   -0.5400    0.0000 C   0  0  0  0  0  0  0  0  0
    6.1835   -0.9525    0.0000 C   0  0  0  0  0  0  0  0  0
    6.8980   -0.5400    0.0000 C   0  0  0  0  0  0  0  0  0
    6.8980    0.2850    0.0000 C   0  0  0  0  0  0  0  0  0
    7.6125    0.6975    0.0000 N   0  0  0  0  0  0  0  0  0
    8.3269    0.2850    0.0000 C   0  0  0  0  0  0  0  0  0
    8.3269   -0.5400    0.0000 C   0  0  0  0  0  0  0  0  0
    7.6125   -0.9525    0.0000 C   0  0  0  0  0  0  0  0  0
    7.6125   -1.7775    0.0000 N   0  0  0  0  0  0  0  0  0
    8.3269   -2.1900    0.0000 C   0  0  0  0  0  0  0  0  0
    8.3269   -3.0150    0.0000 C   0  0  0  0  0  0  0  0  0
    7.6125   -3.4275    0.0000 N   0  0  0  0  0  0  0  0  0
    6.8980   -3.0150    0.0000 C   0  0  0  0  0  0  0  0  0
    6.8980   -2.1900    0.0000 C   0  0  0  0  0  0  0  0  0
    6.1835    0.6975    0.0000 C   0  0  0  0  0  0  0  0  0
    5.4691    0.2850    0.0000 C   0  0  0  0  0  0  0  0  0
    3.2394    0.6930    0.0000 C   0  0  0  0  0  0  0  0  0
    3.8525    1.2450    0.0000 C   0  0  0  0  0  0  0  0  0
    1.1949    0.1501    0.0000 C   0  0  0  0  0  0  0  0  0
    0.7824    0.8645    0.0000 C   0  0  0  0  0  0  0  0  0
  1  2  1  0  0  0  0
  2  3  4  0  0  0  0
  2 31  4  0  0  0  0
  3  4  4  0  0  0  0
  4  5  4  0  0  0  0
  4 28  4  0  0  0  0
  5  6  4  0  0  0  0
  5 30  4  0  0  0  0
  6  7  4  0  0  0  0
  7  8  1  0  0  0  0
  7 28  4  0  0  0  0
  8  9  2  0  0  0  0
  8 10  2  0  0  0  0
  8 11  1  0  0  0  0
 11 12  1  0  0  0  0
 12 13  4  0  0  0  0
 12 27  4  0  0  0  0
 13 14  4  0  0  0  0
 14 15  4  0  0  0  0
 14 19  4  0  0  0  0
 15 16  4  0  0  0  0
 15 26  4  0  0  0  0
 16 17  4  0  0  0  0
 17 18  4  0  0  0  0
 18 19  4  0  0  0  0
 19 20  1  0  0  0  0
 20 21  1  0  0  0  0
 20 25  1  0  0  0  0
 21 22  1  0  0  0  0
 22 23  1  0  0  0  0
 23 24  1  0  0  0  0
 24 25  1  0  0  0  0
 26 27  4  0  0  0  0
 28 29  1  0  0  0  0
 30 31  4  0  0  0  0
M  STY  1   1 DAT
M  SAL   1  1  16
M  SDT   1 MRV_IMPLICIT_H                                        
M  SDD   1     0.0000    0.0000    DR    ALL  0       0  
M  SED   1 IMPL_H1
M  END
>  <Name_Molregno>
158053

>  <5-HT1A>
6

>  <5-HT1B>
5.7

>  <5-HT1D>
6.2

>  <5-HT2A>
5.6

>  <5-HT2C>
5.6

>  <5-HT6>
8.7

>  <5-HT7>
5.1

>  <DOPAMINE D2>
5

>  <DOPAMINE D3>
5.8

$$$$
158169
  Marvin  02231216192D 0   1.00000     0.00000     0

 32 36  0  0  0  0  0  0  0  0999 V2000
    0.7068    2.2807    0.0000 Cl  0  0  0  0  0  0  0  0  0
    1.1193    1.5662    0.0000 C   0  0  0  0  0  0  0  0  0
    1.9443    1.5662    0.0000 C   0  0  0  0  0  0  0  0  0
    2.3568    0.8517    0.0000 C   0  0  0  0  0  0  0  0  0
    1.9443    0.1373    0.0000 C   0  0  0  0  0  0  0  0  0
    2.4963   -0.4758    0.0000 S   0  0  0  0  0  0  0  0  0
    3.2500   -0.1403    0.0000 C   0  0  0  0  0  0  0  0  0
    3.9645   -0.5528    0.0000 S   0  0  0  0  0  0  0  0  0
    3.5520   -1.2672    0.0000 O   0  0  0  0  0  0  0  0  0
    4.3770    0.1617    0.0000 O   0  0  0  0  0  0  0  0  0
    4.6789   -0.9653    0.0000 N   0  0  0  0  0  0  0  0  0
    5.3934   -0.5528    0.0000 C   0  0  0  0  0  0  0  0  0
    6.1079   -0.9653    0.0000 C   0  0  0  0  0  0  0  0  0
    6.8223   -0.5528    0.0000 C   0  0  0  0  0  0  0  0  0
    6.8223    0.2722    0.0000 C   0  0  0  0  0  0  0  0  0
    7.5368    0.6847    0.0000 N   0  0  0  0  0  0  0  0  0
    8.2513    0.2722    0.0000 C   0  0  0  0  0  0  0  0  0
    8.2513   -0.5528    0.0000 C   0  0  0  0  0  0  0  0  0
    7.5368   -0.9653    0.0000 C   0  0  0  0  0  0  0  0  0
    7.5368   -1.7903    0.0000 N   0  0  0  0  0  0  0  0  0
    8.2513   -2.2028    0.0000 C   0  0  0  0  0  0  0  0  0
    8.2513   -3.0278    0.0000 C   0  0  0  0  0  0  0  0  0
    7.5368   -3.4403    0.0000 N   0  0  0  0  0  0  0  0  0
    6.8223   -3.0278    0.0000 C   0  0  0  0  0  0  0  0  0
    6.8223   -2.2028    0.0000 C   0  0  0  0  0  0  0  0  0
    6.1079    0.6847    0.0000 C   0  0  0  0  0  0  0  0  0
    5.3934    0.2722    0.0000 C   0  0  0  0  0  0  0  0  0
    3.1638    0.6802    0.0000 C   0  0  0  0  0  0  0  0  0
    3.7768    1.2322    0.0000 C   0  0  0  0  0  0  0  0  0
    4.5615    0.9773    0.0000 C   0  0  0  0  0  0  0  0  0
    1.1193    0.1373    0.0000 C   0  0  0  0  0  0  0  0  0
    0.7068    0.8517    0.0000 C   0  0  0  0  0  0  0  0  0
  1  2  1  0  0  0  0
  2  3  4  0  0  0  0
  2 32  4  0  0  0  0
  3  4  4  0  0  0  0
  4  5  4  0  0  0  0
  4 28  4  0  0  0  0
  5  6  4  0  0  0  0
  5 31  4  0  0  0  0
  6  7  4  0  0  0  0
  7  8  1  0  0  0  0
  7 28  4  0  0  0  0
  8  9  2  0  0  0  0
  8 10  2  0  0  0  0
  8 11  1  0  0  0  0
 11 12  1  0  0  0  0
 12 13  4  0  0  0  0
 12 27  4  0  0  0  0
 13 14  4  0  0  0  0
 14 15  4  0  0  0  0
 14 19  4  0  0  0  0
 15 16  4  0  0  0  0
 15 26  4  0  0  0  0
 16 17  4  0  0  0  0
 17 18  4  0  0  0  0
 18 19  4  0  0  0  0
 19 20  1  0  0  0  0
 20 21  1  0  0  0  0
 20 25  1  0  0  0  0
 21 22  1  0  0  0  0
 22 23  1  0  0  0  0
 23 24  1  0  0  0  0
 24 25  1  0  0  0  0
 26 27  4  0  0  0  0
 28 29  1  0  0  0  0
 29 30  1  0  0  0  0
 31 32  4  0  0  0  0
M  STY  1   1 DAT
M  SAL   1  1  16
M  SDT   1 MRV_IMPLICIT_H                                        
M  SDD   1     0.0000    0.0000    DR    ALL  0       0  
M  SED   1 IMPL_H1
M  END
>  <Name_Molregno>
158169

>  <5-HT1A>
5.4

>  <5-HT1B>
5.5

>  <5-HT1D>
5.6

>  <5-HT2A>
5.9

>  <5-HT2C>
5.9

>  <5-HT6>
8.9

>  <5-HT7>
5.3

>  <DOPAMINE D2>
6

>  <DOPAMINE D3>
5

$$$$
170328
  Marvin  02231216192D 0   1.00000     0.00000     0

 26 29  0  0  0  0  0  0  0  0999 V2000
    7.8472   -4.0396    0.0000 F   0  0  0  0  0  0  0  0  0
    7.1328   -3.6271    0.0000 C   0  0  0  0  0  0  0  0  0
    6.4183   -4.0396    0.0000 C   0  0  0  0  0  0  0  0  0
    5.7038   -3.6271    0.0000 C   0  0  0  0  0  0  0  0  0
    5.7038   -2.8021    0.0000 C   0  0  0  0  0  0  0  0  0
    6.4183   -2.3896    0.0000 C   0  0  0  0  0  0  0  0  0
    7.1328   -2.8021    0.0000 C   0  0  0  0  0  0  0  0  0
    4.9894   -2.3896    0.0000 C   0  0  0  0  0  0  0  0  0
    4.9894   -1.5646    0.0000 O   0  0  0  0  0  0  0  0  0
    4.2749   -2.8021    0.0000 N   0  0  0  0  0  0  0  0  0
    3.5604   -2.3896    0.0000 C   0  0  0  0  0  0  0  0  0
    2.8459   -2.8021    0.0000 C   0  0  0  0  0  0  0  0  0
    2.1315   -2.3896    0.0000 C   0  0  0  0  0  0  0  0  0
    2.1315   -1.5646    0.0000 C   0  0  0  0  0  0  0  0  0
    1.3468   -1.3097    0.0000 N   0  0  0  0  0  0  0  0  0
    0.8619   -1.9771    0.0000 C   0  0  0  0  0  0  0  0  0
    1.3468   -2.6445    0.0000 C   0  0  0  0  0  0  0  0  0
    1.0919   -3.4292    0.0000 C   0  0  0  0  0  0  0  0  0
    1.6439   -4.0423    0.0000 C   0  0  0  0  0  0  0  0  0
    1.3890   -4.8269    0.0000 C   0  0  0  0  0  0  0  0  0
    0.5820   -4.9984    0.0000 N   0  0  0  0  0  0  0  0  0
    0.0300   -4.3853    0.0000 C   0  0  0  0  0  0  0  0  0
    0.2849   -3.6007    0.0000 C   0  0  0  0  0  0  0  0  0
    0.3271   -5.7830    0.0000 C   0  0  0  0  0  0  0  0  0
    2.8459   -1.1521    0.0000 C   0  0  0  0  0  0  0  0  0
    3.5604   -1.5646    0.0000 C   0  0  0  0  0  0  0  0  0
  1  2  1  0  0  0  0
  2  3  4  0  0  0  0
  2  7  4  0  0  0  0
  3  4  4  0  0  0  0
  4  5  4  0  0  0  0
  5  6  4  0  0  0  0
  5  8  1  0  0  0  0
  6  7  4  0  0  0  0
  8  9  2  0  0  0  0
  8 10  1  0  0  0  0
 10 11  1  0  0  0  0
 11 12  4  0  0  0  0
 11 26  4  0  0  0  0
 12 13  4  0  0  0  0
 13 14  4  0  0  0  0
 13 17  4  0  0  0  0
 14 15  4  0  0  0  0
 14 25  4  0  0  0  0
 15 16  4  0  0  0  0
 16 17  4  0  0  0  0
 17 18  1  0  0  0  0
 18 19  1  0  0  0  0
 18 23  1  0  0  0  0
 19 20  1  0  0  0  0
 20 21  1  0  0  0  0
 21 22  1  0  0  0  0
 21 24  1  0  0  0  0
 22 23  1  0  0  0  0
 25 26  4  0  0  0  0
M  STY  1   1 DAT
M  SAL   1  1  15
M  SDT   1 MRV_IMPLICIT_H                                        
M  SDD   1     0.0000    0.0000    DR    ALL  0       0  
M  SED   1 IMPL_H1
M  END
>  <Name_Molregno>
170328

>  <5-HT1A>
7.66

>  <5-HT1B>
6.93

>  <5-HT1D>
6.7

$$$$
177225
  Marvin  02231216192D 0   1.00000     0.00000     0

 29 32  0  0  0  0  0  0  0  0999 V2000
    0.2230   -0.9337    0.0000 O   0  0  0  0  0  0  0  0  0
    0.9374   -0.5212    0.0000 C   0  0  0  0  0  0  0  0  0
    1.6519   -0.9337    0.0000 C   0  0  0  0  0  0  0  0  0
    1.6519   -1.7587    0.0000 O   0  0  0  0  0  0  0  0  0
    2.3664   -0.5212    0.0000 N   0  0  0  0  0  0  0  0  0
    2.3664    0.3038    0.0000 C   0  0  0  0  0  0  0  0  0
    3.0808    0.7163    0.0000 C   0  0  0  0  0  0  0  0  0
    3.7953    0.3038    0.0000 N   0  0  0  0  0  0  0  0  0
    3.7953   -0.5212    0.0000 C   0  0  0  0  0  0  0  0  0
    3.0808   -0.9337    0.0000 C   0  0  0  0  0  0  0  0  0
    4.5098    0.7163    0.0000 C   0  0  0  0  0  0  0  0  0
    4.5098    1.5413    0.0000 C   0  0  0  0  0  0  0  0  0
    5.2243    1.9538    0.0000 C   0  0  0  0  0  0  0  0  0
    5.9387    1.5413    0.0000 C   0  0  0  0  0  0  0  0  0
    5.9387    0.7163    0.0000 C   0  0  0  0  0  0  0  0  0
    5.2243    0.3038    0.0000 C   0  0  0  0  0  0  0  0  0
    5.2243   -0.5212    0.0000 C   0  0  0  0  0  0  0  0  0
   -0.4915   -0.5212    0.0000 C   0  0  0  0  0  0  0  0  0
   -1.2060   -0.9337    0.0000 C   0  0  0  0  0  0  0  0  0
   -1.9205   -0.5212    0.0000 C   0  0  0  0  0  0  0  0  0
   -1.9205    0.3038    0.0000 C   0  0  0  0  0  0  0  0  0
   -2.7051    0.5588    0.0000 N   0  0  0  0  0  0  0  0  0
   -3.1900   -0.1087    0.0000 C   0  0  0  0  0  0  0  0  0
   -2.7051   -0.7761    0.0000 C   0  0  0  0  0  0  0  0  0
   -2.9600   -1.5607    0.0000 C   0  0  0  0  0  0  0  0  0
   -3.7670   -1.7323    0.0000 C   0  0  0  0  0  0  0  0  0
   -4.0219   -2.5169    0.0000 N   0  0  0  0  0  0  0  0  0
   -1.2060    0.7163    0.0000 C   0  0  0  0  0  0  0  0  0
   -0.4915    0.3038    0.0000 C   0  0  0  0  0  0  0  0  0
  1  2  1  0  0  0  0
  1 18  1  0  0  0  0
  2  3  1  0  0  0  0
  3  4  2  0  0  0  0
  3  5  1  0  0  0  0
  5  6  1  0  0  0  0
  5 10  1  0  0  0  0
  6  7  1  0  0  0  0
  7  8  1  0  0  0  0
  8  9  1  0  0  0  0
  8 11  1  0  0  0  0
  9 10  1  0  0  0  0
 11 12  4  0  0  0  0
 11 16  4  0  0  0  0
 12 13  4  0  0  0  0
 13 14  4  0  0  0  0
 14 15  4  0  0  0  0
 15 16  4  0  0  0  0
 16 17  1  0  0  0  0
 18 19  4  0  0  0  0
 18 29  4  0  0  0  0
 19 20  4  0  0  0  0
 20 21  4  0  0  0  0
 20 24  4  0  0  0  0
 21 22  4  0  0  0  0
 21 28  4  0  0  0  0
 22 23  4  0  0  0  0
 23 24  4  0  0  0  0
 24 25  1  0  0  0  0
 25 26  1  0  0  0  0
 26 27  1  0  0  0  0
 28 29  4  0  0  0  0
M  STY  1   1 DAT
M  SAL   1  1  22
M  SDT   1 MRV_IMPLICIT_H                                        
M  SDD   1     0.0000    0.0000    DR    ALL  0       0  
M  SED   1 IMPL_H1
M  END
>  <Name_Molregno>
177225

>  <5-HT1A>
8.1

>  <5-HT1B>
9.1

>  <5-HT1D>
8.7

$$$$
177267
  Marvin  02231216192D 0   1.00000     0.00000     0

 30 33  0  0  0  0  0  0  0  0999 V2000
    3.7370    3.7223    0.0000 Cl  0  0  0  0  0  0  0  0  0
    3.7370    2.8973    0.0000 C   0  0  0  0  0  0  0  0  0
    4.4515    2.4848    0.0000 C   0  0  0  0  0  0  0  0  0
    4.4515    1.6598    0.0000 C   0  0  0  0  0  0  0  0  0
    3.7370    1.2473    0.0000 C   0  0  0  0  0  0  0  0  0
    3.7370    0.4223    0.0000 O   0  0  0  0  0  0  0  0  0
    4.4515    0.0098    0.0000 C   0  0  0  0  0  0  0  0  0
    5.1659    0.4223    0.0000 O   0  0  0  0  0  0  0  0  0
    4.4515   -0.8152    0.0000 N   0  0  0  0  0  0  0  0  0
    5.1659   -1.2277    0.0000 C   0  0  0  0  0  0  0  0  0
    5.1659   -2.0527    0.0000 C   0  0  0  0  0  0  0  0  0
    4.4515   -2.4652    0.0000 N   0  0  0  0  0  0  0  0  0
    3.7370   -2.0527    0.0000 C   0  0  0  0  0  0  0  0  0
    3.7370   -1.2277    0.0000 C   0  0  0  0  0  0  0  0  0
    4.4515   -3.2902    0.0000 C   0  0  0  0  0  0  0  0  0
    5.1659   -3.7027    0.0000 C   0  0  0  0  0  0  0  0  0
    5.1659   -4.5277    0.0000 C   0  0  0  0  0  0  0  0  0
    4.4515   -4.9402    0.0000 C   0  0  0  0  0  0  0  0  0
    3.7370   -4.5277    0.0000 C   0  0  0  0  0  0  0  0  0
    3.7370   -3.7027    0.0000 C   0  0  0  0  0  0  0  0  0
    3.0225   -3.2902    0.0000 C   0  0  0  0  0  0  0  0  0
    3.0225    1.6598    0.0000 C   0  0  0  0  0  0  0  0  0
    3.0225    2.4848    0.0000 C   0  0  0  0  0  0  0  0  0
    2.3080    2.8973    0.0000 N   0  0  0  0  0  0  0  0  0
    1.5936    2.4848    0.0000 C   0  0  0  0  0  0  0  0  0
    0.8791    2.8973    0.0000 C   0  0  0  0  0  0  0  0  0
    0.8791    3.7223    0.0000 N   0  0  0  0  0  0  0  0  0
    1.5936    4.1348    0.0000 C   0  0  0  0  0  0  0  0  0
    2.3080    3.7223    0.0000 C   0  0  0  0  0  0  0  0  0
    0.1646    4.1348    0.0000 C   0  0  0  0  0  0  0  0  0
  1  2  1  0  0  0  0
  2  3  4  0  0  0  0
  2 23  4  0  0  0  0
  3  4  4  0  0  0  0
  4  5  4  0  0  0  0
  5  6  1  0  0  0  0
  5 22  4  0  0  0  0
  6  7  1  0  0  0  0
  7  8  2  0  0  0  0
  7  9  1  0  0  0  0
  9 10  1  0  0  0  0
  9 14  1  0  0  0  0
 10 11  1  0  0  0  0
 11 12  1  0  0  0  0
 12 13  1  0  0  0  0
 12 15  1  0  0  0  0
 13 14  1  0  0  0  0
 15 16  4  0  0  0  0
 15 20  4  0  0  0  0
 16 17  4  0  0  0  0
 17 18  4  0  0  0  0
 18 19  4  0  0  0  0
 19 20  4  0  0  0  0
 20 21  1  0  0  0  0
 22 23  4  0  0  0  0
 23 24  1  0  0  0  0
 24 25  1  0  0  0  0
 24 29  1  0  0  0  0
 25 26  1  0  0  0  0
 26 27  1  0  0  0  0
 27 28  1  0  0  0  0
 27 30  1  0  0  0  0
 28 29  1  0  0  0  0
M  END
>  <Name_Molregno>
177267

>  <5-HT1A>
6

>  <5-HT1B>
6.82

>  <5-HT1D>
8.44

$$$$
177307
  Marvin  02231216192D 0   1.00000     0.00000     0

 31 34  0  0  0  0  0  0  0  0999 V2000
    3.6257    3.5923    0.0000 O   0  0  0  0  0  0  0  0  0
    2.9112    4.0048    0.0000 C   0  0  0  0  0  0  0  0  0
    3.6257    2.7673    0.0000 C   0  0  0  0  0  0  0  0  0
    4.3402    2.3548    0.0000 C   0  0  0  0  0  0  0  0  0
    4.3402    1.5298    0.0000 C   0  0  0  0  0  0  0  0  0
    3.6257    1.1173    0.0000 C   0  0  0  0  0  0  0  0  0
    3.6257    0.2923    0.0000 N   0  0  0  0  0  0  0  0  0
    4.3402   -0.1202    0.0000 C   0  0  0  0  0  0  0  0  0
    5.0547    0.2923    0.0000 O   0  0  0  0  0  0  0  0  0
    4.3402   -0.9452    0.0000 N   0  0  0  0  0  0  0  0  0
    5.0547   -1.3577    0.0000 C   0  0  0  0  0  0  0  0  0
    5.0547   -2.1827    0.0000 C   0  0  0  0  0  0  0  0  0
    4.3402   -2.5952    0.0000 N   0  0  0  0  0  0  0  0  0
    3.6257   -2.1827    0.0000 C   0  0  0  0  0  0  0  0  0
    3.6257   -1.3577    0.0000 C   0  0  0  0  0  0  0  0  0
    4.3402   -3.4202    0.0000 C   0  0  0  0  0  0  0  0  0
    5.0547   -3.8327    0.0000 C   0  0  0  0  0  0  0  0  0
    5.0547   -4.6577    0.0000 C   0  0  0  0  0  0  0  0  0
    4.3402   -5.0702    0.0000 C   0  0  0  0  0  0  0  0  0
    3.6257   -4.6577    0.0000 C   0  0  0  0  0  0  0  0  0
    3.6257   -3.8327    0.0000 C   0  0  0  0  0  0  0  0  0
    2.9112   -3.4202    0.0000 C   0  0  0  0  0  0  0  0  0
    2.9112    1.5298    0.0000 C   0  0  0  0  0  0  0  0  0
    2.9112    2.3548    0.0000 C   0  0  0  0  0  0  0  0  0
    2.1968    2.7673    0.0000 N   0  0  0  0  0  0  0  0  0
    1.4823    2.3548    0.0000 C   0  0  0  0  0  0  0  0  0
    0.7678    2.7673    0.0000 C   0  0  0  0  0  0  0  0  0
    0.7678    3.5923    0.0000 N   0  0  0  0  0  0  0  0  0
    1.4823    4.0048    0.0000 C   0  0  0  0  0  0  0  0  0
    2.1968    3.5923    0.0000 C   0  0  0  0  0  0  0  0  0
    0.0534    4.0048    0.0000 C   0  0  0  0  0  0  0  0  0
  1  2  1  0  0  0  0
  1  3  1  0  0  0  0
  3  4  4  0  0  0  0
  3 24  4  0  0  0  0
  4  5  4  0  0  0  0
  5  6  4  0  0  0  0
  6  7  1  0  0  0  0
  6 23  4  0  0  0  0
  7  8  1  0  0  0  0
  8  9  2  0  0  0  0
  8 10  1  0  0  0  0
 10 11  1  0  0  0  0
 10 15  1  0  0  0  0
 11 12  1  0  0  0  0
 12 13  1  0  0  0  0
 13 14  1  0  0  0  0
 13 16  1  0  0  0  0
 14 15  1  0  0  0  0
 16 17  4  0  0  0  0
 16 21  4  0  0  0  0
 17 18  4  0  0  0  0
 18 19  4  0  0  0  0
 19 20  4  0  0  0  0
 20 21  4  0  0  0  0
 21 22  1  0  0  0  0
 23 24  4  0  0  0  0
 24 25  1  0  0  0  0
 25 26  1  0  0  0  0
 25 30  1  0  0  0  0
 26 27  1  0  0  0  0
 27 28  1  0  0  0  0
 28 29  1  0  0  0  0
 28 31  1  0  0  0  0
 29 30  1  0  0  0  0
M  END
>  <Name_Molregno>
177307

>  <5-HT1A>
6.41

>  <5-HT1B>
8.64

>  <5-HT1D>
7.32

$$$$
177339
  Marvin  02231216192D 0   1.00000     0.00000     0

 30 33  0  0  0  0  0  0  0  0999 V2000
    3.4944    3.5531    0.0000 O   0  0  0  0  0  0  0  0  0
    2.7800    3.9656    0.0000 C   0  0  0  0  0  0  0  0  0
    3.4944    2.7281    0.0000 C   0  0  0  0  0  0  0  0  0
    4.2089    2.3156    0.0000 C   0  0  0  0  0  0  0  0  0
    4.2089    1.4906    0.0000 C   0  0  0  0  0  0  0  0  0
    3.4944    1.0781    0.0000 C   0  0  0  0  0  0  0  0  0
    3.4944    0.2531    0.0000 N   0  0  0  0  0  0  0  0  0
    4.2089   -0.1594    0.0000 C   0  0  0  0  0  0  0  0  0
    4.9234    0.2531    0.0000 O   0  0  0  0  0  0  0  0  0
    4.2089   -0.9844    0.0000 N   0  0  0  0  0  0  0  0  0
    4.9234   -1.3969    0.0000 C   0  0  0  0  0  0  0  0  0
    4.9234   -2.2219    0.0000 C   0  0  0  0  0  0  0  0  0
    4.2089   -2.6344    0.0000 N   0  0  0  0  0  0  0  0  0
    3.4944   -2.2219    0.0000 C   0  0  0  0  0  0  0  0  0
    3.4944   -1.3969    0.0000 C   0  0  0  0  0  0  0  0  0
    4.2089   -3.4594    0.0000 C   0  0  0  0  0  0  0  0  0
    4.9234   -3.8719    0.0000 C   0  0  0  0  0  0  0  0  0
    4.9234   -4.6969    0.0000 C   0  0  0  0  0  0  0  0  0
    4.2089   -5.1094    0.0000 C   0  0  0  0  0  0  0  0  0
    3.4944   -4.6969    0.0000 C   0  0  0  0  0  0  0  0  0
    3.4944   -3.8719    0.0000 C   0  0  0  0  0  0  0  0  0
    2.7800    1.4906    0.0000 C   0  0  0  0  0  0  0  0  0
    2.7800    2.3156    0.0000 C   0  0  0  0  0  0  0  0  0
    2.0655    2.7281    0.0000 N   0  0  0  0  0  0  0  0  0
    1.3510    2.3156    0.0000 C   0  0  0  0  0  0  0  0  0
    0.6366    2.7281    0.0000 C   0  0  0  0  0  0  0  0  0
    0.6366    3.5531    0.0000 N   0  0  0  0  0  0  0  0  0
    1.3510    3.9656    0.0000 C   0  0  0  0  0  0  0  0  0
    2.0655    3.5531    0.0000 C   0  0  0  0  0  0  0  0  0
   -0.0779    3.9656    0.0000 C   0  0  0  0  0  0  0  0  0
  1  2  1  0  0  0  0
  1  3  1  0  0  0  0
  3  4  4  0  0  0  0
  3 23  4  0  0  0  0
  4  5  4  0  0  0  0
  5  6  4  0  0  0  0
  6  7  1  0  0  0  0
  6 22  4  0  0  0  0
  7  8  1  0  0  0  0
  8  9  2  0  0  0  0
  8 10  1  0  0  0  0
 10 11  1  0  0  0  0
 10 15  1  0  0  0  0
 11 12  1  0  0  0  0
 12 13  1  0  0  0  0
 13 14  1  0  0  0  0
 13 16  1  0  0  0  0
 14 15  1  0  0  0  0
 16 17  4  0  0  0  0
 16 21  4  0  0  0  0
 17 18  4  0  0  0  0
 18 19  4  0  0  0  0
 19 20  4  0  0  0  0
 20 21  4  0  0  0  0
 22 23  4  0  0  0  0
 23 24  1  0  0  0  0
 24 25  1  0  0  0  0
 24 29  1  0  0  0  0
 25 26  1  0  0  0  0
 26 27  1  0  0  0  0
 27 28  1  0  0  0  0
 27 30  1  0  0  0  0
 28 29  1  0  0  0  0
M  END
>  <Name_Molregno>
177339

>  <5-HT1A>
6.35

>  <5-HT1B>
7.74

>  <5-HT1D>
6.47

$$$$
177347
  Marvin  02231216192D 0   1.00000     0.00000     0

 31 34  0  0  0  0  0  0  0  0999 V2000
    2.4946    4.4361    0.0000 Cl  0  0  0  0  0  0  0  0  0
    2.4946    3.6111    0.0000 C   0  0  0  0  0  0  0  0  0
    3.2091    3.1986    0.0000 C   0  0  0  0  0  0  0  0  0
    3.2091    2.3736    0.0000 C   0  0  0  0  0  0  0  0  0
    2.4946    1.9611    0.0000 C   0  0  0  0  0  0  0  0  0
    2.4946    1.1361    0.0000 O   0  0  0  0  0  0  0  0  0
    3.2091    0.7236    0.0000 C   0  0  0  0  0  0  0  0  0
    3.2091   -0.1014    0.0000 C   0  0  0  0  0  0  0  0  0
    2.4946   -0.5139    0.0000 O   0  0  0  0  0  0  0  0  0
    3.9236   -0.5139    0.0000 N   0  0  0  0  0  0  0  0  0
    4.6380   -0.1014    0.0000 C   0  0  0  0  0  0  0  0  0
    5.3525   -0.5139    0.0000 C   0  0  0  0  0  0  0  0  0
    5.3525   -1.3389    0.0000 N   0  0  0  0  0  0  0  0  0
    4.6380   -1.7514    0.0000 C   0  0  0  0  0  0  0  0  0
    3.9236   -1.3389    0.0000 C   0  0  0  0  0  0  0  0  0
    6.0670   -1.7514    0.0000 C   0  0  0  0  0  0  0  0  0
    6.7814   -1.3389    0.0000 C   0  0  0  0  0  0  0  0  0
    7.4959   -1.7514    0.0000 C   0  0  0  0  0  0  0  0  0
    7.4959   -2.5764    0.0000 C   0  0  0  0  0  0  0  0  0
    6.7814   -2.9889    0.0000 C   0  0  0  0  0  0  0  0  0
    6.0670   -2.5764    0.0000 C   0  0  0  0  0  0  0  0  0
    5.3525   -2.9889    0.0000 C   0  0  0  0  0  0  0  0  0
    1.7801    2.3736    0.0000 C   0  0  0  0  0  0  0  0  0
    1.7801    3.1986    0.0000 C   0  0  0  0  0  0  0  0  0
    1.0657    3.6111    0.0000 N   0  0  0  0  0  0  0  0  0
    0.3512    3.1986    0.0000 C   0  0  0  0  0  0  0  0  0
   -0.3633    3.6111    0.0000 C   0  0  0  0  0  0  0  0  0
   -0.3633    4.4361    0.0000 N   0  0  0  0  0  0  0  0  0
    0.3512    4.8486    0.0000 C   0  0  0  0  0  0  0  0  0
    1.0657    4.4361    0.0000 C   0  0  0  0  0  0  0  0  0
   -1.0777    4.8486    0.0000 C   0  0  0  0  0  0  0  0  0
  1  2  1  0  0  0  0
  2  3  4  0  0  0  0
  2 24  4  0  0  0  0
  3  4  4  0  0  0  0
  4  5  4  0  0  0  0
  5  6  1  0  0  0  0
  5 23  4  0  0  0  0
  6  7  1  0  0  0  0
  7  8  1  0  0  0  0
  8  9  2  0  0  0  0
  8 10  1  0  0  0  0
 10 11  1  0  0  0  0
 10 15  1  0  0  0  0
 11 12  1  0  0  0  0
 12 13  1  0  0  0  0
 13 14  1  0  0  0  0
 13 16  1  0  0  0  0
 14 15  1  0  0  0  0
 16 17  4  0  0  0  0
 16 21  4  0  0  0  0
 17 18  4  0  0  0  0
 18 19  4  0  0  0  0
 19 20  4  0  0  0  0
 20 21  4  0  0  0  0
 21 22  1  0  0  0  0
 23 24  4  0  0  0  0
 24 25  1  0  0  0  0
 25 26  1  0  0  0  0
 25 30  1  0  0  0  0
 26 27  1  0  0  0  0
 27 28  1  0  0  0  0
 28 29  1  0  0  0  0
 28 31  1  0  0  0  0
 29 30  1  0  0  0  0
M  END
>  <Name_Molregno>
177347

>  <5-HT1A>
6

>  <5-HT1B>
7.96

>  <5-HT1D>
6.62

$$$$
177530
  Marvin  02231216192D 0   1.00000     0.00000     0

 32 35  0  0  0  0  0  0  0  0999 V2000
   -4.0497    4.2484    0.0000 O   0  0  0  0  0  0  0  0  0
   -4.7641    4.6609    0.0000 C   0  0  0  0  0  0  0  0  0
   -4.0497    3.4234    0.0000 C   0  0  0  0  0  0  0  0  0
   -3.3352    3.0109    0.0000 C   0  0  0  0  0  0  0  0  0
   -3.3352    2.1859    0.0000 C   0  0  0  0  0  0  0  0  0
   -4.0497    1.7734    0.0000 C   0  0  0  0  0  0  0  0  0
   -4.0497    0.9484    0.0000 N   0  0  0  0  0  0  0  0  0
   -3.3352    0.5359    0.0000 C   0  0  0  0  0  0  0  0  0
   -3.3352   -0.2891    0.0000 C   0  0  0  0  0  0  0  0  0
   -4.0497   -0.7016    0.0000 O   0  0  0  0  0  0  0  0  0
   -2.6207   -0.7016    0.0000 N   0  0  0  0  0  0  0  0  0
   -1.9062   -0.2891    0.0000 C   0  0  0  0  0  0  0  0  0
   -1.1918   -0.7016    0.0000 C   0  0  0  0  0  0  0  0  0
   -1.1918   -1.5266    0.0000 N   0  0  0  0  0  0  0  0  0
   -1.9062   -1.9391    0.0000 C   0  0  0  0  0  0  0  0  0
   -2.6207   -1.5266    0.0000 C   0  0  0  0  0  0  0  0  0
   -0.4773   -1.9391    0.0000 C   0  0  0  0  0  0  0  0  0
    0.2372   -1.5266    0.0000 C   0  0  0  0  0  0  0  0  0
    0.9516   -1.9391    0.0000 C   0  0  0  0  0  0  0  0  0
    0.9516   -2.7641    0.0000 C   0  0  0  0  0  0  0  0  0
    0.2372   -3.1766    0.0000 C   0  0  0  0  0  0  0  0  0
   -0.4773   -2.7641    0.0000 C   0  0  0  0  0  0  0  0  0
   -1.1918   -3.1766    0.0000 C   0  0  0  0  0  0  0  0  0
   -4.7641    2.1859    0.0000 C   0  0  0  0  0  0  0  0  0
   -4.7641    3.0109    0.0000 C   0  0  0  0  0  0  0  0  0
   -5.4786    3.4234    0.0000 N   0  0  0  0  0  0  0  0  0
   -6.1931    3.0109    0.0000 C   0  0  0  0  0  0  0  0  0
   -6.9075    3.4234    0.0000 C   0  0  0  0  0  0  0  0  0
   -6.9075    4.2484    0.0000 N   0  0  0  0  0  0  0  0  0
   -6.1931    4.6609    0.0000 C   0  0  0  0  0  0  0  0  0
   -5.4786    4.2484    0.0000 C   0  0  0  0  0  0  0  0  0
   -7.6220    4.6609    0.0000 C   0  0  0  0  0  0  0  0  0
  1  2  1  0  0  0  0
  1  3  1  0  0  0  0
  3  4  4  0  0  0  0
  3 25  4  0  0  0  0
  4  5  4  0  0  0  0
  5  6  4  0  0  0  0
  6  7  1  0  0  0  0
  6 24  4  0  0  0  0
  7  8  1  0  0  0  0
  8  9  1  0  0  0  0
  9 10  2  0  0  0  0
  9 11  1  0  0  0  0
 11 12  1  0  0  0  0
 11 16  1  0  0  0  0
 12 13  1  0  0  0  0
 13 14  1  0  0  0  0
 14 15  1  0  0  0  0
 14 17  1  0  0  0  0
 15 16  1  0  0  0  0
 17 18  4  0  0  0  0
 17 22  4  0  0  0  0
 18 19  4  0  0  0  0
 19 20  4  0  0  0  0
 20 21  4  0  0  0  0
 21 22  4  0  0  0  0
 22 23  1  0  0  0  0
 24 25  4  0  0  0  0
 25 26  1  0  0  0  0
 26 27  1  0  0  0  0
 26 31  1  0  0  0  0
 27 28  1  0  0  0  0
 28 29  1  0  0  0  0
 29 30  1  0  0  0  0
 29 32  1  0  0  0  0
 30 31  1  0  0  0  0
M  END
>  <Name_Molregno>
177530

>  <5-HT1A>
5.52

>  <5-HT1B>
7.4

>  <5-HT1D>
4.38

$$$$
177565
  Marvin  02231216192D 0   1.00000     0.00000     0

 32 35  0  0  0  0  0  0  0  0999 V2000
    3.7794    3.7364    0.0000 O   0  0  0  0  0  0  0  0  0
    3.0649    4.1489    0.0000 C   0  0  0  0  0  0  0  0  0
    3.7794    2.9114    0.0000 C   0  0  0  0  0  0  0  0  0
    4.4939    2.4989    0.0000 C   0  0  0  0  0  0  0  0  0
    4.4939    1.6739    0.0000 C   0  0  0  0  0  0  0  0  0
    3.7794    1.2614    0.0000 C   0  0  0  0  0  0  0  0  0
    3.7794    0.4364    0.0000 N   0  0  0  0  0  0  0  0  0
    4.4939    0.0239    0.0000 C   0  0  0  0  0  0  0  0  0
    5.2083    0.4364    0.0000 O   0  0  0  0  0  0  0  0  0
    4.4939   -0.8011    0.0000 N   0  0  0  0  0  0  0  0  0
    5.2083   -1.2136    0.0000 C   0  0  0  0  0  0  0  0  0
    5.2083   -2.0386    0.0000 C   0  0  0  0  0  0  0  0  0
    4.4939   -2.4511    0.0000 N   0  0  0  0  0  0  0  0  0
    3.7794   -2.0386    0.0000 C   0  0  0  0  0  0  0  0  0
    3.7794   -1.2136    0.0000 C   0  0  0  0  0  0  0  0  0
    4.4939   -3.2761    0.0000 C   0  0  0  0  0  0  0  0  0
    5.2083   -3.6886    0.0000 C   0  0  0  0  0  0  0  0  0
    5.2083   -4.5136    0.0000 C   0  0  0  0  0  0  0  0  0
    4.4939   -4.9261    0.0000 C   0  0  0  0  0  0  0  0  0
    3.7794   -4.5136    0.0000 C   0  0  0  0  0  0  0  0  0
    3.7794   -3.6886    0.0000 C   0  0  0  0  0  0  0  0  0
    3.0649   -3.2761    0.0000 C   0  0  0  0  0  0  0  0  0
    4.4939   -5.7511    0.0000 C   0  0  0  0  0  0  0  0  0
    3.0649    1.6739    0.0000 C   0  0  0  0  0  0  0  0  0
    3.0649    2.4989    0.0000 C   0  0  0  0  0  0  0  0  0
    2.3505    2.9114    0.0000 N   0  0  0  0  0  0  0  0  0
    1.6360    2.4989    0.0000 C   0  0  0  0  0  0  0  0  0
    0.9215    2.9114    0.0000 C   0  0  0  0  0  0  0  0  0
    0.9215    3.7364    0.0000 N   0  0  0  0  0  0  0  0  0
    1.6360    4.1489    0.0000 C   0  0  0  0  0  0  0  0  0
    2.3505    3.7364    0.0000 C   0  0  0  0  0  0  0  0  0
    0.2070    4.1489    0.0000 C   0  0  0  0  0  0  0  0  0
  1  2  1  0  0  0  0
  1  3  1  0  0  0  0
  3  4  4  0  0  0  0
  3 25  4  0  0  0  0
  4  5  4  0  0  0  0
  5  6  4  0  0  0  0
  6  7  1  0  0  0  0
  6 24  4  0  0  0  0
  7  8  1  0  0  0  0
  8  9  2  0  0  0  0
  8 10  1  0  0  0  0
 10 11  1  0  0  0  0
 10 15  1  0  0  0  0
 11 12  1  0  0  0  0
 12 13  1  0  0  0  0
 13 14  1  0  0  0  0
 13 16  1  0  0  0  0
 14 15  1  0  0  0  0
 16 17  4  0  0  0  0
 16 21  4  0  0  0  0
 17 18  4  0  0  0  0
 18 19  4  0  0  0  0
 19 20  4  0  0  0  0
 19 23  1  0  0  0  0
 20 21  4  0  0  0  0
 21 22  1  0  0  0  0
 24 25  4  0  0  0  0
 25 26  1  0  0  0  0
 26 27  1  0  0  0  0
 26 31  1  0  0  0  0
 27 28  1  0  0  0  0
 28 29  1  0  0  0  0
 29 30  1  0  0  0  0
 29 32  1  0  0  0  0
 30 31  1  0  0  0  0
M  END
>  <Name_Molregno>
177565

>  <5-HT1A>
6.24

>  <5-HT1B>
8.74

>  <5-HT1D>
7.06

$$$$
178068
  Marvin  02231216192D 0   1.00000     0.00000     0

 32 35  0  0  0  0  0  0  0  0999 V2000
    3.7835    3.5848    0.0000 O   0  0  0  0  0  0  0  0  0
    3.0690    3.9973    0.0000 C   0  0  0  0  0  0  0  0  0
    3.7835    2.7598    0.0000 C   0  0  0  0  0  0  0  0  0
    4.4980    2.3473    0.0000 C   0  0  0  0  0  0  0  0  0
    4.4980    1.5223    0.0000 C   0  0  0  0  0  0  0  0  0
    3.7835    1.1098    0.0000 C   0  0  0  0  0  0  0  0  0
    3.7835    0.2848    0.0000 N   0  0  0  0  0  0  0  0  0
    4.4980   -0.1277    0.0000 C   0  0  0  0  0  0  0  0  0
    5.2124    0.2848    0.0000 O   0  0  0  0  0  0  0  0  0
    4.4980   -0.9527    0.0000 N   0  0  0  0  0  0  0  0  0
    5.2124   -1.3652    0.0000 C   0  0  0  0  0  0  0  0  0
    5.2124   -2.1902    0.0000 C   0  0  0  0  0  0  0  0  0
    4.4980   -2.6027    0.0000 N   0  0  0  0  0  0  0  0  0
    3.7835   -2.1902    0.0000 C   0  0  0  0  0  0  0  0  0
    3.7835   -1.3652    0.0000 C   0  0  0  0  0  0  0  0  0
    4.4980   -3.4277    0.0000 C   0  0  0  0  0  0  0  0  0
    5.2124   -3.8402    0.0000 C   0  0  0  0  0  0  0  0  0
    5.2124   -4.6652    0.0000 C   0  0  0  0  0  0  0  0  0
    4.4980   -5.0777    0.0000 C   0  0  0  0  0  0  0  0  0
    3.7835   -4.6652    0.0000 C   0  0  0  0  0  0  0  0  0
    3.7835   -3.8402    0.0000 C   0  0  0  0  0  0  0  0  0
    3.0690   -3.4277    0.0000 O   0  0  0  0  0  0  0  0  0
    2.3546   -3.8402    0.0000 C   0  0  0  0  0  0  0  0  0
    3.0690    1.5223    0.0000 C   0  0  0  0  0  0  0  0  0
    3.0690    2.3473    0.0000 C   0  0  0  0  0  0  0  0  0
    2.3546    2.7598    0.0000 N   0  0  0  0  0  0  0  0  0
    1.6401    2.3473    0.0000 C   0  0  0  0  0  0  0  0  0
    0.9256    2.7598    0.0000 C   0  0  0  0  0  0  0  0  0
    0.9256    3.5848    0.0000 N   0  0  0  0  0  0  0  0  0
    1.6401    3.9973    0.0000 C   0  0  0  0  0  0  0  0  0
    2.3546    3.5848    0.0000 C   0  0  0  0  0  0  0  0  0
    0.2111    3.9973    0.0000 C   0  0  0  0  0  0  0  0  0
  1  2  1  0  0  0  0
  1  3  1  0  0  0  0
  3  4  4  0  0  0  0
  3 25  4  0  0  0  0
  4  5  4  0  0  0  0
  5  6  4  0  0  0  0
  6  7  1  0  0  0  0
  6 24  4  0  0  0  0
  7  8  1  0  0  0  0
  8  9  2  0  0  0  0
  8 10  1  0  0  0  0
 10 11  1  0  0  0  0
 10 15  1  0  0  0  0
 11 12  1  0  0  0  0
 12 13  1  0  0  0  0
 13 14  1  0  0  0  0
 13 16  1  0  0  0  0
 14 15  1  0  0  0  0
 16 17  4  0  0  0  0
 16 21  4  0  0  0  0
 17 18  4  0  0  0  0
 18 19  4  0  0  0  0
 19 20  4  0  0  0  0
 20 21  4  0  0  0  0
 21 22  1  0  0  0  0
 22 23  1  0  0  0  0
 24 25  4  0  0  0  0
 25 26  1  0  0  0  0
 26 27  1  0  0  0  0
 26 31  1  0  0  0  0
 27 28  1  0  0  0  0
 28 29  1  0  0  0  0
 29 30  1  0  0  0  0
 29 32  1  0  0  0  0
 30 31  1  0  0  0  0
M  END
>  <Name_Molregno>
178068

>  <5-HT1A>
6.17

>  <5-HT1B>
8.44

>  <5-HT1D>
7.02

>  <5-HT2A>
5.17

>  <5-HT2C>
5.71

>  <5-HT6>
5.62

>  <5-HT7>
5.85

>  <DOPAMINE D1>
5

>  <DOPAMINE D2>
5

>  <DOPAMINE D3>
5

>  <DOPAMINE D4>
5

>  <DOPAMINE D5>
5

>  <HISTAMINE H1>
5

>  <Muscarinic acetylcholine receptor M1>
5

>  <Muscarinic acetylcholine receptor M2>
5

>  <Muscarinic acetylcholine receptor M3>
5

>  <Muscarinic acetylcholine receptor M4>
5

>  <Muscarinic acetylcholine receptor M5>
5

$$$$
178086
  Marvin  02231216192D 0   1.00000     0.00000     0

 32 35  0  0  0  0  0  0  0  0999 V2000
    3.6590    3.7166    0.0000 O   0  0  0  0  0  0  0  0  0
    2.9445    4.1291    0.0000 C   0  0  0  0  0  0  0  0  0
    3.6590    2.8916    0.0000 C   0  0  0  0  0  0  0  0  0
    4.3734    2.4791    0.0000 C   0  0  0  0  0  0  0  0  0
    4.3734    1.6541    0.0000 C   0  0  0  0  0  0  0  0  0
    3.6590    1.2416    0.0000 C   0  0  0  0  0  0  0  0  0
    3.6590    0.4166    0.0000 N   0  0  0  0  0  0  0  0  0
    4.3734    0.0041    0.0000 C   0  0  0  0  0  0  0  0  0
    5.0879    0.4166    0.0000 O   0  0  0  0  0  0  0  0  0
    4.3734   -0.8209    0.0000 N   0  0  0  0  0  0  0  0  0
    5.0879   -1.2334    0.0000 C   0  0  0  0  0  0  0  0  0
    5.0879   -2.0584    0.0000 C   0  0  0  0  0  0  0  0  0
    4.3734   -2.4709    0.0000 N   0  0  0  0  0  0  0  0  0
    3.6590   -2.0584    0.0000 C   0  0  0  0  0  0  0  0  0
    3.6590   -1.2334    0.0000 C   0  0  0  0  0  0  0  0  0
    4.3734   -3.2959    0.0000 C   0  0  0  0  0  0  0  0  0
    5.0879   -3.7084    0.0000 C   0  0  0  0  0  0  0  0  0
    5.0879   -4.5334    0.0000 C   0  0  0  0  0  0  0  0  0
    4.3734   -4.9459    0.0000 C   0  0  0  0  0  0  0  0  0
    3.6590   -4.5334    0.0000 C   0  0  0  0  0  0  0  0  0
    3.6590   -3.7084    0.0000 C   0  0  0  0  0  0  0  0  0
    2.9445   -3.2959    0.0000 C   0  0  0  0  0  0  0  0  0
    5.8024   -3.2959    0.0000 C   0  0  0  0  0  0  0  0  0
    2.9445    1.6541    0.0000 C   0  0  0  0  0  0  0  0  0
    2.9445    2.4791    0.0000 C   0  0  0  0  0  0  0  0  0
    2.2300    2.8916    0.0000 N   0  0  0  0  0  0  0  0  0
    1.5155    2.4791    0.0000 C   0  0  0  0  0  0  0  0  0
    0.8011    2.8916    0.0000 C   0  0  0  0  0  0  0  0  0
    0.8011    3.7166    0.0000 N   0  0  0  0  0  0  0  0  0
    1.5155    4.1291    0.0000 C   0  0  0  0  0  0  0  0  0
    2.2300    3.7166    0.0000 C   0  0  0  0  0  0  0  0  0
    0.0866    4.1291    0.0000 C   0  0  0  0  0  0  0  0  0
  1  2  1  0  0  0  0
  1  3  1  0  0  0  0
  3  4  4  0  0  0  0
  3 25  4  0  0  0  0
  4  5  4  0  0  0  0
  5  6  4  0  0  0  0
  6  7  1  0  0  0  0
  6 24  4  0  0  0  0
  7  8  1  0  0  0  0
  8  9  2  0  0  0  0
  8 10  1  0  0  0  0
 10 11  1  0  0  0  0
 10 15  1  0  0  0  0
 11 12  1  0  0  0  0
 12 13  1  0  0  0  0
 13 14  1  0  0  0  0
 13 16  1  0  0  0  0
 14 15  1  0  0  0  0
 16 17  4  0  0  0  0
 16 21  4  0  0  0  0
 17 18  4  0  0  0  0
 17 23  1  0  0  0  0
 18 19  4  0  0  0  0
 19 20  4  0  0  0  0
 20 21  4  0  0  0  0
 21 22  1  0  0  0  0
 24 25  4  0  0  0  0
 25 26  1  0  0  0  0
 26 27  1  0  0  0  0
 26 31  1  0  0  0  0
 27 28  1  0  0  0  0
 28 29  1  0  0  0  0
 29 30  1  0  0  0  0
 29 32  1  0  0  0  0
 30 31  1  0  0  0  0
M  END
>  <Name_Molregno>
178086

>  <5-HT1A>
6.41

>  <5-HT1B>
8.89

>  <5-HT1D>
7.43

$$$$
178087
  Marvin  02231216192D 0   1.00000     0.00000     0

 34 38  0  0  0  0  0  0  0  0999 V2000
    3.6874    3.7289    0.0000 O   0  0  0  0  0  0  0  0  0
    2.9729    4.1414    0.0000 C   0  0  0  0  0  0  0  0  0
    3.6874    2.9039    0.0000 C   0  0  0  0  0  0  0  0  0
    4.4018    2.4914    0.0000 C   0  0  0  0  0  0  0  0  0
    4.4018    1.6664    0.0000 C   0  0  0  0  0  0  0  0  0
    3.6874    1.2539    0.0000 C   0  0  0  0  0  0  0  0  0
    3.6874    0.4289    0.0000 N   0  0  0  0  0  0  0  0  0
    4.4018    0.0164    0.0000 C   0  0  0  0  0  0  0  0  0
    5.1163    0.4289    0.0000 O   0  0  0  0  0  0  0  0  0
    4.4018   -0.8086    0.0000 N   0  0  0  0  0  0  0  0  0
    5.1163   -1.2211    0.0000 C   0  0  0  0  0  0  0  0  0
    5.1163   -2.0461    0.0000 C   0  0  0  0  0  0  0  0  0
    4.4018   -2.4586    0.0000 N   0  0  0  0  0  0  0  0  0
    3.6874   -2.0461    0.0000 C   0  0  0  0  0  0  0  0  0
    3.6874   -1.2211    0.0000 C   0  0  0  0  0  0  0  0  0
    4.4018   -3.2836    0.0000 C   0  0  0  0  0  0  0  0  0
    5.1163   -3.6961    0.0000 C   0  0  0  0  0  0  0  0  0
    5.8308   -3.2836    0.0000 C   0  0  0  0  0  0  0  0  0
    6.5452   -3.6961    0.0000 C   0  0  0  0  0  0  0  0  0
    6.5452   -4.5211    0.0000 C   0  0  0  0  0  0  0  0  0
    5.8308   -4.9336    0.0000 C   0  0  0  0  0  0  0  0  0
    5.1163   -4.5211    0.0000 C   0  0  0  0  0  0  0  0  0
    4.4018   -4.9336    0.0000 C   0  0  0  0  0  0  0  0  0
    3.6874   -4.5211    0.0000 C   0  0  0  0  0  0  0  0  0
    3.6874   -3.6961    0.0000 C   0  0  0  0  0  0  0  0  0
    2.9729    1.6664    0.0000 C   0  0  0  0  0  0  0  0  0
    2.9729    2.4914    0.0000 C   0  0  0  0  0  0  0  0  0
    2.2584    2.9039    0.0000 N   0  0  0  0  0  0  0  0  0
    1.5439    2.4914    0.0000 C   0  0  0  0  0  0  0  0  0
    0.8295    2.9039    0.0000 C   0  0  0  0  0  0  0  0  0
    0.8295    3.7289    0.0000 N   0  0  0  0  0  0  0  0  0
    1.5439    4.1414    0.0000 C   0  0  0  0  0  0  0  0  0
    2.2584    3.7289    0.0000 C   0  0  0  0  0  0  0  0  0
    0.1150    4.1414    0.0000 C   0  0  0  0  0  0  0  0  0
  1  2  1  0  0  0  0
  1  3  1  0  0  0  0
  3  4  4  0  0  0  0
  3 27  4  0  0  0  0
  4  5  4  0  0  0  0
  5  6  4  0  0  0  0
  6  7  1  0  0  0  0
  6 26  4  0  0  0  0
  7  8  1  0  0  0  0
  8  9  2  0  0  0  0
  8 10  1  0  0  0  0
 10 11  1  0  0  0  0
 10 15  1  0  0  0  0
 11 12  1  0  0  0  0
 12 13  1  0  0  0  0
 13 14  1  0  0  0  0
 13 16  1  0  0  0  0
 14 15  1  0  0  0  0
 16 17  4  0  0  0  0
 16 25  4  0  0  0  0
 17 18  1  0  0  0  0
 17 22  4  0  0  0  0
 18 19  1  0  0  0  0
 19 20  1  0  0  0  0
 20 21  1  0  0  0  0
 21 22  1  0  0  0  0
 22 23  4  0  0  0  0
 23 24  4  0  0  0  0
 24 25  4  0  0  0  0
 26 27  4  0  0  0  0
 27 28  1  0  0  0  0
 28 29  1  0  0  0  0
 28 33  1  0  0  0  0
 29 30  1  0  0  0  0
 30 31  1  0  0  0  0
 31 32  1  0  0  0  0
 31 34  1  0  0  0  0
 32 33  1  0  0  0  0
M  END
>  <Name_Molregno>
178087

>  <5-HT1A>
6.59

>  <5-HT1B>
9.3

>  <5-HT1D>
7.59

$$$$
178088
  Marvin  02231216192D 0   1.00000     0.00000     0

 32 35  0  0  0  0  0  0  0  0999 V2000
    3.8453    3.8330    0.0000 O   0  0  0  0  0  0  0  0  0
    3.1308    4.2455    0.0000 C   0  0  0  0  0  0  0  0  0
    3.8453    3.0080    0.0000 C   0  0  0  0  0  0  0  0  0
    4.5598    2.5955    0.0000 C   0  0  0  0  0  0  0  0  0
    4.5598    1.7705    0.0000 C   0  0  0  0  0  0  0  0  0
    3.8453    1.3580    0.0000 C   0  0  0  0  0  0  0  0  0
    3.8453    0.5330    0.0000 N   0  0  0  0  0  0  0  0  0
    4.5598    0.1205    0.0000 C   0  0  0  0  0  0  0  0  0
    5.2743    0.5330    0.0000 O   0  0  0  0  0  0  0  0  0
    4.5598   -0.7045    0.0000 N   0  0  0  0  0  0  0  0  0
    5.2743   -1.1170    0.0000 C   0  0  0  0  0  0  0  0  0
    5.2743   -1.9420    0.0000 C   0  0  0  0  0  0  0  0  0
    4.5598   -2.3545    0.0000 N   0  0  0  0  0  0  0  0  0
    3.8453   -1.9420    0.0000 C   0  0  0  0  0  0  0  0  0
    3.8453   -1.1170    0.0000 C   0  0  0  0  0  0  0  0  0
    4.5598   -3.1795    0.0000 C   0  0  0  0  0  0  0  0  0
    5.2743   -3.5920    0.0000 C   0  0  0  0  0  0  0  0  0
    5.2743   -4.4170    0.0000 C   0  0  0  0  0  0  0  0  0
    4.5598   -4.8295    0.0000 C   0  0  0  0  0  0  0  0  0
    4.5598   -5.6545    0.0000 O   0  0  0  0  0  0  0  0  0
    3.8453   -6.0670    0.0000 C   0  0  0  0  0  0  0  0  0
    3.8453   -4.4170    0.0000 C   0  0  0  0  0  0  0  0  0
    3.8453   -3.5920    0.0000 C   0  0  0  0  0  0  0  0  0
    3.1308    1.7705    0.0000 C   0  0  0  0  0  0  0  0  0
    3.1308    2.5955    0.0000 C   0  0  0  0  0  0  0  0  0
    2.4164    3.0080    0.0000 N   0  0  0  0  0  0  0  0  0
    1.7019    2.5955    0.0000 C   0  0  0  0  0  0  0  0  0
    0.9874    3.0080    0.0000 C   0  0  0  0  0  0  0  0  0
    0.9874    3.8330    0.0000 N   0  0  0  0  0  0  0  0  0
    1.7019    4.2455    0.0000 C   0  0  0  0  0  0  0  0  0
    2.4164    3.8330    0.0000 C   0  0  0  0  0  0  0  0  0
    0.2730    4.2455    0.0000 C   0  0  0  0  0  0  0  0  0
  1  2  1  0  0  0  0
  1  3  1  0  0  0  0
  3  4  4  0  0  0  0
  3 25  4  0  0  0  0
  4  5  4  0  0  0  0
  5  6  4  0  0  0  0
  6  7  1  0  0  0  0
  6 24  4  0  0  0  0
  7  8  1  0  0  0  0
  8  9  2  0  0  0  0
  8 10  1  0  0  0  0
 10 11  1  0  0  0  0
 10 15  1  0  0  0  0
 11 12  1  0  0  0  0
 12 13  1  0  0  0  0
 13 14  1  0  0  0  0
 13 16  1  0  0  0  0
 14 15  1  0  0  0  0
 16 17  4  0  0  0  0
 16 23  4  0  0  0  0
 17 18  4  0  0  0  0
 18 19  4  0  0  0  0
 19 20  1  0  0  0  0
 19 22  4  0  0  0  0
 20 21  1  0  0  0  0
 22 23  4  0  0  0  0
 24 25  4  0  0  0  0
 25 26  1  0  0  0  0
 26 27  1  0  0  0  0
 26 31  1  0  0  0  0
 27 28  1  0  0  0  0
 28 29  1  0  0  0  0
 29 30  1  0  0  0  0
 29 32  1  0  0  0  0
 30 31  1  0  0  0  0
M  END
>  <Name_Molregno>
178088

>  <5-HT1A>
6

>  <5-HT1B>
8.08

>  <5-HT1D>
6.64

$$$$
178089
  Marvin  02231216192D 0   1.00000     0.00000     0

 32 35  0  0  0  0  0  0  0  0999 V2000
   -3.5616    3.7572    0.0000 O   0  0  0  0  0  0  0  0  0
   -4.2761    4.1697    0.0000 C   0  0  0  0  0  0  0  0  0
   -3.5616    2.9322    0.0000 C   0  0  0  0  0  0  0  0  0
   -2.8472    2.5197    0.0000 C   0  0  0  0  0  0  0  0  0
   -2.8472    1.6947    0.0000 C   0  0  0  0  0  0  0  0  0
   -3.5616    1.2822    0.0000 C   0  0  0  0  0  0  0  0  0
   -3.5616    0.4572    0.0000 N   0  0  0  0  0  0  0  0  0
   -2.8472    0.0447    0.0000 C   0  0  0  0  0  0  0  0  0
   -2.1327    0.4572    0.0000 O   0  0  0  0  0  0  0  0  0
   -2.8472   -0.7803    0.0000 N   0  0  0  0  0  0  0  0  0
   -2.1327   -1.1928    0.0000 C   0  0  0  0  0  0  0  0  0
   -2.1327   -2.0178    0.0000 C   0  0  0  0  0  0  0  0  0
   -2.8472   -2.4303    0.0000 N   0  0  0  0  0  0  0  0  0
   -3.5616   -2.0178    0.0000 C   0  0  0  0  0  0  0  0  0
   -3.5616   -1.1928    0.0000 C   0  0  0  0  0  0  0  0  0
   -2.8472   -3.2553    0.0000 C   0  0  0  0  0  0  0  0  0
   -2.1327   -3.6678    0.0000 C   0  0  0  0  0  0  0  0  0
   -2.1327   -4.4928    0.0000 C   0  0  0  0  0  0  0  0  0
   -1.4182   -4.9053    0.0000 O   0  0  0  0  0  0  0  0  0
   -1.4182   -5.7303    0.0000 C   0  0  0  0  0  0  0  0  0
   -2.8472   -4.9053    0.0000 C   0  0  0  0  0  0  0  0  0
   -3.5616   -4.4928    0.0000 C   0  0  0  0  0  0  0  0  0
   -3.5616   -3.6678    0.0000 C   0  0  0  0  0  0  0  0  0
   -4.2761    1.6947    0.0000 C   0  0  0  0  0  0  0  0  0
   -4.2761    2.5197    0.0000 C   0  0  0  0  0  0  0  0  0
   -4.9906    2.9322    0.0000 N   0  0  0  0  0  0  0  0  0
   -5.7050    2.5197    0.0000 C   0  0  0  0  0  0  0  0  0
   -6.4195    2.9322    0.0000 C   0  0  0  0  0  0  0  0  0
   -6.4195    3.7572    0.0000 N   0  0  0  0  0  0  0  0  0
   -5.7050    4.1697    0.0000 C   0  0  0  0  0  0  0  0  0
   -4.9906    3.7572    0.0000 C   0  0  0  0  0  0  0  0  0
   -7.1340    4.1697    0.0000 C   0  0  0  0  0  0  0  0  0
  1  2  1  0  0  0  0
  1  3  1  0  0  0  0
  3  4  4  0  0  0  0
  3 25  4  0  0  0  0
  4  5  4  0  0  0  0
  5  6  4  0  0  0  0
  6  7  1  0  0  0  0
  6 24  4  0  0  0  0
  7  8  1  0  0  0  0
  8  9  2  0  0  0  0
  8 10  1  0  0  0  0
 10 11  1  0  0  0  0
 10 15  1  0  0  0  0
 11 12  1  0  0  0  0
 12 13  1  0  0  0  0
 13 14  1  0  0  0  0
 13 16  1  0  0  0  0
 14 15  1  0  0  0  0
 16 17  4  0  0  0  0
 16 23  4  0  0  0  0
 17 18  4  0  0  0  0
 18 19  1  0  0  0  0
 18 21  4  0  0  0  0
 19 20  1  0  0  0  0
 21 22  4  0  0  0  0
 22 23  4  0  0  0  0
 24 25  4  0  0  0  0
 25 26  1  0  0  0  0
 26 27  1  0  0  0  0
 26 31  1  0  0  0  0
 27 28  1  0  0  0  0
 28 29  1  0  0  0  0
 29 30  1  0  0  0  0
 29 32  1  0  0  0  0
 30 31  1  0  0  0  0
M  END
>  <Name_Molregno>
178089

>  <5-HT1A>
7.1

>  <5-HT1B>
8.1

>  <5-HT1D>
7.15

$$$$
190074
  Marvin  02231216192D 0   1.00000     0.00000     0

 18 19  0  0  1  0  0  0  0  0999 V2000
   -0.0067   -0.0070    0.0000 O   0  0  0  0  0  0  0  0  0
    0.7077    0.4055    0.0000 C   0  0  0  0  0  0  0  0  0
    1.4222   -0.0070    0.0000 C   0  0  0  0  0  0  0  0  0
    1.4222   -0.8320    0.0000 O   0  0  0  0  0  0  0  0  0
    2.1367    0.4055    0.0000 C   0  0  0  0  0  0  0  0  0
    2.8511   -0.0070    0.0000 N   0  0  0  0  0  0  0  0  0
    3.5656    0.4055    0.0000 C   0  0  0  0  0  0  0  0  0
    4.2801   -0.0070    0.0000 C   0  0  0  0  0  0  0  0  0
    3.5656    1.2305    0.0000 C   0  0  0  0  0  0  0  0  0
   -0.7212    0.4055    0.0000 C   0  0  0  0  0  0  0  0  0
   -1.4357   -0.0070    0.0000 C   0  0  0  0  0  0  0  0  0
   -2.1502    0.4055    0.0000 C   0  0  0  0  0  0  0  0  0
   -2.7633   -0.1465    0.0000 N   0  0  0  0  0  0  0  0  0
   -2.4277   -0.9002    0.0000 C   0  0  0  0  0  0  0  0  0
   -1.6072   -0.8139    0.0000 C   0  0  0  0  0  0  0  0  0
   -2.1502    1.2305    0.0000 C   0  0  0  0  0  0  0  0  0
   -1.4357    1.6430    0.0000 C   0  0  0  0  0  0  0  0  0
   -0.7212    1.2305    0.0000 C   0  0  0  0  0  0  0  0  0
  1  2  1  0  0  0  0
  1 10  1  0  0  0  0
  2  3  1  0  0  0  0
  3  4  1  0  0  0  0
  3  5  1  0  0  0  0
  5  6  1  0  0  0  0
  6  7  1  0  0  0  0
  7  8  1  0  0  0  0
  7  9  1  0  0  0  0
 10 11  4  0  0  0  0
 10 18  4  0  0  0  0
 11 12  4  0  0  0  0
 11 15  4  0  0  0  0
 12 13  4  0  0  0  0
 12 16  4  0  0  0  0
 13 14  4  0  0  0  0
 14 15  4  0  0  0  0
 16 17  4  0  0  0  0
 17 18  4  0  0  0  0
M  STY  1   1 DAT
M  SAL   1  1  13
M  SDT   1 MRV_IMPLICIT_H                                        
M  SDD   1     0.0000    0.0000    DR    ALL  0       0  
M  SED   1 IMPL_H1
M  END
>  <Name_Molregno>
190074

>  <5-HT1A>
7.39

>  <5-HT1B>
5.39

>  <5-HT1D>
5.11

>  <5-HT1E>
5

>  <5-HT2A>
5.03

>  <5-HT2C>
5

>  <5-HT7>
5

>  <Beta-1>
8.96

>  <Beta-2>
9.04

>  <Serotonin transporter>
5.15

$$$$
199111
  Marvin  02231216192D 0   1.00000     0.00000     0

 14 15  0  0  1  0  0  0  0  0999 V2000
   -0.1663    0.8600    0.0000 N   0  0  0  0  0  0  0  0  0
    0.5482    0.4475    0.0000 C   0  0  0  0  0  0  0  0  0
    1.2627    0.8600    0.0000 C   0  0  0  0  0  0  0  0  0
    1.2627    1.6850    0.0000 C   0  0  0  0  0  0  0  0  0
    1.9771    2.0975    0.0000 C   0  0  0  0  0  0  0  0  0
    2.6916    1.6850    0.0000 C   0  0  0  0  0  0  0  0  0
    2.6916    0.8600    0.0000 C   0  0  0  0  0  0  0  0  0
    1.9771    0.4475    0.0000 C   0  0  0  0  0  0  0  0  0
    1.9771   -0.3775    0.0000 N   0  0  0  0  0  0  0  0  0
    2.6916   -0.7900    0.0000 C   0  0  0  0  0  0  0  0  0
    2.6916   -1.6150    0.0000 C   0  0  0  0  0  0  0  0  0
    1.2627   -0.7900    0.0000 C   0  0  0  0  0  0  0  0  0
    0.5482    2.0975    0.0000 C   0  0  0  0  0  0  0  0  0
   -0.1663    1.6850    0.0000 C   0  0  0  0  0  0  0  0  0
  1  2  4  0  0  0  0
  1 14  4  0  0  0  0
  2  3  4  0  0  0  0
  3  4  4  0  0  0  0
  3  8  1  0  0  0  0
  4  5  1  0  0  0  0
  4 13  4  0  0  0  0
  5  6  1  0  0  0  0
  6  7  1  0  0  0  0
  7  8  1  0  0  0  0
  8  9  1  0  0  0  0
  9 10  1  0  0  0  0
  9 12  1  0  0  0  0
 10 11  1  0  0  0  0
 13 14  4  0  0  0  0
M  END
>  <Name_Molregno>
199111

>  <5-HT1A>
5

>  <5-HT1B>
5

>  <5-HT2C>
5

>  <5-HT3>
5

>  <5-HT5>
5

>  <5-HT6>
5

>  <5-HT7>
5

>  <Beta-1>
5

>  <Beta-2>
5

>  <DOPAMINE D1>
5

>  <DOPAMINE D2>
5

>  <DOPAMINE D3>
5

>  <DOPAMINE D4>
5

>  <DOPAMINE D5>
5

>  <HISTAMINE H1>
5

>  <HISTAMINE H2>
5

>  <Muscarinic acetylcholine receptor M1>
5

>  <Muscarinic acetylcholine receptor M2>
5

>  <Muscarinic acetylcholine receptor M3>
5

>  <Muscarinic acetylcholine receptor M4>
5

>  <Muscarinic acetylcholine receptor M5>
5

$$$$
212378
  Marvin  02231216192D 0   1.00000     0.00000     0

 37 41  0  0  1  0  0  0  0  0999 V2000
    9.4469    5.2044    0.0000 O   0  0  0  0  0  0  0  0  0
    9.1920    4.4198    0.0000 N   0  0  0  0  0  0  0  0  0
    8.3670    4.4198    0.0000 C   0  0  0  0  0  0  0  0  0
    8.1121    5.2044    0.0000 N   0  0  0  0  0  0  0  0  0
    8.7795    5.6894    0.0000 C   0  0  0  0  0  0  0  0  0
    8.7795    6.5144    0.0000 C   0  0  0  0  0  0  0  0  0
    7.8821    3.7524    0.0000 C   0  0  0  0  0  0  0  0  0
    8.2176    2.9987    0.0000 C   0  0  0  0  0  0  0  0  0
    7.7327    2.3313    0.0000 C   0  0  0  0  0  0  0  0  0
    8.0683    1.5776    0.0000 C   0  0  0  0  0  0  0  0  0
    6.9122    2.4175    0.0000 C   0  0  0  0  0  0  0  0  0
    6.5767    3.1712    0.0000 C   0  0  0  0  0  0  0  0  0
    7.0616    3.8386    0.0000 C   0  0  0  0  0  0  0  0  0
    6.4273    1.7501    0.0000 C   0  0  0  0  0  0  0  0  0
    6.7629    0.9964    0.0000 C   0  0  0  0  0  0  0  0  0
    6.2779    0.3289    0.0000 C   0  0  0  0  0  0  0  0  0
    5.4575    0.4152    0.0000 C   0  0  0  0  0  0  0  0  0
    5.1219    1.1689    0.0000 C   0  0  0  0  0  0  0  0  0
    5.6068    1.8363    0.0000 C   0  0  0  0  0  0  0  0  0
    4.9725   -0.2523    0.0000 C   0  0  0  0  0  0  0  0  0
    4.1521   -0.1660    0.0000 O   0  0  0  0  0  0  0  0  0
    5.3081   -1.0059    0.0000 N   0  0  0  0  0  0  0  0  0
    4.8232   -1.6734    0.0000 C   0  0  0  0  0  0  0  0  0
    5.1587   -2.4270    0.0000 C   0  0  0  0  0  0  0  0  0
    4.6738   -3.0945    0.0000 C   0  0  0  0  0  0  0  0  0
    5.0094   -3.8482    0.0000 N   0  0  0  0  0  0  0  0  0
    5.8298   -3.9344    0.0000 C   0  0  0  0  0  0  0  0  0
    6.1654   -4.6881    0.0000 C   0  0  0  0  0  0  0  0  0
    5.6805   -5.3555    0.0000 N   0  0  0  0  0  0  0  0  0
    4.8600   -5.2693    0.0000 C   0  0  0  0  0  0  0  0  0
    4.5244   -4.5156    0.0000 C   0  0  0  0  0  0  0  0  0
    6.0160   -6.1092    0.0000 C   0  0  0  0  0  0  0  0  0
    3.8533   -3.0082    0.0000 C   0  0  0  0  0  0  0  0  0
    3.3684   -3.6757    0.0000 O   0  0  0  0  0  0  0  0  0
    2.5479   -3.5894    0.0000 C   0  0  0  0  0  0  0  0  0
    3.5178   -2.2546    0.0000 C   0  0  0  0  0  0  0  0  0
    4.0027   -1.5871    0.0000 C   0  0  0  0  0  0  0  0  0
  1  2  1  0  0  0  0
  1  5  1  0  0  0  0
  2  3  1  0  0  0  0
  3  4  2  0  0  0  0
  3  7  1  0  0  0  0
  4  5  1  0  0  0  0
  5  6  1  0  0  0  0
  7  8  4  0  0  0  0
  7 13  4  0  0  0  0
  8  9  4  0  0  0  0
  9 10  1  0  0  0  0
  9 11  4  0  0  0  0
 11 12  4  0  0  0  0
 11 14  1  0  0  0  0
 12 13  4  0  0  0  0
 14 15  4  0  0  0  0
 14 19  4  0  0  0  0
 15 16  4  0  0  0  0
 16 17  4  0  0  0  0
 17 18  4  0  0  0  0
 17 20  1  0  0  0  0
 18 19  4  0  0  0  0
 20 21  2  0  0  0  0
 20 22  1  0  0  0  0
 22 23  1  0  0  0  0
 23 24  4  0  0  0  0
 23 37  4  0  0  0  0
 24 25  4  0  0  0  0
 25 26  1  0  0  0  0
 25 33  4  0  0  0  0
 26 27  1  0  0  0  0
 26 31  1  0  0  0  0
 27 28  1  0  0  0  0
 28 29  1  0  0  0  0
 29 30  1  0  0  0  0
 29 32  1  0  0  0  0
 30 31  1  0  0  0  0
 33 34  1  0  0  0  0
 33 36  4  0  0  0  0
 34 35  1  0  0  0  0
 36 37  4  0  0  0  0
M  END
>  <Name_Molregno>
212378

>  <5-HT1A>
7.14

>  <5-HT1B>
9.85

>  <5-HT1D>
9.13

$$$$
212452
  Marvin  02231216192D 0   1.00000     0.00000     0

 18 20  0  0  0  0  0  0  0  0999 V2000
   -5.5613   -0.0066    0.0000 O   0  0  0  0  0  0  0  0  0
   -6.2757   -0.4191    0.0000 C   0  0  0  0  0  0  0  0  0
   -4.8468   -0.4191    0.0000 C   0  0  0  0  0  0  0  0  0
   -4.1323   -0.0066    0.0000 C   0  0  0  0  0  0  0  0  0
   -3.4178   -0.4191    0.0000 C   0  0  0  0  0  0  0  0  0
   -2.7034   -0.0066    0.0000 C   0  0  0  0  0  0  0  0  0
   -1.9889   -0.4191    0.0000 C   0  0  0  0  0  0  0  0  0
   -1.2744   -0.0066    0.0000 N   0  0  0  0  0  0  0  0  0
   -1.2744    0.8184    0.0000 C   0  0  0  0  0  0  0  0  0
   -0.5600    1.2309    0.0000 C   0  0  0  0  0  0  0  0  0
    0.1545    0.8184    0.0000 N   0  0  0  0  0  0  0  0  0
    0.1545   -0.0066    0.0000 C   0  0  0  0  0  0  0  0  0
   -0.5600   -0.4191    0.0000 C   0  0  0  0  0  0  0  0  0
   -1.9889   -1.2441    0.0000 C   0  0  0  0  0  0  0  0  0
   -2.7034   -1.6566    0.0000 C   0  0  0  0  0  0  0  0  0
   -3.4178   -1.2441    0.0000 C   0  0  0  0  0  0  0  0  0
   -4.1323   -1.6566    0.0000 C   0  0  0  0  0  0  0  0  0
   -4.8468   -1.2441    0.0000 C   0  0  0  0  0  0  0  0  0
  1  2  1  0  0  0  0
  1  3  1  0  0  0  0
  3  4  4  0  0  0  0
  3 18  4  0  0  0  0
  4  5  4  0  0  0  0
  5  6  4  0  0  0  0
  5 16  4  0  0  0  0
  6  7  4  0  0  0  0
  7  8  1  0  0  0  0
  7 14  4  0  0  0  0
  8  9  1  0  0  0  0
  8 13  1  0  0  0  0
  9 10  1  0  0  0  0
 10 11  1  0  0  0  0
 11 12  1  0  0  0  0
 12 13  1  0  0  0  0
 14 15  4  0  0  0  0
 15 16  4  0  0  0  0
 16 17  4  0  0  0  0
 17 18  4  0  0  0  0
M  END
>  <Name_Molregno>
212452

>  <5-HT1A>
8.55

>  <5-HT1B>
8.7

>  <5-HT1D>
9.15

$$$$
212727
  Marvin  02231216192D 0   1.00000     0.00000     0

 35 39  0  0  0  0  0  0  0  0999 V2000
    1.0804   -0.5425    0.0000 O   0  0  0  0  0  0  0  0  0
    0.3659   -0.1300    0.0000 C   0  0  0  0  0  0  0  0  0
   -0.3486   -0.5425    0.0000 C   0  0  0  0  0  0  0  0  0
   -0.3486   -1.3675    0.0000 O   0  0  0  0  0  0  0  0  0
   -1.0630   -0.1300    0.0000 N   0  0  0  0  0  0  0  0  0
   -1.7775   -0.5425    0.0000 C   0  0  0  0  0  0  0  0  0
   -2.4920   -0.1300    0.0000 C   0  0  0  0  0  0  0  0  0
   -2.4920    0.6950    0.0000 N   0  0  0  0  0  0  0  0  0
   -1.7775    1.1075    0.0000 C   0  0  0  0  0  0  0  0  0
   -1.0630    0.6950    0.0000 C   0  0  0  0  0  0  0  0  0
   -3.2065    1.1075    0.0000 C   0  0  0  0  0  0  0  0  0
   -3.9209    0.6950    0.0000 C   0  0  0  0  0  0  0  0  0
   -4.6354    1.1075    0.0000 C   0  0  0  0  0  0  0  0  0
   -4.6354    1.9325    0.0000 C   0  0  0  0  0  0  0  0  0
   -3.9209    2.3450    0.0000 C   0  0  0  0  0  0  0  0  0
   -3.2065    1.9325    0.0000 C   0  0  0  0  0  0  0  0  0
   -2.4920    2.3450    0.0000 C   0  0  0  0  0  0  0  0  0
   -1.7775    2.7575    0.0000 C   0  0  0  0  0  0  0  0  0
    1.7948   -0.1300    0.0000 C   0  0  0  0  0  0  0  0  0
    2.5093   -0.5425    0.0000 C   0  0  0  0  0  0  0  0  0
    3.2238   -0.1300    0.0000 C   0  0  0  0  0  0  0  0  0
    3.2238    0.6950    0.0000 C   0  0  0  0  0  0  0  0  0
    2.5093    1.1075    0.0000 C   0  0  0  0  0  0  0  0  0
    1.7948    0.6950    0.0000 C   0  0  0  0  0  0  0  0  0
    3.9383    1.1075    0.0000 C   0  0  0  0  0  0  0  0  0
    4.6527    0.6950    0.0000 C   0  0  0  0  0  0  0  0  0
    4.6527   -0.1300    0.0000 C   0  0  0  0  0  0  0  0  0
    3.9383   -0.5425    0.0000 C   0  0  0  0  0  0  0  0  0
    3.9383   -1.3675    0.0000 N   0  0  0  0  0  0  0  0  0
    4.6527   -1.7800    0.0000 C   0  0  0  0  0  0  0  0  0
    4.6527   -2.6050    0.0000 C   0  0  0  0  0  0  0  0  0
    3.9383   -3.0175    0.0000 N   0  0  0  0  0  0  0  0  0
    3.2238   -2.6050    0.0000 C   0  0  0  0  0  0  0  0  0
    3.2238   -1.7800    0.0000 C   0  0  0  0  0  0  0  0  0
    3.9383   -3.8425    0.0000 C   0  0  0  0  0  0  0  0  0
  1  2  1  0  0  0  0
  1 19  1  0  0  0  0
  2  3  1  0  0  0  0
  3  4  2  0  0  0  0
  3  5  1  0  0  0  0
  5  6  1  0  0  0  0
  5 10  1  0  0  0  0
  6  7  1  0  0  0  0
  7  8  1  0  0  0  0
  8  9  1  0  0  0  0
  8 11  1  0  0  0  0
  9 10  1  0  0  0  0
 11 12  4  0  0  0  0
 11 16  4  0  0  0  0
 12 13  4  0  0  0  0
 13 14  4  0  0  0  0
 14 15  4  0  0  0  0
 15 16  4  0  0  0  0
 16 17  1  0  0  0  0
 17 18  3  0  0  0  0
 19 20  4  0  0  0  0
 19 24  4  0  0  0  0
 20 21  4  0  0  0  0
 21 22  4  0  0  0  0
 21 28  4  0  0  0  0
 22 23  4  0  0  0  0
 22 25  4  0  0  0  0
 23 24  4  0  0  0  0
 25 26  4  0  0  0  0
 26 27  4  0  0  0  0
 27 28  4  0  0  0  0
 28 29  1  0  0  0  0
 29 30  1  0  0  0  0
 29 34  1  0  0  0  0
 30 31  1  0  0  0  0
 31 32  1  0  0  0  0
 32 33  1  0  0  0  0
 32 35  1  0  0  0  0
 33 34  1  0  0  0  0
M  END
>  <Name_Molregno>
212727

>  <5-HT1A>
7.91

>  <5-HT1B>
9.42

>  <5-HT1D>
9.29

$$$$
212728
  Marvin  02231216192D 0   1.00000     0.00000     0

 37 42  0  0  0  0  0  0  0  0999 V2000
    1.9851   -0.7318    0.0000 O   0  0  0  0  0  0  0  0  0
    1.2706   -0.3193    0.0000 C   0  0  0  0  0  0  0  0  0
    0.5561   -0.7318    0.0000 C   0  0  0  0  0  0  0  0  0
    0.5561   -1.5568    0.0000 O   0  0  0  0  0  0  0  0  0
   -0.1584   -0.3193    0.0000 N   0  0  0  0  0  0  0  0  0
   -0.8728   -0.7318    0.0000 C   0  0  0  0  0  0  0  0  0
   -1.5873   -0.3193    0.0000 C   0  0  0  0  0  0  0  0  0
   -1.5873    0.5057    0.0000 N   0  0  0  0  0  0  0  0  0
   -0.8728    0.9182    0.0000 C   0  0  0  0  0  0  0  0  0
   -0.1584    0.5057    0.0000 C   0  0  0  0  0  0  0  0  0
   -2.3018    0.9182    0.0000 C   0  0  0  0  0  0  0  0  0
   -2.3018    1.7432    0.0000 C   0  0  0  0  0  0  0  0  0
   -3.0162    2.1557    0.0000 C   0  0  0  0  0  0  0  0  0
   -3.7307    1.7432    0.0000 C   0  0  0  0  0  0  0  0  0
   -3.7307    0.9182    0.0000 C   0  0  0  0  0  0  0  0  0
   -3.0162    0.5057    0.0000 C   0  0  0  0  0  0  0  0  0
   -4.4452    2.1557    0.0000 C   0  0  0  0  0  0  0  0  0
   -4.4452    2.9807    0.0000 C   0  0  0  0  0  0  0  0  0
   -3.7307    3.3932    0.0000 C   0  0  0  0  0  0  0  0  0
   -3.0162    2.9807    0.0000 C   0  0  0  0  0  0  0  0  0
    2.6995   -0.3193    0.0000 C   0  0  0  0  0  0  0  0  0
    3.4140   -0.7318    0.0000 C   0  0  0  0  0  0  0  0  0
    4.1285   -0.3193    0.0000 C   0  0  0  0  0  0  0  0  0
    4.1285    0.5057    0.0000 C   0  0  0  0  0  0  0  0  0
    3.4140    0.9182    0.0000 C   0  0  0  0  0  0  0  0  0
    2.6995    0.5057    0.0000 C   0  0  0  0  0  0  0  0  0
    4.8429    0.9182    0.0000 C   0  0  0  0  0  0  0  0  0
    5.5574    0.5057    0.0000 C   0  0  0  0  0  0  0  0  0
    5.5574   -0.3193    0.0000 C   0  0  0  0  0  0  0  0  0
    4.8429   -0.7318    0.0000 C   0  0  0  0  0  0  0  0  0
    4.8429   -1.5568    0.0000 N   0  0  0  0  0  0  0  0  0
    5.5574   -1.9693    0.0000 C   0  0  0  0  0  0  0  0  0
    5.5574   -2.7943    0.0000 C   0  0  0  0  0  0  0  0  0
    4.8429   -3.2068    0.0000 N   0  0  0  0  0  0  0  0  0
    4.1285   -2.7943    0.0000 C   0  0  0  0  0  0  0  0  0
    4.1285   -1.9693    0.0000 C   0  0  0  0  0  0  0  0  0
    4.8429   -4.0318    0.0000 C   0  0  0  0  0  0  0  0  0
  1  2  1  0  0  0  0
  1 21  1  0  0  0  0
  2  3  1  0  0  0  0
  3  4  2  0  0  0  0
  3  5  1  0  0  0  0
  5  6  1  0  0  0  0
  5 10  1  0  0  0  0
  6  7  1  0  0  0  0
  7  8  1  0  0  0  0
  8  9  1  0  0  0  0
  8 11  1  0  0  0  0
  9 10  1  0  0  0  0
 11 12  4  0  0  0  0
 11 16  4  0  0  0  0
 12 13  4  0  0  0  0
 13 14  4  0  0  0  0
 13 20  4  0  0  0  0
 14 15  4  0  0  0  0
 14 17  4  0  0  0  0
 15 16  4  0  0  0  0
 17 18  4  0  0  0  0
 18 19  4  0  0  0  0
 19 20  4  0  0  0  0
 21 22  4  0  0  0  0
 21 26  4  0  0  0  0
 22 23  4  0  0  0  0
 23 24  4  0  0  0  0
 23 30  4  0  0  0  0
 24 25  4  0  0  0  0
 24 27  4  0  0  0  0
 25 26  4  0  0  0  0
 27 28  4  0  0  0  0
 28 29  4  0  0  0  0
 29 30  4  0  0  0  0
 30 31  1  0  0  0  0
 31 32  1  0  0  0  0
 31 36  1  0  0  0  0
 32 33  1  0  0  0  0
 33 34  1  0  0  0  0
 34 35  1  0  0  0  0
 34 37  1  0  0  0  0
 35 36  1  0  0  0  0
M  END
>  <Name_Molregno>
212728

>  <5-HT1A>
6.94

>  <5-HT1B>
9.37

>  <5-HT1D>
9.06

$$$$
212760
  Marvin  02231216192D 0   1.00000     0.00000     0

 37 42  0  0  0  0  0  0  0  0999 V2000
   -0.1069    0.0764    0.0000 O   0  0  0  0  0  0  0  0  0
   -0.1069    0.9014    0.0000 C   0  0  0  0  0  0  0  0  0
   -0.8214    1.3139    0.0000 C   0  0  0  0  0  0  0  0  0
   -1.5359    0.9014    0.0000 O   0  0  0  0  0  0  0  0  0
   -1.5359    0.0764    0.0000 C   0  0  0  0  0  0  0  0  0
   -0.8214   -0.3361    0.0000 C   0  0  0  0  0  0  0  0  0
   -0.8214    2.1389    0.0000 C   0  0  0  0  0  0  0  0  0
   -0.1069    2.5514    0.0000 C   0  0  0  0  0  0  0  0  0
    0.6075    2.1389    0.0000 C   0  0  0  0  0  0  0  0  0
    0.6075    1.3139    0.0000 C   0  0  0  0  0  0  0  0  0
    1.3220    0.9014    0.0000 N   0  0  0  0  0  0  0  0  0
    2.0365    1.3139    0.0000 C   0  0  0  0  0  0  0  0  0
    2.7509    0.9014    0.0000 C   0  0  0  0  0  0  0  0  0
    2.7509    0.0764    0.0000 N   0  0  0  0  0  0  0  0  0
    2.0365   -0.3361    0.0000 C   0  0  0  0  0  0  0  0  0
    1.3220    0.0764    0.0000 C   0  0  0  0  0  0  0  0  0
    3.4654   -0.3361    0.0000 C   0  0  0  0  0  0  0  0  0
    3.4654   -1.1611    0.0000 O   0  0  0  0  0  0  0  0  0
    4.1799    0.0764    0.0000 C   0  0  0  0  0  0  0  0  0
    4.8944   -0.3361    0.0000 O   0  0  0  0  0  0  0  0  0
    5.6088    0.0764    0.0000 C   0  0  0  0  0  0  0  0  0
    6.3233   -0.3361    0.0000 C   0  0  0  0  0  0  0  0  0
    7.0378    0.0764    0.0000 C   0  0  0  0  0  0  0  0  0
    7.0378    0.9014    0.0000 C   0  0  0  0  0  0  0  0  0
    6.3233    1.3139    0.0000 C   0  0  0  0  0  0  0  0  0
    5.6088    0.9014    0.0000 C   0  0  0  0  0  0  0  0  0
    7.7522    1.3139    0.0000 C   0  0  0  0  0  0  0  0  0
    8.4667    0.9014    0.0000 C   0  0  0  0  0  0  0  0  0
    8.4667    0.0764    0.0000 C   0  0  0  0  0  0  0  0  0
    7.7522   -0.3361    0.0000 C   0  0  0  0  0  0  0  0  0
    7.7522   -1.1611    0.0000 N   0  0  0  0  0  0  0  0  0
    8.4667   -1.5736    0.0000 C   0  0  0  0  0  0  0  0  0
    8.4667   -2.3986    0.0000 C   0  0  0  0  0  0  0  0  0
    7.7522   -2.8111    0.0000 N   0  0  0  0  0  0  0  0  0
    7.0378   -2.3986    0.0000 C   0  0  0  0  0  0  0  0  0
    7.0378   -1.5736    0.0000 C   0  0  0  0  0  0  0  0  0
    7.7522   -3.6361    0.0000 C   0  0  0  0  0  0  0  0  0
  1  2  1  0  0  0  0
  1  6  1  0  0  0  0
  2  3  4  0  0  0  0
  2 10  4  0  0  0  0
  3  4  1  0  0  0  0
  3  7  4  0  0  0  0
  4  5  1  0  0  0  0
  5  6  1  0  0  0  0
  7  8  4  0  0  0  0
  8  9  4  0  0  0  0
  9 10  4  0  0  0  0
 10 11  1  0  0  0  0
 11 12  1  0  0  0  0
 11 16  1  0  0  0  0
 12 13  1  0  0  0  0
 13 14  1  0  0  0  0
 14 15  1  0  0  0  0
 14 17  1  0  0  0  0
 15 16  1  0  0  0  0
 17 18  2  0  0  0  0
 17 19  1  0  0  0  0
 19 20  1  0  0  0  0
 20 21  1  0  0  0  0
 21 22  4  0  0  0  0
 21 26  4  0  0  0  0
 22 23  4  0  0  0  0
 23 24  4  0  0  0  0
 23 30  4  0  0  0  0
 24 25  4  0  0  0  0
 24 27  4  0  0  0  0
 25 26  4  0  0  0  0
 27 28  4  0  0  0  0
 28 29  4  0  0  0  0
 29 30  4  0  0  0  0
 30 31  1  0  0  0  0
 31 32  1  0  0  0  0
 31 36  1  0  0  0  0
 32 33  1  0  0  0  0
 33 34  1  0  0  0  0
 34 35  1  0  0  0  0
 34 37  1  0  0  0  0
 35 36  1  0  0  0  0
M  END
>  <Name_Molregno>
212760

>  <5-HT1A>
7.85

>  <5-HT1B>
9.37

>  <5-HT1D>
9.35

$$$$
212794
  Marvin  02231216192D 0   1.00000     0.00000     0

 37 41  0  0  0  0  0  0  0  0999 V2000
   -6.7099   -2.4051    0.0000 O   0  0  0  0  0  0  0  0  0
   -7.4244   -2.8176    0.0000 C   0  0  0  0  0  0  0  0  0
   -5.9955   -2.8176    0.0000 C   0  0  0  0  0  0  0  0  0
   -5.2810   -2.4051    0.0000 C   0  0  0  0  0  0  0  0  0
   -5.2810   -1.5801    0.0000 N   0  0  0  0  0  0  0  0  0
   -5.9955   -1.1676    0.0000 C   0  0  0  0  0  0  0  0  0
   -5.9955   -0.3426    0.0000 C   0  0  0  0  0  0  0  0  0
   -5.2810    0.0699    0.0000 N   0  0  0  0  0  0  0  0  0
   -4.5665   -0.3426    0.0000 C   0  0  0  0  0  0  0  0  0
   -4.5665   -1.1676    0.0000 C   0  0  0  0  0  0  0  0  0
   -5.2810    0.8949    0.0000 C   0  0  0  0  0  0  0  0  0
   -5.9955    1.3074    0.0000 O   0  0  0  0  0  0  0  0  0
   -4.5665    1.3074    0.0000 C   0  0  0  0  0  0  0  0  0
   -4.5665    2.1324    0.0000 O   0  0  0  0  0  0  0  0  0
   -3.8520    2.5449    0.0000 C   0  0  0  0  0  0  0  0  0
   -3.1376    2.1324    0.0000 C   0  0  0  0  0  0  0  0  0
   -2.4231    2.5449    0.0000 C   0  0  0  0  0  0  0  0  0
   -2.4231    3.3699    0.0000 C   0  0  0  0  0  0  0  0  0
   -3.1376    3.7824    0.0000 C   0  0  0  0  0  0  0  0  0
   -3.8520    3.3699    0.0000 C   0  0  0  0  0  0  0  0  0
   -1.7086    3.7824    0.0000 C   0  0  0  0  0  0  0  0  0
   -0.9942    3.3699    0.0000 C   0  0  0  0  0  0  0  0  0
   -0.9942    2.5449    0.0000 C   0  0  0  0  0  0  0  0  0
   -1.7086    2.1324    0.0000 C   0  0  0  0  0  0  0  0  0
   -1.7086    1.3074    0.0000 N   0  0  0  0  0  0  0  0  0
   -0.9942    0.8949    0.0000 C   0  0  0  0  0  0  0  0  0
   -0.9942    0.0699    0.0000 C   0  0  0  0  0  0  0  0  0
   -1.7086   -0.3426    0.0000 N   0  0  0  0  0  0  0  0  0
   -2.4231    0.0699    0.0000 C   0  0  0  0  0  0  0  0  0
   -2.4231    0.8949    0.0000 C   0  0  0  0  0  0  0  0  0
   -1.7086   -1.1676    0.0000 C   0  0  0  0  0  0  0  0  0
   -4.5665   -2.8176    0.0000 C   0  0  0  0  0  0  0  0  0
   -4.5665   -3.6426    0.0000 C   0  0  0  0  0  0  0  0  0
   -5.2810   -4.0551    0.0000 C   0  0  0  0  0  0  0  0  0
   -5.9955   -3.6426    0.0000 C   0  0  0  0  0  0  0  0  0
   -6.7099   -4.0551    0.0000 O   0  0  0  0  0  0  0  0  0
   -6.7099   -4.8801    0.0000 C   0  0  0  0  0  0  0  0  0
  1  2  1  0  0  0  0
  1  3  1  0  0  0  0
  3  4  4  0  0  0  0
  3 35  4  0  0  0  0
  4  5  1  0  0  0  0
  4 32  4  0  0  0  0
  5  6  1  0  0  0  0
  5 10  1  0  0  0  0
  6  7  1  0  0  0  0
  7  8  1  0  0  0  0
  8  9  1  0  0  0  0
  8 11  1  0  0  0  0
  9 10  1  0  0  0  0
 11 12  2  0  0  0  0
 11 13  1  0  0  0  0
 13 14  1  0  0  0  0
 14 15  1  0  0  0  0
 15 16  4  0  0  0  0
 15 20  4  0  0  0  0
 16 17  4  0  0  0  0
 17 18  4  0  0  0  0
 17 24  4  0  0  0  0
 18 19  4  0  0  0  0
 18 21  4  0  0  0  0
 19 20  4  0  0  0  0
 21 22  4  0  0  0  0
 22 23  4  0  0  0  0
 23 24  4  0  0  0  0
 24 25  1  0  0  0  0
 25 26  1  0  0  0  0
 25 30  1  0  0  0  0
 26 27  1  0  0  0  0
 27 28  1  0  0  0  0
 28 29  1  0  0  0  0
 28 31  1  0  0  0  0
 29 30  1  0  0  0  0
 32 33  4  0  0  0  0
 33 34  4  0  0  0  0
 34 35  4  0  0  0  0
 35 36  1  0  0  0  0
 36 37  1  0  0  0  0
M  END
>  <Name_Molregno>
212794

>  <5-HT1A>
7.87

>  <5-HT1B>
9.36

>  <5-HT1D>
9.21

$$$$
212806
  Marvin  02231216192D 0   1.00000     0.00000     0

 34 38  0  0  0  0  0  0  0  0999 V2000
    0.9101   -0.3348    0.0000 O   0  0  0  0  0  0  0  0  0
    0.1956    0.0777    0.0000 C   0  0  0  0  0  0  0  0  0
   -0.5188   -0.3348    0.0000 C   0  0  0  0  0  0  0  0  0
   -0.5188   -1.1598    0.0000 O   0  0  0  0  0  0  0  0  0
   -1.2333    0.0777    0.0000 N   0  0  0  0  0  0  0  0  0
   -1.9478   -0.3348    0.0000 C   0  0  0  0  0  0  0  0  0
   -2.6623    0.0777    0.0000 C   0  0  0  0  0  0  0  0  0
   -2.6623    0.9027    0.0000 N   0  0  0  0  0  0  0  0  0
   -1.9478    1.3152    0.0000 C   0  0  0  0  0  0  0  0  0
   -1.2333    0.9027    0.0000 C   0  0  0  0  0  0  0  0  0
   -3.3767    1.3152    0.0000 C   0  0  0  0  0  0  0  0  0
   -4.0912    0.9027    0.0000 C   0  0  0  0  0  0  0  0  0
   -4.8057    1.3152    0.0000 C   0  0  0  0  0  0  0  0  0
   -4.8057    2.1402    0.0000 C   0  0  0  0  0  0  0  0  0
   -4.0912    2.5527    0.0000 C   0  0  0  0  0  0  0  0  0
   -3.3767    2.1402    0.0000 C   0  0  0  0  0  0  0  0  0
   -2.6623    2.5527    0.0000 C   0  0  0  0  0  0  0  0  0
    1.6246    0.0777    0.0000 C   0  0  0  0  0  0  0  0  0
    2.3390   -0.3348    0.0000 C   0  0  0  0  0  0  0  0  0
    3.0535    0.0777    0.0000 C   0  0  0  0  0  0  0  0  0
    3.0535    0.9027    0.0000 C   0  0  0  0  0  0  0  0  0
    2.3390    1.3152    0.0000 C   0  0  0  0  0  0  0  0  0
    1.6246    0.9027    0.0000 C   0  0  0  0  0  0  0  0  0
    3.7680    1.3152    0.0000 C   0  0  0  0  0  0  0  0  0
    4.4825    0.9027    0.0000 C   0  0  0  0  0  0  0  0  0
    4.4825    0.0777    0.0000 C   0  0  0  0  0  0  0  0  0
    3.7680   -0.3348    0.0000 C   0  0  0  0  0  0  0  0  0
    3.7680   -1.1598    0.0000 N   0  0  0  0  0  0  0  0  0
    4.4825   -1.5723    0.0000 C   0  0  0  0  0  0  0  0  0
    4.4825   -2.3973    0.0000 C   0  0  0  0  0  0  0  0  0
    3.7680   -2.8098    0.0000 N   0  0  0  0  0  0  0  0  0
    3.0535   -2.3973    0.0000 C   0  0  0  0  0  0  0  0  0
    3.0535   -1.5723    0.0000 C   0  0  0  0  0  0  0  0  0
    3.7680   -3.6348    0.0000 C   0  0  0  0  0  0  0  0  0
  1  2  1  0  0  0  0
  1 18  1  0  0  0  0
  2  3  1  0  0  0  0
  3  4  2  0  0  0  0
  3  5  1  0  0  0  0
  5  6  1  0  0  0  0
  5 10  1  0  0  0  0
  6  7  1  0  0  0  0
  7  8  1  0  0  0  0
  8  9  1  0  0  0  0
  8 11  1  0  0  0  0
  9 10  1  0  0  0  0
 11 12  4  0  0  0  0
 11 16  4  0  0  0  0
 12 13  4  0  0  0  0
 13 14  4  0  0  0  0
 14 15  4  0  0  0  0
 15 16  4  0  0  0  0
 16 17  1  0  0  0  0
 18 19  4  0  0  0  0
 18 23  4  0  0  0  0
 19 20  4  0  0  0  0
 20 21  4  0  0  0  0
 20 27  4  0  0  0  0
 21 22  4  0  0  0  0
 21 24  4  0  0  0  0
 22 23  4  0  0  0  0
 24 25  4  0  0  0  0
 25 26  4  0  0  0  0
 26 27  4  0  0  0  0
 27 28  1  0  0  0  0
 28 29  1  0  0  0  0
 28 33  1  0  0  0  0
 29 30  1  0  0  0  0
 30 31  1  0  0  0  0
 31 32  1  0  0  0  0
 31 34  1  0  0  0  0
 32 33  1  0  0  0  0
M  END
>  <Name_Molregno>
212806

>  <5-HT1A>
7.31

>  <5-HT1B>
9.52

>  <5-HT1D>
9.16

$$$$
212820
  Marvin  02231216192D 0   1.00000     0.00000     0

 35 39  0  0  0  0  0  0  0  0999 V2000
    1.1531   -0.3163    0.0000 O   0  0  0  0  0  0  0  0  0
    0.4386    0.0962    0.0000 C   0  0  0  0  0  0  0  0  0
   -0.2758   -0.3163    0.0000 C   0  0  0  0  0  0  0  0  0
   -0.2758   -1.1413    0.0000 O   0  0  0  0  0  0  0  0  0
   -0.9903    0.0962    0.0000 N   0  0  0  0  0  0  0  0  0
   -1.7048   -0.3163    0.0000 C   0  0  0  0  0  0  0  0  0
   -2.4193    0.0962    0.0000 C   0  0  0  0  0  0  0  0  0
   -2.4193    0.9212    0.0000 N   0  0  0  0  0  0  0  0  0
   -1.7048    1.3337    0.0000 C   0  0  0  0  0  0  0  0  0
   -0.9903    0.9212    0.0000 C   0  0  0  0  0  0  0  0  0
   -3.1337    1.3337    0.0000 C   0  0  0  0  0  0  0  0  0
   -3.8482    0.9212    0.0000 C   0  0  0  0  0  0  0  0  0
   -4.5627    1.3337    0.0000 C   0  0  0  0  0  0  0  0  0
   -4.5627    2.1587    0.0000 C   0  0  0  0  0  0  0  0  0
   -3.8482    2.5712    0.0000 C   0  0  0  0  0  0  0  0  0
   -3.1337    2.1587    0.0000 C   0  0  0  0  0  0  0  0  0
   -2.4193    2.5712    0.0000 C   0  0  0  0  0  0  0  0  0
   -3.8482    0.0962    0.0000 C   0  0  0  0  0  0  0  0  0
    1.8676    0.0962    0.0000 C   0  0  0  0  0  0  0  0  0
    2.5820   -0.3163    0.0000 C   0  0  0  0  0  0  0  0  0
    3.2965    0.0962    0.0000 C   0  0  0  0  0  0  0  0  0
    3.2965    0.9212    0.0000 C   0  0  0  0  0  0  0  0  0
    2.5820    1.3337    0.0000 C   0  0  0  0  0  0  0  0  0
    1.8676    0.9212    0.0000 C   0  0  0  0  0  0  0  0  0
    4.0110    1.3337    0.0000 C   0  0  0  0  0  0  0  0  0
    4.7255    0.9212    0.0000 C   0  0  0  0  0  0  0  0  0
    4.7255    0.0962    0.0000 C   0  0  0  0  0  0  0  0  0
    4.0110   -0.3163    0.0000 C   0  0  0  0  0  0  0  0  0
    4.0110   -1.1413    0.0000 N   0  0  0  0  0  0  0  0  0
    4.7255   -1.5538    0.0000 C   0  0  0  0  0  0  0  0  0
    4.7255   -2.3788    0.0000 C   0  0  0  0  0  0  0  0  0
    4.0110   -2.7913    0.0000 N   0  0  0  0  0  0  0  0  0
    3.2965   -2.3788    0.0000 C   0  0  0  0  0  0  0  0  0
    3.2965   -1.5538    0.0000 C   0  0  0  0  0  0  0  0  0
    4.0110   -3.6163    0.0000 C   0  0  0  0  0  0  0  0  0
  1  2  1  0  0  0  0
  1 19  1  0  0  0  0
  2  3  1  0  0  0  0
  3  4  2  0  0  0  0
  3  5  1  0  0  0  0
  5  6  1  0  0  0  0
  5 10  1  0  0  0  0
  6  7  1  0  0  0  0
  7  8  1  0  0  0  0
  8  9  1  0  0  0  0
  8 11  1  0  0  0  0
  9 10  1  0  0  0  0
 11 12  4  0  0  0  0
 11 16  4  0  0  0  0
 12 13  4  0  0  0  0
 12 18  1  0  0  0  0
 13 14  4  0  0  0  0
 14 15  4  0  0  0  0
 15 16  4  0  0  0  0
 16 17  1  0  0  0  0
 19 20  4  0  0  0  0
 19 24  4  0  0  0  0
 20 21  4  0  0  0  0
 21 22  4  0  0  0  0
 21 28  4  0  0  0  0
 22 23  4  0  0  0  0
 22 25  4  0  0  0  0
 23 24  4  0  0  0  0
 25 26  4  0  0  0  0
 26 27  4  0  0  0  0
 27 28  4  0  0  0  0
 28 29  1  0  0  0  0
 29 30  1  0  0  0  0
 29 34  1  0  0  0  0
 30 31  1  0  0  0  0
 31 32  1  0  0  0  0
 32 33  1  0  0  0  0
 32 35  1  0  0  0  0
 33 34  1  0  0  0  0
M  END
>  <Name_Molregno>
212820

>  <5-HT1A>
7.64

>  <5-HT1B>
9.7

>  <5-HT1D>
9.26

$$$$
213053
  Marvin  02231216192D 0   1.00000     0.00000     0

 36 40  0  0  0  0  0  0  0  0999 V2000
    1.4902   -0.4136    0.0000 O   0  0  0  0  0  0  0  0  0
    0.7757   -0.0011    0.0000 C   0  0  0  0  0  0  0  0  0
    0.0613   -0.4136    0.0000 C   0  0  0  0  0  0  0  0  0
    0.0613   -1.2386    0.0000 O   0  0  0  0  0  0  0  0  0
   -0.6532   -0.0011    0.0000 N   0  0  0  0  0  0  0  0  0
   -1.3677   -0.4136    0.0000 C   0  0  0  0  0  0  0  0  0
   -2.0822   -0.0011    0.0000 C   0  0  0  0  0  0  0  0  0
   -2.0822    0.8239    0.0000 N   0  0  0  0  0  0  0  0  0
   -1.3677    1.2364    0.0000 C   0  0  0  0  0  0  0  0  0
   -0.6532    0.8239    0.0000 C   0  0  0  0  0  0  0  0  0
   -2.7966    1.2364    0.0000 C   0  0  0  0  0  0  0  0  0
   -3.5111    0.8239    0.0000 C   0  0  0  0  0  0  0  0  0
   -4.2256    1.2364    0.0000 C   0  0  0  0  0  0  0  0  0
   -4.2256    2.0614    0.0000 C   0  0  0  0  0  0  0  0  0
   -3.5111    2.4739    0.0000 C   0  0  0  0  0  0  0  0  0
   -2.7966    2.0614    0.0000 C   0  0  0  0  0  0  0  0  0
   -2.0822    2.4739    0.0000 C   0  0  0  0  0  0  0  0  0
   -4.9400    2.4739    0.0000 C   0  0  0  0  0  0  0  0  0
   -3.5111   -0.0011    0.0000 C   0  0  0  0  0  0  0  0  0
    2.2047   -0.0011    0.0000 C   0  0  0  0  0  0  0  0  0
    2.9191   -0.4136    0.0000 C   0  0  0  0  0  0  0  0  0
    3.6336   -0.0011    0.0000 C   0  0  0  0  0  0  0  0  0
    3.6336    0.8239    0.0000 C   0  0  0  0  0  0  0  0  0
    2.9191    1.2364    0.0000 C   0  0  0  0  0  0  0  0  0
    2.2047    0.8239    0.0000 C   0  0  0  0  0  0  0  0  0
    4.3481    1.2364    0.0000 C   0  0  0  0  0  0  0  0  0
    5.0625    0.8239    0.0000 C   0  0  0  0  0  0  0  0  0
    5.0625   -0.0011    0.0000 C   0  0  0  0  0  0  0  0  0
    4.3481   -0.4136    0.0000 C   0  0  0  0  0  0  0  0  0
    4.3481   -1.2386    0.0000 N   0  0  0  0  0  0  0  0  0
    5.0625   -1.6511    0.0000 C   0  0  0  0  0  0  0  0  0
    5.0625   -2.4761    0.0000 C   0  0  0  0  0  0  0  0  0
    4.3481   -2.8886    0.0000 N   0  0  0  0  0  0  0  0  0
    3.6336   -2.4761    0.0000 C   0  0  0  0  0  0  0  0  0
    3.6336   -1.6511    0.0000 C   0  0  0  0  0  0  0  0  0
    4.3481   -3.7136    0.0000 C   0  0  0  0  0  0  0  0  0
  1  2  1  0  0  0  0
  1 20  1  0  0  0  0
  2  3  1  0  0  0  0
  3  4  2  0  0  0  0
  3  5  1  0  0  0  0
  5  6  1  0  0  0  0
  5 10  1  0  0  0  0
  6  7  1  0  0  0  0
  7  8  1  0  0  0  0
  8  9  1  0  0  0  0
  8 11  1  0  0  0  0
  9 10  1  0  0  0  0
 11 12  4  0  0  0  0
 11 16  4  0  0  0  0
 12 13  4  0  0  0  0
 12 19  1  0  0  0  0
 13 14  4  0  0  0  0
 14 15  4  0  0  0  0
 14 18  1  0  0  0  0
 15 16  4  0  0  0  0
 16 17  1  0  0  0  0
 20 21  4  0  0  0  0
 20 25  4  0  0  0  0
 21 22  4  0  0  0  0
 22 23  4  0  0  0  0
 22 29  4  0  0  0  0
 23 24  4  0  0  0  0
 23 26  4  0  0  0  0
 24 25  4  0  0  0  0
 26 27  4  0  0  0  0
 27 28  4  0  0  0  0
 28 29  4  0  0  0  0
 29 30  1  0  0  0  0
 30 31  1  0  0  0  0
 30 35  1  0  0  0  0
 31 32  1  0  0  0  0
 32 33  1  0  0  0  0
 33 34  1  0  0  0  0
 33 36  1  0  0  0  0
 34 35  1  0  0  0  0
M  END
>  <Name_Molregno>
213053

>  <5-HT1A>
6.93

>  <5-HT1B>
8.85

>  <5-HT1D>
8.72

$$$$
217067
  Marvin  02231216192D 0   1.00000     0.00000     0

 29 31  0  0  1  0  0  0  0  0999 V2000
   -1.2017    1.0936    0.0000 S   0  0  0  0  0  0  0  0  0
   -1.2017    0.2686    0.0000 O   0  0  0  0  0  0  0  0  0
   -1.2017    1.9186    0.0000 O   0  0  0  0  0  0  0  0  0
   -2.0267    1.0936    0.0000 C   0  0  0  0  0  0  0  0  0
   -2.4392    0.3791    0.0000 C   0  0  0  0  0  0  0  0  0
   -2.0267   -0.3354    0.0000 C   0  0  0  0  0  0  0  0  0
   -2.4392   -1.0498    0.0000 C   0  0  0  0  0  0  0  0  0
   -2.0267   -1.7643    0.0000 C   0  0  0  0  0  0  0  0  0
   -2.4392   -2.4788    0.0000 C   0  0  0  0  0  0  0  0  0
   -3.2642   -2.4788    0.0000 C   0  0  0  0  0  0  0  0  0
   -3.6767   -3.1932    0.0000 N   0  0  0  0  0  0  0  0  0
   -4.5017   -3.1932    0.0000 C   0  0  0  0  0  0  0  0  0
   -4.9142   -3.9077    0.0000 C   0  0  0  0  0  0  0  0  0
   -5.7392   -3.9077    0.0000 C   0  0  0  0  0  0  0  0  0
   -3.2642   -3.9077    0.0000 C   0  0  0  0  0  0  0  0  0
   -2.4392   -3.9077    0.0000 C   0  0  0  0  0  0  0  0  0
   -2.0267   -4.6222    0.0000 C   0  0  0  0  0  0  0  0  0
   -3.6767   -1.7643    0.0000 C   0  0  0  0  0  0  0  0  0
   -3.2642   -1.0498    0.0000 C   0  0  0  0  0  0  0  0  0
   -3.6767   -0.3354    0.0000 C   0  0  0  0  0  0  0  0  0
   -3.2642    0.3791    0.0000 C   0  0  0  0  0  0  0  0  0
   -0.3767    1.0936    0.0000 C   0  0  0  0  0  0  0  0  0
    0.0358    1.8081    0.0000 C   0  0  0  0  0  0  0  0  0
    0.8608    1.8081    0.0000 C   0  0  0  0  0  0  0  0  0
    1.2733    1.0936    0.0000 C   0  0  0  0  0  0  0  0  0
    2.0983    1.0936    0.0000 O   0  0  0  0  0  0  0  0  0
    2.5108    1.8081    0.0000 C   0  0  0  0  0  0  0  0  0
    0.8608    0.3791    0.0000 C   0  0  0  0  0  0  0  0  0
    0.0358    0.3791    0.0000 C   0  0  0  0  0  0  0  0  0
  1  2  2  0  0  0  0
  1  3  2  0  0  0  0
  1  4  1  0  0  0  0
  1 22  1  0  0  0  0
  4  5  1  0  0  0  0
  5  6  4  0  0  0  0
  5 21  4  0  0  0  0
  6  7  4  0  0  0  0
  7  8  1  0  0  0  0
  7 19  4  0  0  0  0
  8  9  1  0  0  0  0
  9 10  1  0  0  0  0
 10 11  1  0  0  0  0
 10 18  1  0  0  0  0
 11 12  1  0  0  0  0
 11 15  1  0  0  0  0
 12 13  1  0  0  0  0
 13 14  1  0  0  0  0
 15 16  1  0  0  0  0
 16 17  1  0  0  0  0
 18 19  1  0  0  0  0
 19 20  4  0  0  0  0
 20 21  4  0  0  0  0
 22 23  4  0  0  0  0
 22 29  4  0  0  0  0
 23 24  4  0  0  0  0
 24 25  4  0  0  0  0
 25 26  1  0  0  0  0
 25 28  4  0  0  0  0
 26 27  1  0  0  0  0
 28 29  4  0  0  0  0
M  END
>  <Name_Molregno>
217067

>  <5-HT1A>
6.8

>  <5-HT1B>
6

>  <5-HT1D>
6

>  <5-HT2A>
6

>  <5-HT2C>
6

>  <DOPAMINE D1>
6

>  <DOPAMINE D2>
7.03

>  <DOPAMINE D3>
8.88

>  <DOPAMINE D4>
5

>  <DOPAMINE D5>
6

$$$$
230589
  Marvin  02231216192D 0   1.00000     0.00000     0

 21 23  0  0  1  0  0  0  0  0999 V2000
    1.8607    2.5785    0.0000 S   0  0  0  0  0  0  0  0  0
    2.1156    3.3632    0.0000 C   0  0  0  0  0  0  0  0  0
    2.9406    3.3632    0.0000 C   0  0  0  0  0  0  0  0  0
    3.1956    2.5785    0.0000 C   0  0  0  0  0  0  0  0  0
    2.5281    2.0936    0.0000 C   0  0  0  0  0  0  0  0  0
    2.5281    1.2686    0.0000 C   0  0  0  0  0  0  0  0  0
    1.8136    0.8561    0.0000 O   0  0  0  0  0  0  0  0  0
    1.8136    0.0311    0.0000 C   0  0  0  0  0  0  0  0  0
    1.0992   -0.3814    0.0000 C   0  0  0  0  0  0  0  0  0
    1.0992   -1.2064    0.0000 C   0  0  0  0  0  0  0  0  0
    1.8136   -1.6189    0.0000 C   0  0  0  0  0  0  0  0  0
    2.5281   -1.2064    0.0000 C   0  0  0  0  0  0  0  0  0
    2.5281   -0.3814    0.0000 C   0  0  0  0  0  0  0  0  0
    0.3847   -1.6189    0.0000 C   0  0  0  0  0  0  0  0  0
   -0.3298   -1.2064    0.0000 C   0  0  0  0  0  0  0  0  0
   -0.3298   -0.3814    0.0000 C   0  0  0  0  0  0  0  0  0
    0.3847    0.0311    0.0000 C   0  0  0  0  0  0  0  0  0
    3.2426    0.8561    0.0000 C   0  0  0  0  0  0  0  0  0
    3.9571    1.2686    0.0000 C   0  0  0  0  0  0  0  0  0
    4.6715    0.8561    0.0000 N   0  0  0  0  0  0  0  0  0
    4.6715    0.0311    0.0000 C   0  0  0  0  0  0  0  0  0
  1  2  4  0  0  0  0
  1  5  4  0  0  0  0
  2  3  4  0  0  0  0
  3  4  4  0  0  0  0
  4  5  4  0  0  0  0
  5  6  1  0  0  0  0
  6  7  1  0  0  0  0
  6 18  1  0  0  0  0
  7  8  1  0  0  0  0
  8  9  4  0  0  0  0
  8 13  4  0  0  0  0
  9 10  4  0  0  0  0
  9 17  4  0  0  0  0
 10 11  4  0  0  0  0
 10 14  4  0  0  0  0
 11 12  4  0  0  0  0
 12 13  4  0  0  0  0
 14 15  4  0  0  0  0
 15 16  4  0  0  0  0
 16 17  4  0  0  0  0
 18 19  1  0  0  0  0
 19 20  1  0  0  0  0
 20 21  1  0  0  0  0
M  END
>  <Name_Molregno>
230589

>  <5-HT1A>
5.3

>  <5-HT1B>
5.4

>  <5-HT1D>
5.52

>  <5-HT1E>
5.43

>  <5-HT2A>
6.3

>  <5-HT2C>
6.04

>  <5-HT6>
6.38

>  <5-HT7>
5.65

>  <Alpha-2A>
6

>  <DOPAMINE D2>
5

>  <Dopamine transporter>
6.24

>  <HISTAMINE H1>
5.64

>  <Muscarinic acetylcholine receptor M1>
6

>  <Muscarinic acetylcholine receptor M2>
6

>  <Norepinephrine transporter>
7.53

>  <Serotonin transporter>
8.48

$$$$
242460
  Marvin  02231216192D 0   1.00000     0.00000     0

 34 38  0  0  0  0  0  0  0  0999 V2000
    0.2269    0.4460    0.0000 O   0  0  0  0  0  0  0  0  0
    0.9414    0.8585    0.0000 C   0  0  0  0  0  0  0  0  0
    1.6558    0.4460    0.0000 C   0  0  0  0  0  0  0  0  0
    2.3703    0.8585    0.0000 C   0  0  0  0  0  0  0  0  0
    3.0848    0.4460    0.0000 C   0  0  0  0  0  0  0  0  0
    3.0848   -0.3790    0.0000 C   0  0  0  0  0  0  0  0  0
    2.3703   -0.7915    0.0000 C   0  0  0  0  0  0  0  0  0
    1.6558   -0.3790    0.0000 C   0  0  0  0  0  0  0  0  0
    3.7992   -0.7915    0.0000 C   0  0  0  0  0  0  0  0  0
    3.7992   -1.6165    0.0000 O   0  0  0  0  0  0  0  0  0
    4.5137   -2.0290    0.0000 C   0  0  0  0  0  0  0  0  0
    5.2282   -1.6165    0.0000 C   0  0  0  0  0  0  0  0  0
    5.9427   -2.0290    0.0000 C   0  0  0  0  0  0  0  0  0
    5.9427   -2.8540    0.0000 C   0  0  0  0  0  0  0  0  0
    6.7273   -3.1089    0.0000 N   0  0  0  0  0  0  0  0  0
    7.2122   -2.4415    0.0000 C   0  0  0  0  0  0  0  0  0
    6.7273   -1.7741    0.0000 C   0  0  0  0  0  0  0  0  0
    6.9822   -0.9894    0.0000 C   0  0  0  0  0  0  0  0  0
    7.7892   -0.8179    0.0000 C   0  0  0  0  0  0  0  0  0
    8.0441   -0.0333    0.0000 N   0  0  0  0  0  0  0  0  0
    5.2282   -3.2665    0.0000 C   0  0  0  0  0  0  0  0  0
    4.5137   -2.8540    0.0000 C   0  0  0  0  0  0  0  0  0
   -0.4876    0.8585    0.0000 C   0  0  0  0  0  0  0  0  0
   -1.2020    0.4460    0.0000 C   0  0  0  0  0  0  0  0  0
   -1.9165    0.8585    0.0000 C   0  0  0  0  0  0  0  0  0
   -1.9165    1.6835    0.0000 C   0  0  0  0  0  0  0  0  0
   -2.7011    1.9384    0.0000 N   0  0  0  0  0  0  0  0  0
   -3.1861    1.2710    0.0000 C   0  0  0  0  0  0  0  0  0
   -2.7011    0.6036    0.0000 C   0  0  0  0  0  0  0  0  0
   -2.9561   -0.1811    0.0000 C   0  0  0  0  0  0  0  0  0
   -3.7631   -0.3526    0.0000 C   0  0  0  0  0  0  0  0  0
   -4.3151    0.2605    0.0000 N   0  0  0  0  0  0  0  0  0
   -1.2020    2.0960    0.0000 C   0  0  0  0  0  0  0  0  0
   -0.4876    1.6835    0.0000 C   0  0  0  0  0  0  0  0  0
  1  2  1  0  0  0  0
  1 23  1  0  0  0  0
  2  3  1  0  0  0  0
  3  4  4  0  0  0  0
  3  8  4  0  0  0  0
  4  5  4  0  0  0  0
  5  6  4  0  0  0  0
  6  7  4  0  0  0  0
  6  9  1  0  0  0  0
  7  8  4  0  0  0  0
  9 10  1  0  0  0  0
 10 11  1  0  0  0  0
 11 12  4  0  0  0  0
 11 22  4  0  0  0  0
 12 13  4  0  0  0  0
 13 14  4  0  0  0  0
 13 17  4  0  0  0  0
 14 15  4  0  0  0  0
 14 21  4  0  0  0  0
 15 16  4  0  0  0  0
 16 17  4  0  0  0  0
 17 18  1  0  0  0  0
 18 19  1  0  0  0  0
 19 20  1  0  0  0  0
 21 22  4  0  0  0  0
 23 24  4  0  0  0  0
 23 34  4  0  0  0  0
 24 25  4  0  0  0  0
 25 26  4  0  0  0  0
 25 29  4  0  0  0  0
 26 27  4  0  0  0  0
 26 33  4  0  0  0  0
 27 28  4  0  0  0  0
 28 29  4  0  0  0  0
 29 30  1  0  0  0  0
 30 31  1  0  0  0  0
 31 32  1  0  0  0  0
 33 34  4  0  0  0  0
M  STY  2   1 DAT   2 DAT
M  SAL   1  1  15
M  SDT   1 MRV_IMPLICIT_H                                        
M  SDD   1     0.0000    0.0000    DR    ALL  0       0  
M  SED   1 IMPL_H1
M  SAL   2  1  27
M  SDT   2 MRV_IMPLICIT_H                                        
M  SDD   2     0.0000    0.0000    DR    ALL  0       0  
M  SED   2 IMPL_H1
M  END
>  <Name_Molregno>
242460

>  <5-HT1B>
10

>  <5-HT1D>
9.96

$$$$
259724
  Marvin  02231216192D 0   1.00000     0.00000     0

 18 20  0  0  1  0  0  0  0  0999 V2000
    0.3094   -0.9505    0.0000 N   0  0  0  0  0  0  0  0  0
    1.0239   -0.5380    0.0000 C   0  0  0  0  0  0  0  0  0
    1.7384   -0.9505    0.0000 C   0  0  0  0  0  0  0  0  0
    2.4528   -0.5380    0.0000 C   0  0  0  0  0  0  0  0  0
    2.4528    0.2870    0.0000 C   0  0  0  0  0  0  0  0  0
    3.1673    0.6995    0.0000 N   0  0  0  0  0  0  0  0  0
    3.8818    0.2870    0.0000 C   0  0  0  0  0  0  0  0  0
    3.8818   -0.5380    0.0000 C   0  0  0  0  0  0  0  0  0
    3.1673   -0.9505    0.0000 C   0  0  0  0  0  0  0  0  0
    3.1673    1.5245    0.0000 C   0  0  0  0  0  0  0  0  0
    3.8818    1.9370    0.0000 C   0  0  0  0  0  0  0  0  0
    3.8818    2.7620    0.0000 C   0  0  0  0  0  0  0  0  0
    1.7384    0.6995    0.0000 C   0  0  0  0  0  0  0  0  0
    1.0239    0.2870    0.0000 C   0  0  0  0  0  0  0  0  0
    0.3094    0.6995    0.0000 C   0  0  0  0  0  0  0  0  0
   -0.4050    0.2870    0.0000 N   0  0  0  0  0  0  0  0  0
   -0.4050   -0.5380    0.0000 C   0  0  0  0  0  0  0  0  0
   -1.1195   -0.9505    0.0000 N   0  0  0  0  0  0  0  0  0
  1  2  4  0  0  0  0
  1 17  4  0  0  0  0
  2  3  1  0  0  0  0
  2 14  4  0  0  0  0
  3  4  1  0  0  0  0
  4  5  1  0  0  0  0
  4  9  1  0  0  0  0
  5  6  1  0  0  0  0
  5 13  1  0  0  0  0
  6  7  1  0  0  0  0
  6 10  1  0  0  0  0
  7  8  1  0  0  0  0
  8  9  1  0  0  0  0
 10 11  1  0  0  0  0
 11 12  1  0  0  0  0
 13 14  1  0  0  0  0
 14 15  4  0  0  0  0
 15 16  4  0  0  0  0
 16 17  4  0  0  0  0
 17 18  1  0  0  0  0
M  END
>  <Name_Molregno>
259724

>  <5-HT1A>
5

>  <5-HT1B>
5

>  <5-HT1D>
5

>  <5-HT2A>
5

>  <5-HT2C>
5.58

>  <Alpha-1A>
5

>  <Alpha-1B>
5

>  <Alpha-2A>
5

>  <Alpha-2B>
5

>  <Alpha-2C>
5

>  <Beta-1>
5

>  <Beta-2>
5

>  <DOPAMINE D1>
5

>  <DOPAMINE D2>
6.33

>  <DOPAMINE D3>
8.65

>  <DOPAMINE D4>
7.72

>  <DOPAMINE D5>
5

$$$$
267036
  Marvin  02231216192D 0   1.00000     0.00000     0

 48 52  0  0  0  0  0  0  0  0999 V2000
   -5.7833   -0.6929    0.0000 S   0  0  0  0  0  0  0  0  0
   -6.1958    0.0215    0.0000 O   0  0  0  0  0  0  0  0  0
   -5.3708   -1.4074    0.0000 O   0  0  0  0  0  0  0  0  0
   -5.0689   -0.2804    0.0000 N   0  0  0  0  0  0  0  0  0
   -4.3544   -0.6929    0.0000 C   0  0  0  0  0  0  0  0  0
   -3.6399   -0.2804    0.0000 C   0  0  0  0  0  0  0  0  0
   -3.6399    0.5446    0.0000 C   0  0  0  0  0  0  0  0  0
   -2.9254    0.9571    0.0000 C   0  0  0  0  0  0  0  0  0
   -2.2110    0.5446    0.0000 C   0  0  0  0  0  0  0  0  0
   -2.2110   -0.2804    0.0000 C   0  0  0  0  0  0  0  0  0
   -2.9254   -0.6929    0.0000 C   0  0  0  0  0  0  0  0  0
   -1.4965    0.9571    0.0000 C   0  0  0  0  0  0  0  0  0
   -0.7820    0.5446    0.0000 N   0  0  0  0  0  0  0  0  0
   -0.0676    0.9571    0.0000 S   0  0  0  0  0  0  0  0  0
   -0.4801    1.6715    0.0000 O   0  0  0  0  0  0  0  0  0
    0.3449    0.2426    0.0000 O   0  0  0  0  0  0  0  0  0
    0.6469    1.3696    0.0000 C   0  0  0  0  0  0  0  0  0
    1.3614    0.9571    0.0000 C   0  0  0  0  0  0  0  0  0
    2.0758    1.3696    0.0000 C   0  0  0  0  0  0  0  0  0
    2.7903    0.9571    0.0000 C   0  0  0  0  0  0  0  0  0
    2.7903    0.1321    0.0000 C   0  0  0  0  0  0  0  0  0
    3.5749   -0.1229    0.0000 N   0  0  0  0  0  0  0  0  0
    4.0599    0.5446    0.0000 C   0  0  0  0  0  0  0  0  0
    3.5749    1.2120    0.0000 C   0  0  0  0  0  0  0  0  0
    3.8299    1.9966    0.0000 C   0  0  0  0  0  0  0  0  0
    4.6369    2.1682    0.0000 C   0  0  0  0  0  0  0  0  0
    4.8918    2.9528    0.0000 N   0  0  0  0  0  0  0  0  0
    5.6988    3.1243    0.0000 C   0  0  0  0  0  0  0  0  0
    4.3398    3.5659    0.0000 C   0  0  0  0  0  0  0  0  0
    2.0758   -0.2804    0.0000 C   0  0  0  0  0  0  0  0  0
    1.3614    0.1321    0.0000 C   0  0  0  0  0  0  0  0  0
   -0.7820   -0.2804    0.0000 C   0  0  0  0  0  0  0  0  0
   -5.0689    0.5446    0.0000 C   0  0  0  0  0  0  0  0  0
   -6.4978   -1.1054    0.0000 C   0  0  0  0  0  0  0  0  0
   -7.2123   -0.6929    0.0000 C   0  0  0  0  0  0  0  0  0
   -7.9267   -1.1054    0.0000 C   0  0  0  0  0  0  0  0  0
   -8.6412   -0.6929    0.0000 C   0  0  0  0  0  0  0  0  0
   -8.6412    0.1321    0.0000 C   0  0  0  0  0  0  0  0  0
   -9.4258    0.3870    0.0000 N   0  0  0  0  0  0  0  0  0
   -9.9108   -0.2804    0.0000 C   0  0  0  0  0  0  0  0  0
   -9.4258   -0.9479    0.0000 C   0  0  0  0  0  0  0  0  0
   -9.6808   -1.7325    0.0000 C   0  0  0  0  0  0  0  0  0
   -9.1287   -2.3456    0.0000 C   0  0  0  0  0  0  0  0  0
   -9.3837   -3.1302    0.0000 N   0  0  0  0  0  0  0  0  0
   -8.8317   -3.7433    0.0000 C   0  0  0  0  0  0  0  0  0
  -10.1907   -3.3017    0.0000 C   0  0  0  0  0  0  0  0  0
   -7.9267    0.5446    0.0000 C   0  0  0  0  0  0  0  0  0
   -7.2123    0.1321    0.0000 C   0  0  0  0  0  0  0  0  0
  1  2  2  0  0  0  0
  1  3  2  0  0  0  0
  1  4  1  0  0  0  0
  1 34  1  0  0  0  0
  4  5  1  0  0  0  0
  4 33  1  0  0  0  0
  5  6  1  0  0  0  0
  6  7  4  0  0  0  0
  6 11  4  0  0  0  0
  7  8  4  0  0  0  0
  8  9  4  0  0  0  0
  9 10  4  0  0  0  0
  9 12  1  0  0  0  0
 10 11  4  0  0  0  0
 12 13  1  0  0  0  0
 13 14  1  0  0  0  0
 13 32  1  0  0  0  0
 14 15  2  0  0  0  0
 14 16  2  0  0  0  0
 14 17  1  0  0  0  0
 17 18  1  0  0  0  0
 18 19  4  0  0  0  0
 18 31  4  0  0  0  0
 19 20  4  0  0  0  0
 20 21  4  0  0  0  0
 20 24  4  0  0  0  0
 21 22  4  0  0  0  0
 21 30  4  0  0  0  0
 22 23  4  0  0  0  0
 23 24  4  0  0  0  0
 24 25  1  0  0  0  0
 25 26  1  0  0  0  0
 26 27  1  0  0  0  0
 27 28  1  0  0  0  0
 27 29  1  0  0  0  0
 30 31  4  0  0  0  0
 34 35  1  0  0  0  0
 35 36  4  0  0  0  0
 35 48  4  0  0  0  0
 36 37  4  0  0  0  0
 37 38  4  0  0  0  0
 37 41  4  0  0  0  0
 38 39  4  0  0  0  0
 38 47  4  0  0  0  0
 39 40  4  0  0  0  0
 40 41  4  0  0  0  0
 41 42  1  0  0  0  0
 42 43  1  0  0  0  0
 43 44  1  0  0  0  0
 44 45  1  0  0  0  0
 44 46  1  0  0  0  0
 47 48  4  0  0  0  0
M  STY  2   1 DAT   2 DAT
M  SAL   1  1  22
M  SDT   1 MRV_IMPLICIT_H                                        
M  SDD   1     0.0000    0.0000    DR    ALL  0       0  
M  SED   1 IMPL_H1
M  SAL   2  1  39
M  SDT   2 MRV_IMPLICIT_H                                        
M  SDD   2     0.0000    0.0000    DR    ALL  0       0  
M  SED   2 IMPL_H1
M  END
>  <Name_Molregno>
267036

>  <5-HT1B>
9.19

>  <5-HT1D>
9.05

$$$$
286002
  Marvin  02231216192D 0   1.00000     0.00000     0

 17 19  0  0  0  0  0  0  0  0999 V2000
    3.8766   -0.7825    0.0000 S   0  0  0  0  0  0  0  0  0
    4.4286   -1.3956    0.0000 C   0  0  0  0  0  0  0  0  0
    4.0161   -2.1101    0.0000 C   0  0  0  0  0  0  0  0  0
    3.2092   -1.9386    0.0000 C   0  0  0  0  0  0  0  0  0
    3.1229   -1.1181    0.0000 C   0  0  0  0  0  0  0  0  0
    2.4085   -0.7056    0.0000 C   0  0  0  0  0  0  0  0  0
    1.6940   -1.1181    0.0000 C   0  0  0  0  0  0  0  0  0
    0.9795   -0.7056    0.0000 C   0  0  0  0  0  0  0  0  0
    0.9795    0.1194    0.0000 C   0  0  0  0  0  0  0  0  0
    0.1949    0.3744    0.0000 N   0  0  0  0  0  0  0  0  0
   -0.2900   -0.2931    0.0000 C   0  0  0  0  0  0  0  0  0
    0.1949   -0.9605    0.0000 C   0  0  0  0  0  0  0  0  0
   -0.0600   -1.7451    0.0000 C   0  0  0  0  0  0  0  0  0
   -0.8670   -1.9167    0.0000 C   0  0  0  0  0  0  0  0  0
   -1.1220   -2.7013    0.0000 N   0  0  0  0  0  0  0  0  0
    1.6940    0.5319    0.0000 C   0  0  0  0  0  0  0  0  0
    2.4085    0.1194    0.0000 C   0  0  0  0  0  0  0  0  0
  1  2  4  0  0  0  0
  1  5  4  0  0  0  0
  2  3  4  0  0  0  0
  3  4  4  0  0  0  0
  4  5  4  0  0  0  0
  5  6  1  0  0  0  0
  6  7  4  0  0  0  0
  6 17  4  0  0  0  0
  7  8  4  0  0  0  0
  8  9  4  0  0  0  0
  8 12  4  0  0  0  0
  9 10  4  0  0  0  0
  9 16  4  0  0  0  0
 10 11  4  0  0  0  0
 11 12  4  0  0  0  0
 12 13  1  0  0  0  0
 13 14  1  0  0  0  0
 14 15  1  0  0  0  0
 16 17  4  0  0  0  0
M  STY  1   1 DAT
M  SAL   1  1  10
M  SDT   1 MRV_IMPLICIT_H                                        
M  SDD   1     0.0000    0.0000    DR    ALL  0       0  
M  SED   1 IMPL_H1
M  END
>  <Name_Molregno>
286002

>  <5-HT1B>
7.49

>  <5-HT1D>
8.77

$$$$
286003
  Marvin  02231216192D 0   1.00000     0.00000     0

 19 21  0  0  0  0  0  0  0  0999 V2000
    4.0230   -0.5606    0.0000 S   0  0  0  0  0  0  0  0  0
    4.5750   -1.1737    0.0000 C   0  0  0  0  0  0  0  0  0
    4.1625   -1.8882    0.0000 C   0  0  0  0  0  0  0  0  0
    3.3556   -1.7167    0.0000 C   0  0  0  0  0  0  0  0  0
    3.2693   -0.8962    0.0000 C   0  0  0  0  0  0  0  0  0
    2.5549   -0.4837    0.0000 C   0  0  0  0  0  0  0  0  0
    1.8404   -0.8962    0.0000 C   0  0  0  0  0  0  0  0  0
    1.1259   -0.4837    0.0000 C   0  0  0  0  0  0  0  0  0
    1.1259    0.3413    0.0000 C   0  0  0  0  0  0  0  0  0
    0.3413    0.5963    0.0000 N   0  0  0  0  0  0  0  0  0
   -0.1436   -0.0712    0.0000 C   0  0  0  0  0  0  0  0  0
    0.3413   -0.7386    0.0000 C   0  0  0  0  0  0  0  0  0
    0.0864   -1.5232    0.0000 C   0  0  0  0  0  0  0  0  0
    0.6384   -2.1363    0.0000 C   0  0  0  0  0  0  0  0  0
    0.3835   -2.9209    0.0000 N   0  0  0  0  0  0  0  0  0
    0.9355   -3.5340    0.0000 C   0  0  0  0  0  0  0  0  0
   -0.4235   -3.0925    0.0000 C   0  0  0  0  0  0  0  0  0
    1.8404    0.7538    0.0000 C   0  0  0  0  0  0  0  0  0
    2.5549    0.3413    0.0000 C   0  0  0  0  0  0  0  0  0
  1  2  4  0  0  0  0
  1  5  4  0  0  0  0
  2  3  4  0  0  0  0
  3  4  4  0  0  0  0
  4  5  4  0  0  0  0
  5  6  1  0  0  0  0
  6  7  4  0  0  0  0
  6 19  4  0  0  0  0
  7  8  4  0  0  0  0
  8  9  4  0  0  0  0
  8 12  4  0  0  0  0
  9 10  4  0  0  0  0
  9 18  4  0  0  0  0
 10 11  4  0  0  0  0
 11 12  4  0  0  0  0
 12 13  1  0  0  0  0
 13 14  1  0  0  0  0
 14 15  1  0  0  0  0
 15 16  1  0  0  0  0
 15 17  1  0  0  0  0
 18 19  4  0  0  0  0
M  STY  1   1 DAT
M  SAL   1  1  10
M  SDT   1 MRV_IMPLICIT_H                                        
M  SDD   1     0.0000    0.0000    DR    ALL  0       0  
M  SED   1 IMPL_H1
M  END
>  <Name_Molregno>
286003

>  <5-HT1B>
7.64

>  <5-HT1D>
9.15

$$$$
286009
  Marvin  02231216192D 0   1.00000     0.00000     0

 19 21  0  0  0  0  0  0  0  0999 V2000
    5.3824    0.0728    0.0000 S   0  0  0  0  0  0  0  0  0
    4.5755    0.2443    0.0000 C   0  0  0  0  0  0  0  0  0
    4.4892    1.0648    0.0000 C   0  0  0  0  0  0  0  0  0
    5.2429    1.4004    0.0000 C   0  0  0  0  0  0  0  0  0
    5.7949    0.7873    0.0000 C   0  0  0  0  0  0  0  0  0
    3.7748    1.4773    0.0000 C   0  0  0  0  0  0  0  0  0
    3.0603    1.0648    0.0000 C   0  0  0  0  0  0  0  0  0
    2.3458    1.4773    0.0000 C   0  0  0  0  0  0  0  0  0
    2.3458    2.3023    0.0000 C   0  0  0  0  0  0  0  0  0
    1.5612    2.5572    0.0000 N   0  0  0  0  0  0  0  0  0
    1.0763    1.8898    0.0000 C   0  0  0  0  0  0  0  0  0
    1.5612    1.2224    0.0000 C   0  0  0  0  0  0  0  0  0
    1.3063    0.4377    0.0000 C   0  0  0  0  0  0  0  0  0
    1.8583   -0.1754    0.0000 C   0  0  0  0  0  0  0  0  0
    1.6034   -0.9600    0.0000 N   0  0  0  0  0  0  0  0  0
    2.1554   -1.5731    0.0000 C   0  0  0  0  0  0  0  0  0
    0.7964   -1.1315    0.0000 C   0  0  0  0  0  0  0  0  0
    3.0603    2.7148    0.0000 C   0  0  0  0  0  0  0  0  0
    3.7748    2.3023    0.0000 C   0  0  0  0  0  0  0  0  0
  1  2  4  0  0  0  0
  1  5  4  0  0  0  0
  2  3  4  0  0  0  0
  3  4  4  0  0  0  0
  3  6  1  0  0  0  0
  4  5  4  0  0  0  0
  6  7  4  0  0  0  0
  6 19  4  0  0  0  0
  7  8  4  0  0  0  0
  8  9  4  0  0  0  0
  8 12  4  0  0  0  0
  9 10  4  0  0  0  0
  9 18  4  0  0  0  0
 10 11  4  0  0  0  0
 11 12  4  0  0  0  0
 12 13  1  0  0  0  0
 13 14  1  0  0  0  0
 14 15  1  0  0  0  0
 15 16  1  0  0  0  0
 15 17  1  0  0  0  0
 18 19  4  0  0  0  0
M  STY  1   1 DAT
M  SAL   1  1  10
M  SDT   1 MRV_IMPLICIT_H                                        
M  SDD   1     0.0000    0.0000    DR    ALL  0       0  
M  SED   1 IMPL_H1
M  END
>  <Name_Molregno>
286009

>  <5-HT1B>
7.77

>  <5-HT1D>
9.3

$$$$
286117
  Marvin  02231216192D 0   1.00000     0.00000     0

 20 22  0  0  0  0  0  0  0  0999 V2000
    6.1980   -2.4289    0.0000 Cl  0  0  0  0  0  0  0  0  0
    5.8624   -1.6752    0.0000 C   0  0  0  0  0  0  0  0  0
    5.0555   -1.5037    0.0000 S   0  0  0  0  0  0  0  0  0
    4.9692   -0.6832    0.0000 C   0  0  0  0  0  0  0  0  0
    5.7229   -0.3477    0.0000 C   0  0  0  0  0  0  0  0  0
    6.2749   -0.9607    0.0000 C   0  0  0  0  0  0  0  0  0
    4.2548   -0.2707    0.0000 C   0  0  0  0  0  0  0  0  0
    3.5403   -0.6832    0.0000 C   0  0  0  0  0  0  0  0  0
    2.8258   -0.2707    0.0000 C   0  0  0  0  0  0  0  0  0
    2.8258    0.5543    0.0000 C   0  0  0  0  0  0  0  0  0
    2.0412    0.8092    0.0000 N   0  0  0  0  0  0  0  0  0
    1.5563    0.1418    0.0000 C   0  0  0  0  0  0  0  0  0
    2.0412   -0.5256    0.0000 C   0  0  0  0  0  0  0  0  0
    1.7862   -1.3103    0.0000 C   0  0  0  0  0  0  0  0  0
    2.3383   -1.9234    0.0000 C   0  0  0  0  0  0  0  0  0
    2.0833   -2.7080    0.0000 N   0  0  0  0  0  0  0  0  0
    2.6354   -3.3211    0.0000 C   0  0  0  0  0  0  0  0  0
    1.2764   -2.8795    0.0000 C   0  0  0  0  0  0  0  0  0
    3.5403    0.9668    0.0000 C   0  0  0  0  0  0  0  0  0
    4.2548    0.5543    0.0000 C   0  0  0  0  0  0  0  0  0
  1  2  1  0  0  0  0
  2  3  4  0  0  0  0
  2  6  4  0  0  0  0
  3  4  4  0  0  0  0
  4  5  4  0  0  0  0
  4  7  1  0  0  0  0
  5  6  4  0  0  0  0
  7  8  4  0  0  0  0
  7 20  4  0  0  0  0
  8  9  4  0  0  0  0
  9 10  4  0  0  0  0
  9 13  4  0  0  0  0
 10 11  4  0  0  0  0
 10 19  4  0  0  0  0
 11 12  4  0  0  0  0
 12 13  4  0  0  0  0
 13 14  1  0  0  0  0
 14 15  1  0  0  0  0
 15 16  1  0  0  0  0
 16 17  1  0  0  0  0
 16 18  1  0  0  0  0
 19 20  4  0  0  0  0
M  STY  1   1 DAT
M  SAL   1  1  11
M  SDT   1 MRV_IMPLICIT_H                                        
M  SDD   1     0.0000    0.0000    DR    ALL  0       0  
M  SED   1 IMPL_H1
M  END
>  <Name_Molregno>
286117

>  <5-HT1B>
6.52

>  <5-HT1D>
8.12

$$$$
287505
  Marvin  02231216192D 0   1.00000     0.00000     0

 23 26  0  0  1  0  0  0  0  0999 V2000
    0.6079   -0.3270    0.0000 S   0  0  0  0  0  0  0  0  0
    1.1600   -0.9401    0.0000 C   0  0  0  0  0  0  0  0  0
    0.7475   -1.6546    0.0000 C   0  0  0  0  0  0  0  0  0
   -0.0595   -1.4830    0.0000 C   0  0  0  0  0  0  0  0  0
   -0.1457   -0.6625    0.0000 C   0  0  0  0  0  0  0  0  0
   -0.8602   -0.2500    0.0000 C   0  0  0  0  0  0  0  0  0
   -1.5747   -0.6625    0.0000 C   0  0  0  0  0  0  0  0  0
   -2.2892   -0.2500    0.0000 C   0  0  0  0  0  0  0  0  0
   -2.2892    0.5750    0.0000 C   0  0  0  0  0  0  0  0  0
   -3.0738    0.8299    0.0000 N   0  0  0  0  0  0  0  0  0
   -3.5587    0.1625    0.0000 C   0  0  0  0  0  0  0  0  0
   -3.0738   -0.5050    0.0000 C   0  0  0  0  0  0  0  0  0
   -3.3287   -1.2896    0.0000 C   0  0  0  0  0  0  0  0  0
   -2.7767   -1.9027    0.0000 C   0  0  0  0  0  0  0  0  0
   -3.0316   -2.6873    0.0000 N   0  0  0  0  0  0  0  0  0
   -2.5467   -3.3548    0.0000 C   0  0  0  0  0  0  0  0  0
   -3.0316   -4.0222    0.0000 C   0  0  0  0  0  0  0  0  0
   -3.8162   -3.7673    0.0000 C   0  0  0  0  0  0  0  0  0
   -3.8162   -2.9423    0.0000 C   0  0  0  0  0  0  0  0  0
   -4.4837   -2.4573    0.0000 C   0  0  0  0  0  0  0  0  0
   -1.7217   -3.3548    0.0000 C   0  0  0  0  0  0  0  0  0
   -1.5747    0.9875    0.0000 C   0  0  0  0  0  0  0  0  0
   -0.8602    0.5750    0.0000 C   0  0  0  0  0  0  0  0  0
  1  2  4  0  0  0  0
  1  5  4  0  0  0  0
  2  3  4  0  0  0  0
  3  4  4  0  0  0  0
  4  5  4  0  0  0  0
  5  6  1  0  0  0  0
  6  7  4  0  0  0  0
  6 23  4  0  0  0  0
  7  8  4  0  0  0  0
  8  9  4  0  0  0  0
  8 12  4  0  0  0  0
  9 10  4  0  0  0  0
  9 22  4  0  0  0  0
 10 11  4  0  0  0  0
 11 12  4  0  0  0  0
 12 13  1  0  0  0  0
 13 14  1  0  0  0  0
 14 15  1  0  0  0  0
 15 16  1  0  0  0  0
 15 19  1  0  0  0  0
 16 17  1  0  0  0  0
 16 21  1  0  0  0  0
 17 18  1  0  0  0  0
 18 19  1  0  0  0  0
 19 20  1  0  0  0  0
 22 23  4  0  0  0  0
M  STY  1   1 DAT
M  SAL   1  1  10
M  SDT   1 MRV_IMPLICIT_H                                        
M  SDD   1     0.0000    0.0000    DR    ALL  0       0  
M  SED   1 IMPL_H1
M  END
>  <Name_Molregno>
287505

>  <5-HT1B>
7.15

>  <5-HT1D>
8.6

$$$$
287513
  Marvin  02231216192D 0   1.00000     0.00000     0

 21 24  0  0  0  0  0  0  0  0999 V2000
    0.7233   -0.5199    0.0000 S   0  0  0  0  0  0  0  0  0
    1.2753   -1.1330    0.0000 C   0  0  0  0  0  0  0  0  0
    0.8628   -1.8474    0.0000 C   0  0  0  0  0  0  0  0  0
    0.0558   -1.6759    0.0000 C   0  0  0  0  0  0  0  0  0
   -0.0304   -0.8554    0.0000 C   0  0  0  0  0  0  0  0  0
   -0.7449   -0.4429    0.0000 C   0  0  0  0  0  0  0  0  0
   -1.4594   -0.8554    0.0000 C   0  0  0  0  0  0  0  0  0
   -2.1738   -0.4429    0.0000 C   0  0  0  0  0  0  0  0  0
   -2.1738    0.3821    0.0000 C   0  0  0  0  0  0  0  0  0
   -2.9585    0.6370    0.0000 N   0  0  0  0  0  0  0  0  0
   -3.4434   -0.0304    0.0000 C   0  0  0  0  0  0  0  0  0
   -2.9585   -0.6979    0.0000 C   0  0  0  0  0  0  0  0  0
   -3.2134   -1.4825    0.0000 C   0  0  0  0  0  0  0  0  0
   -2.6614   -2.0956    0.0000 C   0  0  0  0  0  0  0  0  0
   -2.9163   -2.8802    0.0000 N   0  0  0  0  0  0  0  0  0
   -2.4314   -3.5477    0.0000 C   0  0  0  0  0  0  0  0  0
   -2.9163   -4.2151    0.0000 C   0  0  0  0  0  0  0  0  0
   -3.7009   -3.9602    0.0000 C   0  0  0  0  0  0  0  0  0
   -3.7009   -3.1352    0.0000 C   0  0  0  0  0  0  0  0  0
   -1.4594    0.7946    0.0000 C   0  0  0  0  0  0  0  0  0
   -0.7449    0.3821    0.0000 C   0  0  0  0  0  0  0  0  0
  1  2  4  0  0  0  0
  1  5  4  0  0  0  0
  2  3  4  0  0  0  0
  3  4  4  0  0  0  0
  4  5  4  0  0  0  0
  5  6  1  0  0  0  0
  6  7  4  0  0  0  0
  6 21  4  0  0  0  0
  7  8  4  0  0  0  0
  8  9  4  0  0  0  0
  8 12  4  0  0  0  0
  9 10  4  0  0  0  0
  9 20  4  0  0  0  0
 10 11  4  0  0  0  0
 11 12  4  0  0  0  0
 12 13  1  0  0  0  0
 13 14  1  0  0  0  0
 14 15  1  0  0  0  0
 15 16  1  0  0  0  0
 15 19  1  0  0  0  0
 16 17  1  0  0  0  0
 17 18  1  0  0  0  0
 18 19  1  0  0  0  0
 20 21  4  0  0  0  0
M  STY  1   1 DAT
M  SAL   1  1  10
M  SDT   1 MRV_IMPLICIT_H                                        
M  SDD   1     0.0000    0.0000    DR    ALL  0       0  
M  SED   1 IMPL_H1
M  END
>  <Name_Molregno>
287513

>  <5-HT1B>
6.15

>  <5-HT1D>
7.72

$$$$
287612
  Marvin  02231216192D 0   1.00000     0.00000     0

 20 22  0  0  0  0  0  0  0  0999 V2000
   -0.8600   -0.4120    0.0000 S   0  0  0  0  0  0  0  0  0
   -0.9462    0.4084    0.0000 C   0  0  0  0  0  0  0  0  0
   -0.1926    0.7440    0.0000 C   0  0  0  0  0  0  0  0  0
    0.3595    0.1309    0.0000 C   0  0  0  0  0  0  0  0  0
   -0.0530   -0.5836    0.0000 C   0  0  0  0  0  0  0  0  0
    0.2825   -1.3372    0.0000 C   0  0  0  0  0  0  0  0  0
   -1.6607    0.8209    0.0000 C   0  0  0  0  0  0  0  0  0
   -2.3752    0.4084    0.0000 C   0  0  0  0  0  0  0  0  0
   -3.0897    0.8209    0.0000 C   0  0  0  0  0  0  0  0  0
   -3.0897    1.6459    0.0000 C   0  0  0  0  0  0  0  0  0
   -3.8743    1.9009    0.0000 N   0  0  0  0  0  0  0  0  0
   -4.3592    1.2334    0.0000 C   0  0  0  0  0  0  0  0  0
   -3.8743    0.5660    0.0000 C   0  0  0  0  0  0  0  0  0
   -4.1292   -0.2186    0.0000 C   0  0  0  0  0  0  0  0  0
   -3.5772   -0.8317    0.0000 C   0  0  0  0  0  0  0  0  0
   -3.8321   -1.6163    0.0000 N   0  0  0  0  0  0  0  0  0
   -3.2801   -2.2294    0.0000 C   0  0  0  0  0  0  0  0  0
   -4.6391   -1.7879    0.0000 C   0  0  0  0  0  0  0  0  0
   -2.3752    2.0584    0.0000 C   0  0  0  0  0  0  0  0  0
   -1.6607    1.6459    0.0000 C   0  0  0  0  0  0  0  0  0
  1  2  4  0  0  0  0
  1  5  4  0  0  0  0
  2  3  4  0  0  0  0
  2  7  1  0  0  0  0
  3  4  4  0  0  0  0
  4  5  4  0  0  0  0
  5  6  1  0  0  0  0
  7  8  4  0  0  0  0
  7 20  4  0  0  0  0
  8  9  4  0  0  0  0
  9 10  4  0  0  0  0
  9 13  4  0  0  0  0
 10 11  4  0  0  0  0
 10 19  4  0  0  0  0
 11 12  4  0  0  0  0
 12 13  4  0  0  0  0
 13 14  1  0  0  0  0
 14 15  1  0  0  0  0
 15 16  1  0  0  0  0
 16 17  1  0  0  0  0
 16 18  1  0  0  0  0
 19 20  4  0  0  0  0
M  STY  1   1 DAT
M  SAL   1  1  11
M  SDT   1 MRV_IMPLICIT_H                                        
M  SDD   1     0.0000    0.0000    DR    ALL  0       0  
M  SED   1 IMPL_H1
M  END
>  <Name_Molregno>
287612

>  <5-HT1B>
6.88

>  <5-HT1D>
8.49

$$$$
287618
  Marvin  02231216192D 0   1.00000     0.00000     0

 22 25  0  0  0  0  0  0  0  0999 V2000
    6.1896   -3.2609    0.0000 Cl  0  0  0  0  0  0  0  0  0
    5.8541   -2.5072    0.0000 C   0  0  0  0  0  0  0  0  0
    5.0471   -2.3357    0.0000 S   0  0  0  0  0  0  0  0  0
    4.9609   -1.5152    0.0000 C   0  0  0  0  0  0  0  0  0
    5.7146   -1.1797    0.0000 C   0  0  0  0  0  0  0  0  0
    6.2666   -1.7928    0.0000 C   0  0  0  0  0  0  0  0  0
    4.2464   -1.1027    0.0000 C   0  0  0  0  0  0  0  0  0
    3.5319   -1.5152    0.0000 C   0  0  0  0  0  0  0  0  0
    2.8175   -1.1027    0.0000 C   0  0  0  0  0  0  0  0  0
    2.8175   -0.2777    0.0000 C   0  0  0  0  0  0  0  0  0
    2.0328   -0.0228    0.0000 N   0  0  0  0  0  0  0  0  0
    1.5479   -0.6902    0.0000 C   0  0  0  0  0  0  0  0  0
    2.0328   -1.3577    0.0000 C   0  0  0  0  0  0  0  0  0
    1.7779   -2.1423    0.0000 C   0  0  0  0  0  0  0  0  0
    2.3299   -2.7554    0.0000 C   0  0  0  0  0  0  0  0  0
    2.0750   -3.5400    0.0000 N   0  0  0  0  0  0  0  0  0
    2.5599   -4.2074    0.0000 C   0  0  0  0  0  0  0  0  0
    2.0750   -4.8749    0.0000 C   0  0  0  0  0  0  0  0  0
    1.2904   -4.6199    0.0000 C   0  0  0  0  0  0  0  0  0
    1.2904   -3.7949    0.0000 C   0  0  0  0  0  0  0  0  0
    3.5319    0.1348    0.0000 C   0  0  0  0  0  0  0  0  0
    4.2464   -0.2777    0.0000 C   0  0  0  0  0  0  0  0  0
  1  2  1  0  0  0  0
  2  3  4  0  0  0  0
  2  6  4  0  0  0  0
  3  4  4  0  0  0  0
  4  5  4  0  0  0  0
  4  7  1  0  0  0  0
  5  6  4  0  0  0  0
  7  8  4  0  0  0  0
  7 22  4  0  0  0  0
  8  9  4  0  0  0  0
  9 10  4  0  0  0  0
  9 13  4  0  0  0  0
 10 11  4  0  0  0  0
 10 21  4  0  0  0  0
 11 12  4  0  0  0  0
 12 13  4  0  0  0  0
 13 14  1  0  0  0  0
 14 15  1  0  0  0  0
 15 16  1  0  0  0  0
 16 17  1  0  0  0  0
 16 20  1  0  0  0  0
 17 18  1  0  0  0  0
 18 19  1  0  0  0  0
 19 20  1  0  0  0  0
 21 22  4  0  0  0  0
M  STY  1   1 DAT
M  SAL   1  1  11
M  SDT   1 MRV_IMPLICIT_H                                        
M  SDD   1     0.0000    0.0000    DR    ALL  0       0  
M  SED   1 IMPL_H1
M  END
>  <Name_Molregno>
287618

>  <5-HT1B>
6.32

>  <5-HT1D>
7.51

$$$$
287619
  Marvin  02231216192D 0   1.00000     0.00000     0

 21 24  0  0  0  0  0  0  0  0999 V2000
    0.7233   -0.5199    0.0000 S   0  0  0  0  0  0  0  0  0
    1.2753   -1.1330    0.0000 C   0  0  0  0  0  0  0  0  0
    0.8628   -1.8474    0.0000 C   0  0  0  0  0  0  0  0  0
    0.0558   -1.6759    0.0000 C   0  0  0  0  0  0  0  0  0
   -0.0304   -0.8554    0.0000 C   0  0  0  0  0  0  0  0  0
   -0.7449   -0.4429    0.0000 C   0  0  0  0  0  0  0  0  0
   -1.4594   -0.8554    0.0000 C   0  0  0  0  0  0  0  0  0
   -2.1738   -0.4429    0.0000 C   0  0  0  0  0  0  0  0  0
   -2.1738    0.3821    0.0000 C   0  0  0  0  0  0  0  0  0
   -2.9585    0.6370    0.0000 N   0  0  0  0  0  0  0  0  0
   -3.4434   -0.0304    0.0000 C   0  0  0  0  0  0  0  0  0
   -2.9585   -0.6979    0.0000 C   0  0  0  0  0  0  0  0  0
   -3.2134   -1.4825    0.0000 C   0  0  0  0  0  0  0  0  0
   -2.6614   -2.0956    0.0000 C   0  0  0  0  0  0  0  0  0
   -2.9163   -2.8802    0.0000 N   0  0  0  0  0  0  0  0  0
   -2.4314   -3.5477    0.0000 C   0  0  0  0  0  0  0  0  0
   -2.9163   -4.2151    0.0000 C   0  0  0  0  0  0  0  0  0
   -3.7009   -3.9602    0.0000 C   0  0  0  0  0  0  0  0  0
   -3.7009   -3.1352    0.0000 C   0  0  0  0  0  0  0  0  0
   -1.4594    0.7946    0.0000 C   0  0  0  0  0  0  0  0  0
   -0.7449    0.3821    0.0000 C   0  0  0  0  0  0  0  0  0
  1  2  4  0  0  0  0
  1  5  4  0  0  0  0
  2  3  4  0  0  0  0
  3  4  4  0  0  0  0
  4  5  4  0  0  0  0
  5  6  1  0  0  0  0
  6  7  4  0  0  0  0
  6 21  4  0  0  0  0
  7  8  4  0  0  0  0
  8  9  4  0  0  0  0
  8 12  4  0  0  0  0
  9 10  4  0  0  0  0
  9 20  4  0  0  0  0
 10 11  4  0  0  0  0
 11 12  4  0  0  0  0
 12 13  1  0  0  0  0
 13 14  1  0  0  0  0
 14 15  1  0  0  0  0
 15 16  1  0  0  0  0
 15 19  1  0  0  0  0
 16 17  1  0  0  0  0
 17 18  2  0  0  0  0
 18 19  1  0  0  0  0
 20 21  4  0  0  0  0
M  STY  1   1 DAT
M  SAL   1  1  10
M  SDT   1 MRV_IMPLICIT_H                                        
M  SDD   1     0.0000    0.0000    DR    ALL  0       0  
M  SED   1 IMPL_H1
M  END
>  <Name_Molregno>
287619

>  <5-HT1B>
6.97

>  <5-HT1D>
8.35

$$$$
287629
  Marvin  02231216192D 0   1.00000     0.00000     0

 24 27  0  0  1  0  0  0  0  0999 V2000
    0.9396   -0.5116    0.0000 S   0  0  0  0  0  0  0  0  0
    1.4916   -1.1247    0.0000 C   0  0  0  0  0  0  0  0  0
    1.0791   -1.8392    0.0000 C   0  0  0  0  0  0  0  0  0
    0.2722   -1.6677    0.0000 C   0  0  0  0  0  0  0  0  0
    0.1859   -0.8472    0.0000 C   0  0  0  0  0  0  0  0  0
   -0.5285   -0.4347    0.0000 C   0  0  0  0  0  0  0  0  0
   -1.2430   -0.8472    0.0000 C   0  0  0  0  0  0  0  0  0
   -1.9575   -0.4347    0.0000 C   0  0  0  0  0  0  0  0  0
   -1.9575    0.3903    0.0000 C   0  0  0  0  0  0  0  0  0
   -2.7421    0.6453    0.0000 N   0  0  0  0  0  0  0  0  0
   -3.2270   -0.0222    0.0000 C   0  0  0  0  0  0  0  0  0
   -2.7421   -0.6896    0.0000 C   0  0  0  0  0  0  0  0  0
   -2.9970   -1.4742    0.0000 C   0  0  0  0  0  0  0  0  0
   -3.8040   -1.6458    0.0000 C   0  0  0  0  0  0  0  0  0
   -4.0589   -2.4304    0.0000 N   0  0  0  0  0  0  0  0  0
   -3.5740   -3.0978    0.0000 C   0  0  0  0  0  0  0  0  0
   -4.0589   -3.7653    0.0000 C   0  0  0  0  0  0  0  0  0
   -4.8436   -3.5103    0.0000 C   0  0  0  0  0  0  0  0  0
   -4.8436   -2.6853    0.0000 C   0  0  0  0  0  0  0  0  0
   -5.5110   -2.2004    0.0000 C   0  0  0  0  0  0  0  0  0
   -5.4248   -1.3799    0.0000 O   0  0  0  0  0  0  0  0  0
   -6.0922   -0.8950    0.0000 C   0  0  0  0  0  0  0  0  0
   -1.2430    0.8028    0.0000 C   0  0  0  0  0  0  0  0  0
   -0.5285    0.3903    0.0000 C   0  0  0  0  0  0  0  0  0
  1  2  4  0  0  0  0
  1  5  4  0  0  0  0
  2  3  4  0  0  0  0
  3  4  4  0  0  0  0
  4  5  4  0  0  0  0
  5  6  1  0  0  0  0
  6  7  4  0  0  0  0
  6 24  4  0  0  0  0
  7  8  4  0  0  0  0
  8  9  4  0  0  0  0
  8 12  4  0  0  0  0
  9 10  4  0  0  0  0
  9 23  4  0  0  0  0
 10 11  4  0  0  0  0
 11 12  4  0  0  0  0
 12 13  1  0  0  0  0
 13 14  1  0  0  0  0
 14 15  1  0  0  0  0
 15 16  1  0  0  0  0
 15 19  1  0  0  0  0
 16 17  1  0  0  0  0
 17 18  1  0  0  0  0
 18 19  1  0  0  0  0
 19 20  1  0  0  0  0
 20 21  1  0  0  0  0
 21 22  1  0  0  0  0
 23 24  4  0  0  0  0
M  STY  1   1 DAT
M  SAL   1  1  10
M  SDT   1 MRV_IMPLICIT_H                                        
M  SDD   1     0.0000    0.0000    DR    ALL  0       0  
M  SED   1 IMPL_H1
M  END
>  <Name_Molregno>
287629

>  <5-HT1B>
8

>  <5-HT1D>
8.74

$$$$
287630
  Marvin  02231216192D 0   1.00000     0.00000     0

 23 26  0  0  1  0  0  0  0  0999 V2000
    1.0090   -0.4221    0.0000 S   0  0  0  0  0  0  0  0  0
    1.5610   -1.0352    0.0000 C   0  0  0  0  0  0  0  0  0
    1.1485   -1.7497    0.0000 C   0  0  0  0  0  0  0  0  0
    0.3416   -1.5782    0.0000 C   0  0  0  0  0  0  0  0  0
    0.2553   -0.7577    0.0000 C   0  0  0  0  0  0  0  0  0
   -0.4592   -0.3452    0.0000 C   0  0  0  0  0  0  0  0  0
   -1.1736   -0.7577    0.0000 C   0  0  0  0  0  0  0  0  0
   -1.8881   -0.3452    0.0000 C   0  0  0  0  0  0  0  0  0
   -1.8881    0.4798    0.0000 C   0  0  0  0  0  0  0  0  0
   -2.6727    0.7347    0.0000 N   0  0  0  0  0  0  0  0  0
   -3.1576    0.0673    0.0000 C   0  0  0  0  0  0  0  0  0
   -2.6727   -0.6001    0.0000 C   0  0  0  0  0  0  0  0  0
   -2.9277   -1.3848    0.0000 C   0  0  0  0  0  0  0  0  0
   -3.7346   -1.5563    0.0000 C   0  0  0  0  0  0  0  0  0
   -3.9896   -2.3409    0.0000 N   0  0  0  0  0  0  0  0  0
   -3.5046   -3.0083    0.0000 C   0  0  0  0  0  0  0  0  0
   -3.9896   -3.6758    0.0000 C   0  0  0  0  0  0  0  0  0
   -4.7742   -3.4208    0.0000 C   0  0  0  0  0  0  0  0  0
   -4.7742   -2.5958    0.0000 C   0  0  0  0  0  0  0  0  0
   -5.4416   -2.1109    0.0000 C   0  0  0  0  0  0  0  0  0
   -6.1953   -2.4465    0.0000 O   0  0  0  0  0  0  0  0  0
   -1.1736    0.8923    0.0000 C   0  0  0  0  0  0  0  0  0
   -0.4592    0.4798    0.0000 C   0  0  0  0  0  0  0  0  0
  1  2  4  0  0  0  0
  1  5  4  0  0  0  0
  2  3  4  0  0  0  0
  3  4  4  0  0  0  0
  4  5  4  0  0  0  0
  5  6  1  0  0  0  0
  6  7  4  0  0  0  0
  6 23  4  0  0  0  0
  7  8  4  0  0  0  0
  8  9  4  0  0  0  0
  8 12  4  0  0  0  0
  9 10  4  0  0  0  0
  9 22  4  0  0  0  0
 10 11  4  0  0  0  0
 11 12  4  0  0  0  0
 12 13  1  0  0  0  0
 13 14  1  0  0  0  0
 14 15  1  0  0  0  0
 15 16  1  0  0  0  0
 15 19  1  0  0  0  0
 16 17  1  0  0  0  0
 17 18  1  0  0  0  0
 18 19  1  0  0  0  0
 19 20  1  0  0  0  0
 20 21  1  0  0  0  0
 22 23  4  0  0  0  0
M  STY  1   1 DAT
M  SAL   1  1  10
M  SDT   1 MRV_IMPLICIT_H                                        
M  SDD   1     0.0000    0.0000    DR    ALL  0       0  
M  SED   1 IMPL_H1
M  END
>  <Name_Molregno>
287630

>  <5-HT1B>
6.95

>  <5-HT1D>
8.09

$$$$
303772
  Marvin  02231216192D 0   1.00000     0.00000     0

 32 36  0  0  0  0  0  0  0  0999 V2000
   -6.5979   -4.9561    0.0000 O   0  0  0  0  0  0  0  0  0
   -7.3124   -5.3686    0.0000 C   0  0  0  0  0  0  0  0  0
   -8.0268   -4.9561    0.0000 C   0  0  0  0  0  0  0  0  0
   -8.7413   -5.3686    0.0000 O   0  0  0  0  0  0  0  0  0
   -8.0268   -4.1311    0.0000 N   0  0  0  0  0  0  0  0  0
   -7.3124   -3.7186    0.0000 C   0  0  0  0  0  0  0  0  0
   -7.3124   -2.8936    0.0000 C   0  0  0  0  0  0  0  0  0
   -6.5979   -2.4811    0.0000 C   0  0  0  0  0  0  0  0  0
   -5.8834   -2.8936    0.0000 C   0  0  0  0  0  0  0  0  0
   -5.8834   -3.7186    0.0000 C   0  0  0  0  0  0  0  0  0
   -6.5979   -4.1311    0.0000 C   0  0  0  0  0  0  0  0  0
   -6.5979   -1.6561    0.0000 C   0  0  0  0  0  0  0  0  0
   -5.8834   -1.2436    0.0000 C   0  0  0  0  0  0  0  0  0
   -5.8834   -0.4186    0.0000 C   0  0  0  0  0  0  0  0  0
   -5.1690   -0.0061    0.0000 C   0  0  0  0  0  0  0  0  0
   -4.4545   -0.4186    0.0000 N   0  0  0  0  0  0  0  0  0
   -4.4545   -1.2436    0.0000 C   0  0  0  0  0  0  0  0  0
   -5.1690   -1.6561    0.0000 C   0  0  0  0  0  0  0  0  0
   -3.7400   -0.0061    0.0000 C   0  0  0  0  0  0  0  0  0
   -3.7400    0.8189    0.0000 C   0  0  0  0  0  0  0  0  0
   -3.0255    1.2314    0.0000 O   0  0  0  0  0  0  0  0  0
   -3.0255    2.0564    0.0000 C   0  0  0  0  0  0  0  0  0
   -2.3111    2.4689    0.0000 C   0  0  0  0  0  0  0  0  0
   -2.3111    3.2939    0.0000 C   0  0  0  0  0  0  0  0  0
   -1.5966    3.7064    0.0000 N   0  0  0  0  0  0  0  0  0
   -0.8821    3.2939    0.0000 C   0  0  0  0  0  0  0  0  0
   -0.8821    2.4689    0.0000 C   0  0  0  0  0  0  0  0  0
   -1.5966    2.0564    0.0000 C   0  0  0  0  0  0  0  0  0
   -0.1677    3.7064    0.0000 C   0  0  0  0  0  0  0  0  0
   -3.0255    3.7064    0.0000 C   0  0  0  0  0  0  0  0  0
   -3.7400    3.2939    0.0000 C   0  0  0  0  0  0  0  0  0
   -3.7400    2.4689    0.0000 C   0  0  0  0  0  0  0  0  0
  1  2  1  0  0  0  0
  1 11  1  0  0  0  0
  2  3  1  0  0  0  0
  3  4  2  0  0  0  0
  3  5  1  0  0  0  0
  5  6  1  0  0  0  0
  6  7  4  0  0  0  0
  6 11  4  0  0  0  0
  7  8  4  0  0  0  0
  8  9  4  0  0  0  0
  8 12  1  0  0  0  0
  9 10  4  0  0  0  0
 10 11  4  0  0  0  0
 12 13  1  0  0  0  0
 13 14  1  0  0  0  0
 13 18  1  0  0  0  0
 14 15  1  0  0  0  0
 15 16  1  0  0  0  0
 16 17  1  0  0  0  0
 16 19  1  0  0  0  0
 17 18  1  0  0  0  0
 19 20  1  0  0  0  0
 20 21  1  0  0  0  0
 21 22  1  0  0  0  0
 22 23  4  0  0  0  0
 22 32  4  0  0  0  0
 23 24  4  0  0  0  0
 23 28  4  0  0  0  0
 24 25  4  0  0  0  0
 24 30  4  0  0  0  0
 25 26  4  0  0  0  0
 26 27  4  0  0  0  0
 26 29  1  0  0  0  0
 27 28  4  0  0  0  0
 30 31  4  0  0  0  0
 31 32  4  0  0  0  0
M  END
>  <Name_Molregno>
303772

>  <5-HT1A>
8.92

>  <5-HT1B>
8

>  <5-HT1D>
8.8

>  <5-HT2A>
5.5

>  <5-HT2C>
5.1

>  <5-HT6>
5

>  <5-HT7>
6.7

>  <Beta-2>
6

>  <DOPAMINE D2>
5.9

>  <DOPAMINE D3>
6.2

>  <Serotonin transporter>
7.1

$$$$
308701
  Marvin  02231216192D 0   1.00000     0.00000     0

 15 16  0  0  0  0  0  0  0  0999 V2000
    0.3789    2.5368    0.0000 Br  0  0  0  0  0  0  0  0  0
    1.0933    2.1243    0.0000 C   0  0  0  0  0  0  0  0  0
    1.8078    2.5368    0.0000 C   0  0  0  0  0  0  0  0  0
    2.5223    2.1243    0.0000 C   0  0  0  0  0  0  0  0  0
    3.2368    2.5368    0.0000 C   0  0  0  0  0  0  0  0  0
    2.5223    1.2993    0.0000 C   0  0  0  0  0  0  0  0  0
    3.2368    0.8868    0.0000 N   0  0  0  0  0  0  0  0  0
    3.2368    0.0618    0.0000 C   0  0  0  0  0  0  0  0  0
    3.9042   -0.4231    0.0000 N   0  0  0  0  0  0  0  0  0
    3.6493   -1.2078    0.0000 C   0  0  0  0  0  0  0  0  0
    2.8243   -1.2078    0.0000 C   0  0  0  0  0  0  0  0  0
    2.5693   -0.4231    0.0000 N   0  0  0  0  0  0  0  0  0
    1.8078    0.8868    0.0000 C   0  0  0  0  0  0  0  0  0
    1.0933    1.2993    0.0000 C   0  0  0  0  0  0  0  0  0
    1.8078    0.0618    0.0000 C   0  0  0  0  0  0  0  0  0
  1  2  1  0  0  0  0
  2  3  4  0  0  0  0
  2 14  4  0  0  0  0
  3  4  4  0  0  0  0
  4  5  1  0  0  0  0
  4  6  4  0  0  0  0
  6  7  1  0  0  0  0
  6 13  4  0  0  0  0
  7  8  1  0  0  0  0
  8  9  1  0  0  0  0
  8 12  2  0  0  0  0
  9 10  1  0  0  0  0
 10 11  1  0  0  0  0
 11 12  1  0  0  0  0
 13 14  4  0  0  0  0
 13 15  1  0  0  0  0
M  END
>  <Name_Molregno>
308701

>  <5-HT1B>
5.84

>  <5-HT1D>
7.27

$$$$
308702
  Marvin  02231216192D 0   1.00000     0.00000     0

 17 18  0  0  0  0  0  0  0  0999 V2000
    0.1226    0.7280    0.0000 O   0  5  0  0  0  0  0  0  0
    0.8371    1.1405    0.0000 N   0  3  0  0  0  0  0  0  0
    0.8371    1.9655    0.0000 O   0  5  0  0  0  0  0  0  0
    1.5515    0.7280    0.0000 C   0  0  0  0  0  0  0  0  0
    2.2660    1.1405    0.0000 C   0  0  0  0  0  0  0  0  0
    2.9805    0.7280    0.0000 C   0  0  0  0  0  0  0  0  0
    3.6950    1.1405    0.0000 C   0  0  0  0  0  0  0  0  0
    2.9805   -0.0970    0.0000 C   0  0  0  0  0  0  0  0  0
    3.6950   -0.5095    0.0000 N   0  0  0  0  0  0  0  0  0
    3.6950   -1.3345    0.0000 C   0  0  0  0  0  0  0  0  0
    4.3624   -1.8194    0.0000 N   0  0  0  0  0  0  0  0  0
    4.1075   -2.6041    0.0000 C   0  0  0  0  0  0  0  0  0
    3.2825   -2.6041    0.0000 C   0  0  0  0  0  0  0  0  0
    3.0275   -1.8194    0.0000 N   0  0  0  0  0  0  0  0  0
    2.2660   -0.5095    0.0000 C   0  0  0  0  0  0  0  0  0
    1.5515   -0.0970    0.0000 C   0  0  0  0  0  0  0  0  0
    2.2660   -1.3345    0.0000 C   0  0  0  0  0  0  0  0  0
  1  2  1  0  0  0  0
  2  3  1  0  0  0  0
  2  4  1  0  0  0  0
  4  5  4  0  0  0  0
  4 16  4  0  0  0  0
  5  6  4  0  0  0  0
  6  7  1  0  0  0  0
  6  8  4  0  0  0  0
  8  9  1  0  0  0  0
  8 15  4  0  0  0  0
  9 10  1  0  0  0  0
 10 11  1  0  0  0  0
 10 14  2  0  0  0  0
 11 12  1  0  0  0  0
 12 13  1  0  0  0  0
 13 14  1  0  0  0  0
 15 16  4  0  0  0  0
 15 17  1  0  0  0  0
M  CHG  3   1  -1   2   1   3  -1
M  END
>  <Name_Molregno>
308702

>  <5-HT1B>
4.99

>  <5-HT1D>
6.48

$$$$
308743
  Marvin  02231216192D 0   1.00000     0.00000     0

 12 13  0  0  0  0  0  0  0  0999 V2000
    1.5604   -1.6758    0.0000 N   0  0  0  0  0  0  0  0  0
    1.3055   -2.4604    0.0000 C   0  0  0  0  0  0  0  0  0
    0.4805   -2.4604    0.0000 C   0  0  0  0  0  0  0  0  0
    0.2255   -1.6758    0.0000 N   0  0  0  0  0  0  0  0  0
    0.8930   -1.1908    0.0000 C   0  0  0  0  0  0  0  0  0
    0.8930   -0.3658    0.0000 N   0  0  0  0  0  0  0  0  0
    1.6075    0.0467    0.0000 C   0  0  0  0  0  0  0  0  0
    1.6075    0.8717    0.0000 C   0  0  0  0  0  0  0  0  0
    2.3219    1.2842    0.0000 C   0  0  0  0  0  0  0  0  0
    3.0364    0.8717    0.0000 C   0  0  0  0  0  0  0  0  0
    3.0364    0.0467    0.0000 C   0  0  0  0  0  0  0  0  0
    2.3219   -0.3658    0.0000 C   0  0  0  0  0  0  0  0  0
  1  2  1  0  0  0  0
  1  5  1  0  0  0  0
  2  3  1  0  0  0  0
  3  4  1  0  0  0  0
  4  5  2  0  0  0  0
  5  6  1  0  0  0  0
  6  7  1  0  0  0  0
  7  8  4  0  0  0  0
  7 12  4  0  0  0  0
  8  9  4  0  0  0  0
  9 10  4  0  0  0  0
 10 11  4  0  0  0  0
 11 12  4  0  0  0  0
M  END
>  <Name_Molregno>
308743

>  <5-HT1B>
4.52

>  <5-HT1D>
4.52

$$$$
308744
  Marvin  02231216192D 0   1.00000     0.00000     0

 14 15  0  0  0  0  0  0  0  0999 V2000
    1.0624   -2.5539    0.0000 N   0  0  0  0  0  0  0  0  0
    0.8075   -3.3385    0.0000 C   0  0  0  0  0  0  0  0  0
   -0.0175   -3.3385    0.0000 C   0  0  0  0  0  0  0  0  0
   -0.2725   -2.5539    0.0000 N   0  0  0  0  0  0  0  0  0
    0.3950   -2.0690    0.0000 C   0  0  0  0  0  0  0  0  0
    0.3950   -1.2440    0.0000 N   0  0  0  0  0  0  0  0  0
    1.1094   -0.8315    0.0000 C   0  0  0  0  0  0  0  0  0
    1.1094   -0.0065    0.0000 C   0  0  0  0  0  0  0  0  0
    1.8239    0.4060    0.0000 C   0  0  0  0  0  0  0  0  0
    2.5384   -0.0065    0.0000 C   0  0  0  0  0  0  0  0  0
    2.5384   -0.8315    0.0000 C   0  0  0  0  0  0  0  0  0
    1.8239   -1.2440    0.0000 C   0  0  0  0  0  0  0  0  0
    1.8239   -2.0690    0.0000 C   0  0  0  0  0  0  0  0  0
    0.3950    0.4060    0.0000 C   0  0  0  0  0  0  0  0  0
  1  2  1  0  0  0  0
  1  5  1  0  0  0  0
  2  3  1  0  0  0  0
  3  4  1  0  0  0  0
  4  5  2  0  0  0  0
  5  6  1  0  0  0  0
  6  7  1  0  0  0  0
  7  8  4  0  0  0  0
  7 12  4  0  0  0  0
  8  9  4  0  0  0  0
  8 14  1  0  0  0  0
  9 10  4  0  0  0  0
 10 11  4  0  0  0  0
 11 12  4  0  0  0  0
 12 13  1  0  0  0  0
M  END
>  <Name_Molregno>
308744

>  <5-HT1B>
4.52

>  <5-HT1D>
5.68

$$$$
308747
  Marvin  02231216192D 0   1.00000     0.00000     0

 18 19  0  0  0  0  0  0  0  0999 V2000
    1.8709   -1.9497    0.0000 N   0  0  0  0  0  0  0  0  0
    1.6160   -2.7344    0.0000 C   0  0  0  0  0  0  0  0  0
    0.7910   -2.7344    0.0000 C   0  0  0  0  0  0  0  0  0
    0.5360   -1.9497    0.0000 N   0  0  0  0  0  0  0  0  0
    1.2035   -1.4648    0.0000 C   0  0  0  0  0  0  0  0  0
    1.2035   -0.6398    0.0000 N   0  0  0  0  0  0  0  0  0
    1.9179   -0.2273    0.0000 C   0  0  0  0  0  0  0  0  0
    1.9179    0.5977    0.0000 C   0  0  0  0  0  0  0  0  0
    2.6324    1.0102    0.0000 C   0  0  0  0  0  0  0  0  0
    3.3469    0.5977    0.0000 C   0  0  0  0  0  0  0  0  0
    3.3469   -0.2273    0.0000 C   0  0  0  0  0  0  0  0  0
    2.6324   -0.6398    0.0000 C   0  0  0  0  0  0  0  0  0
    2.6324   -1.4648    0.0000 C   0  0  0  0  0  0  0  0  0
    4.0613    1.0102    0.0000 C   0  0  0  0  0  0  0  0  0
    4.7758    1.4227    0.0000 C   0  0  0  0  0  0  0  0  0
    4.4738    0.2957    0.0000 C   0  0  0  0  0  0  0  0  0
    3.6488    1.7246    0.0000 C   0  0  0  0  0  0  0  0  0
    1.2035    1.0102    0.0000 C   0  0  0  0  0  0  0  0  0
  1  2  1  0  0  0  0
  1  5  1  0  0  0  0
  2  3  1  0  0  0  0
  3  4  1  0  0  0  0
  4  5  2  0  0  0  0
  5  6  1  0  0  0  0
  6  7  1  0  0  0  0
  7  8  4  0  0  0  0
  7 12  4  0  0  0  0
  8  9  4  0  0  0  0
  8 18  1  0  0  0  0
  9 10  4  0  0  0  0
 10 11  4  0  0  0  0
 10 14  1  0  0  0  0
 11 12  4  0  0  0  0
 12 13  1  0  0  0  0
 14 15  1  0  0  0  0
 14 16  1  0  0  0  0
 14 17  1  0  0  0  0
M  END
>  <Name_Molregno>
308747

>  <5-HT1B>
7.92

>  <5-HT1D>
9.52

$$$$
308762
  Marvin  02231216192D 0   1.00000     0.00000     0

 25 27  0  0  0  0  0  0  0  0999 V2000
   -0.1125   -1.8149    0.0000 N   0  0  0  0  0  0  0  0  0
   -0.3675   -2.5995    0.0000 C   0  0  0  0  0  0  0  0  0
   -1.1925   -2.5995    0.0000 C   0  0  0  0  0  0  0  0  0
   -1.4474   -1.8149    0.0000 N   0  0  0  0  0  0  0  0  0
   -2.2320   -1.5599    0.0000 C   0  0  0  0  0  0  0  0  0
   -2.8451   -2.1120    0.0000 C   0  0  0  0  0  0  0  0  0
   -2.6736   -2.9189    0.0000 C   0  0  0  0  0  0  0  0  0
   -3.2867   -3.4710    0.0000 C   0  0  0  0  0  0  0  0  0
   -4.0713   -3.2160    0.0000 C   0  0  0  0  0  0  0  0  0
   -4.2428   -2.4091    0.0000 C   0  0  0  0  0  0  0  0  0
   -3.6297   -1.8570    0.0000 C   0  0  0  0  0  0  0  0  0
   -0.7800   -1.3300    0.0000 C   0  0  0  0  0  0  0  0  0
   -0.7800   -0.5050    0.0000 C   0  0  0  0  0  0  0  0  0
   -0.0655   -0.0925    0.0000 C   0  0  0  0  0  0  0  0  0
   -0.0655    0.7325    0.0000 C   0  0  0  0  0  0  0  0  0
    0.6490    1.1450    0.0000 C   0  0  0  0  0  0  0  0  0
    1.3635    0.7325    0.0000 C   0  0  0  0  0  0  0  0  0
    1.3635   -0.0925    0.0000 C   0  0  0  0  0  0  0  0  0
    0.6490   -0.5050    0.0000 C   0  0  0  0  0  0  0  0  0
    0.6490   -1.3300    0.0000 C   0  0  0  0  0  0  0  0  0
    2.0779    1.1450    0.0000 C   0  0  0  0  0  0  0  0  0
    2.7924    1.5575    0.0000 C   0  0  0  0  0  0  0  0  0
    2.4904    0.4306    0.0000 C   0  0  0  0  0  0  0  0  0
    1.6654    1.8595    0.0000 C   0  0  0  0  0  0  0  0  0
   -0.7800    1.1450    0.0000 C   0  0  0  0  0  0  0  0  0
  1  2  1  0  0  0  0
  1 12  2  0  0  0  0
  2  3  1  0  0  0  0
  3  4  1  0  0  0  0
  4  5  1  0  0  0  0
  4 12  1  0  0  0  0
  5  6  1  0  0  0  0
  6  7  4  0  0  0  0
  6 11  4  0  0  0  0
  7  8  4  0  0  0  0
  8  9  4  0  0  0  0
  9 10  4  0  0  0  0
 10 11  4  0  0  0  0
 12 13  1  0  0  0  0
 13 14  1  0  0  0  0
 14 15  4  0  0  0  0
 14 19  4  0  0  0  0
 15 16  4  0  0  0  0
 15 25  1  0  0  0  0
 16 17  4  0  0  0  0
 17 18  4  0  0  0  0
 17 21  1  0  0  0  0
 18 19  4  0  0  0  0
 19 20  1  0  0  0  0
 21 22  1  0  0  0  0
 21 23  1  0  0  0  0
 21 24  1  0  0  0  0
M  END
>  <Name_Molregno>
308762

>  <5-HT1B>
5.73

>  <5-HT1D>
7.52

$$$$
308769
  Marvin  02231216192D 0   1.00000     0.00000     0

 19 20  0  0  0  0  0  0  0  0999 V2000
    0.9778   -1.1179    0.0000 N   0  0  0  0  0  0  0  0  0
    0.9778   -1.9429    0.0000 C   0  0  0  0  0  0  0  0  0
    0.2633   -2.3554    0.0000 C   0  0  0  0  0  0  0  0  0
   -0.4511   -1.9429    0.0000 C   0  0  0  0  0  0  0  0  0
   -0.4511   -1.1179    0.0000 N   0  0  0  0  0  0  0  0  0
    0.2633   -0.7054    0.0000 C   0  0  0  0  0  0  0  0  0
    0.2633    0.1196    0.0000 C   0  0  0  0  0  0  0  0  0
    0.9778    0.5321    0.0000 C   0  0  0  0  0  0  0  0  0
    0.9778    1.3571    0.0000 C   0  0  0  0  0  0  0  0  0
    1.6923    1.7696    0.0000 C   0  0  0  0  0  0  0  0  0
    2.4068    1.3571    0.0000 C   0  0  0  0  0  0  0  0  0
    2.4068    0.5321    0.0000 C   0  0  0  0  0  0  0  0  0
    1.6923    0.1196    0.0000 C   0  0  0  0  0  0  0  0  0
    1.6923   -0.7054    0.0000 C   0  0  0  0  0  0  0  0  0
    3.1212    1.7696    0.0000 C   0  0  0  0  0  0  0  0  0
    3.8357    2.1821    0.0000 C   0  0  0  0  0  0  0  0  0
    3.5337    1.0552    0.0000 C   0  0  0  0  0  0  0  0  0
    2.7087    2.4841    0.0000 C   0  0  0  0  0  0  0  0  0
    0.2633    1.7696    0.0000 C   0  0  0  0  0  0  0  0  0
  1  2  1  0  0  0  0
  1  6  1  0  0  0  0
  2  3  1  0  0  0  0
  3  4  1  0  0  0  0
  4  5  1  0  0  0  0
  5  6  2  0  0  0  0
  6  7  1  0  0  0  0
  7  8  1  0  0  0  0
  8  9  4  0  0  0  0
  8 13  4  0  0  0  0
  9 10  4  0  0  0  0
  9 19  1  0  0  0  0
 10 11  4  0  0  0  0
 11 12  4  0  0  0  0
 11 15  1  0  0  0  0
 12 13  4  0  0  0  0
 13 14  1  0  0  0  0
 15 16  1  0  0  0  0
 15 17  1  0  0  0  0
 15 18  1  0  0  0  0
M  END
>  <Name_Molregno>
308769

>  <5-HT1B>
5.35

>  <5-HT1D>
7.48

$$$$
308800
  Marvin  02231216192D 0   1.00000     0.00000     0

 15 16  0  0  0  0  0  0  0  0999 V2000
    0.3789    2.5368    0.0000 I   0  0  0  0  0  0  0  0  0
    1.0933    2.1243    0.0000 C   0  0  0  0  0  0  0  0  0
    1.8078    2.5368    0.0000 C   0  0  0  0  0  0  0  0  0
    2.5223    2.1243    0.0000 C   0  0  0  0  0  0  0  0  0
    3.2368    2.5368    0.0000 Cl  0  0  0  0  0  0  0  0  0
    2.5223    1.2993    0.0000 C   0  0  0  0  0  0  0  0  0
    3.2368    0.8868    0.0000 N   0  0  0  0  0  0  0  0  0
    3.2368    0.0618    0.0000 C   0  0  0  0  0  0  0  0  0
    3.9042   -0.4231    0.0000 N   0  0  0  0  0  0  0  0  0
    3.6493   -1.2078    0.0000 C   0  0  0  0  0  0  0  0  0
    2.8243   -1.2078    0.0000 C   0  0  0  0  0  0  0  0  0
    2.5693   -0.4231    0.0000 N   0  0  0  0  0  0  0  0  0
    1.8078    0.8868    0.0000 C   0  0  0  0  0  0  0  0  0
    1.8078    0.0618    0.0000 Cl  0  0  0  0  0  0  0  0  0
    1.0933    1.2993    0.0000 C   0  0  0  0  0  0  0  0  0
  1  2  1  0  0  0  0
  2  3  4  0  0  0  0
  2 15  4  0  0  0  0
  3  4  4  0  0  0  0
  4  5  1  0  0  0  0
  4  6  4  0  0  0  0
  6  7  1  0  0  0  0
  6 13  4  0  0  0  0
  7  8  1  0  0  0  0
  8  9  1  0  0  0  0
  8 12  2  0  0  0  0
  9 10  1  0  0  0  0
 10 11  1  0  0  0  0
 11 12  1  0  0  0  0
 13 14  1  0  0  0  0
 13 15  4  0  0  0  0
M  END
>  <Name_Molregno>
308800

>  <5-HT1B>
5.7

>  <5-HT1D>
7.3

$$$$
311132
  Marvin  02231216192D 0   1.00000     0.00000     0

 26 29  0  0  0  0  0  0  0  0999 V2000
    7.8472   -4.0396    0.0000 F   0  0  0  0  0  0  0  0  0
    7.1328   -3.6271    0.0000 C   0  0  0  0  0  0  0  0  0
    6.4183   -4.0396    0.0000 C   0  0  0  0  0  0  0  0  0
    5.7038   -3.6271    0.0000 C   0  0  0  0  0  0  0  0  0
    5.7038   -2.8021    0.0000 C   0  0  0  0  0  0  0  0  0
    6.4183   -2.3896    0.0000 C   0  0  0  0  0  0  0  0  0
    7.1328   -2.8021    0.0000 C   0  0  0  0  0  0  0  0  0
    4.9894   -2.3896    0.0000 C   0  0  0  0  0  0  0  0  0
    4.9894   -1.5646    0.0000 O   0  0  0  0  0  0  0  0  0
    4.2749   -2.8021    0.0000 N   0  0  0  0  0  0  0  0  0
    3.5604   -2.3896    0.0000 C   0  0  0  0  0  0  0  0  0
    2.8459   -2.8021    0.0000 C   0  0  0  0  0  0  0  0  0
    2.1315   -2.3896    0.0000 C   0  0  0  0  0  0  0  0  0
    1.3468   -2.6445    0.0000 N   0  0  0  0  0  0  0  0  0
    0.8619   -1.9771    0.0000 N   0  0  0  0  0  0  0  0  0
    1.3468   -1.3097    0.0000 C   0  0  0  0  0  0  0  0  0
    2.1315   -1.5646    0.0000 C   0  0  0  0  0  0  0  0  0
    2.8459   -1.1521    0.0000 C   0  0  0  0  0  0  0  0  0
    3.5604   -1.5646    0.0000 C   0  0  0  0  0  0  0  0  0
    1.0919   -3.4292    0.0000 C   0  0  0  0  0  0  0  0  0
    1.6439   -4.0423    0.0000 C   0  0  0  0  0  0  0  0  0
    1.3890   -4.8269    0.0000 C   0  0  0  0  0  0  0  0  0
    0.5820   -4.9984    0.0000 N   0  0  0  0  0  0  0  0  0
    0.0300   -4.3853    0.0000 C   0  0  0  0  0  0  0  0  0
    0.2849   -3.6007    0.0000 C   0  0  0  0  0  0  0  0  0
    0.3271   -5.7830    0.0000 C   0  0  0  0  0  0  0  0  0
  1  2  1  0  0  0  0
  2  3  4  0  0  0  0
  2  7  4  0  0  0  0
  3  4  4  0  0  0  0
  4  5  4  0  0  0  0
  5  6  4  0  0  0  0
  5  8  1  0  0  0  0
  6  7  4  0  0  0  0
  8  9  2  0  0  0  0
  8 10  1  0  0  0  0
 10 11  1  0  0  0  0
 11 12  4  0  0  0  0
 11 19  4  0  0  0  0
 12 13  4  0  0  0  0
 13 14  4  0  0  0  0
 13 17  4  0  0  0  0
 14 15  4  0  0  0  0
 14 20  1  0  0  0  0
 15 16  4  0  0  0  0
 16 17  4  0  0  0  0
 17 18  4  0  0  0  0
 18 19  4  0  0  0  0
 20 21  1  0  0  0  0
 20 25  1  0  0  0  0
 21 22  1  0  0  0  0
 22 23  1  0  0  0  0
 23 24  1  0  0  0  0
 23 26  1  0  0  0  0
 24 25  1  0  0  0  0
M  END
>  <Name_Molregno>
311132

>  <5-HT1A>
6.51

>  <5-HT1B>
5.62

$$$$
311175
  Marvin  02231216192D 0   1.00000     0.00000     0

 26 29  0  0  0  0  0  0  0  0999 V2000
    7.8472   -4.0396    0.0000 F   0  0  0  0  0  0  0  0  0
    7.1328   -3.6271    0.0000 C   0  0  0  0  0  0  0  0  0
    6.4183   -4.0396    0.0000 C   0  0  0  0  0  0  0  0  0
    5.7038   -3.6271    0.0000 C   0  0  0  0  0  0  0  0  0
    5.7038   -2.8021    0.0000 C   0  0  0  0  0  0  0  0  0
    6.4183   -2.3896    0.0000 C   0  0  0  0  0  0  0  0  0
    7.1328   -2.8021    0.0000 C   0  0  0  0  0  0  0  0  0
    4.9894   -2.3896    0.0000 C   0  0  0  0  0  0  0  0  0
    4.9894   -1.5646    0.0000 O   0  0  0  0  0  0  0  0  0
    4.2749   -2.8021    0.0000 N   0  0  0  0  0  0  0  0  0
    3.5604   -2.3896    0.0000 C   0  0  0  0  0  0  0  0  0
    2.8459   -2.8021    0.0000 C   0  0  0  0  0  0  0  0  0
    2.1315   -2.3896    0.0000 C   0  0  0  0  0  0  0  0  0
    1.3468   -2.6445    0.0000 N   0  0  0  0  0  0  0  0  0
    0.8619   -1.9771    0.0000 C   0  0  0  0  0  0  0  0  0
    1.3468   -1.3097    0.0000 C   0  0  0  0  0  0  0  0  0
    2.1315   -1.5646    0.0000 C   0  0  0  0  0  0  0  0  0
    2.8459   -1.1521    0.0000 C   0  0  0  0  0  0  0  0  0
    3.5604   -1.5646    0.0000 C   0  0  0  0  0  0  0  0  0
    1.0919   -3.4292    0.0000 C   0  0  0  0  0  0  0  0  0
    1.6439   -4.0423    0.0000 C   0  0  0  0  0  0  0  0  0
    1.3890   -4.8269    0.0000 C   0  0  0  0  0  0  0  0  0
    0.5820   -4.9984    0.0000 N   0  0  0  0  0  0  0  0  0
    0.0300   -4.3853    0.0000 C   0  0  0  0  0  0  0  0  0
    0.2849   -3.6007    0.0000 C   0  0  0  0  0  0  0  0  0
    0.3271   -5.7830    0.0000 C   0  0  0  0  0  0  0  0  0
  1  2  1  0  0  0  0
  2  3  4  0  0  0  0
  2  7  4  0  0  0  0
  3  4  4  0  0  0  0
  4  5  4  0  0  0  0
  5  6  4  0  0  0  0
  5  8  1  0  0  0  0
  6  7  4  0  0  0  0
  8  9  2  0  0  0  0
  8 10  1  0  0  0  0
 10 11  1  0  0  0  0
 11 12  4  0  0  0  0
 11 19  4  0  0  0  0
 12 13  4  0  0  0  0
 13 14  1  0  0  0  0
 13 17  4  0  0  0  0
 14 15  1  0  0  0  0
 14 20  1  0  0  0  0
 15 16  1  0  0  0  0
 16 17  1  0  0  0  0
 17 18  4  0  0  0  0
 18 19  4  0  0  0  0
 20 21  1  0  0  0  0
 20 25  1  0  0  0  0
 21 22  1  0  0  0  0
 22 23  1  0  0  0  0
 23 24  1  0  0  0  0
 23 26  1  0  0  0  0
 24 25  1  0  0  0  0
M  END
>  <Name_Molregno>
311175

>  <5-HT1A>
7.94

>  <5-HT1B>
6.48

>  <5-HT1D>
6.76

$$$$
311185
  Marvin  02231216192D 0   1.00000     0.00000     0

 26 29  0  0  0  0  0  0  0  0999 V2000
    7.8472   -4.0396    0.0000 F   0  0  0  0  0  0  0  0  0
    7.1328   -3.6271    0.0000 C   0  0  0  0  0  0  0  0  0
    6.4183   -4.0396    0.0000 C   0  0  0  0  0  0  0  0  0
    5.7038   -3.6271    0.0000 C   0  0  0  0  0  0  0  0  0
    5.7038   -2.8021    0.0000 C   0  0  0  0  0  0  0  0  0
    6.4183   -2.3896    0.0000 C   0  0  0  0  0  0  0  0  0
    7.1328   -2.8021    0.0000 C   0  0  0  0  0  0  0  0  0
    4.9894   -2.3896    0.0000 C   0  0  0  0  0  0  0  0  0
    4.9894   -1.5646    0.0000 O   0  0  0  0  0  0  0  0  0
    4.2749   -2.8021    0.0000 N   0  0  0  0  0  0  0  0  0
    3.5604   -2.3896    0.0000 C   0  0  0  0  0  0  0  0  0
    2.8459   -2.8021    0.0000 C   0  0  0  0  0  0  0  0  0
    2.1315   -2.3896    0.0000 C   0  0  0  0  0  0  0  0  0
    2.1315   -1.5646    0.0000 C   0  0  0  0  0  0  0  0  0
    1.3468   -1.3097    0.0000 N   0  0  0  0  0  0  0  0  0
    0.8619   -1.9771    0.0000 N   0  0  0  0  0  0  0  0  0
    1.3468   -2.6445    0.0000 C   0  0  0  0  0  0  0  0  0
    1.0919   -3.4292    0.0000 C   0  0  0  0  0  0  0  0  0
    1.6439   -4.0423    0.0000 C   0  0  0  0  0  0  0  0  0
    1.3890   -4.8269    0.0000 C   0  0  0  0  0  0  0  0  0
    0.5820   -4.9984    0.0000 N   0  0  0  0  0  0  0  0  0
    0.0300   -4.3853    0.0000 C   0  0  0  0  0  0  0  0  0
    0.2849   -3.6007    0.0000 C   0  0  0  0  0  0  0  0  0
    0.3271   -5.7830    0.0000 C   0  0  0  0  0  0  0  0  0
    2.8459   -1.1521    0.0000 C   0  0  0  0  0  0  0  0  0
    3.5604   -1.5646    0.0000 C   0  0  0  0  0  0  0  0  0
  1  2  1  0  0  0  0
  2  3  4  0  0  0  0
  2  7  4  0  0  0  0
  3  4  4  0  0  0  0
  4  5  4  0  0  0  0
  5  6  4  0  0  0  0
  5  8  1  0  0  0  0
  6  7  4  0  0  0  0
  8  9  2  0  0  0  0
  8 10  1  0  0  0  0
 10 11  1  0  0  0  0
 11 12  4  0  0  0  0
 11 26  4  0  0  0  0
 12 13  4  0  0  0  0
 13 14  4  0  0  0  0
 13 17  4  0  0  0  0
 14 15  4  0  0  0  0
 14 25  4  0  0  0  0
 15 16  4  0  0  0  0
 16 17  4  0  0  0  0
 17 18  1  0  0  0  0
 18 19  1  0  0  0  0
 18 23  1  0  0  0  0
 19 20  1  0  0  0  0
 20 21  1  0  0  0  0
 21 22  1  0  0  0  0
 21 24  1  0  0  0  0
 22 23  1  0  0  0  0
 25 26  4  0  0  0  0
M  STY  1   1 DAT
M  SAL   1  1  15
M  SDT   1 MRV_IMPLICIT_H                                        
M  SDD   1     0.0000    0.0000    DR    ALL  0       0  
M  SED   1 IMPL_H1
M  END
>  <Name_Molregno>
311185

>  <5-HT1A>
6.06

>  <5-HT1B>
5.64

>  <5-HT1D>
5.51

$$$$
315432
  Marvin  02231216192D 0   1.00000     0.00000     0

 39 42  0  0  0  0  0  0  0  0999 V2000
    1.3459    1.7399    0.0000 O   0  0  0  0  0  0  0  0  0
    2.1709    1.7399    0.0000 C   0  0  0  0  0  0  0  0  0
    2.5834    1.0254    0.0000 N   0  0  0  0  0  0  0  0  0
    2.1709    0.3109    0.0000 C   0  0  0  0  0  0  0  0  0
    2.5834   -0.4036    0.0000 C   0  0  0  0  0  0  0  0  0
    3.4084   -0.4036    0.0000 C   0  0  0  0  0  0  0  0  0
    3.8209   -1.1180    0.0000 C   0  0  0  0  0  0  0  0  0
    3.4084   -1.8325    0.0000 C   0  0  0  0  0  0  0  0  0
    2.5834   -1.8325    0.0000 C   0  0  0  0  0  0  0  0  0
    2.1709   -1.1180    0.0000 C   0  0  0  0  0  0  0  0  0
    3.8209   -2.5470    0.0000 C   0  0  0  0  0  0  0  0  0
    4.6459   -2.5470    0.0000 C   0  0  0  0  0  0  0  0  0
    5.0584   -3.2614    0.0000 C   0  0  0  0  0  0  0  0  0
    4.6459   -3.9759    0.0000 C   0  0  0  0  0  0  0  0  0
    3.8209   -3.9759    0.0000 C   0  0  0  0  0  0  0  0  0
    3.4084   -3.2614    0.0000 C   0  0  0  0  0  0  0  0  0
    5.0584   -4.6904    0.0000 C   0  0  0  0  0  0  0  0  0
    4.6459   -5.4049    0.0000 N   0  0  0  0  0  0  0  0  0
    5.0584   -6.1193    0.0000 C   0  0  0  0  0  0  0  0  0
    4.6459   -6.8338    0.0000 C   0  0  0  0  0  0  0  0  0
    5.0584   -7.5483    0.0000 C   0  0  0  0  0  0  0  0  0
    5.8834   -7.5483    0.0000 C   0  0  0  0  0  0  0  0  0
    6.2959   -8.2627    0.0000 C   0  0  0  0  0  0  0  0  0
    5.8834   -8.9772    0.0000 C   0  0  0  0  0  0  0  0  0
    5.0584   -8.9772    0.0000 C   0  0  0  0  0  0  0  0  0
    4.6459   -8.2627    0.0000 C   0  0  0  0  0  0  0  0  0
    3.4084    1.0254    0.0000 C   0  0  0  0  0  0  0  0  0
    3.8209    0.3109    0.0000 C   0  0  0  0  0  0  0  0  0
    4.6459    0.3109    0.0000 N   0  0  0  0  0  0  0  0  0
    5.0584    1.0254    0.0000 C   0  0  0  0  0  0  0  0  0
    5.0584   -0.4036    0.0000 C   0  0  0  0  0  0  0  0  0
    2.5834    2.4543    0.0000 C   0  0  0  0  0  0  0  0  0
    2.1709    3.1688    0.0000 C   0  0  0  0  0  0  0  0  0
    2.5834    3.8833    0.0000 C   0  0  0  0  0  0  0  0  0
    2.1709    4.5977    0.0000 C   0  0  0  0  0  0  0  0  0
    2.5834    5.3122    0.0000 C   0  0  0  0  0  0  0  0  0
    3.4084    5.3122    0.0000 C   0  0  0  0  0  0  0  0  0
    3.8209    4.5977    0.0000 C   0  0  0  0  0  0  0  0  0
    3.4084    3.8833    0.0000 C   0  0  0  0  0  0  0  0  0
  1  2  2  0  0  0  0
  2  3  1  0  0  0  0
  2 32  1  0  0  0  0
  3  4  1  0  0  0  0
  3 27  1  0  0  0  0
  4  5  1  0  0  0  0
  5  6  4  0  0  0  0
  5 10  4  0  0  0  0
  6  7  4  0  0  0  0
  7  8  4  0  0  0  0
  8  9  4  0  0  0  0
  8 11  1  0  0  0  0
  9 10  4  0  0  0  0
 11 12  4  0  0  0  0
 11 16  4  0  0  0  0
 12 13  4  0  0  0  0
 13 14  4  0  0  0  0
 14 15  4  0  0  0  0
 14 17  1  0  0  0  0
 15 16  4  0  0  0  0
 17 18  1  0  0  0  0
 18 19  1  0  0  0  0
 19 20  1  0  0  0  0
 20 21  1  0  0  0  0
 21 22  4  0  0  0  0
 21 26  4  0  0  0  0
 22 23  4  0  0  0  0
 23 24  4  0  0  0  0
 24 25  4  0  0  0  0
 25 26  4  0  0  0  0
 27 28  1  0  0  0  0
 28 29  1  0  0  0  0
 29 30  1  0  0  0  0
 29 31  1  0  0  0  0
 32 33  2  0  0  0  0
 33 34  1  0  0  0  0
 34 35  4  0  0  0  0
 34 39  4  0  0  0  0
 35 36  4  0  0  0  0
 36 37  4  0  0  0  0
 37 38  4  0  0  0  0
 38 39  4  0  0  0  0
M  END
>  <Name_Molregno>
315432

>  <5-HT1A>
6.1

>  <5-HT1B>
6.2

>  <5-HT1D>
6.8

>  <5-HT1E>
5

>  <5-HT2A>
6.4

>  <5-HT2C>
6.2

>  <5-HT5>
7.6

>  <5-HT6>
5.1

>  <5-HT7>
6

>  <Alpha-1B>
6.7

>  <DOPAMINE D2>
6.1

>  <DOPAMINE D3>
6

>  <DOPAMINE D4>
5.9

$$$$
315433
  Marvin  02231216192D 0   1.00000     0.00000     0

 41 45  0  0  0  0  0  0  0  0999 V2000
    3.1883    0.1879    0.0000 O   0  0  0  0  0  0  0  0  0
    3.1883    1.0129    0.0000 C   0  0  0  0  0  0  0  0  0
    3.9028    1.4254    0.0000 N   0  0  0  0  0  0  0  0  0
    4.6173    1.0129    0.0000 C   0  0  0  0  0  0  0  0  0
    4.6173    0.1879    0.0000 C   0  0  0  0  0  0  0  0  0
    5.3317   -0.2246    0.0000 C   0  0  0  0  0  0  0  0  0
    5.3317   -1.0496    0.0000 C   0  0  0  0  0  0  0  0  0
    4.6173   -1.4621    0.0000 C   0  0  0  0  0  0  0  0  0
    3.9028   -1.0496    0.0000 C   0  0  0  0  0  0  0  0  0
    3.9028   -0.2246    0.0000 C   0  0  0  0  0  0  0  0  0
    4.6173   -2.2871    0.0000 C   0  0  0  0  0  0  0  0  0
    5.3317   -2.6996    0.0000 C   0  0  0  0  0  0  0  0  0
    5.3317   -3.5246    0.0000 C   0  0  0  0  0  0  0  0  0
    4.6173   -3.9371    0.0000 C   0  0  0  0  0  0  0  0  0
    3.9028   -3.5246    0.0000 C   0  0  0  0  0  0  0  0  0
    3.9028   -2.6996    0.0000 C   0  0  0  0  0  0  0  0  0
    4.6173   -4.7621    0.0000 C   0  0  0  0  0  0  0  0  0
    3.9028   -5.1746    0.0000 N   0  0  0  0  0  0  0  0  0
    3.9028   -5.9996    0.0000 C   0  0  0  0  0  0  0  0  0
    3.1883   -6.4121    0.0000 C   0  0  0  0  0  0  0  0  0
    3.1883   -7.2371    0.0000 C   0  0  0  0  0  0  0  0  0
    3.9028   -7.6496    0.0000 C   0  0  0  0  0  0  0  0  0
    3.9028   -8.4746    0.0000 C   0  0  0  0  0  0  0  0  0
    3.1883   -8.8871    0.0000 C   0  0  0  0  0  0  0  0  0
    2.4738   -8.4746    0.0000 C   0  0  0  0  0  0  0  0  0
    2.4738   -7.6496    0.0000 C   0  0  0  0  0  0  0  0  0
    3.9028    2.2504    0.0000 C   0  0  0  0  0  0  0  0  0
    4.6173    2.6629    0.0000 C   0  0  0  0  0  0  0  0  0
    5.3317    2.2504    0.0000 C   0  0  0  0  0  0  0  0  0
    6.0462    2.6629    0.0000 C   0  0  0  0  0  0  0  0  0
    6.0462    3.4879    0.0000 C   0  0  0  0  0  0  0  0  0
    5.3317    3.9004    0.0000 N   0  0  0  0  0  0  0  0  0
    4.6173    3.4879    0.0000 C   0  0  0  0  0  0  0  0  0
    2.4738    1.4254    0.0000 C   0  0  0  0  0  0  0  0  0
    1.7594    1.0129    0.0000 C   0  0  0  0  0  0  0  0  0
    1.0449    1.4254    0.0000 C   0  0  0  0  0  0  0  0  0
    0.3304    1.0129    0.0000 C   0  0  0  0  0  0  0  0  0
   -0.3840    1.4254    0.0000 C   0  0  0  0  0  0  0  0  0
   -0.3840    2.2504    0.0000 C   0  0  0  0  0  0  0  0  0
    0.3304    2.6629    0.0000 C   0  0  0  0  0  0  0  0  0
    1.0449    2.2504    0.0000 C   0  0  0  0  0  0  0  0  0
  1  2  2  0  0  0  0
  2  3  1  0  0  0  0
  2 34  1  0  0  0  0
  3  4  1  0  0  0  0
  3 27  1  0  0  0  0
  4  5  1  0  0  0  0
  5  6  4  0  0  0  0
  5 10  4  0  0  0  0
  6  7  4  0  0  0  0
  7  8  4  0  0  0  0
  8  9  4  0  0  0  0
  8 11  1  0  0  0  0
  9 10  4  0  0  0  0
 11 12  4  0  0  0  0
 11 16  4  0  0  0  0
 12 13  4  0  0  0  0
 13 14  4  0  0  0  0
 14 15  4  0  0  0  0
 14 17  1  0  0  0  0
 15 16  4  0  0  0  0
 17 18  1  0  0  0  0
 18 19  1  0  0  0  0
 19 20  1  0  0  0  0
 20 21  1  0  0  0  0
 21 22  4  0  0  0  0
 21 26  4  0  0  0  0
 22 23  4  0  0  0  0
 23 24  4  0  0  0  0
 24 25  4  0  0  0  0
 25 26  4  0  0  0  0
 27 28  1  0  0  0  0
 28 29  4  0  0  0  0
 28 33  4  0  0  0  0
 29 30  4  0  0  0  0
 30 31  4  0  0  0  0
 31 32  4  0  0  0  0
 32 33  4  0  0  0  0
 34 35  2  0  0  0  0
 35 36  1  0  0  0  0
 36 37  4  0  0  0  0
 36 41  4  0  0  0  0
 37 38  4  0  0  0  0
 38 39  4  0  0  0  0
 39 40  4  0  0  0  0
 40 41  4  0  0  0  0
M  END
>  <Name_Molregno>
315433

>  <5-HT1A>
6

>  <5-HT1B>
6.2

>  <5-HT1D>
5.9

>  <5-HT1E>
5

>  <5-HT2A>
6.1

>  <5-HT2C>
6

>  <5-HT5>
7.3

>  <5-HT6>
5.7

>  <5-HT7>
5.9

>  <Alpha-1B>
6.5

>  <DOPAMINE D2>
5.9

>  <DOPAMINE D3>
5.8

>  <DOPAMINE D4>
5.8

$$$$
315545
  Marvin  02231216192D 0   1.00000     0.00000     0

 38 41  0  0  0  0  0  0  0  0999 V2000
    8.3584    0.3824    0.0000 O   0  0  0  0  0  0  0  0  0
    7.8183   -0.2412    0.0000 C   0  0  0  0  0  0  0  0  0
    7.0082   -0.0853    0.0000 N   0  0  0  0  0  0  0  0  0
    6.7381    0.6942    0.0000 C   0  0  0  0  0  0  0  0  0
    5.9280    0.8501    0.0000 C   0  0  0  0  0  0  0  0  0
    5.3879    0.2265    0.0000 C   0  0  0  0  0  0  0  0  0
    4.5778    0.3824    0.0000 C   0  0  0  0  0  0  0  0  0
    4.3077    1.1620    0.0000 C   0  0  0  0  0  0  0  0  0
    4.8478    1.7856    0.0000 C   0  0  0  0  0  0  0  0  0
    5.6579    1.6297    0.0000 C   0  0  0  0  0  0  0  0  0
    3.4976    1.3179    0.0000 C   0  0  0  0  0  0  0  0  0
    2.9575    0.6942    0.0000 C   0  0  0  0  0  0  0  0  0
    2.1474    0.8501    0.0000 C   0  0  0  0  0  0  0  0  0
    1.8773    1.6297    0.0000 C   0  0  0  0  0  0  0  0  0
    2.4174    2.2533    0.0000 C   0  0  0  0  0  0  0  0  0
    3.2275    2.0974    0.0000 C   0  0  0  0  0  0  0  0  0
    1.0672    1.7856    0.0000 C   0  0  0  0  0  0  0  0  0
    0.7971    2.5652    0.0000 N   0  0  0  0  0  0  0  0  0
   -0.0130    2.7211    0.0000 C   0  0  0  0  0  0  0  0  0
   -0.2830    3.5006    0.0000 C   0  0  0  0  0  0  0  0  0
   -1.0932    3.6565    0.0000 C   0  0  0  0  0  0  0  0  0
   -1.6333    3.0329    0.0000 C   0  0  0  0  0  0  0  0  0
   -2.4434    3.1888    0.0000 C   0  0  0  0  0  0  0  0  0
   -2.7135    3.9683    0.0000 C   0  0  0  0  0  0  0  0  0
   -2.1734    4.5920    0.0000 C   0  0  0  0  0  0  0  0  0
   -1.3632    4.4361    0.0000 C   0  0  0  0  0  0  0  0  0
    6.4681   -0.7090    0.0000 C   0  0  0  0  0  0  0  0  0
    5.6579   -0.5531    0.0000 C   0  0  0  0  0  0  0  0  0
    5.1178   -1.1767    0.0000 N   0  0  0  0  0  0  0  0  0
    5.3879   -1.9562    0.0000 C   0  0  0  0  0  0  0  0  0
    4.3077   -1.0208    0.0000 C   0  0  0  0  0  0  0  0  0
    8.0883   -1.0208    0.0000 C   0  0  0  0  0  0  0  0  0
    8.8985   -1.1767    0.0000 C   0  0  0  0  0  0  0  0  0
    9.1685   -1.9562    0.0000 C   0  0  0  0  0  0  0  0  0
    9.9579   -2.1960    0.0000 C   0  0  0  0  0  0  0  0  0
    9.9738   -3.0208    0.0000 C   0  0  0  0  0  0  0  0  0
    9.1943   -3.2909    0.0000 C   0  0  0  0  0  0  0  0  0
    8.6966   -2.6329    0.0000 C   0  0  0  0  0  0  0  0  0
  1  2  2  0  0  0  0
  2  3  1  0  0  0  0
  2 32  1  0  0  0  0
  3  4  1  0  0  0  0
  3 27  1  0  0  0  0
  4  5  1  0  0  0  0
  5  6  4  0  0  0  0
  5 10  4  0  0  0  0
  6  7  4  0  0  0  0
  7  8  4  0  0  0  0
  8  9  4  0  0  0  0
  8 11  1  0  0  0  0
  9 10  4  0  0  0  0
 11 12  4  0  0  0  0
 11 16  4  0  0  0  0
 12 13  4  0  0  0  0
 13 14  4  0  0  0  0
 14 15  4  0  0  0  0
 14 17  1  0  0  0  0
 15 16  4  0  0  0  0
 17 18  1  0  0  0  0
 18 19  1  0  0  0  0
 19 20  1  0  0  0  0
 20 21  1  0  0  0  0
 21 22  4  0  0  0  0
 21 26  4  0  0  0  0
 22 23  4  0  0  0  0
 23 24  4  0  0  0  0
 24 25  4  0  0  0  0
 25 26  4  0  0  0  0
 27 28  1  0  0  0  0
 28 29  1  0  0  0  0
 29 30  1  0  0  0  0
 29 31  1  0  0  0  0
 32 33  1  0  0  0  0
 33 34  1  0  0  0  0
 34 35  1  0  0  0  0
 34 38  1  0  0  0  0
 35 36  1  0  0  0  0
 36 37  1  0  0  0  0
 37 38  1  0  0  0  0
M  END
>  <Name_Molregno>
315545

>  <5-HT1A>
6.3

>  <5-HT1B>
6.5

>  <5-HT1D>
6.4

>  <5-HT1E>
5

>  <5-HT2A>
6.1

>  <5-HT2C>
6.4

>  <5-HT5>
8.2

>  <5-HT6>
5.4

>  <5-HT7>
5.4

>  <Alpha-1B>
6.5

>  <DOPAMINE D2>
5.9

>  <DOPAMINE D3>
6.2

>  <DOPAMINE D4>
6.1

>  <Serotonin transporter>
7.6

$$$$
320346
  Marvin  02231216192D 0   1.00000     0.00000     0

 25 28  0  0  1  0  0  0  0  0999 V2000
   -0.3965   -3.1617    0.0000 O   0  0  0  0  0  0  0  0  0
    0.3175   -3.5751    0.0000 C   0  0  0  0  0  0  0  0  0
    1.0325   -3.1634    0.0000 N   0  0  0  0  0  0  0  0  0
    1.0334   -2.3384    0.0000 C   0  0  0  0  0  0  0  0  0
    1.7484   -1.9268    0.0000 C   0  0  0  0  0  0  0  0  0
    1.7494   -1.1018    0.0000 C   0  0  0  0  0  0  0  0  0
    1.0354   -0.6884    0.0000 C   0  0  0  0  0  0  0  0  0
    0.3205   -1.1001    0.0000 N   0  0  0  0  0  0  0  0  0
    0.3195   -1.9251    0.0000 C   0  0  0  0  0  0  0  0  0
   -0.3935   -0.6867    0.0000 C   0  0  0  0  0  0  0  0  0
    1.0369    0.1357    0.0000 C   0  0  0  0  0  0  0  0  0
    1.7494    0.5482    0.0000 C   0  0  0  0  0  0  0  0  0
    2.4619    0.1357    0.0000 C   0  0  0  0  0  0  0  0  0
    2.4619   -0.6893    0.0000 C   0  0  0  0  0  0  0  0  0
    3.1798   -1.1018    0.0000 C   0  0  0  0  0  0  0  0  0
    3.8923   -0.6893    0.0000 C   0  0  0  0  0  0  0  0  0
    3.8923    0.1357    0.0000 C   0  0  0  0  0  0  0  0  0
    3.1798    0.5482    0.0000 C   0  0  0  0  0  0  0  0  0
    2.8744    1.4054    0.0000 N   0  0  0  0  0  0  0  0  0
    2.0494    1.4054    0.0000 C   0  0  0  0  0  0  0  0  0
    0.3165   -4.4001    0.0000 N   0  0  0  0  0  0  0  0  0
   -0.3985   -4.8117    0.0000 C   0  0  0  0  0  0  0  0  0
   -0.3994   -5.6367    0.0000 C   0  0  0  0  0  0  0  0  0
    1.0305   -4.8134    0.0000 C   0  0  0  0  0  0  0  0  0
    1.0295   -5.6384    0.0000 C   0  0  0  0  0  0  0  0  0
  1  2  2  0  0  0  0
  2  3  1  0  0  0  0
  2 21  1  0  0  0  0
  3  4  1  0  0  0  0
  4  5  1  0  0  0  0
  4  9  1  0  0  0  0
  5  6  2  0  0  0  0
  6  7  1  0  0  0  0
  6 14  1  0  0  0  0
  7  8  1  0  0  0  0
  7 11  1  0  0  0  0
  8  9  1  0  0  0  0
  8 10  1  0  0  0  0
 11 12  1  0  0  0  0
 12 13  4  0  0  0  0
 12 20  4  0  0  0  0
 13 14  4  0  0  0  0
 13 18  4  0  0  0  0
 14 15  4  0  0  0  0
 15 16  4  0  0  0  0
 16 17  4  0  0  0  0
 17 18  4  0  0  0  0
 18 19  4  0  0  0  0
 19 20  4  0  0  0  0
 21 22  1  0  0  0  0
 21 24  1  0  0  0  0
 22 23  1  0  0  0  0
 24 25  1  0  0  0  0
M  STY  1   1 DAT
M  SAL   1  1  19
M  SDT   1 MRV_IMPLICIT_H                                        
M  SDD   1     0.0000    0.0000    DR    ALL  0       0  
M  SED   1 IMPL_H1
M  END
>  <Name_Molregno>
320346

>  <5-HT1A>
9.06

>  <5-HT1B>
7.73

>  <5-HT1D>
9.01

>  <5-HT2A>
8.71

>  <5-HT2C>
8.2

>  <Alpha-1A>
8.26

>  <Alpha-1B>
7.78

>  <Alpha-2A>
10.26

>  <Alpha-2B>
9.87

>  <Beta-1>
7.17

>  <Beta-2>
8.1

>  <DOPAMINE D1>
7.19

>  <DOPAMINE D2>
9.31

>  <DOPAMINE D3>
9.14

>  <DOPAMINE D4>
8.33

>  <DOPAMINE D5>
8.45

$$$$
321706
  Marvin  02231216192D 0   1.00000     0.00000     0

 30 34  0  0  0  0  0  0  0  0999 V2000
    3.7428    1.0385    0.0000 O   0  0  0  0  0  0  0  0  0
    3.0283    0.6260    0.0000 C   0  0  0  0  0  0  0  0  0
    3.0283   -0.1990    0.0000 C   0  0  0  0  0  0  0  0  0
    2.3138   -0.6115    0.0000 N   0  0  0  0  0  0  0  0  0
    2.3138   -1.4365    0.0000 C   0  0  0  0  0  0  0  0  0
    1.5994   -1.8490    0.0000 C   0  0  0  0  0  0  0  0  0
    0.8849   -1.4365    0.0000 N   0  0  0  0  0  0  0  0  0
    0.8849   -0.6115    0.0000 C   0  0  0  0  0  0  0  0  0
    1.5994   -0.1990    0.0000 C   0  0  0  0  0  0  0  0  0
    0.1704   -1.8490    0.0000 C   0  0  0  0  0  0  0  0  0
   -0.5440   -1.4365    0.0000 C   0  0  0  0  0  0  0  0  0
   -1.2585   -1.8490    0.0000 C   0  0  0  0  0  0  0  0  0
   -1.4300   -2.6560    0.0000 N   0  0  0  0  0  0  0  0  0
   -2.2505   -2.7422    0.0000 C   0  0  0  0  0  0  0  0  0
   -2.5861   -1.9885    0.0000 N   0  0  0  0  0  0  0  0  0
   -1.9730   -1.4365    0.0000 C   0  0  0  0  0  0  0  0  0
   -1.9730   -0.6115    0.0000 C   0  0  0  0  0  0  0  0  0
   -1.2585   -0.1990    0.0000 C   0  0  0  0  0  0  0  0  0
   -0.5440   -0.6115    0.0000 C   0  0  0  0  0  0  0  0  0
    3.7428    1.8635    0.0000 C   0  0  0  0  0  0  0  0  0
    4.4573    2.2760    0.0000 C   0  0  0  0  0  0  0  0  0
    4.4573    3.1010    0.0000 C   0  0  0  0  0  0  0  0  0
    5.1717    3.5135    0.0000 N   0  0  0  0  0  0  0  0  0
    5.8862    3.1010    0.0000 C   0  0  0  0  0  0  0  0  0
    5.8862    2.2760    0.0000 C   0  0  0  0  0  0  0  0  0
    5.1717    1.8635    0.0000 C   0  0  0  0  0  0  0  0  0
    6.6007    3.5135    0.0000 C   0  0  0  0  0  0  0  0  0
    3.7428    3.5135    0.0000 C   0  0  0  0  0  0  0  0  0
    3.0283    3.1010    0.0000 C   0  0  0  0  0  0  0  0  0
    3.0283    2.2760    0.0000 C   0  0  0  0  0  0  0  0  0
  1  2  1  0  0  0  0
  1 20  1  0  0  0  0
  2  3  1  0  0  0  0
  3  4  1  0  0  0  0
  4  5  1  0  0  0  0
  4  9  1  0  0  0  0
  5  6  1  0  0  0  0
  6  7  1  0  0  0  0
  7  8  1  0  0  0  0
  7 10  1  0  0  0  0
  8  9  1  0  0  0  0
 10 11  1  0  0  0  0
 11 12  4  0  0  0  0
 11 19  4  0  0  0  0
 12 13  4  0  0  0  0
 12 16  4  0  0  0  0
 13 14  4  0  0  0  0
 14 15  4  0  0  0  0
 15 16  4  0  0  0  0
 16 17  4  0  0  0  0
 17 18  4  0  0  0  0
 18 19  4  0  0  0  0
 20 21  4  0  0  0  0
 20 30  4  0  0  0  0
 21 22  4  0  0  0  0
 21 26  4  0  0  0  0
 22 23  4  0  0  0  0
 22 28  4  0  0  0  0
 23 24  4  0  0  0  0
 24 25  4  0  0  0  0
 24 27  1  0  0  0  0
 25 26  4  0  0  0  0
 28 29  4  0  0  0  0
 29 30  4  0  0  0  0
M  STY  1   1 DAT
M  SAL   1  1  15
M  SDT   1 MRV_IMPLICIT_H                                        
M  SDD   1     0.0000    0.0000    DR    ALL  0       0  
M  SED   1 IMPL_H1
M  END
>  <Name_Molregno>
321706

>  <5-HT1A>
6.8

>  <5-HT1B>
7.2

>  <5-HT1D>
9.6

$$$$
321723
  Marvin  02231216192D 0   1.00000     0.00000     0

 31 34  0  0  0  0  0  0  0  0999 V2000
    2.5646   -5.2263    0.0000 Cl  0  0  0  0  0  0  0  0  0
    2.5646   -4.4013    0.0000 C   0  0  0  0  0  0  0  0  0
    1.8501   -3.9888    0.0000 C   0  0  0  0  0  0  0  0  0
    1.8501   -3.1638    0.0000 C   0  0  0  0  0  0  0  0  0
    2.5646   -2.7513    0.0000 C   0  0  0  0  0  0  0  0  0
    3.2791   -3.1638    0.0000 C   0  0  0  0  0  0  0  0  0
    3.2791   -3.9888    0.0000 C   0  0  0  0  0  0  0  0  0
    3.9936   -4.4013    0.0000 N   0  3  0  0  0  0  0  0  0
    4.7080   -3.9888    0.0000 O   0  5  0  0  0  0  0  0  0
    3.9936   -5.2263    0.0000 O   0  5  0  0  0  0  0  0  0
    2.5646   -1.9263    0.0000 C   0  0  0  0  0  0  0  0  0
    3.2791   -1.5138    0.0000 N   0  0  0  0  0  0  0  0  0
    3.2791   -0.6888    0.0000 C   0  0  0  0  0  0  0  0  0
    3.9936   -0.2763    0.0000 C   0  0  0  0  0  0  0  0  0
    4.7080   -0.6888    0.0000 N   0  0  0  0  0  0  0  0  0
    4.7080   -1.5138    0.0000 C   0  0  0  0  0  0  0  0  0
    3.9936   -1.9263    0.0000 C   0  0  0  0  0  0  0  0  0
    5.4225   -0.2763    0.0000 C   0  0  0  0  0  0  0  0  0
    5.4225    0.5487    0.0000 C   0  0  0  0  0  0  0  0  0
    6.1370    0.9612    0.0000 O   0  0  0  0  0  0  0  0  0
    6.1370    1.7862    0.0000 C   0  0  0  0  0  0  0  0  0
    6.8514    2.1987    0.0000 C   0  0  0  0  0  0  0  0  0
    6.8514    3.0237    0.0000 C   0  0  0  0  0  0  0  0  0
    7.5659    3.4362    0.0000 N   0  0  0  0  0  0  0  0  0
    8.2804    3.0237    0.0000 C   0  0  0  0  0  0  0  0  0
    8.2804    2.1987    0.0000 C   0  0  0  0  0  0  0  0  0
    7.5659    1.7862    0.0000 C   0  0  0  0  0  0  0  0  0
    8.9948    3.4362    0.0000 C   0  0  0  0  0  0  0  0  0
    6.1370    3.4362    0.0000 C   0  0  0  0  0  0  0  0  0
    5.4225    3.0237    0.0000 C   0  0  0  0  0  0  0  0  0
    5.4225    2.1987    0.0000 C   0  0  0  0  0  0  0  0  0
  1  2  1  0  0  0  0
  2  3  4  0  0  0  0
  2  7  4  0  0  0  0
  3  4  4  0  0  0  0
  4  5  4  0  0  0  0
  5  6  4  0  0  0  0
  5 11  1  0  0  0  0
  6  7  4  0  0  0  0
  7  8  1  0  0  0  0
  8  9  1  0  0  0  0
  8 10  1  0  0  0  0
 11 12  1  0  0  0  0
 12 13  1  0  0  0  0
 12 17  1  0  0  0  0
 13 14  1  0  0  0  0
 14 15  1  0  0  0  0
 15 16  1  0  0  0  0
 15 18  1  0  0  0  0
 16 17  1  0  0  0  0
 18 19  1  0  0  0  0
 19 20  1  0  0  0  0
 20 21  1  0  0  0  0
 21 22  4  0  0  0  0
 21 31  4  0  0  0  0
 22 23  4  0  0  0  0
 22 27  4  0  0  0  0
 23 24  4  0  0  0  0
 23 29  4  0  0  0  0
 24 25  4  0  0  0  0
 25 26  4  0  0  0  0
 25 28  1  0  0  0  0
 26 27  4  0  0  0  0
 29 30  4  0  0  0  0
 30 31  4  0  0  0  0
M  CHG  3   8   1   9  -1  10  -1
M  END
>  <Name_Molregno>
321723

>  <5-HT1A>
7.2

>  <5-HT1B>
6.7

>  <5-HT1D>
8.3

$$$$
321747
  Marvin  02231216192D 0   1.00000     0.00000     0

 29 32  0  0  0  0  0  0  0  0999 V2000
    3.4544    0.9778    0.0000 O   0  0  0  0  0  0  0  0  0
    2.7399    0.5653    0.0000 C   0  0  0  0  0  0  0  0  0
    2.7399   -0.2597    0.0000 C   0  0  0  0  0  0  0  0  0
    2.0254   -0.6722    0.0000 N   0  0  0  0  0  0  0  0  0
    2.0254   -1.4972    0.0000 C   0  0  0  0  0  0  0  0  0
    1.3110   -1.9097    0.0000 C   0  0  0  0  0  0  0  0  0
    0.5965   -1.4972    0.0000 N   0  0  0  0  0  0  0  0  0
    0.5965   -0.6722    0.0000 C   0  0  0  0  0  0  0  0  0
    1.3110   -0.2597    0.0000 C   0  0  0  0  0  0  0  0  0
   -0.1180   -1.9097    0.0000 C   0  0  0  0  0  0  0  0  0
   -0.8324   -1.4972    0.0000 C   0  0  0  0  0  0  0  0  0
   -1.5469   -1.9097    0.0000 C   0  0  0  0  0  0  0  0  0
   -2.2614   -1.4972    0.0000 C   0  0  0  0  0  0  0  0  0
   -2.9759   -1.9097    0.0000 N   0  0  0  0  0  0  0  0  0
   -2.2614   -0.6722    0.0000 C   0  0  0  0  0  0  0  0  0
   -2.9759   -0.2597    0.0000 O   0  0  0  0  0  0  0  0  0
   -1.5469   -0.2597    0.0000 C   0  0  0  0  0  0  0  0  0
   -0.8324   -0.6722    0.0000 C   0  0  0  0  0  0  0  0  0
    3.4544    1.8028    0.0000 C   0  0  0  0  0  0  0  0  0
    4.1689    2.2153    0.0000 C   0  0  0  0  0  0  0  0  0
    4.1689    3.0403    0.0000 C   0  0  0  0  0  0  0  0  0
    4.8833    3.4528    0.0000 N   0  0  0  0  0  0  0  0  0
    5.5978    3.0403    0.0000 C   0  0  0  0  0  0  0  0  0
    5.5978    2.2153    0.0000 C   0  0  0  0  0  0  0  0  0
    4.8833    1.8028    0.0000 C   0  0  0  0  0  0  0  0  0
    6.3123    3.4528    0.0000 C   0  0  0  0  0  0  0  0  0
    3.4544    3.4528    0.0000 C   0  0  0  0  0  0  0  0  0
    2.7399    3.0403    0.0000 C   0  0  0  0  0  0  0  0  0
    2.7399    2.2153    0.0000 C   0  0  0  0  0  0  0  0  0
  1  2  1  0  0  0  0
  1 19  1  0  0  0  0
  2  3  1  0  0  0  0
  3  4  1  0  0  0  0
  4  5  1  0  0  0  0
  4  9  1  0  0  0  0
  5  6  1  0  0  0  0
  6  7  1  0  0  0  0
  7  8  1  0  0  0  0
  7 10  1  0  0  0  0
  8  9  1  0  0  0  0
 10 11  1  0  0  0  0
 11 12  4  0  0  0  0
 11 18  4  0  0  0  0
 12 13  4  0  0  0  0
 13 14  1  0  0  0  0
 13 15  4  0  0  0  0
 15 16  1  0  0  0  0
 15 17  4  0  0  0  0
 17 18  4  0  0  0  0
 19 20  4  0  0  0  0
 19 29  4  0  0  0  0
 20 21  4  0  0  0  0
 20 25  4  0  0  0  0
 21 22  4  0  0  0  0
 21 27  4  0  0  0  0
 22 23  4  0  0  0  0
 23 24  4  0  0  0  0
 23 26  1  0  0  0  0
 24 25  4  0  0  0  0
 27 28  4  0  0  0  0
 28 29  4  0  0  0  0
M  END
>  <Name_Molregno>
321747

>  <5-HT1A>
5.9

>  <5-HT1B>
6.6

>  <5-HT1D>
8.8

$$$$
321752
  Marvin  02231216192D 0   1.00000     0.00000     0

 29 32  0  0  0  0  0  0  0  0999 V2000
    1.5631   -2.9896    0.0000 Cl  0  0  0  0  0  0  0  0  0
    2.2775   -2.5771    0.0000 C   0  0  0  0  0  0  0  0  0
    2.2775   -1.7521    0.0000 C   0  0  0  0  0  0  0  0  0
    2.9920   -1.3396    0.0000 C   0  0  0  0  0  0  0  0  0
    3.7065   -1.7521    0.0000 C   0  0  0  0  0  0  0  0  0
    3.7065   -2.5771    0.0000 C   0  0  0  0  0  0  0  0  0
    2.9920   -2.9896    0.0000 C   0  0  0  0  0  0  0  0  0
    2.9920   -3.8146    0.0000 Cl  0  0  0  0  0  0  0  0  0
    2.9920   -0.5146    0.0000 C   0  0  0  0  0  0  0  0  0
    3.7065   -0.1021    0.0000 N   0  0  0  0  0  0  0  0  0
    3.7065    0.7229    0.0000 C   0  0  0  0  0  0  0  0  0
    4.4209    1.1354    0.0000 C   0  0  0  0  0  0  0  0  0
    5.1354    0.7229    0.0000 N   0  0  0  0  0  0  0  0  0
    5.1354   -0.1021    0.0000 C   0  0  0  0  0  0  0  0  0
    4.4209   -0.5146    0.0000 C   0  0  0  0  0  0  0  0  0
    5.8499    1.1354    0.0000 C   0  0  0  0  0  0  0  0  0
    5.8499    1.9604    0.0000 C   0  0  0  0  0  0  0  0  0
    6.5643    2.3729    0.0000 O   0  0  0  0  0  0  0  0  0
    6.5643    3.1979    0.0000 C   0  0  0  0  0  0  0  0  0
    7.2788    3.6104    0.0000 C   0  0  0  0  0  0  0  0  0
    7.2788    4.4354    0.0000 C   0  0  0  0  0  0  0  0  0
    7.9933    4.8479    0.0000 N   0  0  0  0  0  0  0  0  0
    8.7078    4.4354    0.0000 C   0  0  0  0  0  0  0  0  0
    8.7078    3.6104    0.0000 C   0  0  0  0  0  0  0  0  0
    7.9933    3.1979    0.0000 C   0  0  0  0  0  0  0  0  0
    9.4222    4.8479    0.0000 C   0  0  0  0  0  0  0  0  0
    6.5643    4.8479    0.0000 C   0  0  0  0  0  0  0  0  0
    5.8499    4.4354    0.0000 C   0  0  0  0  0  0  0  0  0
    5.8499    3.6104    0.0000 C   0  0  0  0  0  0  0  0  0
  1  2  1  0  0  0  0
  2  3  4  0  0  0  0
  2  7  4  0  0  0  0
  3  4  4  0  0  0  0
  4  5  4  0  0  0  0
  4  9  1  0  0  0  0
  5  6  4  0  0  0  0
  6  7  4  0  0  0  0
  7  8  1  0  0  0  0
  9 10  1  0  0  0  0
 10 11  1  0  0  0  0
 10 15  1  0  0  0  0
 11 12  1  0  0  0  0
 12 13  1  0  0  0  0
 13 14  1  0  0  0  0
 13 16  1  0  0  0  0
 14 15  1  0  0  0  0
 16 17  1  0  0  0  0
 17 18  1  0  0  0  0
 18 19  1  0  0  0  0
 19 20  4  0  0  0  0
 19 29  4  0  0  0  0
 20 21  4  0  0  0  0
 20 25  4  0  0  0  0
 21 22  4  0  0  0  0
 21 27  4  0  0  0  0
 22 23  4  0  0  0  0
 23 24  4  0  0  0  0
 23 26  1  0  0  0  0
 24 25  4  0  0  0  0
 27 28  4  0  0  0  0
 28 29  4  0  0  0  0
M  END
>  <Name_Molregno>
321752

>  <5-HT1A>
5

>  <5-HT1B>
5.7

>  <5-HT1D>
5.6

$$$$
321756
  Marvin  02231216192D 0   1.00000     0.00000     0

 31 35  0  0  0  0  0  0  0  0999 V2000
    3.8098    0.0042    0.0000 O   0  0  0  0  0  0  0  0  0
    3.0953   -0.4083    0.0000 C   0  0  0  0  0  0  0  0  0
    3.0953   -1.2333    0.0000 C   0  0  0  0  0  0  0  0  0
    2.3809   -1.6458    0.0000 N   0  0  0  0  0  0  0  0  0
    2.3809   -2.4708    0.0000 C   0  0  0  0  0  0  0  0  0
    1.6664   -2.8833    0.0000 C   0  0  0  0  0  0  0  0  0
    0.9519   -2.4708    0.0000 N   0  0  0  0  0  0  0  0  0
    0.9519   -1.6458    0.0000 C   0  0  0  0  0  0  0  0  0
    1.6664   -1.2333    0.0000 C   0  0  0  0  0  0  0  0  0
    0.2375   -2.8833    0.0000 C   0  0  0  0  0  0  0  0  0
   -0.4770   -2.4708    0.0000 C   0  0  0  0  0  0  0  0  0
   -0.4770   -1.6458    0.0000 C   0  0  0  0  0  0  0  0  0
   -1.1915   -1.2333    0.0000 C   0  0  0  0  0  0  0  0  0
   -1.1915   -0.4083    0.0000 N   0  0  0  0  0  0  0  0  0
   -0.4770    0.0042    0.0000 C   0  0  0  0  0  0  0  0  0
    0.2375   -0.4083    0.0000 C   0  0  0  0  0  0  0  0  0
    0.2375   -1.2333    0.0000 C   0  0  0  0  0  0  0  0  0
   -1.9059   -1.6458    0.0000 C   0  0  0  0  0  0  0  0  0
   -1.9059   -2.4708    0.0000 C   0  0  0  0  0  0  0  0  0
   -1.1915   -2.8833    0.0000 C   0  0  0  0  0  0  0  0  0
    3.8098    0.8292    0.0000 C   0  0  0  0  0  0  0  0  0
    4.5243    1.2417    0.0000 C   0  0  0  0  0  0  0  0  0
    4.5243    2.0667    0.0000 C   0  0  0  0  0  0  0  0  0
    5.2388    2.4792    0.0000 N   0  0  0  0  0  0  0  0  0
    5.9532    2.0667    0.0000 C   0  0  0  0  0  0  0  0  0
    5.9532    1.2417    0.0000 C   0  0  0  0  0  0  0  0  0
    5.2388    0.8292    0.0000 C   0  0  0  0  0  0  0  0  0
    6.6677    2.4792    0.0000 C   0  0  0  0  0  0  0  0  0
    3.8098    2.4792    0.0000 C   0  0  0  0  0  0  0  0  0
    3.0953    2.0667    0.0000 C   0  0  0  0  0  0  0  0  0
    3.0953    1.2417    0.0000 C   0  0  0  0  0  0  0  0  0
  1  2  1  0  0  0  0
  1 21  1  0  0  0  0
  2  3  1  0  0  0  0
  3  4  1  0  0  0  0
  4  5  1  0  0  0  0
  4  9  1  0  0  0  0
  5  6  1  0  0  0  0
  6  7  1  0  0  0  0
  7  8  1  0  0  0  0
  7 10  1  0  0  0  0
  8  9  1  0  0  0  0
 10 11  1  0  0  0  0
 11 12  4  0  0  0  0
 11 20  4  0  0  0  0
 12 13  4  0  0  0  0
 12 17  4  0  0  0  0
 13 14  4  0  0  0  0
 13 18  4  0  0  0  0
 14 15  4  0  0  0  0
 15 16  4  0  0  0  0
 16 17  4  0  0  0  0
 18 19  4  0  0  0  0
 19 20  4  0  0  0  0
 21 22  4  0  0  0  0
 21 31  4  0  0  0  0
 22 23  4  0  0  0  0
 22 27  4  0  0  0  0
 23 24  4  0  0  0  0
 23 29  4  0  0  0  0
 24 25  4  0  0  0  0
 25 26  4  0  0  0  0
 25 28  1  0  0  0  0
 26 27  4  0  0  0  0
 29 30  4  0  0  0  0
 30 31  4  0  0  0  0
M  END
>  <Name_Molregno>
321756

>  <5-HT1A>
6.4

>  <5-HT1B>
6.6

>  <5-HT1D>
8.6

$$$$
321848
  Marvin  02231216192D 0   1.00000     0.00000     0

 32 35  0  0  0  0  0  0  0  0999 V2000
    0.5456   -0.0341    0.0000 O   0  0  0  0  0  0  0  0  0
   -0.1689   -0.4466    0.0000 C   0  0  0  0  0  0  0  0  0
    1.2601   -0.4466    0.0000 C   0  0  0  0  0  0  0  0  0
    1.9745   -0.0341    0.0000 C   0  0  0  0  0  0  0  0  0
    2.6890   -0.4466    0.0000 C   0  0  0  0  0  0  0  0  0
    2.6890   -1.2716    0.0000 C   0  0  0  0  0  0  0  0  0
    1.9745   -1.6841    0.0000 C   0  0  0  0  0  0  0  0  0
    1.2601   -1.2716    0.0000 C   0  0  0  0  0  0  0  0  0
    0.5456   -1.6841    0.0000 N   0  3  0  0  0  0  0  0  0
    0.5456   -2.5091    0.0000 O   0  5  0  0  0  0  0  0  0
   -0.1689   -1.2716    0.0000 O   0  5  0  0  0  0  0  0  0
    3.4035   -1.6841    0.0000 C   0  0  0  0  0  0  0  0  0
    4.1179   -1.2716    0.0000 N   0  0  0  0  0  0  0  0  0
    4.1179   -0.4466    0.0000 C   0  0  0  0  0  0  0  0  0
    4.8324   -0.0341    0.0000 C   0  0  0  0  0  0  0  0  0
    5.5469   -0.4466    0.0000 N   0  0  0  0  0  0  0  0  0
    5.5469   -1.2716    0.0000 C   0  0  0  0  0  0  0  0  0
    4.8324   -1.6841    0.0000 C   0  0  0  0  0  0  0  0  0
    6.2613   -0.0341    0.0000 C   0  0  0  0  0  0  0  0  0
    6.2613    0.7909    0.0000 C   0  0  0  0  0  0  0  0  0
    6.9758    1.2034    0.0000 O   0  0  0  0  0  0  0  0  0
    6.9758    2.0284    0.0000 C   0  0  0  0  0  0  0  0  0
    7.6903    2.4409    0.0000 C   0  0  0  0  0  0  0  0  0
    7.6903    3.2659    0.0000 C   0  0  0  0  0  0  0  0  0
    8.4048    3.6784    0.0000 N   0  0  0  0  0  0  0  0  0
    9.1192    3.2659    0.0000 C   0  0  0  0  0  0  0  0  0
    9.1192    2.4409    0.0000 C   0  0  0  0  0  0  0  0  0
    8.4048    2.0284    0.0000 C   0  0  0  0  0  0  0  0  0
    9.8337    3.6784    0.0000 C   0  0  0  0  0  0  0  0  0
    6.9758    3.6784    0.0000 C   0  0  0  0  0  0  0  0  0
    6.2613    3.2659    0.0000 C   0  0  0  0  0  0  0  0  0
    6.2613    2.4409    0.0000 C   0  0  0  0  0  0  0  0  0
  1  2  1  0  0  0  0
  1  3  1  0  0  0  0
  3  4  4  0  0  0  0
  3  8  4  0  0  0  0
  4  5  4  0  0  0  0
  5  6  4  0  0  0  0
  6  7  4  0  0  0  0
  6 12  1  0  0  0  0
  7  8  4  0  0  0  0
  8  9  1  0  0  0  0
  9 10  1  0  0  0  0
  9 11  1  0  0  0  0
 12 13  1  0  0  0  0
 13 14  1  0  0  0  0
 13 18  1  0  0  0  0
 14 15  1  0  0  0  0
 15 16  1  0  0  0  0
 16 17  1  0  0  0  0
 16 19  1  0  0  0  0
 17 18  1  0  0  0  0
 19 20  1  0  0  0  0
 20 21  1  0  0  0  0
 21 22  1  0  0  0  0
 22 23  4  0  0  0  0
 22 32  4  0  0  0  0
 23 24  4  0  0  0  0
 23 28  4  0  0  0  0
 24 25  4  0  0  0  0
 24 30  4  0  0  0  0
 25 26  4  0  0  0  0
 26 27  4  0  0  0  0
 26 29  1  0  0  0  0
 27 28  4  0  0  0  0
 30 31  4  0  0  0  0
 31 32  4  0  0  0  0
M  CHG  3   9   1  10  -1  11  -1
M  END
>  <Name_Molregno>
321848

>  <5-HT1A>
6.4

>  <5-HT1B>
6.5

>  <5-HT1D>
7.7

$$$$
321873
  Marvin  02231216192D 0   1.00000     0.00000     0

 30 34  0  0  0  0  0  0  0  0999 V2000
    3.7428    1.0385    0.0000 O   0  0  0  0  0  0  0  0  0
    3.0283    0.6260    0.0000 C   0  0  0  0  0  0  0  0  0
    3.0283   -0.1990    0.0000 C   0  0  0  0  0  0  0  0  0
    2.3138   -0.6115    0.0000 N   0  0  0  0  0  0  0  0  0
    2.3138   -1.4365    0.0000 C   0  0  0  0  0  0  0  0  0
    1.5994   -1.8490    0.0000 C   0  0  0  0  0  0  0  0  0
    0.8849   -1.4365    0.0000 N   0  0  0  0  0  0  0  0  0
    0.8849   -0.6115    0.0000 C   0  0  0  0  0  0  0  0  0
    1.5994   -0.1990    0.0000 C   0  0  0  0  0  0  0  0  0
    0.1704   -1.8490    0.0000 C   0  0  0  0  0  0  0  0  0
   -0.5440   -1.4365    0.0000 C   0  0  0  0  0  0  0  0  0
   -1.2585   -1.8490    0.0000 C   0  0  0  0  0  0  0  0  0
   -1.4300   -2.6560    0.0000 N   0  0  0  0  0  0  0  0  0
   -2.2505   -2.7422    0.0000 C   0  0  0  0  0  0  0  0  0
   -2.5861   -1.9885    0.0000 C   0  0  0  0  0  0  0  0  0
   -1.9730   -1.4365    0.0000 C   0  0  0  0  0  0  0  0  0
   -1.9730   -0.6115    0.0000 C   0  0  0  0  0  0  0  0  0
   -1.2585   -0.1990    0.0000 C   0  0  0  0  0  0  0  0  0
   -0.5440   -0.6115    0.0000 C   0  0  0  0  0  0  0  0  0
    3.7428    1.8635    0.0000 C   0  0  0  0  0  0  0  0  0
    4.4573    2.2760    0.0000 C   0  0  0  0  0  0  0  0  0
    4.4573    3.1010    0.0000 C   0  0  0  0  0  0  0  0  0
    5.1717    3.5135    0.0000 N   0  0  0  0  0  0  0  0  0
    5.8862    3.1010    0.0000 C   0  0  0  0  0  0  0  0  0
    5.8862    2.2760    0.0000 C   0  0  0  0  0  0  0  0  0
    5.1717    1.8635    0.0000 C   0  0  0  0  0  0  0  0  0
    6.6007    3.5135    0.0000 C   0  0  0  0  0  0  0  0  0
    3.7428    3.5135    0.0000 C   0  0  0  0  0  0  0  0  0
    3.0283    3.1010    0.0000 C   0  0  0  0  0  0  0  0  0
    3.0283    2.2760    0.0000 C   0  0  0  0  0  0  0  0  0
  1  2  1  0  0  0  0
  1 20  1  0  0  0  0
  2  3  1  0  0  0  0
  3  4  1  0  0  0  0
  4  5  1  0  0  0  0
  4  9  1  0  0  0  0
  5  6  1  0  0  0  0
  6  7  1  0  0  0  0
  7  8  1  0  0  0  0
  7 10  1  0  0  0  0
  8  9  1  0  0  0  0
 10 11  1  0  0  0  0
 11 12  4  0  0  0  0
 11 19  4  0  0  0  0
 12 13  4  0  0  0  0
 12 16  4  0  0  0  0
 13 14  4  0  0  0  0
 14 15  4  0  0  0  0
 15 16  4  0  0  0  0
 16 17  4  0  0  0  0
 17 18  4  0  0  0  0
 18 19  4  0  0  0  0
 20 21  4  0  0  0  0
 20 30  4  0  0  0  0
 21 22  4  0  0  0  0
 21 26  4  0  0  0  0
 22 23  4  0  0  0  0
 22 28  4  0  0  0  0
 23 24  4  0  0  0  0
 24 25  4  0  0  0  0
 24 27  1  0  0  0  0
 25 26  4  0  0  0  0
 28 29  4  0  0  0  0
 29 30  4  0  0  0  0
M  STY  1   1 DAT
M  SAL   1  1  13
M  SDT   1 MRV_IMPLICIT_H                                        
M  SDD   1     0.0000    0.0000    DR    ALL  0       0  
M  SED   1 IMPL_H1
M  END
>  <Name_Molregno>
321873

>  <5-HT1A>
6.4

>  <5-HT1B>
6.4

>  <5-HT1D>
8.5

$$$$
321920
  Marvin  02231216192D 0   1.00000     0.00000     0

 30 34  0  0  1  0  0  0  0  0999 V2000
    3.7422   -0.1072    0.0000 O   0  0  0  0  0  0  0  0  0
    3.0277   -0.5197    0.0000 C   0  0  0  0  0  0  0  0  0
    3.0277   -1.3447    0.0000 C   0  0  0  0  0  0  0  0  0
    2.3133   -1.7572    0.0000 N   0  0  0  0  0  0  0  0  0
    2.3133   -2.5822    0.0000 C   0  0  0  0  0  0  0  0  0
    1.5988   -2.9947    0.0000 C   0  0  0  0  0  0  0  0  0
    0.8843   -2.5822    0.0000 N   0  0  0  0  0  0  0  0  0
    0.8843   -1.7572    0.0000 C   0  0  0  0  0  0  0  0  0
    1.5988   -1.3447    0.0000 C   0  0  0  0  0  0  0  0  0
    0.1699   -2.9947    0.0000 C   0  0  0  0  0  0  0  0  0
   -0.5446   -2.5822    0.0000 C   0  0  0  0  0  0  0  0  0
   -1.2591   -2.9947    0.0000 C   0  0  0  0  0  0  0  0  0
   -1.9735   -2.5822    0.0000 C   0  0  0  0  0  0  0  0  0
   -1.9735   -1.7572    0.0000 C   0  0  0  0  0  0  0  0  0
   -2.5866   -1.2051    0.0000 N   0  0  0  0  0  0  0  0  0
   -2.2511   -0.4515    0.0000 C   0  0  0  0  0  0  0  0  0
   -1.4306   -0.5377    0.0000 C   0  0  0  0  0  0  0  0  0
   -1.2591   -1.3447    0.0000 C   0  0  0  0  0  0  0  0  0
   -0.5446   -1.7572    0.0000 C   0  0  0  0  0  0  0  0  0
    3.7422    0.7178    0.0000 C   0  0  0  0  0  0  0  0  0
    4.4567    1.1303    0.0000 C   0  0  0  0  0  0  0  0  0
    4.4567    1.9553    0.0000 C   0  0  0  0  0  0  0  0  0
    5.1712    2.3678    0.0000 N   0  0  0  0  0  0  0  0  0
    5.8856    1.9553    0.0000 C   0  0  0  0  0  0  0  0  0
    5.8856    1.1303    0.0000 C   0  0  0  0  0  0  0  0  0
    5.1712    0.7178    0.0000 C   0  0  0  0  0  0  0  0  0
    6.6001    2.3678    0.0000 C   0  0  0  0  0  0  0  0  0
    3.7422    2.3678    0.0000 C   0  0  0  0  0  0  0  0  0
    3.0277    1.9553    0.0000 C   0  0  0  0  0  0  0  0  0
    3.0277    1.1303    0.0000 C   0  0  0  0  0  0  0  0  0
  1  2  1  0  0  0  0
  1 20  1  0  0  0  0
  2  3  1  0  0  0  0
  3  4  1  0  0  0  0
  4  5  1  0  0  0  0
  4  9  1  0  0  0  0
  5  6  1  0  0  0  0
  6  7  1  0  0  0  0
  7  8  1  0  0  0  0
  7 10  1  0  0  0  0
  8  9  1  0  0  0  0
 10 11  1  0  0  0  0
 11 12  1  0  0  0  0
 11 19  2  0  0  0  0
 12 13  2  0  0  0  0
 13 14  1  0  0  0  0
 14 15  1  0  0  0  0
 14 18  1  0  0  0  0
 15 16  1  0  0  0  0
 16 17  2  0  0  0  0
 17 18  1  0  0  0  0
 18 19  1  0  0  0  0
 20 21  4  0  0  0  0
 20 30  4  0  0  0  0
 21 22  4  0  0  0  0
 21 26  4  0  0  0  0
 22 23  4  0  0  0  0
 22 28  4  0  0  0  0
 23 24  4  0  0  0  0
 24 25  4  0  0  0  0
 24 27  1  0  0  0  0
 25 26  4  0  0  0  0
 28 29  4  0  0  0  0
 29 30  4  0  0  0  0
M  END
>  <Name_Molregno>
321920

>  <5-HT1A>
6

>  <5-HT1B>
6.8

>  <5-HT1D>
8.5

$$$$
321927
  Marvin  02231216192D 0   1.00000     0.00000     0

 32 36  0  0  0  0  0  0  0  0999 V2000
    0.7182   -1.6466    0.0000 O   0  0  0  0  0  0  0  0  0
    1.4327   -1.2341    0.0000 N   0  0  0  0  0  0  0  0  0
    2.1472   -1.6466    0.0000 C   0  0  0  0  0  0  0  0  0
    2.1472   -2.4716    0.0000 C   0  0  0  0  0  0  0  0  0
    1.4327   -2.8841    0.0000 C   0  0  0  0  0  0  0  0  0
    1.4327   -3.7091    0.0000 C   0  0  0  0  0  0  0  0  0
    0.7182   -4.1216    0.0000 C   0  0  0  0  0  0  0  0  0
    0.7182   -4.9466    0.0000 O   0  0  0  0  0  0  0  0  0
    0.0038   -3.7091    0.0000 C   0  0  0  0  0  0  0  0  0
    0.0038   -2.8841    0.0000 C   0  0  0  0  0  0  0  0  0
    0.7182   -2.4716    0.0000 C   0  0  0  0  0  0  0  0  0
    1.4327   -0.4091    0.0000 C   0  0  0  0  0  0  0  0  0
    2.1472    0.0034    0.0000 N   0  0  0  0  0  0  0  0  0
    2.1472    0.8284    0.0000 C   0  0  0  0  0  0  0  0  0
    2.8616    1.2409    0.0000 C   0  0  0  0  0  0  0  0  0
    3.5761    0.8284    0.0000 N   0  0  0  0  0  0  0  0  0
    3.5761    0.0034    0.0000 C   0  0  0  0  0  0  0  0  0
    2.8616   -0.4091    0.0000 C   0  0  0  0  0  0  0  0  0
    4.2906    1.2409    0.0000 C   0  0  0  0  0  0  0  0  0
    4.2906    2.0659    0.0000 C   0  0  0  0  0  0  0  0  0
    5.0051    2.4784    0.0000 O   0  0  0  0  0  0  0  0  0
    5.0051    3.3034    0.0000 C   0  0  0  0  0  0  0  0  0
    5.7195    3.7159    0.0000 C   0  0  0  0  0  0  0  0  0
    5.7195    4.5409    0.0000 C   0  0  0  0  0  0  0  0  0
    6.4340    4.9534    0.0000 N   0  0  0  0  0  0  0  0  0
    7.1485    4.5409    0.0000 C   0  0  0  0  0  0  0  0  0
    7.1485    3.7159    0.0000 C   0  0  0  0  0  0  0  0  0
    6.4340    3.3034    0.0000 C   0  0  0  0  0  0  0  0  0
    7.8629    4.9534    0.0000 C   0  0  0  0  0  0  0  0  0
    5.0051    4.9534    0.0000 C   0  0  0  0  0  0  0  0  0
    4.2906    4.5409    0.0000 C   0  0  0  0  0  0  0  0  0
    4.2906    3.7159    0.0000 C   0  0  0  0  0  0  0  0  0
  1  2  1  0  0  0  0
  1 11  1  0  0  0  0
  2  3  1  0  0  0  0
  2 12  1  0  0  0  0
  3  4  2  0  0  0  0
  4  5  1  0  0  0  0
  5  6  2  0  0  0  0
  5 11  1  0  0  0  0
  6  7  1  0  0  0  0
  7  8  2  0  0  0  0
  7  9  1  0  0  0  0
  9 10  1  0  0  0  0
 10 11  2  0  0  0  0
 12 13  1  0  0  0  0
 13 14  1  0  0  0  0
 13 18  1  0  0  0  0
 14 15  1  0  0  0  0
 15 16  1  0  0  0  0
 16 17  1  0  0  0  0
 16 19  1  0  0  0  0
 17 18  1  0  0  0  0
 19 20  1  0  0  0  0
 20 21  1  0  0  0  0
 21 22  1  0  0  0  0
 22 23  4  0  0  0  0
 22 32  4  0  0  0  0
 23 24  4  0  0  0  0
 23 28  4  0  0  0  0
 24 25  4  0  0  0  0
 24 30  4  0  0  0  0
 25 26  4  0  0  0  0
 26 27  4  0  0  0  0
 26 29  1  0  0  0  0
 27 28  4  0  0  0  0
 30 31  4  0  0  0  0
 31 32  4  0  0  0  0
M  END
>  <Name_Molregno>
321927

>  <5-HT1A>
7.2

>  <5-HT1B>
7

>  <5-HT1D>
8

$$$$
321947
  Marvin  02231216192D 0   1.00000     0.00000     0

 31 34  0  0  0  0  0  0  0  0999 V2000
    4.1410    1.2305    0.0000 O   0  0  0  0  0  0  0  0  0
    3.4265    0.8180    0.0000 C   0  0  0  0  0  0  0  0  0
    3.4265   -0.0070    0.0000 C   0  0  0  0  0  0  0  0  0
    2.7120   -0.4195    0.0000 N   0  0  0  0  0  0  0  0  0
    2.7120   -1.2445    0.0000 C   0  0  0  0  0  0  0  0  0
    1.9976   -1.6570    0.0000 C   0  0  0  0  0  0  0  0  0
    1.2831   -1.2445    0.0000 N   0  0  0  0  0  0  0  0  0
    1.2831   -0.4195    0.0000 C   0  0  0  0  0  0  0  0  0
    1.9976   -0.0070    0.0000 C   0  0  0  0  0  0  0  0  0
    0.5686   -1.6570    0.0000 C   0  0  0  0  0  0  0  0  0
   -0.1459   -1.2445    0.0000 C   0  0  0  0  0  0  0  0  0
   -0.8603   -1.6570    0.0000 C   0  0  0  0  0  0  0  0  0
   -1.5748   -1.2445    0.0000 C   0  0  0  0  0  0  0  0  0
   -2.2893   -1.6570    0.0000 N   0  3  0  0  0  0  0  0  0
   -3.0037   -1.2445    0.0000 O   0  5  0  0  0  0  0  0  0
   -2.2893   -2.4820    0.0000 O   0  5  0  0  0  0  0  0  0
   -1.5748   -0.4195    0.0000 C   0  0  0  0  0  0  0  0  0
   -0.8603   -0.0070    0.0000 C   0  0  0  0  0  0  0  0  0
   -0.1459   -0.4195    0.0000 C   0  0  0  0  0  0  0  0  0
   -2.2893   -0.0070    0.0000 C   0  0  0  0  0  0  0  0  0
    4.1410    2.0555    0.0000 C   0  0  0  0  0  0  0  0  0
    4.8554    2.4680    0.0000 C   0  0  0  0  0  0  0  0  0
    4.8554    3.2930    0.0000 C   0  0  0  0  0  0  0  0  0
    5.5699    3.7055    0.0000 N   0  0  0  0  0  0  0  0  0
    6.2844    3.2930    0.0000 C   0  0  0  0  0  0  0  0  0
    6.2844    2.4680    0.0000 C   0  0  0  0  0  0  0  0  0
    5.5699    2.0555    0.0000 C   0  0  0  0  0  0  0  0  0
    6.9989    3.7055    0.0000 C   0  0  0  0  0  0  0  0  0
    4.1410    3.7055    0.0000 C   0  0  0  0  0  0  0  0  0
    3.4265    3.2930    0.0000 C   0  0  0  0  0  0  0  0  0
    3.4265    2.4680    0.0000 C   0  0  0  0  0  0  0  0  0
  1  2  1  0  0  0  0
  1 21  1  0  0  0  0
  2  3  1  0  0  0  0
  3  4  1  0  0  0  0
  4  5  1  0  0  0  0
  4  9  1  0  0  0  0
  5  6  1  0  0  0  0
  6  7  1  0  0  0  0
  7  8  1  0  0  0  0
  7 10  1  0  0  0  0
  8  9  1  0  0  0  0
 10 11  1  0  0  0  0
 11 12  4  0  0  0  0
 11 19  4  0  0  0  0
 12 13  4  0  0  0  0
 13 14  1  0  0  0  0
 13 17  4  0  0  0  0
 14 15  1  0  0  0  0
 14 16  1  0  0  0  0
 17 18  4  0  0  0  0
 17 20  1  0  0  0  0
 18 19  4  0  0  0  0
 21 22  4  0  0  0  0
 21 31  4  0  0  0  0
 22 23  4  0  0  0  0
 22 27  4  0  0  0  0
 23 24  4  0  0  0  0
 23 29  4  0  0  0  0
 24 25  4  0  0  0  0
 25 26  4  0  0  0  0
 25 28  1  0  0  0  0
 26 27  4  0  0  0  0
 29 30  4  0  0  0  0
 30 31  4  0  0  0  0
M  CHG  3  14   1  15  -1  16  -1
M  END
>  <Name_Molregno>
321947

>  <5-HT1A>
7.4

>  <5-HT1B>
7.1

>  <5-HT1D>
8.7

$$$$
321977
  Marvin  02231216192D 0   1.00000     0.00000     0

 31 34  0  0  0  0  0  0  0  0999 V2000
    4.1410    1.2305    0.0000 O   0  0  0  0  0  0  0  0  0
    3.4265    0.8180    0.0000 C   0  0  0  0  0  0  0  0  0
    3.4265   -0.0070    0.0000 C   0  0  0  0  0  0  0  0  0
    2.7120   -0.4195    0.0000 N   0  0  0  0  0  0  0  0  0
    2.7120   -1.2445    0.0000 C   0  0  0  0  0  0  0  0  0
    1.9976   -1.6570    0.0000 C   0  0  0  0  0  0  0  0  0
    1.2831   -1.2445    0.0000 N   0  0  0  0  0  0  0  0  0
    1.2831   -0.4195    0.0000 C   0  0  0  0  0  0  0  0  0
    1.9976   -0.0070    0.0000 C   0  0  0  0  0  0  0  0  0
    0.5686   -1.6570    0.0000 C   0  0  0  0  0  0  0  0  0
   -0.1459   -1.2445    0.0000 C   0  0  0  0  0  0  0  0  0
   -0.8603   -1.6570    0.0000 C   0  0  0  0  0  0  0  0  0
   -1.5748   -1.2445    0.0000 C   0  0  0  0  0  0  0  0  0
   -2.2893   -1.6570    0.0000 N   0  3  0  0  0  0  0  0  0
   -3.0037   -1.2445    0.0000 O   0  5  0  0  0  0  0  0  0
   -2.2893   -2.4820    0.0000 O   0  5  0  0  0  0  0  0  0
   -1.5748   -0.4195    0.0000 C   0  0  0  0  0  0  0  0  0
   -2.2893   -0.0070    0.0000 O   0  0  0  0  0  0  0  0  0
   -0.8603   -0.0070    0.0000 C   0  0  0  0  0  0  0  0  0
   -0.1459   -0.4195    0.0000 C   0  0  0  0  0  0  0  0  0
    4.1410    2.0555    0.0000 C   0  0  0  0  0  0  0  0  0
    4.8554    2.4680    0.0000 C   0  0  0  0  0  0  0  0  0
    4.8554    3.2930    0.0000 C   0  0  0  0  0  0  0  0  0
    5.5699    3.7055    0.0000 N   0  0  0  0  0  0  0  0  0
    6.2844    3.2930    0.0000 C   0  0  0  0  0  0  0  0  0
    6.2844    2.4680    0.0000 C   0  0  0  0  0  0  0  0  0
    5.5699    2.0555    0.0000 C   0  0  0  0  0  0  0  0  0
    6.9989    3.7055    0.0000 C   0  0  0  0  0  0  0  0  0
    4.1410    3.7055    0.0000 C   0  0  0  0  0  0  0  0  0
    3.4265    3.2930    0.0000 C   0  0  0  0  0  0  0  0  0
    3.4265    2.4680    0.0000 C   0  0  0  0  0  0  0  0  0
  1  2  1  0  0  0  0
  1 21  1  0  0  0  0
  2  3  1  0  0  0  0
  3  4  1  0  0  0  0
  4  5  1  0  0  0  0
  4  9  1  0  0  0  0
  5  6  1  0  0  0  0
  6  7  1  0  0  0  0
  7  8  1  0  0  0  0
  7 10  1  0  0  0  0
  8  9  1  0  0  0  0
 10 11  1  0  0  0  0
 11 12  4  0  0  0  0
 11 20  4  0  0  0  0
 12 13  4  0  0  0  0
 13 14  1  0  0  0  0
 13 17  4  0  0  0  0
 14 15  1  0  0  0  0
 14 16  1  0  0  0  0
 17 18  1  0  0  0  0
 17 19  4  0  0  0  0
 19 20  4  0  0  0  0
 21 22  4  0  0  0  0
 21 31  4  0  0  0  0
 22 23  4  0  0  0  0
 22 27  4  0  0  0  0
 23 24  4  0  0  0  0
 23 29  4  0  0  0  0
 24 25  4  0  0  0  0
 25 26  4  0  0  0  0
 25 28  1  0  0  0  0
 26 27  4  0  0  0  0
 29 30  4  0  0  0  0
 30 31  4  0  0  0  0
M  CHG  3  14   1  15  -1  16  -1
M  END
>  <Name_Molregno>
321977

>  <5-HT1A>
6.1

>  <5-HT1B>
6.4

>  <5-HT1D>
8

$$$$
321985
  Marvin  02231216192D 0   1.00000     0.00000     0

 31 35  0  0  0  0  0  0  0  0999 V2000
    4.0403    1.1934    0.0000 O   0  0  0  0  0  0  0  0  0
    3.3258    0.7809    0.0000 C   0  0  0  0  0  0  0  0  0
    3.3258   -0.0441    0.0000 C   0  0  0  0  0  0  0  0  0
    2.6114   -0.4566    0.0000 N   0  0  0  0  0  0  0  0  0
    2.6114   -1.2816    0.0000 C   0  0  0  0  0  0  0  0  0
    1.8969   -1.6941    0.0000 C   0  0  0  0  0  0  0  0  0
    1.1824   -1.2816    0.0000 N   0  0  0  0  0  0  0  0  0
    1.1824   -0.4566    0.0000 C   0  0  0  0  0  0  0  0  0
    1.8969   -0.0441    0.0000 C   0  0  0  0  0  0  0  0  0
    0.4679   -1.6941    0.0000 C   0  0  0  0  0  0  0  0  0
   -0.2465   -1.2816    0.0000 C   0  0  0  0  0  0  0  0  0
   -0.9610   -1.6941    0.0000 C   0  0  0  0  0  0  0  0  0
   -0.9610   -2.5191    0.0000 N   0  0  0  0  0  0  0  0  0
   -1.6755   -2.9316    0.0000 C   0  0  0  0  0  0  0  0  0
   -2.3899   -2.5191    0.0000 C   0  0  0  0  0  0  0  0  0
   -2.3899   -1.6941    0.0000 C   0  0  0  0  0  0  0  0  0
   -1.6755   -1.2816    0.0000 C   0  0  0  0  0  0  0  0  0
   -1.6755   -0.4566    0.0000 C   0  0  0  0  0  0  0  0  0
   -0.9610   -0.0441    0.0000 C   0  0  0  0  0  0  0  0  0
   -0.2465   -0.4566    0.0000 C   0  0  0  0  0  0  0  0  0
    4.0403    2.0184    0.0000 C   0  0  0  0  0  0  0  0  0
    4.7548    2.4309    0.0000 C   0  0  0  0  0  0  0  0  0
    4.7548    3.2559    0.0000 C   0  0  0  0  0  0  0  0  0
    5.4692    3.6684    0.0000 N   0  0  0  0  0  0  0  0  0
    6.1837    3.2559    0.0000 C   0  0  0  0  0  0  0  0  0
    6.1837    2.4309    0.0000 C   0  0  0  0  0  0  0  0  0
    5.4692    2.0184    0.0000 C   0  0  0  0  0  0  0  0  0
    6.8982    3.6684    0.0000 C   0  0  0  0  0  0  0  0  0
    4.0403    3.6684    0.0000 C   0  0  0  0  0  0  0  0  0
    3.3258    3.2559    0.0000 C   0  0  0  0  0  0  0  0  0
    3.3258    2.4309    0.0000 C   0  0  0  0  0  0  0  0  0
  1  2  1  0  0  0  0
  1 21  1  0  0  0  0
  2  3  1  0  0  0  0
  3  4  1  0  0  0  0
  4  5  1  0  0  0  0
  4  9  1  0  0  0  0
  5  6  1  0  0  0  0
  6  7  1  0  0  0  0
  7  8  1  0  0  0  0
  7 10  1  0  0  0  0
  8  9  1  0  0  0  0
 10 11  1  0  0  0  0
 11 12  4  0  0  0  0
 11 20  4  0  0  0  0
 12 13  4  0  0  0  0
 12 17  4  0  0  0  0
 13 14  4  0  0  0  0
 14 15  4  0  0  0  0
 15 16  4  0  0  0  0
 16 17  4  0  0  0  0
 17 18  4  0  0  0  0
 18 19  4  0  0  0  0
 19 20  4  0  0  0  0
 21 22  4  0  0  0  0
 21 31  4  0  0  0  0
 22 23  4  0  0  0  0
 22 27  4  0  0  0  0
 23 24  4  0  0  0  0
 23 29  4  0  0  0  0
 24 25  4  0  0  0  0
 25 26  4  0  0  0  0
 25 28  1  0  0  0  0
 26 27  4  0  0  0  0
 29 30  4  0  0  0  0
 30 31  4  0  0  0  0
M  END
>  <Name_Molregno>
321985

>  <5-HT1A>
6.5

>  <5-HT1B>
6.7

>  <5-HT1D>
9.1

>  <5-HT1E>
5

>  <5-HT2A>
5.6

>  <5-HT2C>
5.5

>  <5-HT5>
5.5

>  <5-HT6>
5

>  <5-HT7>
6.3

>  <Alpha-1B>
6

>  <Beta-2>
5.7

>  <DOPAMINE D2>
5.5

>  <DOPAMINE D3>
6

>  <DOPAMINE D4>
5

$$$$
322070
  Marvin  02231216192D 0   1.00000     0.00000     0

 29 32  0  0  0  0  0  0  0  0999 V2000
    3.5342   -2.2479    0.0000 Cl  0  0  0  0  0  0  0  0  0
    2.8197   -2.6604    0.0000 C   0  0  0  0  0  0  0  0  0
    2.8197   -3.4854    0.0000 C   0  0  0  0  0  0  0  0  0
    2.1052   -3.8979    0.0000 C   0  0  0  0  0  0  0  0  0
    1.3908   -3.4854    0.0000 C   0  0  0  0  0  0  0  0  0
    1.3908   -2.6604    0.0000 C   0  0  0  0  0  0  0  0  0
    0.6763   -2.2479    0.0000 Cl  0  0  0  0  0  0  0  0  0
    2.1052   -2.2479    0.0000 C   0  0  0  0  0  0  0  0  0
    2.1052   -1.4229    0.0000 C   0  0  0  0  0  0  0  0  0
    2.8197   -1.0104    0.0000 N   0  0  0  0  0  0  0  0  0
    2.8197   -0.1854    0.0000 C   0  0  0  0  0  0  0  0  0
    3.5342    0.2271    0.0000 C   0  0  0  0  0  0  0  0  0
    4.2487   -0.1854    0.0000 N   0  0  0  0  0  0  0  0  0
    4.2487   -1.0104    0.0000 C   0  0  0  0  0  0  0  0  0
    3.5342   -1.4229    0.0000 C   0  0  0  0  0  0  0  0  0
    4.9631    0.2271    0.0000 C   0  0  0  0  0  0  0  0  0
    4.9631    1.0521    0.0000 C   0  0  0  0  0  0  0  0  0
    5.6776    1.4646    0.0000 O   0  0  0  0  0  0  0  0  0
    5.6776    2.2896    0.0000 C   0  0  0  0  0  0  0  0  0
    6.3921    2.7021    0.0000 C   0  0  0  0  0  0  0  0  0
    6.3921    3.5271    0.0000 C   0  0  0  0  0  0  0  0  0
    7.1065    3.9396    0.0000 N   0  0  0  0  0  0  0  0  0
    7.8210    3.5271    0.0000 C   0  0  0  0  0  0  0  0  0
    7.8210    2.7021    0.0000 C   0  0  0  0  0  0  0  0  0
    7.1065    2.2896    0.0000 C   0  0  0  0  0  0  0  0  0
    8.5355    3.9396    0.0000 C   0  0  0  0  0  0  0  0  0
    5.6776    3.9396    0.0000 C   0  0  0  0  0  0  0  0  0
    4.9631    3.5271    0.0000 C   0  0  0  0  0  0  0  0  0
    4.9631    2.7021    0.0000 C   0  0  0  0  0  0  0  0  0
  1  2  1  0  0  0  0
  2  3  4  0  0  0  0
  2  8  4  0  0  0  0
  3  4  4  0  0  0  0
  4  5  4  0  0  0  0
  5  6  4  0  0  0  0
  6  7  1  0  0  0  0
  6  8  4  0  0  0  0
  8  9  1  0  0  0  0
  9 10  1  0  0  0  0
 10 11  1  0  0  0  0
 10 15  1  0  0  0  0
 11 12  1  0  0  0  0
 12 13  1  0  0  0  0
 13 14  1  0  0  0  0
 13 16  1  0  0  0  0
 14 15  1  0  0  0  0
 16 17  1  0  0  0  0
 17 18  1  0  0  0  0
 18 19  1  0  0  0  0
 19 20  4  0  0  0  0
 19 29  4  0  0  0  0
 20 21  4  0  0  0  0
 20 25  4  0  0  0  0
 21 22  4  0  0  0  0
 21 27  4  0  0  0  0
 22 23  4  0  0  0  0
 23 24  4  0  0  0  0
 23 26  1  0  0  0  0
 24 25  4  0  0  0  0
 27 28  4  0  0  0  0
 28 29  4  0  0  0  0
M  END
>  <Name_Molregno>
322070

>  <5-HT1A>
5

>  <5-HT1B>
5

>  <5-HT1D>
5

$$$$
322111
  Marvin  02231216192D 0   1.00000     0.00000     0

 29 32  0  0  0  0  0  0  0  0999 V2000
    3.5063   -2.2395    0.0000 Cl  0  0  0  0  0  0  0  0  0
    2.7919   -2.6520    0.0000 C   0  0  0  0  0  0  0  0  0
    2.7919   -3.4770    0.0000 C   0  0  0  0  0  0  0  0  0
    2.0774   -3.8895    0.0000 C   0  0  0  0  0  0  0  0  0
    1.3629   -3.4770    0.0000 C   0  0  0  0  0  0  0  0  0
    0.6485   -3.8895    0.0000 Cl  0  0  0  0  0  0  0  0  0
    1.3629   -2.6520    0.0000 C   0  0  0  0  0  0  0  0  0
    2.0774   -2.2395    0.0000 C   0  0  0  0  0  0  0  0  0
    2.0774   -1.4145    0.0000 C   0  0  0  0  0  0  0  0  0
    2.7919   -1.0020    0.0000 N   0  0  0  0  0  0  0  0  0
    2.7919   -0.1770    0.0000 C   0  0  0  0  0  0  0  0  0
    3.5063    0.2355    0.0000 C   0  0  0  0  0  0  0  0  0
    4.2208   -0.1770    0.0000 N   0  0  0  0  0  0  0  0  0
    4.2208   -1.0020    0.0000 C   0  0  0  0  0  0  0  0  0
    3.5063   -1.4145    0.0000 C   0  0  0  0  0  0  0  0  0
    4.9353    0.2355    0.0000 C   0  0  0  0  0  0  0  0  0
    4.9353    1.0605    0.0000 C   0  0  0  0  0  0  0  0  0
    5.6497    1.4730    0.0000 O   0  0  0  0  0  0  0  0  0
    5.6497    2.2980    0.0000 C   0  0  0  0  0  0  0  0  0
    6.3642    2.7105    0.0000 C   0  0  0  0  0  0  0  0  0
    6.3642    3.5355    0.0000 C   0  0  0  0  0  0  0  0  0
    7.0787    3.9480    0.0000 N   0  0  0  0  0  0  0  0  0
    7.7932    3.5355    0.0000 C   0  0  0  0  0  0  0  0  0
    7.7932    2.7105    0.0000 C   0  0  0  0  0  0  0  0  0
    7.0787    2.2980    0.0000 C   0  0  0  0  0  0  0  0  0
    8.5076    3.9480    0.0000 C   0  0  0  0  0  0  0  0  0
    5.6497    3.9480    0.0000 C   0  0  0  0  0  0  0  0  0
    4.9353    3.5355    0.0000 C   0  0  0  0  0  0  0  0  0
    4.9353    2.7105    0.0000 C   0  0  0  0  0  0  0  0  0
  1  2  1  0  0  0  0
  2  3  4  0  0  0  0
  2  8  4  0  0  0  0
  3  4  4  0  0  0  0
  4  5  4  0  0  0  0
  5  6  1  0  0  0  0
  5  7  4  0  0  0  0
  7  8  4  0  0  0  0
  8  9  1  0  0  0  0
  9 10  1  0  0  0  0
 10 11  1  0  0  0  0
 10 15  1  0  0  0  0
 11 12  1  0  0  0  0
 12 13  1  0  0  0  0
 13 14  1  0  0  0  0
 13 16  1  0  0  0  0
 14 15  1  0  0  0  0
 16 17  1  0  0  0  0
 17 18  1  0  0  0  0
 18 19  1  0  0  0  0
 19 20  4  0  0  0  0
 19 29  4  0  0  0  0
 20 21  4  0  0  0  0
 20 25  4  0  0  0  0
 21 22  4  0  0  0  0
 21 27  4  0  0  0  0
 22 23  4  0  0  0  0
 23 24  4  0  0  0  0
 23 26  1  0  0  0  0
 24 25  4  0  0  0  0
 27 28  4  0  0  0  0
 28 29  4  0  0  0  0
M  END
>  <Name_Molregno>
322111

>  <5-HT1A>
7.1

>  <5-HT1B>
6.2

>  <5-HT1D>
8.4

$$$$
322122
  Marvin  02231216192D 0   1.00000     0.00000     0

 36 41  0  0  0  0  0  0  0  0999 V2000
    4.7007   -2.6022    0.0000 Cl  0  0  0  0  0  0  0  0  0
    4.1486   -1.9891    0.0000 C   0  0  0  0  0  0  0  0  0
    3.3417   -2.1607    0.0000 C   0  0  0  0  0  0  0  0  0
    2.7896   -1.5476    0.0000 C   0  0  0  0  0  0  0  0  0
    1.9646   -1.5476    0.0000 C   0  0  0  0  0  0  0  0  0
    1.7097   -0.7629    0.0000 C   0  0  0  0  0  0  0  0  0
    2.3771   -0.2780    0.0000 N   0  0  0  0  0  0  0  0  0
    3.0446   -0.7629    0.0000 C   0  0  0  0  0  0  0  0  0
    3.8515   -0.5914    0.0000 C   0  0  0  0  0  0  0  0  0
    4.4036   -1.2045    0.0000 C   0  0  0  0  0  0  0  0  0
    5.2105   -1.0330    0.0000 N   0  0  0  0  0  0  0  0  0
    5.4655   -0.2484    0.0000 C   0  0  0  0  0  0  0  0  0
    6.2724   -0.0768    0.0000 C   0  0  0  0  0  0  0  0  0
    6.8245   -0.6899    0.0000 N   0  0  0  0  0  0  0  0  0
    6.5695   -1.4745    0.0000 C   0  0  0  0  0  0  0  0  0
    5.7626   -1.6461    0.0000 C   0  0  0  0  0  0  0  0  0
    7.6315   -0.5184    0.0000 C   0  0  0  0  0  0  0  0  0
    2.3771    0.5470    0.0000 C   0  0  0  0  0  0  0  0  0
    1.6626    0.9595    0.0000 O   0  0  0  0  0  0  0  0  0
    3.0916    0.9595    0.0000 N   0  0  0  0  0  0  0  0  0
    3.0916    1.7845    0.0000 C   0  0  0  0  0  0  0  0  0
    3.8061    2.1970    0.0000 C   0  0  0  0  0  0  0  0  0
    3.8061    3.0220    0.0000 C   0  0  0  0  0  0  0  0  0
    4.5205    3.4345    0.0000 C   0  0  0  0  0  0  0  0  0
    5.2350    3.0220    0.0000 C   0  0  0  0  0  0  0  0  0
    5.2350    2.1970    0.0000 C   0  0  0  0  0  0  0  0  0
    4.5205    1.7845    0.0000 C   0  0  0  0  0  0  0  0  0
    3.0916    3.4345    0.0000 C   0  0  0  0  0  0  0  0  0
    2.3771    3.0220    0.0000 C   0  0  0  0  0  0  0  0  0
    2.3771    2.1970    0.0000 C   0  0  0  0  0  0  0  0  0
    3.0916    4.2595    0.0000 C   0  0  0  0  0  0  0  0  0
    2.3771    4.6720    0.0000 C   0  0  0  0  0  0  0  0  0
    2.3771    5.4970    0.0000 C   0  0  0  0  0  0  0  0  0
    3.0916    5.9095    0.0000 N   0  0  0  0  0  0  0  0  0
    3.8061    5.4970    0.0000 C   0  0  0  0  0  0  0  0  0
    3.8061    4.6720    0.0000 C   0  0  0  0  0  0  0  0  0
  1  2  1  0  0  0  0
  2  3  4  0  0  0  0
  2 10  4  0  0  0  0
  3  4  4  0  0  0  0
  4  5  1  0  0  0  0
  4  8  4  0  0  0  0
  5  6  1  0  0  0  0
  6  7  1  0  0  0  0
  7  8  1  0  0  0  0
  7 18  1  0  0  0  0
  8  9  4  0  0  0  0
  9 10  4  0  0  0  0
 10 11  1  0  0  0  0
 11 12  1  0  0  0  0
 11 16  1  0  0  0  0
 12 13  1  0  0  0  0
 13 14  1  0  0  0  0
 14 15  1  0  0  0  0
 14 17  1  0  0  0  0
 15 16  1  0  0  0  0
 18 19  2  0  0  0  0
 18 20  1  0  0  0  0
 20 21  1  0  0  0  0
 21 22  4  0  0  0  0
 21 30  4  0  0  0  0
 22 23  4  0  0  0  0
 22 27  4  0  0  0  0
 23 24  4  0  0  0  0
 23 28  4  0  0  0  0
 24 25  4  0  0  0  0
 25 26  4  0  0  0  0
 26 27  4  0  0  0  0
 28 29  4  0  0  0  0
 28 31  1  0  0  0  0
 29 30  4  0  0  0  0
 31 32  4  0  0  0  0
 31 36  4  0  0  0  0
 32 33  4  0  0  0  0
 33 34  4  0  0  0  0
 34 35  4  0  0  0  0
 35 36  4  0  0  0  0
M  END
>  <Name_Molregno>
322122

>  <5-HT1A>
8.2

>  <5-HT1B>
8.25

>  <5-HT1D>
8.85

$$$$
322148
  Marvin  02231216192D 0   1.00000     0.00000     0

 31 35  0  0  0  0  0  0  0  0999 V2000
    3.8098    0.0042    0.0000 O   0  0  0  0  0  0  0  0  0
    3.0953   -0.4083    0.0000 C   0  0  0  0  0  0  0  0  0
    3.0953   -1.2333    0.0000 C   0  0  0  0  0  0  0  0  0
    2.3809   -1.6458    0.0000 N   0  0  0  0  0  0  0  0  0
    2.3809   -2.4708    0.0000 C   0  0  0  0  0  0  0  0  0
    1.6664   -2.8833    0.0000 C   0  0  0  0  0  0  0  0  0
    0.9519   -2.4708    0.0000 N   0  0  0  0  0  0  0  0  0
    0.9519   -1.6458    0.0000 C   0  0  0  0  0  0  0  0  0
    1.6664   -1.2333    0.0000 C   0  0  0  0  0  0  0  0  0
    0.2375   -2.8833    0.0000 C   0  0  0  0  0  0  0  0  0
   -0.4770   -2.4708    0.0000 C   0  0  0  0  0  0  0  0  0
   -0.4770   -1.6458    0.0000 C   0  0  0  0  0  0  0  0  0
   -1.1915   -1.2333    0.0000 C   0  0  0  0  0  0  0  0  0
   -1.1915   -0.4083    0.0000 N   0  0  0  0  0  0  0  0  0
   -0.4770    0.0042    0.0000 C   0  0  0  0  0  0  0  0  0
    0.2375   -0.4083    0.0000 N   0  0  0  0  0  0  0  0  0
    0.2375   -1.2333    0.0000 C   0  0  0  0  0  0  0  0  0
   -1.9059   -1.6458    0.0000 C   0  0  0  0  0  0  0  0  0
   -1.9059   -2.4708    0.0000 C   0  0  0  0  0  0  0  0  0
   -1.1915   -2.8833    0.0000 C   0  0  0  0  0  0  0  0  0
    3.8098    0.8292    0.0000 C   0  0  0  0  0  0  0  0  0
    4.5243    1.2417    0.0000 C   0  0  0  0  0  0  0  0  0
    4.5243    2.0667    0.0000 C   0  0  0  0  0  0  0  0  0
    5.2388    2.4792    0.0000 N   0  0  0  0  0  0  0  0  0
    5.9532    2.0667    0.0000 C   0  0  0  0  0  0  0  0  0
    5.9532    1.2417    0.0000 C   0  0  0  0  0  0  0  0  0
    5.2388    0.8292    0.0000 C   0  0  0  0  0  0  0  0  0
    6.6677    2.4792    0.0000 C   0  0  0  0  0  0  0  0  0
    3.8098    2.4792    0.0000 C   0  0  0  0  0  0  0  0  0
    3.0953    2.0667    0.0000 C   0  0  0  0  0  0  0  0  0
    3.0953    1.2417    0.0000 C   0  0  0  0  0  0  0  0  0
  1  2  1  0  0  0  0
  1 21  1  0  0  0  0
  2  3  1  0  0  0  0
  3  4  1  0  0  0  0
  4  5  1  0  0  0  0
  4  9  1  0  0  0  0
  5  6  1  0  0  0  0
  6  7  1  0  0  0  0
  7  8  1  0  0  0  0
  7 10  1  0  0  0  0
  8  9  1  0  0  0  0
 10 11  1  0  0  0  0
 11 12  4  0  0  0  0
 11 20  4  0  0  0  0
 12 13  4  0  0  0  0
 12 17  4  0  0  0  0
 13 14  4  0  0  0  0
 13 18  4  0  0  0  0
 14 15  4  0  0  0  0
 15 16  4  0  0  0  0
 16 17  4  0  0  0  0
 18 19  4  0  0  0  0
 19 20  4  0  0  0  0
 21 22  4  0  0  0  0
 21 31  4  0  0  0  0
 22 23  4  0  0  0  0
 22 27  4  0  0  0  0
 23 24  4  0  0  0  0
 23 29  4  0  0  0  0
 24 25  4  0  0  0  0
 25 26  4  0  0  0  0
 25 28  1  0  0  0  0
 26 27  4  0  0  0  0
 29 30  4  0  0  0  0
 30 31  4  0  0  0  0
M  END
>  <Name_Molregno>
322148

>  <5-HT1A>
6.4

>  <5-HT1B>
6.5

>  <5-HT1D>
8.6

$$$$
322170
  Marvin  02231216192D 0   1.00000     0.00000     0

 31 34  0  0  0  0  0  0  0  0999 V2000
    2.5646   -5.2263    0.0000 F   0  0  0  0  0  0  0  0  0
    2.5646   -4.4013    0.0000 C   0  0  0  0  0  0  0  0  0
    1.8501   -3.9888    0.0000 C   0  0  0  0  0  0  0  0  0
    1.8501   -3.1638    0.0000 C   0  0  0  0  0  0  0  0  0
    2.5646   -2.7513    0.0000 C   0  0  0  0  0  0  0  0  0
    3.2791   -3.1638    0.0000 C   0  0  0  0  0  0  0  0  0
    3.2791   -3.9888    0.0000 C   0  0  0  0  0  0  0  0  0
    3.9936   -4.4013    0.0000 N   0  3  0  0  0  0  0  0  0
    4.7080   -3.9888    0.0000 O   0  5  0  0  0  0  0  0  0
    3.9936   -5.2263    0.0000 O   0  5  0  0  0  0  0  0  0
    2.5646   -1.9263    0.0000 C   0  0  0  0  0  0  0  0  0
    3.2791   -1.5138    0.0000 N   0  0  0  0  0  0  0  0  0
    3.2791   -0.6888    0.0000 C   0  0  0  0  0  0  0  0  0
    3.9936   -0.2763    0.0000 C   0  0  0  0  0  0  0  0  0
    4.7080   -0.6888    0.0000 N   0  0  0  0  0  0  0  0  0
    4.7080   -1.5138    0.0000 C   0  0  0  0  0  0  0  0  0
    3.9936   -1.9263    0.0000 C   0  0  0  0  0  0  0  0  0
    5.4225   -0.2763    0.0000 C   0  0  0  0  0  0  0  0  0
    5.4225    0.5487    0.0000 C   0  0  0  0  0  0  0  0  0
    6.1370    0.9612    0.0000 O   0  0  0  0  0  0  0  0  0
    6.1370    1.7862    0.0000 C   0  0  0  0  0  0  0  0  0
    6.8514    2.1987    0.0000 C   0  0  0  0  0  0  0  0  0
    6.8514    3.0237    0.0000 C   0  0  0  0  0  0  0  0  0
    7.5659    3.4362    0.0000 N   0  0  0  0  0  0  0  0  0
    8.2804    3.0237    0.0000 C   0  0  0  0  0  0  0  0  0
    8.2804    2.1987    0.0000 C   0  0  0  0  0  0  0  0  0
    7.5659    1.7862    0.0000 C   0  0  0  0  0  0  0  0  0
    8.9948    3.4362    0.0000 C   0  0  0  0  0  0  0  0  0
    6.1370    3.4362    0.0000 C   0  0  0  0  0  0  0  0  0
    5.4225    3.0237    0.0000 C   0  0  0  0  0  0  0  0  0
    5.4225    2.1987    0.0000 C   0  0  0  0  0  0  0  0  0
  1  2  1  0  0  0  0
  2  3  4  0  0  0  0
  2  7  4  0  0  0  0
  3  4  4  0  0  0  0
  4  5  4  0  0  0  0
  5  6  4  0  0  0  0
  5 11  1  0  0  0  0
  6  7  4  0  0  0  0
  7  8  1  0  0  0  0
  8  9  1  0  0  0  0
  8 10  1  0  0  0  0
 11 12  1  0  0  0  0
 12 13  1  0  0  0  0
 12 17  1  0  0  0  0
 13 14  1  0  0  0  0
 14 15  1  0  0  0  0
 15 16  1  0  0  0  0
 15 18  1  0  0  0  0
 16 17  1  0  0  0  0
 18 19  1  0  0  0  0
 19 20  1  0  0  0  0
 20 21  1  0  0  0  0
 21 22  4  0  0  0  0
 21 31  4  0  0  0  0
 22 23  4  0  0  0  0
 22 27  4  0  0  0  0
 23 24  4  0  0  0  0
 23 29  4  0  0  0  0
 24 25  4  0  0  0  0
 25 26  4  0  0  0  0
 25 28  1  0  0  0  0
 26 27  4  0  0  0  0
 29 30  4  0  0  0  0
 30 31  4  0  0  0  0
M  CHG  3   8   1   9  -1  10  -1
M  END
>  <Name_Molregno>
322170

>  <5-HT1A>
6.3

>  <5-HT1B>
6.6

>  <5-HT1D>
8.1

$$$$
326709
  Marvin  02231216192D 0   1.00000     0.00000     0

 40 45  0  0  1  0  0  0  0  0999 V2000
   -5.0135   -2.6064    0.0000 O   0  0  0  0  0  0  0  0  0
   -4.4614   -3.2195    0.0000 C   0  0  0  0  0  0  0  0  0
   -4.7585   -1.8218    0.0000 C   0  0  0  0  0  0  0  0  0
   -5.3106   -1.2087    0.0000 C   0  0  0  0  0  0  0  0  0
   -5.0556   -0.4241    0.0000 C   0  0  0  0  0  0  0  0  0
   -5.4681    0.2904    0.0000 C   0  0  0  0  0  0  0  0  0
   -4.9161    0.9035    0.0000 C   0  0  0  0  0  0  0  0  0
   -4.1624    0.5679    0.0000 N   0  0  0  0  0  0  0  0  0
   -4.2486   -0.2525    0.0000 C   0  0  0  0  0  0  0  0  0
   -3.6966   -0.8656    0.0000 C   0  0  0  0  0  0  0  0  0
   -3.9515   -1.6503    0.0000 C   0  0  0  0  0  0  0  0  0
   -3.3995   -2.2633    0.0000 N   0  0  0  0  0  0  0  0  0
   -2.5925   -2.0918    0.0000 C   0  0  0  0  0  0  0  0  0
   -2.0405   -2.7049    0.0000 C   0  0  0  0  0  0  0  0  0
   -2.2955   -3.4895    0.0000 N   0  0  0  0  0  0  0  0  0
   -1.7434   -4.1026    0.0000 C   0  0  0  0  0  0  0  0  0
   -1.9984   -4.8872    0.0000 C   0  0  0  0  0  0  0  0  0
   -3.1024   -3.6611    0.0000 C   0  0  0  0  0  0  0  0  0
   -3.6545   -3.0480    0.0000 C   0  0  0  0  0  0  0  0  0
   -3.3574   -4.4457    0.0000 C   0  0  0  0  0  0  0  0  0
   -1.2335   -2.5334    0.0000 C   0  0  0  0  0  0  0  0  0
   -3.4479    0.9804    0.0000 C   0  0  0  0  0  0  0  0  0
   -2.7335    0.5679    0.0000 O   0  0  0  0  0  0  0  0  0
   -3.4479    1.8054    0.0000 C   0  0  0  0  0  0  0  0  0
   -2.7335    2.2179    0.0000 C   0  0  0  0  0  0  0  0  0
   -2.7335    3.0429    0.0000 C   0  0  0  0  0  0  0  0  0
   -2.0190    3.4554    0.0000 C   0  0  0  0  0  0  0  0  0
   -1.3045    3.0429    0.0000 C   0  0  0  0  0  0  0  0  0
   -1.3045    2.2179    0.0000 C   0  0  0  0  0  0  0  0  0
   -2.0190    1.8054    0.0000 C   0  0  0  0  0  0  0  0  0
   -3.4479    3.4554    0.0000 C   0  0  0  0  0  0  0  0  0
   -4.1624    3.0429    0.0000 C   0  0  0  0  0  0  0  0  0
   -4.1624    2.2179    0.0000 C   0  0  0  0  0  0  0  0  0
   -3.4479    4.2804    0.0000 C   0  0  0  0  0  0  0  0  0
   -4.1624    4.6929    0.0000 N   0  0  0  0  0  0  0  0  0
   -4.1624    5.5179    0.0000 C   0  0  0  0  0  0  0  0  0
   -3.4479    5.9304    0.0000 C   0  0  0  0  0  0  0  0  0
   -2.7335    5.5179    0.0000 C   0  0  0  0  0  0  0  0  0
   -2.7335    4.6929    0.0000 C   0  0  0  0  0  0  0  0  0
   -4.8769    5.9304    0.0000 C   0  0  0  0  0  0  0  0  0
  1  2  1  0  0  0  0
  1  3  1  0  0  0  0
  3  4  4  0  0  0  0
  3 11  4  0  0  0  0
  4  5  4  0  0  0  0
  5  6  1  0  0  0  0
  5  9  4  0  0  0  0
  6  7  1  0  0  0  0
  7  8  1  0  0  0  0
  8  9  1  0  0  0  0
  8 22  1  0  0  0  0
  9 10  4  0  0  0  0
 10 11  4  0  0  0  0
 11 12  1  0  0  0  0
 12 13  1  0  0  0  0
 12 19  1  0  0  0  0
 13 14  1  0  0  0  0
 14 15  1  0  0  0  0
 14 21  1  0  0  0  0
 15 16  1  0  0  0  0
 15 18  1  0  0  0  0
 16 17  1  0  0  0  0
 18 19  1  0  0  0  0
 18 20  1  0  0  0  0
 22 23  2  0  0  0  0
 22 24  1  0  0  0  0
 24 25  4  0  0  0  0
 24 33  4  0  0  0  0
 25 26  4  0  0  0  0
 25 30  4  0  0  0  0
 26 27  4  0  0  0  0
 26 31  4  0  0  0  0
 27 28  4  0  0  0  0
 28 29  4  0  0  0  0
 29 30  4  0  0  0  0
 31 32  4  0  0  0  0
 31 34  1  0  0  0  0
 32 33  4  0  0  0  0
 34 35  4  0  0  0  0
 34 39  4  0  0  0  0
 35 36  4  0  0  0  0
 36 37  4  0  0  0  0
 36 40  1  0  0  0  0
 37 38  4  0  0  0  0
 38 39  4  0  0  0  0
M  END
>  <Name_Molregno>
326709

>  <5-HT1A>
6.3

>  <5-HT1B>
8.4

>  <5-HT1D>
6.9

$$$$
326710
  Marvin  02231216192D 0   1.00000     0.00000     0

 41 46  0  0  1  0  0  0  0  0999 V2000
   -4.9423   -2.3873    0.0000 O   0  0  0  0  0  0  0  0  0
   -4.3903   -3.0004    0.0000 C   0  0  0  0  0  0  0  0  0
   -4.6874   -1.6027    0.0000 C   0  0  0  0  0  0  0  0  0
   -5.2394   -0.9896    0.0000 C   0  0  0  0  0  0  0  0  0
   -4.9845   -0.2050    0.0000 C   0  0  0  0  0  0  0  0  0
   -5.3970    0.5095    0.0000 C   0  0  0  0  0  0  0  0  0
   -4.8450    1.1226    0.0000 C   0  0  0  0  0  0  0  0  0
   -4.0913    0.7871    0.0000 N   0  0  0  0  0  0  0  0  0
   -4.1775   -0.0334    0.0000 C   0  0  0  0  0  0  0  0  0
   -3.6255   -0.6465    0.0000 C   0  0  0  0  0  0  0  0  0
   -3.8804   -1.4311    0.0000 C   0  0  0  0  0  0  0  0  0
   -3.3284   -2.0442    0.0000 N   0  0  0  0  0  0  0  0  0
   -2.5214   -1.8727    0.0000 C   0  0  0  0  0  0  0  0  0
   -1.9694   -2.4858    0.0000 C   0  0  0  0  0  0  0  0  0
   -2.2243   -3.2704    0.0000 N   0  0  0  0  0  0  0  0  0
   -1.6723   -3.8835    0.0000 C   0  0  0  0  0  0  0  0  0
   -1.9272   -4.6681    0.0000 C   0  0  0  0  0  0  0  0  0
   -1.3752   -5.2812    0.0000 C   0  0  0  0  0  0  0  0  0
   -3.0313   -3.4419    0.0000 C   0  0  0  0  0  0  0  0  0
   -3.5833   -2.8289    0.0000 C   0  0  0  0  0  0  0  0  0
   -3.2862   -4.2266    0.0000 C   0  0  0  0  0  0  0  0  0
   -1.1624   -2.3143    0.0000 C   0  0  0  0  0  0  0  0  0
   -3.3768    1.1996    0.0000 C   0  0  0  0  0  0  0  0  0
   -2.6623    0.7871    0.0000 O   0  0  0  0  0  0  0  0  0
   -3.3768    2.0246    0.0000 C   0  0  0  0  0  0  0  0  0
   -2.6623    2.4371    0.0000 C   0  0  0  0  0  0  0  0  0
   -2.6623    3.2621    0.0000 C   0  0  0  0  0  0  0  0  0
   -1.9479    3.6746    0.0000 C   0  0  0  0  0  0  0  0  0
   -1.2334    3.2621    0.0000 C   0  0  0  0  0  0  0  0  0
   -1.2334    2.4371    0.0000 C   0  0  0  0  0  0  0  0  0
   -1.9479    2.0246    0.0000 C   0  0  0  0  0  0  0  0  0
   -3.3768    3.6746    0.0000 C   0  0  0  0  0  0  0  0  0
   -4.0913    3.2621    0.0000 C   0  0  0  0  0  0  0  0  0
   -4.0913    2.4371    0.0000 C   0  0  0  0  0  0  0  0  0
   -3.3768    4.4996    0.0000 C   0  0  0  0  0  0  0  0  0
   -4.0913    4.9121    0.0000 N   0  0  0  0  0  0  0  0  0
   -4.0913    5.7371    0.0000 C   0  0  0  0  0  0  0  0  0
   -3.3768    6.1496    0.0000 C   0  0  0  0  0  0  0  0  0
   -2.6623    5.7371    0.0000 C   0  0  0  0  0  0  0  0  0
   -2.6623    4.9121    0.0000 C   0  0  0  0  0  0  0  0  0
   -4.8057    6.1496    0.0000 C   0  0  0  0  0  0  0  0  0
  1  2  1  0  0  0  0
  1  3  1  0  0  0  0
  3  4  4  0  0  0  0
  3 11  4  0  0  0  0
  4  5  4  0  0  0  0
  5  6  1  0  0  0  0
  5  9  4  0  0  0  0
  6  7  1  0  0  0  0
  7  8  1  0  0  0  0
  8  9  1  0  0  0  0
  8 23  1  0  0  0  0
  9 10  4  0  0  0  0
 10 11  4  0  0  0  0
 11 12  1  0  0  0  0
 12 13  1  0  0  0  0
 12 20  1  0  0  0  0
 13 14  1  0  0  0  0
 14 15  1  0  0  0  0
 14 22  1  0  0  0  0
 15 16  1  0  0  0  0
 15 19  1  0  0  0  0
 16 17  1  0  0  0  0
 17 18  1  0  0  0  0
 19 20  1  0  0  0  0
 19 21  1  0  0  0  0
 23 24  2  0  0  0  0
 23 25  1  0  0  0  0
 25 26  4  0  0  0  0
 25 34  4  0  0  0  0
 26 27  4  0  0  0  0
 26 31  4  0  0  0  0
 27 28  4  0  0  0  0
 27 32  4  0  0  0  0
 28 29  4  0  0  0  0
 29 30  4  0  0  0  0
 30 31  4  0  0  0  0
 32 33  4  0  0  0  0
 32 35  1  0  0  0  0
 33 34  4  0  0  0  0
 35 36  4  0  0  0  0
 35 40  4  0  0  0  0
 36 37  4  0  0  0  0
 37 38  4  0  0  0  0
 37 41  1  0  0  0  0
 38 39  4  0  0  0  0
 39 40  4  0  0  0  0
M  END
>  <Name_Molregno>
326710

>  <5-HT1A>
7.1

>  <5-HT1B>
7.5

>  <5-HT1D>
6.8

$$$$
326711
  Marvin  02231216192D 0   1.00000     0.00000     0

 29 32  0  0  0  0  0  0  0  0999 V2000
   -6.0892   -1.0140    0.0000 Cl  0  0  0  0  0  0  0  0  0
   -5.5372   -1.6271    0.0000 C   0  0  0  0  0  0  0  0  0
   -4.7302   -1.4555    0.0000 C   0  0  0  0  0  0  0  0  0
   -4.4753   -0.6709    0.0000 N   0  0  0  0  0  0  0  0  0
   -5.0273   -0.0578    0.0000 C   0  0  0  0  0  0  0  0  0
   -5.8343   -0.2294    0.0000 O   0  0  0  0  0  0  0  0  0
   -4.7724    0.7268    0.0000 N   0  0  0  0  0  0  0  0  0
   -5.2573    1.3942    0.0000 C   0  0  0  0  0  0  0  0  0
   -4.7724    2.0617    0.0000 C   0  0  0  0  0  0  0  0  0
   -3.9878    1.8067    0.0000 C   0  0  0  0  0  0  0  0  0
   -3.2733    2.2192    0.0000 C   0  0  0  0  0  0  0  0  0
   -2.5588    1.8067    0.0000 C   0  0  0  0  0  0  0  0  0
   -1.8443    2.2192    0.0000 O   0  0  0  0  0  0  0  0  0
   -1.1299    1.8067    0.0000 C   0  0  0  0  0  0  0  0  0
   -2.5588    0.9817    0.0000 C   0  0  0  0  0  0  0  0  0
   -1.8443    0.5692    0.0000 N   0  0  0  0  0  0  0  0  0
   -1.1299    0.9817    0.0000 C   0  0  0  0  0  0  0  0  0
   -0.4154    0.5692    0.0000 C   0  0  0  0  0  0  0  0  0
   -0.4154   -0.2558    0.0000 N   0  0  0  0  0  0  0  0  0
   -1.1299   -0.6683    0.0000 C   0  0  0  0  0  0  0  0  0
   -1.8443   -0.2558    0.0000 C   0  0  0  0  0  0  0  0  0
    0.2991   -0.6683    0.0000 C   0  0  0  0  0  0  0  0  0
   -3.2733    0.5692    0.0000 C   0  0  0  0  0  0  0  0  0
   -3.9878    0.9817    0.0000 C   0  0  0  0  0  0  0  0  0
   -4.1782   -2.0686    0.0000 C   0  0  0  0  0  0  0  0  0
   -4.4331   -2.8533    0.0000 C   0  0  0  0  0  0  0  0  0
   -5.2401   -3.0248    0.0000 C   0  0  0  0  0  0  0  0  0
   -5.7921   -2.4117    0.0000 C   0  0  0  0  0  0  0  0  0
   -6.5991   -2.5832    0.0000 Cl  0  0  0  0  0  0  0  0  0
  1  2  1  0  0  0  0
  2  3  4  0  0  0  0
  2 28  4  0  0  0  0
  3  4  1  0  0  0  0
  3 25  4  0  0  0  0
  4  5  1  0  0  0  0
  5  6  2  0  0  0  0
  5  7  1  0  0  0  0
  7  8  1  0  0  0  0
  7 24  1  0  0  0  0
  8  9  1  0  0  0  0
  9 10  1  0  0  0  0
 10 11  4  0  0  0  0
 10 24  4  0  0  0  0
 11 12  4  0  0  0  0
 12 13  1  0  0  0  0
 12 15  4  0  0  0  0
 13 14  1  0  0  0  0
 15 16  1  0  0  0  0
 15 23  4  0  0  0  0
 16 17  1  0  0  0  0
 16 21  1  0  0  0  0
 17 18  1  0  0  0  0
 18 19  1  0  0  0  0
 19 20  1  0  0  0  0
 19 22  1  0  0  0  0
 20 21  1  0  0  0  0
 23 24  4  0  0  0  0
 25 26  4  0  0  0  0
 26 27  4  0  0  0  0
 27 28  4  0  0  0  0
 28 29  1  0  0  0  0
M  END
>  <Name_Molregno>
326711

>  <5-HT1A>
7.3

>  <5-HT1B>
8.4

>  <5-HT1D>
7.9

$$$$
326712
  Marvin  02231216192D 0   1.00000     0.00000     0

 31 34  0  0  1  0  0  0  0  0999 V2000
   -6.4993   -1.0598    0.0000 Cl  0  0  0  0  0  0  0  0  0
   -5.9473   -1.6729    0.0000 C   0  0  0  0  0  0  0  0  0
   -5.1403   -1.5013    0.0000 C   0  0  0  0  0  0  0  0  0
   -4.8854   -0.7167    0.0000 N   0  0  0  0  0  0  0  0  0
   -5.4374   -0.1036    0.0000 C   0  0  0  0  0  0  0  0  0
   -6.2444   -0.2752    0.0000 O   0  0  0  0  0  0  0  0  0
   -5.1825    0.6810    0.0000 N   0  0  0  0  0  0  0  0  0
   -5.6674    1.3484    0.0000 C   0  0  0  0  0  0  0  0  0
   -5.1825    2.0159    0.0000 C   0  0  0  0  0  0  0  0  0
   -4.3978    1.7609    0.0000 C   0  0  0  0  0  0  0  0  0
   -3.6834    2.1734    0.0000 C   0  0  0  0  0  0  0  0  0
   -2.9689    1.7609    0.0000 C   0  0  0  0  0  0  0  0  0
   -2.2544    2.1734    0.0000 O   0  0  0  0  0  0  0  0  0
   -1.5400    1.7609    0.0000 C   0  0  0  0  0  0  0  0  0
   -2.9689    0.9359    0.0000 C   0  0  0  0  0  0  0  0  0
   -2.2544    0.5234    0.0000 N   0  0  0  0  0  0  0  0  0
   -1.5400    0.9359    0.0000 C   0  0  0  0  0  0  0  0  0
   -0.8255    0.5234    0.0000 C   0  0  0  0  0  0  0  0  0
   -0.8255   -0.3016    0.0000 N   0  0  0  0  0  0  0  0  0
   -0.1110   -0.7141    0.0000 C   0  0  0  0  0  0  0  0  0
   -1.5400   -0.7141    0.0000 C   0  0  0  0  0  0  0  0  0
   -2.2544   -0.3016    0.0000 C   0  0  0  0  0  0  0  0  0
   -1.5400   -1.5391    0.0000 C   0  0  0  0  0  0  0  0  0
   -0.1110    0.9359    0.0000 C   0  0  0  0  0  0  0  0  0
   -3.6834    0.5234    0.0000 C   0  0  0  0  0  0  0  0  0
   -4.3978    0.9359    0.0000 C   0  0  0  0  0  0  0  0  0
   -4.5883   -2.1144    0.0000 C   0  0  0  0  0  0  0  0  0
   -4.8432   -2.8991    0.0000 C   0  0  0  0  0  0  0  0  0
   -5.6502   -3.0706    0.0000 C   0  0  0  0  0  0  0  0  0
   -6.2022   -2.4575    0.0000 C   0  0  0  0  0  0  0  0  0
   -7.0092   -2.6290    0.0000 Cl  0  0  0  0  0  0  0  0  0
  1  2  1  0  0  0  0
  2  3  4  0  0  0  0
  2 30  4  0  0  0  0
  3  4  1  0  0  0  0
  3 27  4  0  0  0  0
  4  5  1  0  0  0  0
  5  6  2  0  0  0  0
  5  7  1  0  0  0  0
  7  8  1  0  0  0  0
  7 26  1  0  0  0  0
  8  9  1  0  0  0  0
  9 10  1  0  0  0  0
 10 11  4  0  0  0  0
 10 26  4  0  0  0  0
 11 12  4  0  0  0  0
 12 13  1  0  0  0  0
 12 15  4  0  0  0  0
 13 14  1  0  0  0  0
 15 16  1  0  0  0  0
 15 25  4  0  0  0  0
 16 17  1  0  0  0  0
 16 22  1  0  0  0  0
 17 18  1  0  0  0  0
 18 19  1  0  0  0  0
 18 24  1  0  0  0  0
 19 20  1  0  0  0  0
 19 21  1  0  0  0  0
 21 22  1  0  0  0  0
 21 23  1  0  0  0  0
 25 26  4  0  0  0  0
 27 28  4  0  0  0  0
 28 29  4  0  0  0  0
 29 30  4  0  0  0  0
 30 31  1  0  0  0  0
M  END
>  <Name_Molregno>
326712

>  <5-HT1A>
5.8

>  <5-HT1B>
8.1

>  <5-HT1D>
7.1

$$$$
326713
  Marvin  02231216192D 0   1.00000     0.00000     0

 30 33  0  0  0  0  0  0  0  0999 V2000
   -0.8537   -1.4628    0.0000 O   0  0  0  0  0  0  0  0  0
   -0.1393   -1.0503    0.0000 C   0  0  0  0  0  0  0  0  0
   -1.5682   -1.0503    0.0000 C   0  0  0  0  0  0  0  0  0
   -2.2827   -1.4628    0.0000 C   0  0  0  0  0  0  0  0  0
   -2.9971   -1.0503    0.0000 C   0  0  0  0  0  0  0  0  0
   -3.7818   -1.3052    0.0000 C   0  0  0  0  0  0  0  0  0
   -4.2667   -0.6378    0.0000 C   0  0  0  0  0  0  0  0  0
   -3.7818    0.0297    0.0000 N   0  0  0  0  0  0  0  0  0
   -2.9971   -0.2253    0.0000 C   0  0  0  0  0  0  0  0  0
   -2.2827    0.1872    0.0000 C   0  0  0  0  0  0  0  0  0
   -1.5682   -0.2253    0.0000 C   0  0  0  0  0  0  0  0  0
   -0.8537    0.1872    0.0000 N   0  0  0  0  0  0  0  0  0
   -0.8537    1.0122    0.0000 C   0  0  0  0  0  0  0  0  0
   -0.1393    1.4247    0.0000 C   0  0  0  0  0  0  0  0  0
    0.5752    1.0122    0.0000 N   0  0  0  0  0  0  0  0  0
    0.5752    0.1872    0.0000 C   0  0  0  0  0  0  0  0  0
   -0.1393   -0.2253    0.0000 C   0  0  0  0  0  0  0  0  0
    1.2897    1.4247    0.0000 C   0  0  0  0  0  0  0  0  0
   -4.0367    0.8143    0.0000 C   0  0  0  0  0  0  0  0  0
   -3.4847    1.4274    0.0000 O   0  0  0  0  0  0  0  0  0
   -4.8437    0.9858    0.0000 C   0  0  0  0  0  0  0  0  0
   -5.0986    1.7705    0.0000 C   0  0  0  0  0  0  0  0  0
   -5.9056    1.9420    0.0000 C   0  0  0  0  0  0  0  0  0
   -6.1605    2.7266    0.0000 C   0  0  0  0  0  0  0  0  0
   -5.6085    3.3397    0.0000 C   0  0  0  0  0  0  0  0  0
   -5.8634    4.1243    0.0000 N   0  3  0  0  0  0  0  0  0
   -6.6704    4.2958    0.0000 O   0  5  0  0  0  0  0  0  0
   -5.3114    4.7374    0.0000 O   0  5  0  0  0  0  0  0  0
   -4.8015    3.1682    0.0000 C   0  0  0  0  0  0  0  0  0
   -4.5466    2.3836    0.0000 C   0  0  0  0  0  0  0  0  0
  1  2  1  0  0  0  0
  1  3  1  0  0  0  0
  3  4  4  0  0  0  0
  3 11  4  0  0  0  0
  4  5  4  0  0  0  0
  5  6  1  0  0  0  0
  5  9  4  0  0  0  0
  6  7  1  0  0  0  0
  7  8  1  0  0  0  0
  8  9  1  0  0  0  0
  8 19  1  0  0  0  0
  9 10  4  0  0  0  0
 10 11  4  0  0  0  0
 11 12  1  0  0  0  0
 12 13  1  0  0  0  0
 12 17  1  0  0  0  0
 13 14  1  0  0  0  0
 14 15  1  0  0  0  0
 15 16  1  0  0  0  0
 15 18  1  0  0  0  0
 16 17  1  0  0  0  0
 19 20  2  0  0  0  0
 19 21  1  0  0  0  0
 21 22  1  0  0  0  0
 22 23  4  0  0  0  0
 22 30  4  0  0  0  0
 23 24  4  0  0  0  0
 24 25  4  0  0  0  0
 25 26  1  0  0  0  0
 25 29  4  0  0  0  0
 26 27  1  0  0  0  0
 26 28  1  0  0  0  0
 29 30  4  0  0  0  0
M  CHG  3  26   1  27  -1  28  -1
M  END
>  <Name_Molregno>
326713

>  <5-HT1A>
6.8

>  <5-HT1B>
8.1

>  <5-HT1D>
7.5

$$$$
326714
  Marvin  02231216192D 0   1.00000     0.00000     0

 32 35  0  0  1  0  0  0  0  0999 V2000
   -0.8839   -1.3341    0.0000 O   0  0  0  0  0  0  0  0  0
   -0.1694   -0.9216    0.0000 C   0  0  0  0  0  0  0  0  0
   -1.5984   -0.9216    0.0000 C   0  0  0  0  0  0  0  0  0
   -2.3128   -1.3341    0.0000 C   0  0  0  0  0  0  0  0  0
   -3.0273   -0.9216    0.0000 C   0  0  0  0  0  0  0  0  0
   -3.8119   -1.1765    0.0000 C   0  0  0  0  0  0  0  0  0
   -4.2969   -0.5091    0.0000 C   0  0  0  0  0  0  0  0  0
   -3.8119    0.1584    0.0000 N   0  0  0  0  0  0  0  0  0
   -3.0273   -0.0966    0.0000 C   0  0  0  0  0  0  0  0  0
   -2.3128    0.3159    0.0000 C   0  0  0  0  0  0  0  0  0
   -1.5984   -0.0966    0.0000 C   0  0  0  0  0  0  0  0  0
   -0.8839    0.3159    0.0000 N   0  0  0  0  0  0  0  0  0
   -0.8839    1.1409    0.0000 C   0  0  0  0  0  0  0  0  0
   -0.1694    1.5534    0.0000 C   0  0  0  0  0  0  0  0  0
    0.5450    1.1409    0.0000 N   0  0  0  0  0  0  0  0  0
    1.2595    1.5534    0.0000 C   0  0  0  0  0  0  0  0  0
    0.5450    0.3159    0.0000 C   0  0  0  0  0  0  0  0  0
   -0.1694   -0.0966    0.0000 C   0  0  0  0  0  0  0  0  0
    1.2595   -0.0966    0.0000 C   0  0  0  0  0  0  0  0  0
   -0.1694    2.3784    0.0000 C   0  0  0  0  0  0  0  0  0
   -4.0669    0.9430    0.0000 C   0  0  0  0  0  0  0  0  0
   -3.5148    1.5561    0.0000 O   0  0  0  0  0  0  0  0  0
   -4.8738    1.1145    0.0000 C   0  0  0  0  0  0  0  0  0
   -5.1288    1.8991    0.0000 C   0  0  0  0  0  0  0  0  0
   -5.9358    2.0707    0.0000 C   0  0  0  0  0  0  0  0  0
   -6.1907    2.8553    0.0000 C   0  0  0  0  0  0  0  0  0
   -5.6387    3.4684    0.0000 C   0  0  0  0  0  0  0  0  0
   -5.8936    4.2530    0.0000 N   0  3  0  0  0  0  0  0  0
   -6.7006    4.4245    0.0000 O   0  5  0  0  0  0  0  0  0
   -5.3416    4.8661    0.0000 O   0  5  0  0  0  0  0  0  0
   -4.8317    3.2969    0.0000 C   0  0  0  0  0  0  0  0  0
   -4.5768    2.5122    0.0000 C   0  0  0  0  0  0  0  0  0
  1  2  1  0  0  0  0
  1  3  1  0  0  0  0
  3  4  4  0  0  0  0
  3 11  4  0  0  0  0
  4  5  4  0  0  0  0
  5  6  1  0  0  0  0
  5  9  4  0  0  0  0
  6  7  1  0  0  0  0
  7  8  1  0  0  0  0
  8  9  1  0  0  0  0
  8 21  1  0  0  0  0
  9 10  4  0  0  0  0
 10 11  4  0  0  0  0
 11 12  1  0  0  0  0
 12 13  1  0  0  0  0
 12 18  1  0  0  0  0
 13 14  1  0  0  0  0
 14 15  1  0  0  0  0
 14 20  1  0  0  0  0
 15 16  1  0  0  0  0
 15 17  1  0  0  0  0
 17 18  1  0  0  0  0
 17 19  1  0  0  0  0
 21 22  2  0  0  0  0
 21 23  1  0  0  0  0
 23 24  1  0  0  0  0
 24 25  4  0  0  0  0
 24 32  4  0  0  0  0
 25 26  4  0  0  0  0
 26 27  4  0  0  0  0
 27 28  1  0  0  0  0
 27 31  4  0  0  0  0
 28 29  1  0  0  0  0
 28 30  1  0  0  0  0
 31 32  4  0  0  0  0
M  CHG  3  28   1  29  -1  30  -1
M  END
>  <Name_Molregno>
326714

>  <5-HT1A>
5.7

>  <5-HT1B>
7.8

>  <5-HT1D>
6.6

$$$$
326715
  Marvin  02231216192D 0   1.00000     0.00000     0

 30 33  0  0  1  0  0  0  0  0999 V2000
   -0.2679   -0.8364    0.0000 Cl  0  0  0  0  0  0  0  0  0
   -0.5228   -1.6211    0.0000 C   0  0  0  0  0  0  0  0  0
    0.0292   -2.2342    0.0000 C   0  0  0  0  0  0  0  0  0
   -0.2257   -3.0188    0.0000 C   0  0  0  0  0  0  0  0  0
   -1.0327   -3.1903    0.0000 C   0  0  0  0  0  0  0  0  0
   -1.5847   -2.5772    0.0000 C   0  0  0  0  0  0  0  0  0
   -1.3298   -1.7926    0.0000 C   0  0  0  0  0  0  0  0  0
   -1.8818   -1.1795    0.0000 Cl  0  0  0  0  0  0  0  0  0
    0.8362   -2.0626    0.0000 C   0  0  0  0  0  0  0  0  0
    1.3882   -2.6757    0.0000 O   0  0  0  0  0  0  0  0  0
    1.0911   -1.2780    0.0000 N   0  0  0  0  0  0  0  0  0
    0.6062   -0.6106    0.0000 C   0  0  0  0  0  0  0  0  0
    1.0911    0.0569    0.0000 C   0  0  0  0  0  0  0  0  0
    1.8758   -0.1981    0.0000 C   0  0  0  0  0  0  0  0  0
    2.5902    0.2144    0.0000 C   0  0  0  0  0  0  0  0  0
    3.3047   -0.1981    0.0000 C   0  0  0  0  0  0  0  0  0
    4.0192    0.2144    0.0000 O   0  0  0  0  0  0  0  0  0
    4.7336   -0.1981    0.0000 C   0  0  0  0  0  0  0  0  0
    3.3047   -1.0231    0.0000 C   0  0  0  0  0  0  0  0  0
    4.0192   -1.4356    0.0000 N   0  0  0  0  0  0  0  0  0
    4.7336   -1.0231    0.0000 C   0  0  0  0  0  0  0  0  0
    5.4481   -1.4356    0.0000 C   0  0  0  0  0  0  0  0  0
    5.4481   -2.2606    0.0000 N   0  0  0  0  0  0  0  0  0
    6.1626   -2.6731    0.0000 C   0  0  0  0  0  0  0  0  0
    4.7336   -2.6731    0.0000 C   0  0  0  0  0  0  0  0  0
    4.0192   -2.2606    0.0000 C   0  0  0  0  0  0  0  0  0
    4.7336   -3.4981    0.0000 C   0  0  0  0  0  0  0  0  0
    6.1626   -1.0231    0.0000 C   0  0  0  0  0  0  0  0  0
    2.5902   -1.4356    0.0000 C   0  0  0  0  0  0  0  0  0
    1.8758   -1.0231    0.0000 C   0  0  0  0  0  0  0  0  0
  1  2  1  0  0  0  0
  2  3  4  0  0  0  0
  2  7  4  0  0  0  0
  3  4  4  0  0  0  0
  3  9  1  0  0  0  0
  4  5  4  0  0  0  0
  5  6  4  0  0  0  0
  6  7  4  0  0  0  0
  7  8  1  0  0  0  0
  9 10  2  0  0  0  0
  9 11  1  0  0  0  0
 11 12  1  0  0  0  0
 11 30  1  0  0  0  0
 12 13  1  0  0  0  0
 13 14  1  0  0  0  0
 14 15  4  0  0  0  0
 14 30  4  0  0  0  0
 15 16  4  0  0  0  0
 16 17  1  0  0  0  0
 16 19  4  0  0  0  0
 17 18  1  0  0  0  0
 19 20  1  0  0  0  0
 19 29  4  0  0  0  0
 20 21  1  0  0  0  0
 20 26  1  0  0  0  0
 21 22  1  0  0  0  0
 22 23  1  0  0  0  0
 22 28  1  0  0  0  0
 23 24  1  0  0  0  0
 23 25  1  0  0  0  0
 25 26  1  0  0  0  0
 25 27  1  0  0  0  0
 29 30  4  0  0  0  0
M  END
>  <Name_Molregno>
326715

>  <5-HT1B>
7.9

>  <5-HT1D>
6.6

$$$$
326716
  Marvin  02231216192D 0   1.00000     0.00000     0

 29 32  0  0  1  0  0  0  0  0999 V2000
   -0.2759   -1.1876    0.0000 Cl  0  0  0  0  0  0  0  0  0
    0.2761   -1.8006    0.0000 C   0  0  0  0  0  0  0  0  0
    1.0831   -1.6291    0.0000 C   0  0  0  0  0  0  0  0  0
    1.6351   -2.2422    0.0000 C   0  0  0  0  0  0  0  0  0
    1.3802   -3.0268    0.0000 C   0  0  0  0  0  0  0  0  0
    0.5732   -3.1984    0.0000 C   0  0  0  0  0  0  0  0  0
    0.0212   -2.5853    0.0000 C   0  0  0  0  0  0  0  0  0
    2.4421   -2.0707    0.0000 C   0  0  0  0  0  0  0  0  0
    2.9941   -2.6838    0.0000 O   0  0  0  0  0  0  0  0  0
    2.6970   -1.2861    0.0000 N   0  0  0  0  0  0  0  0  0
    2.2121   -0.6186    0.0000 C   0  0  0  0  0  0  0  0  0
    2.6970    0.0488    0.0000 C   0  0  0  0  0  0  0  0  0
    3.4817   -0.2061    0.0000 C   0  0  0  0  0  0  0  0  0
    4.1961    0.2064    0.0000 C   0  0  0  0  0  0  0  0  0
    4.9106   -0.2061    0.0000 C   0  0  0  0  0  0  0  0  0
    5.6251    0.2064    0.0000 O   0  0  0  0  0  0  0  0  0
    6.3395   -0.2061    0.0000 C   0  0  0  0  0  0  0  0  0
    4.9106   -1.0311    0.0000 C   0  0  0  0  0  0  0  0  0
    5.6251   -1.4436    0.0000 N   0  0  0  0  0  0  0  0  0
    6.3395   -1.0311    0.0000 C   0  0  0  0  0  0  0  0  0
    7.0540   -1.4436    0.0000 C   0  0  0  0  0  0  0  0  0
    7.0540   -2.2686    0.0000 N   0  0  0  0  0  0  0  0  0
    7.7685   -2.6811    0.0000 C   0  0  0  0  0  0  0  0  0
    6.3395   -2.6811    0.0000 C   0  0  0  0  0  0  0  0  0
    5.6251   -2.2686    0.0000 C   0  0  0  0  0  0  0  0  0
    6.3395   -3.5061    0.0000 C   0  0  0  0  0  0  0  0  0
    7.7685   -1.0311    0.0000 C   0  0  0  0  0  0  0  0  0
    4.1961   -1.4436    0.0000 C   0  0  0  0  0  0  0  0  0
    3.4817   -1.0311    0.0000 C   0  0  0  0  0  0  0  0  0
  1  2  1  0  0  0  0
  2  3  4  0  0  0  0
  2  7  4  0  0  0  0
  3  4  4  0  0  0  0
  4  5  4  0  0  0  0
  4  8  1  0  0  0  0
  5  6  4  0  0  0  0
  6  7  4  0  0  0  0
  8  9  2  0  0  0  0
  8 10  1  0  0  0  0
 10 11  1  0  0  0  0
 10 29  1  0  0  0  0
 11 12  1  0  0  0  0
 12 13  1  0  0  0  0
 13 14  4  0  0  0  0
 13 29  4  0  0  0  0
 14 15  4  0  0  0  0
 15 16  1  0  0  0  0
 15 18  4  0  0  0  0
 16 17  1  0  0  0  0
 18 19  1  0  0  0  0
 18 28  4  0  0  0  0
 19 20  1  0  0  0  0
 19 25  1  0  0  0  0
 20 21  1  0  0  0  0
 21 22  1  0  0  0  0
 21 27  1  0  0  0  0
 22 23  1  0  0  0  0
 22 24  1  0  0  0  0
 24 25  1  0  0  0  0
 24 26  1  0  0  0  0
 28 29  4  0  0  0  0
M  END
>  <Name_Molregno>
326716

>  <5-HT1B>
7.7

>  <5-HT1D>
6.6

$$$$
326717
  Marvin  02231216192D 0   1.00000     0.00000     0

 37 42  0  0  0  0  0  0  0  0999 V2000
    2.1676   -3.1774    0.0000 O   0  0  0  0  0  0  0  0  0
    2.7196   -3.7905    0.0000 C   0  0  0  0  0  0  0  0  0
    2.4225   -2.3928    0.0000 C   0  0  0  0  0  0  0  0  0
    1.8705   -1.7797    0.0000 C   0  0  0  0  0  0  0  0  0
    2.1254   -0.9950    0.0000 C   0  0  0  0  0  0  0  0  0
    1.7129   -0.2806    0.0000 C   0  0  0  0  0  0  0  0  0
    2.2649    0.3325    0.0000 C   0  0  0  0  0  0  0  0  0
    3.0186   -0.0030    0.0000 N   0  0  0  0  0  0  0  0  0
    2.9324   -0.8235    0.0000 C   0  0  0  0  0  0  0  0  0
    3.4844   -1.4366    0.0000 C   0  0  0  0  0  0  0  0  0
    3.2295   -2.2212    0.0000 C   0  0  0  0  0  0  0  0  0
    3.7815   -2.8343    0.0000 N   0  0  0  0  0  0  0  0  0
    4.5885   -2.6628    0.0000 C   0  0  0  0  0  0  0  0  0
    5.1405   -3.2759    0.0000 C   0  0  0  0  0  0  0  0  0
    4.8856   -4.0605    0.0000 N   0  0  0  0  0  0  0  0  0
    4.0786   -4.2320    0.0000 C   0  0  0  0  0  0  0  0  0
    3.5266   -3.6189    0.0000 C   0  0  0  0  0  0  0  0  0
    5.4376   -4.6736    0.0000 C   0  0  0  0  0  0  0  0  0
    3.7331    0.4095    0.0000 C   0  0  0  0  0  0  0  0  0
    4.4476   -0.0030    0.0000 O   0  0  0  0  0  0  0  0  0
    3.7331    1.2345    0.0000 C   0  0  0  0  0  0  0  0  0
    4.4476    1.6470    0.0000 C   0  0  0  0  0  0  0  0  0
    4.4476    2.4720    0.0000 C   0  0  0  0  0  0  0  0  0
    5.1620    2.8845    0.0000 C   0  0  0  0  0  0  0  0  0
    5.8765    2.4720    0.0000 C   0  0  0  0  0  0  0  0  0
    5.8765    1.6470    0.0000 C   0  0  0  0  0  0  0  0  0
    5.1620    1.2345    0.0000 C   0  0  0  0  0  0  0  0  0
    3.7331    2.8845    0.0000 C   0  0  0  0  0  0  0  0  0
    3.0186    2.4720    0.0000 C   0  0  0  0  0  0  0  0  0
    3.0186    1.6470    0.0000 C   0  0  0  0  0  0  0  0  0
    3.7331    3.7095    0.0000 C   0  0  0  0  0  0  0  0  0
    3.0186    4.1220    0.0000 N   0  0  0  0  0  0  0  0  0
    3.0186    4.9470    0.0000 C   0  0  0  0  0  0  0  0  0
    3.7331    5.3595    0.0000 C   0  0  0  0  0  0  0  0  0
    4.4476    4.9470    0.0000 C   0  0  0  0  0  0  0  0  0
    4.4476    4.1220    0.0000 C   0  0  0  0  0  0  0  0  0
    2.3041    5.3595    0.0000 C   0  0  0  0  0  0  0  0  0
  1  2  1  0  0  0  0
  1  3  1  0  0  0  0
  3  4  4  0  0  0  0
  3 11  4  0  0  0  0
  4  5  4  0  0  0  0
  5  6  1  0  0  0  0
  5  9  4  0  0  0  0
  6  7  1  0  0  0  0
  7  8  1  0  0  0  0
  8  9  1  0  0  0  0
  8 19  1  0  0  0  0
  9 10  4  0  0  0  0
 10 11  4  0  0  0  0
 11 12  1  0  0  0  0
 12 13  1  0  0  0  0
 12 17  1  0  0  0  0
 13 14  1  0  0  0  0
 14 15  1  0  0  0  0
 15 16  1  0  0  0  0
 15 18  1  0  0  0  0
 16 17  1  0  0  0  0
 19 20  2  0  0  0  0
 19 21  1  0  0  0  0
 21 22  4  0  0  0  0
 21 30  4  0  0  0  0
 22 23  4  0  0  0  0
 22 27  4  0  0  0  0
 23 24  4  0  0  0  0
 23 28  4  0  0  0  0
 24 25  4  0  0  0  0
 25 26  4  0  0  0  0
 26 27  4  0  0  0  0
 28 29  4  0  0  0  0
 28 31  1  0  0  0  0
 29 30  4  0  0  0  0
 31 32  4  0  0  0  0
 31 36  4  0  0  0  0
 32 33  4  0  0  0  0
 33 34  4  0  0  0  0
 33 37  1  0  0  0  0
 34 35  4  0  0  0  0
 35 36  4  0  0  0  0
M  END
>  <Name_Molregno>
326717

>  <5-HT1A>
7.9

>  <5-HT1B>
8.7

>  <5-HT1D>
7.6

$$$$
326718
  Marvin  02231216192D 0   1.00000     0.00000     0

 39 44  0  0  1  0  0  0  0  0999 V2000
    1.9197   -2.8433    0.0000 O   0  0  0  0  0  0  0  0  0
    2.4717   -3.4564    0.0000 C   0  0  0  0  0  0  0  0  0
    2.1746   -2.0587    0.0000 C   0  0  0  0  0  0  0  0  0
    1.6226   -1.4456    0.0000 C   0  0  0  0  0  0  0  0  0
    1.8775   -0.6610    0.0000 C   0  0  0  0  0  0  0  0  0
    1.4650    0.0535    0.0000 C   0  0  0  0  0  0  0  0  0
    2.0171    0.6666    0.0000 C   0  0  0  0  0  0  0  0  0
    2.7707    0.3310    0.0000 N   0  0  0  0  0  0  0  0  0
    2.6845   -0.4895    0.0000 C   0  0  0  0  0  0  0  0  0
    3.2365   -1.1026    0.0000 C   0  0  0  0  0  0  0  0  0
    2.9816   -1.8872    0.0000 C   0  0  0  0  0  0  0  0  0
    3.5336   -2.5003    0.0000 N   0  0  0  0  0  0  0  0  0
    4.3406   -2.3288    0.0000 C   0  0  0  0  0  0  0  0  0
    4.8926   -2.9419    0.0000 C   0  0  0  0  0  0  0  0  0
    4.6377   -3.7265    0.0000 N   0  0  0  0  0  0  0  0  0
    5.1897   -4.3396    0.0000 C   0  0  0  0  0  0  0  0  0
    3.8307   -3.8980    0.0000 C   0  0  0  0  0  0  0  0  0
    3.2787   -3.2849    0.0000 C   0  0  0  0  0  0  0  0  0
    3.5758   -4.6826    0.0000 C   0  0  0  0  0  0  0  0  0
    5.6996   -2.7703    0.0000 C   0  0  0  0  0  0  0  0  0
    3.4852    0.7435    0.0000 C   0  0  0  0  0  0  0  0  0
    4.1997    0.3310    0.0000 O   0  0  0  0  0  0  0  0  0
    3.4852    1.5685    0.0000 C   0  0  0  0  0  0  0  0  0
    4.1997    1.9810    0.0000 C   0  0  0  0  0  0  0  0  0
    4.1997    2.8060    0.0000 C   0  0  0  0  0  0  0  0  0
    4.9141    3.2185    0.0000 C   0  0  0  0  0  0  0  0  0
    5.6286    2.8060    0.0000 C   0  0  0  0  0  0  0  0  0
    5.6286    1.9810    0.0000 C   0  0  0  0  0  0  0  0  0
    4.9141    1.5685    0.0000 C   0  0  0  0  0  0  0  0  0
    3.4852    3.2185    0.0000 C   0  0  0  0  0  0  0  0  0
    2.7707    2.8060    0.0000 C   0  0  0  0  0  0  0  0  0
    2.7707    1.9810    0.0000 C   0  0  0  0  0  0  0  0  0
    3.4852    4.0435    0.0000 C   0  0  0  0  0  0  0  0  0
    2.7707    4.4560    0.0000 N   0  0  0  0  0  0  0  0  0
    2.7707    5.2810    0.0000 C   0  0  0  0  0  0  0  0  0
    3.4852    5.6935    0.0000 C   0  0  0  0  0  0  0  0  0
    4.1997    5.2810    0.0000 C   0  0  0  0  0  0  0  0  0
    4.1997    4.4560    0.0000 C   0  0  0  0  0  0  0  0  0
    2.0563    5.6935    0.0000 C   0  0  0  0  0  0  0  0  0
  1  2  1  0  0  0  0
  1  3  1  0  0  0  0
  3  4  4  0  0  0  0
  3 11  4  0  0  0  0
  4  5  4  0  0  0  0
  5  6  1  0  0  0  0
  5  9  4  0  0  0  0
  6  7  1  0  0  0  0
  7  8  1  0  0  0  0
  8  9  1  0  0  0  0
  8 21  1  0  0  0  0
  9 10  4  0  0  0  0
 10 11  4  0  0  0  0
 11 12  1  0  0  0  0
 12 13  1  0  0  0  0
 12 18  1  0  0  0  0
 13 14  1  0  0  0  0
 14 15  1  0  0  0  0
 14 20  1  0  0  0  0
 15 16  1  0  0  0  0
 15 17  1  0  0  0  0
 17 18  1  0  0  0  0
 17 19  1  0  0  0  0
 21 22  2  0  0  0  0
 21 23  1  0  0  0  0
 23 24  4  0  0  0  0
 23 32  4  0  0  0  0
 24 25  4  0  0  0  0
 24 29  4  0  0  0  0
 25 26  4  0  0  0  0
 25 30  4  0  0  0  0
 26 27  4  0  0  0  0
 27 28  4  0  0  0  0
 28 29  4  0  0  0  0
 30 31  4  0  0  0  0
 30 33  1  0  0  0  0
 31 32  4  0  0  0  0
 33 34  4  0  0  0  0
 33 38  4  0  0  0  0
 34 35  4  0  0  0  0
 35 36  4  0  0  0  0
 35 39  1  0  0  0  0
 36 37  4  0  0  0  0
 37 38  4  0  0  0  0
M  END
>  <Name_Molregno>
326718

>  <5-HT1A>
6.3

>  <5-HT1B>
8.5

>  <5-HT1D>
7

$$$$
326719
  Marvin  02231216192D 0   1.00000     0.00000     0

 38 43  0  0  1  0  0  0  0  0999 V2000
    2.0641   -3.0286    0.0000 O   0  0  0  0  0  0  0  0  0
    2.6161   -3.6417    0.0000 C   0  0  0  0  0  0  0  0  0
    2.3190   -2.2440    0.0000 C   0  0  0  0  0  0  0  0  0
    1.7670   -1.6309    0.0000 C   0  0  0  0  0  0  0  0  0
    2.0219   -0.8462    0.0000 C   0  0  0  0  0  0  0  0  0
    1.6094   -0.1318    0.0000 C   0  0  0  0  0  0  0  0  0
    2.1614    0.4813    0.0000 C   0  0  0  0  0  0  0  0  0
    2.9151    0.1458    0.0000 N   0  0  0  0  0  0  0  0  0
    2.8289   -0.6747    0.0000 C   0  0  0  0  0  0  0  0  0
    3.3809   -1.2878    0.0000 C   0  0  0  0  0  0  0  0  0
    3.1260   -2.0724    0.0000 C   0  0  0  0  0  0  0  0  0
    3.6780   -2.6855    0.0000 N   0  0  0  0  0  0  0  0  0
    4.4850   -2.5140    0.0000 C   0  0  0  0  0  0  0  0  0
    5.0370   -3.1271    0.0000 C   0  0  0  0  0  0  0  0  0
    4.7821   -3.9117    0.0000 N   0  0  0  0  0  0  0  0  0
    3.9751   -4.0832    0.0000 C   0  0  0  0  0  0  0  0  0
    3.4231   -3.4702    0.0000 C   0  0  0  0  0  0  0  0  0
    3.7201   -4.8679    0.0000 C   0  0  0  0  0  0  0  0  0
    5.8440   -2.9556    0.0000 C   0  0  0  0  0  0  0  0  0
    3.6296    0.5583    0.0000 C   0  0  0  0  0  0  0  0  0
    4.3440    0.1458    0.0000 O   0  0  0  0  0  0  0  0  0
    3.6296    1.3833    0.0000 C   0  0  0  0  0  0  0  0  0
    4.3440    1.7958    0.0000 C   0  0  0  0  0  0  0  0  0
    4.3440    2.6208    0.0000 C   0  0  0  0  0  0  0  0  0
    5.0585    3.0333    0.0000 C   0  0  0  0  0  0  0  0  0
    5.7730    2.6208    0.0000 C   0  0  0  0  0  0  0  0  0
    5.7730    1.7958    0.0000 C   0  0  0  0  0  0  0  0  0
    5.0585    1.3833    0.0000 C   0  0  0  0  0  0  0  0  0
    3.6296    3.0333    0.0000 C   0  0  0  0  0  0  0  0  0
    2.9151    2.6208    0.0000 C   0  0  0  0  0  0  0  0  0
    2.9151    1.7958    0.0000 C   0  0  0  0  0  0  0  0  0
    3.6296    3.8583    0.0000 C   0  0  0  0  0  0  0  0  0
    2.9151    4.2708    0.0000 N   0  0  0  0  0  0  0  0  0
    2.9151    5.0958    0.0000 C   0  0  0  0  0  0  0  0  0
    3.6296    5.5083    0.0000 C   0  0  0  0  0  0  0  0  0
    4.3440    5.0958    0.0000 C   0  0  0  0  0  0  0  0  0
    4.3440    4.2708    0.0000 C   0  0  0  0  0  0  0  0  0
    2.2006    5.5083    0.0000 C   0  0  0  0  0  0  0  0  0
  1  2  1  0  0  0  0
  1  3  1  0  0  0  0
  3  4  4  0  0  0  0
  3 11  4  0  0  0  0
  4  5  4  0  0  0  0
  5  6  1  0  0  0  0
  5  9  4  0  0  0  0
  6  7  1  0  0  0  0
  7  8  1  0  0  0  0
  8  9  1  0  0  0  0
  8 20  1  0  0  0  0
  9 10  4  0  0  0  0
 10 11  4  0  0  0  0
 11 12  1  0  0  0  0
 12 13  1  0  0  0  0
 12 17  1  0  0  0  0
 13 14  1  0  0  0  0
 14 15  1  0  0  0  0
 14 19  1  0  0  0  0
 15 16  1  0  0  0  0
 16 17  1  0  0  0  0
 16 18  1  0  0  0  0
 20 21  2  0  0  0  0
 20 22  1  0  0  0  0
 22 23  4  0  0  0  0
 22 31  4  0  0  0  0
 23 24  4  0  0  0  0
 23 28  4  0  0  0  0
 24 25  4  0  0  0  0
 24 29  4  0  0  0  0
 25 26  4  0  0  0  0
 26 27  4  0  0  0  0
 27 28  4  0  0  0  0
 29 30  4  0  0  0  0
 29 32  1  0  0  0  0
 30 31  4  0  0  0  0
 32 33  4  0  0  0  0
 32 37  4  0  0  0  0
 33 34  4  0  0  0  0
 34 35  4  0  0  0  0
 34 38  1  0  0  0  0
 35 36  4  0  0  0  0
 36 37  4  0  0  0  0
M  END
>  <Name_Molregno>
326719

>  <5-HT1A>
6

>  <5-HT1B>
7.3

>  <5-HT1D>
6.9

$$$$
326720
  Marvin  02231216192D 0   1.00000     0.00000     0

 31 34  0  0  1  0  0  0  0  0999 V2000
    2.8075   -1.8929    0.0000 Cl  0  0  0  0  0  0  0  0  0
    2.2555   -1.2798    0.0000 C   0  0  0  0  0  0  0  0  0
    1.4485   -1.4513    0.0000 C   0  0  0  0  0  0  0  0  0
    0.8965   -0.8382    0.0000 C   0  0  0  0  0  0  0  0  0
    1.1514   -0.0536    0.0000 C   0  0  0  0  0  0  0  0  0
    1.9584    0.1179    0.0000 C   0  0  0  0  0  0  0  0  0
    2.2134    0.9025    0.0000 C   0  0  0  0  0  0  0  0  0
    3.0203    1.0741    0.0000 C   0  0  0  0  0  0  0  0  0
    3.5724    0.4610    0.0000 O   0  0  0  0  0  0  0  0  0
    3.2753    1.8587    0.0000 N   0  0  0  0  0  0  0  0  0
    2.7903    2.5261    0.0000 C   0  0  0  0  0  0  0  0  0
    3.2753    3.1936    0.0000 C   0  0  0  0  0  0  0  0  0
    4.0599    2.9386    0.0000 C   0  0  0  0  0  0  0  0  0
    4.7744    3.3511    0.0000 C   0  0  0  0  0  0  0  0  0
    5.4888    2.9386    0.0000 C   0  0  0  0  0  0  0  0  0
    6.2033    3.3511    0.0000 O   0  0  0  0  0  0  0  0  0
    6.9178    2.9386    0.0000 C   0  0  0  0  0  0  0  0  0
    5.4888    2.1136    0.0000 C   0  0  0  0  0  0  0  0  0
    6.2033    1.7011    0.0000 N   0  0  0  0  0  0  0  0  0
    6.9178    2.1136    0.0000 C   0  0  0  0  0  0  0  0  0
    7.6322    1.7011    0.0000 C   0  0  0  0  0  0  0  0  0
    7.6322    0.8761    0.0000 N   0  0  0  0  0  0  0  0  0
    8.3467    0.4636    0.0000 C   0  0  0  0  0  0  0  0  0
    6.9178    0.4636    0.0000 C   0  0  0  0  0  0  0  0  0
    6.2033    0.8761    0.0000 C   0  0  0  0  0  0  0  0  0
    6.9178   -0.3614    0.0000 C   0  0  0  0  0  0  0  0  0
    8.3467    2.1136    0.0000 C   0  0  0  0  0  0  0  0  0
    4.7744    1.7011    0.0000 C   0  0  0  0  0  0  0  0  0
    4.0599    2.1136    0.0000 C   0  0  0  0  0  0  0  0  0
    2.5104   -0.4952    0.0000 C   0  0  0  0  0  0  0  0  0
    3.3174   -0.3237    0.0000 F   0  0  0  0  0  0  0  0  0
  1  2  1  0  0  0  0
  2  3  4  0  0  0  0
  2 30  4  0  0  0  0
  3  4  4  0  0  0  0
  4  5  4  0  0  0  0
  5  6  4  0  0  0  0
  6  7  1  0  0  0  0
  6 30  4  0  0  0  0
  7  8  1  0  0  0  0
  8  9  2  0  0  0  0
  8 10  1  0  0  0  0
 10 11  1  0  0  0  0
 10 29  1  0  0  0  0
 11 12  1  0  0  0  0
 12 13  1  0  0  0  0
 13 14  4  0  0  0  0
 13 29  4  0  0  0  0
 14 15  4  0  0  0  0
 15 16  1  0  0  0  0
 15 18  4  0  0  0  0
 16 17  1  0  0  0  0
 18 19  1  0  0  0  0
 18 28  4  0  0  0  0
 19 20  1  0  0  0  0
 19 25  1  0  0  0  0
 20 21  1  0  0  0  0
 21 22  1  0  0  0  0
 21 27  1  0  0  0  0
 22 23  1  0  0  0  0
 22 24  1  0  0  0  0
 24 25  1  0  0  0  0
 24 26  1  0  0  0  0
 28 29  4  0  0  0  0
 30 31  1  0  0  0  0
M  END
>  <Name_Molregno>
326720

>  <5-HT1B>
8.7

>  <5-HT1D>
7

$$$$
326721
  Marvin  02231216192D 0   1.00000     0.00000     0

 34 37  0  0  1  0  0  0  0  0999 V2000
    2.5102   -4.2296    0.0000 F   0  0  0  0  0  0  0  0  0
    1.9582   -3.6166    0.0000 C   0  0  0  0  0  0  0  0  0
    1.1512   -3.7881    0.0000 C   0  0  0  0  0  0  0  0  0
    0.5992   -3.1750    0.0000 C   0  0  0  0  0  0  0  0  0
    0.8541   -2.3904    0.0000 C   0  0  0  0  0  0  0  0  0
    1.6611   -2.2188    0.0000 C   0  0  0  0  0  0  0  0  0
    1.9160   -1.4342    0.0000 C   0  0  0  0  0  0  0  0  0
    2.7230   -1.2627    0.0000 C   0  0  0  0  0  0  0  0  0
    3.2750   -1.8758    0.0000 O   0  0  0  0  0  0  0  0  0
    2.9779   -0.4781    0.0000 N   0  0  0  0  0  0  0  0  0
    2.4930    0.1894    0.0000 C   0  0  0  0  0  0  0  0  0
    2.9779    0.8568    0.0000 C   0  0  0  0  0  0  0  0  0
    3.7625    0.6019    0.0000 C   0  0  0  0  0  0  0  0  0
    4.4770    1.0144    0.0000 C   0  0  0  0  0  0  0  0  0
    5.1915    0.6019    0.0000 C   0  0  0  0  0  0  0  0  0
    5.9060    1.0144    0.0000 O   0  0  0  0  0  0  0  0  0
    6.6204    0.6019    0.0000 C   0  0  0  0  0  0  0  0  0
    5.1915   -0.2231    0.0000 C   0  0  0  0  0  0  0  0  0
    5.9060   -0.6356    0.0000 N   0  0  0  0  0  0  0  0  0
    6.6204   -0.2231    0.0000 C   0  0  0  0  0  0  0  0  0
    7.3349   -0.6356    0.0000 C   0  0  0  0  0  0  0  0  0
    7.3349   -1.4606    0.0000 N   0  0  0  0  0  0  0  0  0
    8.0494   -1.8731    0.0000 C   0  0  0  0  0  0  0  0  0
    6.6204   -1.8731    0.0000 C   0  0  0  0  0  0  0  0  0
    5.9060   -1.4606    0.0000 C   0  0  0  0  0  0  0  0  0
    6.6204   -2.6981    0.0000 C   0  0  0  0  0  0  0  0  0
    8.0494   -0.2231    0.0000 C   0  0  0  0  0  0  0  0  0
    4.4770   -0.6356    0.0000 C   0  0  0  0  0  0  0  0  0
    3.7625   -0.2231    0.0000 C   0  0  0  0  0  0  0  0  0
    2.2131   -2.8319    0.0000 C   0  0  0  0  0  0  0  0  0
    3.0201   -2.6604    0.0000 C   0  0  0  0  0  0  0  0  0
    3.8271   -2.4889    0.0000 F   0  0  0  0  0  0  0  0  0
    2.8486   -1.8534    0.0000 F   0  0  0  0  0  0  0  0  0
    3.1916   -3.4674    0.0000 F   0  0  0  0  0  0  0  0  0
  1  2  1  0  0  0  0
  2  3  4  0  0  0  0
  2 30  4  0  0  0  0
  3  4  4  0  0  0  0
  4  5  4  0  0  0  0
  5  6  4  0  0  0  0
  6  7  1  0  0  0  0
  6 30  4  0  0  0  0
  7  8  1  0  0  0  0
  8  9  2  0  0  0  0
  8 10  1  0  0  0  0
 10 11  1  0  0  0  0
 10 29  1  0  0  0  0
 11 12  1  0  0  0  0
 12 13  1  0  0  0  0
 13 14  4  0  0  0  0
 13 29  4  0  0  0  0
 14 15  4  0  0  0  0
 15 16  1  0  0  0  0
 15 18  4  0  0  0  0
 16 17  1  0  0  0  0
 18 19  1  0  0  0  0
 18 28  4  0  0  0  0
 19 20  1  0  0  0  0
 19 25  1  0  0  0  0
 20 21  1  0  0  0  0
 21 22  1  0  0  0  0
 21 27  1  0  0  0  0
 22 23  1  0  0  0  0
 22 24  1  0  0  0  0
 24 25  1  0  0  0  0
 24 26  1  0  0  0  0
 28 29  4  0  0  0  0
 30 31  1  0  0  0  0
 31 32  1  0  0  0  0
 31 33  1  0  0  0  0
 31 34  1  0  0  0  0
M  END
>  <Name_Molregno>
326721

>  <5-HT1B>
8.5

>  <5-HT1D>
6.7

$$$$
326722
  Marvin  02231216192D 0   1.00000     0.00000     0

 34 37  0  0  1  0  0  0  0  0999 V2000
   -3.4848   -1.6889    0.0000 F   0  0  0  0  0  0  0  0  0
   -4.2918   -1.8604    0.0000 C   0  0  0  0  0  0  0  0  0
   -4.5467   -2.6450    0.0000 C   0  0  0  0  0  0  0  0  0
   -5.3537   -2.8165    0.0000 C   0  0  0  0  0  0  0  0  0
   -5.9057   -2.2034    0.0000 C   0  0  0  0  0  0  0  0  0
   -5.6508   -1.4188    0.0000 C   0  0  0  0  0  0  0  0  0
   -4.8438   -1.2473    0.0000 C   0  0  0  0  0  0  0  0  0
   -4.5889   -0.4627    0.0000 N   0  0  0  0  0  0  0  0  0
   -5.1409    0.1504    0.0000 C   0  0  0  0  0  0  0  0  0
   -5.9479   -0.0211    0.0000 O   0  0  0  0  0  0  0  0  0
   -4.8860    0.9350    0.0000 N   0  0  0  0  0  0  0  0  0
   -5.3709    1.6025    0.0000 C   0  0  0  0  0  0  0  0  0
   -4.8860    2.2699    0.0000 C   0  0  0  0  0  0  0  0  0
   -4.1014    2.0150    0.0000 C   0  0  0  0  0  0  0  0  0
   -3.3869    2.4275    0.0000 C   0  0  0  0  0  0  0  0  0
   -2.6724    2.0150    0.0000 C   0  0  0  0  0  0  0  0  0
   -1.9580    2.4275    0.0000 O   0  0  0  0  0  0  0  0  0
   -1.2435    2.0150    0.0000 C   0  0  0  0  0  0  0  0  0
   -2.6724    1.1900    0.0000 C   0  0  0  0  0  0  0  0  0
   -1.9580    0.7775    0.0000 N   0  0  0  0  0  0  0  0  0
   -1.2435    1.1900    0.0000 C   0  0  0  0  0  0  0  0  0
   -0.5290    0.7775    0.0000 C   0  0  0  0  0  0  0  0  0
   -0.5290   -0.0475    0.0000 N   0  0  0  0  0  0  0  0  0
    0.1855   -0.4600    0.0000 C   0  0  0  0  0  0  0  0  0
   -1.2435   -0.4600    0.0000 C   0  0  0  0  0  0  0  0  0
   -1.9580   -0.0475    0.0000 C   0  0  0  0  0  0  0  0  0
   -1.2435   -1.2850    0.0000 C   0  0  0  0  0  0  0  0  0
    0.1855    1.1900    0.0000 C   0  0  0  0  0  0  0  0  0
   -3.3869    0.7775    0.0000 C   0  0  0  0  0  0  0  0  0
   -4.1014    1.1900    0.0000 C   0  0  0  0  0  0  0  0  0
   -3.9947   -3.2581    0.0000 C   0  0  0  0  0  0  0  0  0
   -3.4427   -3.8712    0.0000 F   0  0  0  0  0  0  0  0  0
   -4.6078   -3.8101    0.0000 F   0  0  0  0  0  0  0  0  0
   -3.3816   -2.7061    0.0000 F   0  0  0  0  0  0  0  0  0
  1  2  1  0  0  0  0
  2  3  4  0  0  0  0
  2  7  4  0  0  0  0
  3  4  4  0  0  0  0
  3 31  1  0  0  0  0
  4  5  4  0  0  0  0
  5  6  4  0  0  0  0
  6  7  4  0  0  0  0
  7  8  1  0  0  0  0
  8  9  1  0  0  0  0
  9 10  2  0  0  0  0
  9 11  1  0  0  0  0
 11 12  1  0  0  0  0
 11 30  1  0  0  0  0
 12 13  1  0  0  0  0
 13 14  1  0  0  0  0
 14 15  4  0  0  0  0
 14 30  4  0  0  0  0
 15 16  4  0  0  0  0
 16 17  1  0  0  0  0
 16 19  4  0  0  0  0
 17 18  1  0  0  0  0
 19 20  1  0  0  0  0
 19 29  4  0  0  0  0
 20 21  1  0  0  0  0
 20 26  1  0  0  0  0
 21 22  1  0  0  0  0
 22 23  1  0  0  0  0
 22 28  1  0  0  0  0
 23 24  1  0  0  0  0
 23 25  1  0  0  0  0
 25 26  1  0  0  0  0
 25 27  1  0  0  0  0
 29 30  4  0  0  0  0
 31 32  1  0  0  0  0
 31 33  1  0  0  0  0
 31 34  1  0  0  0  0
M  END
>  <Name_Molregno>
326722

>  <5-HT1B>
8.4

>  <5-HT1D>
6.8

$$$$
326723
  Marvin  02231216192D 0   1.00000     0.00000     0

 34 37  0  0  1  0  0  0  0  0999 V2000
   -3.4848   -1.6889    0.0000 Cl  0  0  0  0  0  0  0  0  0
   -4.2918   -1.8604    0.0000 C   0  0  0  0  0  0  0  0  0
   -4.5467   -2.6450    0.0000 C   0  0  0  0  0  0  0  0  0
   -5.3537   -2.8165    0.0000 C   0  0  0  0  0  0  0  0  0
   -5.9057   -2.2034    0.0000 C   0  0  0  0  0  0  0  0  0
   -5.6508   -1.4188    0.0000 C   0  0  0  0  0  0  0  0  0
   -4.8438   -1.2473    0.0000 C   0  0  0  0  0  0  0  0  0
   -4.5889   -0.4627    0.0000 N   0  0  0  0  0  0  0  0  0
   -5.1409    0.1504    0.0000 C   0  0  0  0  0  0  0  0  0
   -5.9479   -0.0211    0.0000 O   0  0  0  0  0  0  0  0  0
   -4.8860    0.9350    0.0000 N   0  0  0  0  0  0  0  0  0
   -5.3709    1.6025    0.0000 C   0  0  0  0  0  0  0  0  0
   -4.8860    2.2699    0.0000 C   0  0  0  0  0  0  0  0  0
   -4.1014    2.0150    0.0000 C   0  0  0  0  0  0  0  0  0
   -3.3869    2.4275    0.0000 C   0  0  0  0  0  0  0  0  0
   -2.6724    2.0150    0.0000 C   0  0  0  0  0  0  0  0  0
   -1.9580    2.4275    0.0000 O   0  0  0  0  0  0  0  0  0
   -1.2435    2.0150    0.0000 C   0  0  0  0  0  0  0  0  0
   -2.6724    1.1900    0.0000 C   0  0  0  0  0  0  0  0  0
   -1.9580    0.7775    0.0000 N   0  0  0  0  0  0  0  0  0
   -1.2435    1.1900    0.0000 C   0  0  0  0  0  0  0  0  0
   -0.5290    0.7775    0.0000 C   0  0  0  0  0  0  0  0  0
   -0.5290   -0.0475    0.0000 N   0  0  0  0  0  0  0  0  0
    0.1855   -0.4600    0.0000 C   0  0  0  0  0  0  0  0  0
   -1.2435   -0.4600    0.0000 C   0  0  0  0  0  0  0  0  0
   -1.9580   -0.0475    0.0000 C   0  0  0  0  0  0  0  0  0
   -1.2435   -1.2850    0.0000 C   0  0  0  0  0  0  0  0  0
    0.1855    1.1900    0.0000 C   0  0  0  0  0  0  0  0  0
   -3.3869    0.7775    0.0000 C   0  0  0  0  0  0  0  0  0
   -4.1014    1.1900    0.0000 C   0  0  0  0  0  0  0  0  0
   -3.9947   -3.2581    0.0000 C   0  0  0  0  0  0  0  0  0
   -3.4427   -3.8712    0.0000 F   0  0  0  0  0  0  0  0  0
   -4.6078   -3.8101    0.0000 F   0  0  0  0  0  0  0  0  0
   -3.3816   -2.7061    0.0000 F   0  0  0  0  0  0  0  0  0
  1  2  1  0  0  0  0
  2  3  4  0  0  0  0
  2  7  4  0  0  0  0
  3  4  4  0  0  0  0
  3 31  1  0  0  0  0
  4  5  4  0  0  0  0
  5  6  4  0  0  0  0
  6  7  4  0  0  0  0
  7  8  1  0  0  0  0
  8  9  1  0  0  0  0
  9 10  2  0  0  0  0
  9 11  1  0  0  0  0
 11 12  1  0  0  0  0
 11 30  1  0  0  0  0
 12 13  1  0  0  0  0
 13 14  1  0  0  0  0
 14 15  4  0  0  0  0
 14 30  4  0  0  0  0
 15 16  4  0  0  0  0
 16 17  1  0  0  0  0
 16 19  4  0  0  0  0
 17 18  1  0  0  0  0
 19 20  1  0  0  0  0
 19 29  4  0  0  0  0
 20 21  1  0  0  0  0
 20 26  1  0  0  0  0
 21 22  1  0  0  0  0
 22 23  1  0  0  0  0
 22 28  1  0  0  0  0
 23 24  1  0  0  0  0
 23 25  1  0  0  0  0
 25 26  1  0  0  0  0
 25 27  1  0  0  0  0
 29 30  4  0  0  0  0
 31 32  1  0  0  0  0
 31 33  1  0  0  0  0
 31 34  1  0  0  0  0
M  END
>  <Name_Molregno>
326723

>  <5-HT1B>
8.6

>  <5-HT1D>
7.3

$$$$
326724
  Marvin  02231216192D 0   1.00000     0.00000     0

 34 37  0  0  1  0  0  0  0  0999 V2000
   -3.4848   -1.6889    0.0000 F   0  0  0  0  0  0  0  0  0
   -4.2918   -1.8604    0.0000 C   0  0  0  0  0  0  0  0  0
   -4.5467   -2.6450    0.0000 C   0  0  0  0  0  0  0  0  0
   -5.3537   -2.8165    0.0000 C   0  0  0  0  0  0  0  0  0
   -5.9057   -2.2034    0.0000 C   0  0  0  0  0  0  0  0  0
   -5.6508   -1.4188    0.0000 C   0  0  0  0  0  0  0  0  0
   -4.8438   -1.2473    0.0000 C   0  0  0  0  0  0  0  0  0
   -4.5889   -0.4627    0.0000 O   0  0  0  0  0  0  0  0  0
   -5.1409    0.1504    0.0000 C   0  0  0  0  0  0  0  0  0
   -5.9479   -0.0211    0.0000 O   0  0  0  0  0  0  0  0  0
   -4.8860    0.9350    0.0000 N   0  0  0  0  0  0  0  0  0
   -5.3709    1.6025    0.0000 C   0  0  0  0  0  0  0  0  0
   -4.8860    2.2699    0.0000 C   0  0  0  0  0  0  0  0  0
   -4.1014    2.0150    0.0000 C   0  0  0  0  0  0  0  0  0
   -3.3869    2.4275    0.0000 C   0  0  0  0  0  0  0  0  0
   -2.6724    2.0150    0.0000 C   0  0  0  0  0  0  0  0  0
   -1.9580    2.4275    0.0000 O   0  0  0  0  0  0  0  0  0
   -1.2435    2.0150    0.0000 C   0  0  0  0  0  0  0  0  0
   -2.6724    1.1900    0.0000 C   0  0  0  0  0  0  0  0  0
   -1.9580    0.7775    0.0000 N   0  0  0  0  0  0  0  0  0
   -1.2435    1.1900    0.0000 C   0  0  0  0  0  0  0  0  0
   -0.5290    0.7775    0.0000 C   0  0  0  0  0  0  0  0  0
   -0.5290   -0.0475    0.0000 N   0  0  0  0  0  0  0  0  0
    0.1855   -0.4600    0.0000 C   0  0  0  0  0  0  0  0  0
   -1.2435   -0.4600    0.0000 C   0  0  0  0  0  0  0  0  0
   -1.9580   -0.0475    0.0000 C   0  0  0  0  0  0  0  0  0
   -1.2435   -1.2850    0.0000 C   0  0  0  0  0  0  0  0  0
    0.1855    1.1900    0.0000 C   0  0  0  0  0  0  0  0  0
   -3.3869    0.7775    0.0000 C   0  0  0  0  0  0  0  0  0
   -4.1014    1.1900    0.0000 C   0  0  0  0  0  0  0  0  0
   -3.9947   -3.2581    0.0000 C   0  0  0  0  0  0  0  0  0
   -3.4427   -3.8712    0.0000 F   0  0  0  0  0  0  0  0  0
   -4.6078   -3.8101    0.0000 F   0  0  0  0  0  0  0  0  0
   -3.3816   -2.7061    0.0000 F   0  0  0  0  0  0  0  0  0
  1  2  1  0  0  0  0
  2  3  4  0  0  0  0
  2  7  4  0  0  0  0
  3  4  4  0  0  0  0
  3 31  1  0  0  0  0
  4  5  4  0  0  0  0
  5  6  4  0  0  0  0
  6  7  4  0  0  0  0
  7  8  1  0  0  0  0
  8  9  1  0  0  0  0
  9 10  2  0  0  0  0
  9 11  1  0  0  0  0
 11 12  1  0  0  0  0
 11 30  1  0  0  0  0
 12 13  1  0  0  0  0
 13 14  1  0  0  0  0
 14 15  4  0  0  0  0
 14 30  4  0  0  0  0
 15 16  4  0  0  0  0
 16 17  1  0  0  0  0
 16 19  4  0  0  0  0
 17 18  1  0  0  0  0
 19 20  1  0  0  0  0
 19 29  4  0  0  0  0
 20 21  1  0  0  0  0
 20 26  1  0  0  0  0
 21 22  1  0  0  0  0
 22 23  1  0  0  0  0
 22 28  1  0  0  0  0
 23 24  1  0  0  0  0
 23 25  1  0  0  0  0
 25 26  1  0  0  0  0
 25 27  1  0  0  0  0
 29 30  4  0  0  0  0
 31 32  1  0  0  0  0
 31 33  1  0  0  0  0
 31 34  1  0  0  0  0
M  END
>  <Name_Molregno>
326724

>  <5-HT1B>
8.6

>  <5-HT1D>
7.5

$$$$
326725
  Marvin  02231216192D 0   1.00000     0.00000     0

 34 37  0  0  1  0  0  0  0  0999 V2000
   -3.4848   -1.6889    0.0000 Cl  0  0  0  0  0  0  0  0  0
   -4.2918   -1.8604    0.0000 C   0  0  0  0  0  0  0  0  0
   -4.5467   -2.6450    0.0000 C   0  0  0  0  0  0  0  0  0
   -5.3537   -2.8165    0.0000 C   0  0  0  0  0  0  0  0  0
   -5.9057   -2.2034    0.0000 C   0  0  0  0  0  0  0  0  0
   -5.6508   -1.4188    0.0000 C   0  0  0  0  0  0  0  0  0
   -4.8438   -1.2473    0.0000 C   0  0  0  0  0  0  0  0  0
   -4.5889   -0.4627    0.0000 O   0  0  0  0  0  0  0  0  0
   -5.1409    0.1504    0.0000 C   0  0  0  0  0  0  0  0  0
   -5.9479   -0.0211    0.0000 O   0  0  0  0  0  0  0  0  0
   -4.8860    0.9350    0.0000 N   0  0  0  0  0  0  0  0  0
   -5.3709    1.6025    0.0000 C   0  0  0  0  0  0  0  0  0
   -4.8860    2.2699    0.0000 C   0  0  0  0  0  0  0  0  0
   -4.1014    2.0150    0.0000 C   0  0  0  0  0  0  0  0  0
   -3.3869    2.4275    0.0000 C   0  0  0  0  0  0  0  0  0
   -2.6724    2.0150    0.0000 C   0  0  0  0  0  0  0  0  0
   -1.9580    2.4275    0.0000 O   0  0  0  0  0  0  0  0  0
   -1.2435    2.0150    0.0000 C   0  0  0  0  0  0  0  0  0
   -2.6724    1.1900    0.0000 C   0  0  0  0  0  0  0  0  0
   -1.9580    0.7775    0.0000 N   0  0  0  0  0  0  0  0  0
   -1.2435    1.1900    0.0000 C   0  0  0  0  0  0  0  0  0
   -0.5290    0.7775    0.0000 C   0  0  0  0  0  0  0  0  0
   -0.5290   -0.0475    0.0000 N   0  0  0  0  0  0  0  0  0
    0.1855   -0.4600    0.0000 C   0  0  0  0  0  0  0  0  0
   -1.2435   -0.4600    0.0000 C   0  0  0  0  0  0  0  0  0
   -1.9580   -0.0475    0.0000 C   0  0  0  0  0  0  0  0  0
   -1.2435   -1.2850    0.0000 C   0  0  0  0  0  0  0  0  0
    0.1855    1.1900    0.0000 C   0  0  0  0  0  0  0  0  0
   -3.3869    0.7775    0.0000 C   0  0  0  0  0  0  0  0  0
   -4.1014    1.1900    0.0000 C   0  0  0  0  0  0  0  0  0
   -3.9947   -3.2581    0.0000 C   0  0  0  0  0  0  0  0  0
   -3.4427   -3.8712    0.0000 F   0  0  0  0  0  0  0  0  0
   -4.6078   -3.8101    0.0000 F   0  0  0  0  0  0  0  0  0
   -3.3816   -2.7061    0.0000 F   0  0  0  0  0  0  0  0  0
  1  2  1  0  0  0  0
  2  3  4  0  0  0  0
  2  7  4  0  0  0  0
  3  4  4  0  0  0  0
  3 31  1  0  0  0  0
  4  5  4  0  0  0  0
  5  6  4  0  0  0  0
  6  7  4  0  0  0  0
  7  8  1  0  0  0  0
  8  9  1  0  0  0  0
  9 10  2  0  0  0  0
  9 11  1  0  0  0  0
 11 12  1  0  0  0  0
 11 30  1  0  0  0  0
 12 13  1  0  0  0  0
 13 14  1  0  0  0  0
 14 15  4  0  0  0  0
 14 30  4  0  0  0  0
 15 16  4  0  0  0  0
 16 17  1  0  0  0  0
 16 19  4  0  0  0  0
 17 18  1  0  0  0  0
 19 20  1  0  0  0  0
 19 29  4  0  0  0  0
 20 21  1  0  0  0  0
 20 26  1  0  0  0  0
 21 22  1  0  0  0  0
 22 23  1  0  0  0  0
 22 28  1  0  0  0  0
 23 24  1  0  0  0  0
 23 25  1  0  0  0  0
 25 26  1  0  0  0  0
 25 27  1  0  0  0  0
 29 30  4  0  0  0  0
 31 32  1  0  0  0  0
 31 33  1  0  0  0  0
 31 34  1  0  0  0  0
M  END
>  <Name_Molregno>
326725

>  <5-HT1B>
8.6

>  <5-HT1D>
7.6

$$$$
326726
  Marvin  02231216192D 0   1.00000     0.00000     0

 35 39  0  0  1  0  0  0  0  0999 V2000
   -2.3618   -2.1405    0.0000 O   0  0  0  0  0  0  0  0  0
   -1.6473   -1.7280    0.0000 C   0  0  0  0  0  0  0  0  0
   -3.0763   -1.7280    0.0000 C   0  0  0  0  0  0  0  0  0
   -3.7908   -2.1405    0.0000 C   0  0  0  0  0  0  0  0  0
   -4.5052   -1.7280    0.0000 C   0  0  0  0  0  0  0  0  0
   -5.2898   -1.9829    0.0000 C   0  0  0  0  0  0  0  0  0
   -5.7748   -1.3155    0.0000 C   0  0  0  0  0  0  0  0  0
   -5.2898   -0.6480    0.0000 N   0  0  0  0  0  0  0  0  0
   -4.5052   -0.9030    0.0000 C   0  0  0  0  0  0  0  0  0
   -3.7908   -0.4905    0.0000 C   0  0  0  0  0  0  0  0  0
   -3.0763   -0.9030    0.0000 C   0  0  0  0  0  0  0  0  0
   -2.3618   -0.4905    0.0000 N   0  0  0  0  0  0  0  0  0
   -2.3618    0.3345    0.0000 C   0  0  0  0  0  0  0  0  0
   -1.6473    0.7470    0.0000 C   0  0  0  0  0  0  0  0  0
   -0.9329    0.3345    0.0000 N   0  0  0  0  0  0  0  0  0
   -0.2184    0.7470    0.0000 C   0  0  0  0  0  0  0  0  0
   -0.9329   -0.4905    0.0000 C   0  0  0  0  0  0  0  0  0
   -1.6473   -0.9030    0.0000 C   0  0  0  0  0  0  0  0  0
   -0.2184   -0.9030    0.0000 C   0  0  0  0  0  0  0  0  0
   -1.6473    1.5720    0.0000 C   0  0  0  0  0  0  0  0  0
   -5.5448    0.1366    0.0000 C   0  0  0  0  0  0  0  0  0
   -6.3518    0.3081    0.0000 O   0  0  0  0  0  0  0  0  0
   -4.9928    0.7497    0.0000 C   0  0  0  0  0  0  0  0  0
   -5.2477    1.5343    0.0000 C   0  0  0  0  0  0  0  0  0
   -4.6957    2.1474    0.0000 C   0  0  0  0  0  0  0  0  0
   -3.8887    1.9759    0.0000 C   0  0  0  0  0  0  0  0  0
   -3.6337    1.1913    0.0000 C   0  0  0  0  0  0  0  0  0
   -4.1858    0.5782    0.0000 C   0  0  0  0  0  0  0  0  0
   -3.3367    2.5890    0.0000 C   0  0  0  0  0  0  0  0  0
   -3.5916    3.3736    0.0000 C   0  0  0  0  0  0  0  0  0
   -3.0396    3.9867    0.0000 C   0  0  0  0  0  0  0  0  0
   -2.2326    3.8152    0.0000 C   0  0  0  0  0  0  0  0  0
   -1.9776    3.0305    0.0000 C   0  0  0  0  0  0  0  0  0
   -2.5297    2.4175    0.0000 C   0  0  0  0  0  0  0  0  0
   -2.2747    1.6328    0.0000 C   0  0  0  0  0  0  0  0  0
  1  2  1  0  0  0  0
  1  3  1  0  0  0  0
  3  4  4  0  0  0  0
  3 11  4  0  0  0  0
  4  5  4  0  0  0  0
  5  6  1  0  0  0  0
  5  9  4  0  0  0  0
  6  7  1  0  0  0  0
  7  8  1  0  0  0  0
  8  9  1  0  0  0  0
  8 21  1  0  0  0  0
  9 10  4  0  0  0  0
 10 11  4  0  0  0  0
 11 12  1  0  0  0  0
 12 13  1  0  0  0  0
 12 18  1  0  0  0  0
 13 14  1  0  0  0  0
 14 15  1  0  0  0  0
 14 20  1  0  0  0  0
 15 16  1  0  0  0  0
 15 17  1  0  0  0  0
 17 18  1  0  0  0  0
 17 19  1  0  0  0  0
 21 22  2  0  0  0  0
 21 23  1  0  0  0  0
 23 24  4  0  0  0  0
 23 28  4  0  0  0  0
 24 25  4  0  0  0  0
 25 26  4  0  0  0  0
 26 27  4  0  0  0  0
 26 29  1  0  0  0  0
 27 28  4  0  0  0  0
 29 30  4  0  0  0  0
 29 34  4  0  0  0  0
 30 31  4  0  0  0  0
 31 32  4  0  0  0  0
 32 33  4  0  0  0  0
 33 34  4  0  0  0  0
 34 35  1  0  0  0  0
M  END
>  <Name_Molregno>
326726

>  <5-HT1B>
9.2

>  <5-HT1D>
7.8

$$$$
326727
  Marvin  02231216192D 0   1.00000     0.00000     0

 37 41  0  0  1  0  0  0  0  0999 V2000
   -3.0184   -2.6904    0.0000 O   0  0  0  0  0  0  0  0  0
   -2.3039   -2.2779    0.0000 C   0  0  0  0  0  0  0  0  0
   -3.7329   -2.2779    0.0000 C   0  0  0  0  0  0  0  0  0
   -4.4474   -2.6904    0.0000 C   0  0  0  0  0  0  0  0  0
   -5.1618   -2.2779    0.0000 C   0  0  0  0  0  0  0  0  0
   -5.9464   -2.5329    0.0000 C   0  0  0  0  0  0  0  0  0
   -6.4314   -1.8654    0.0000 C   0  0  0  0  0  0  0  0  0
   -5.9464   -1.1980    0.0000 N   0  0  0  0  0  0  0  0  0
   -5.1618   -1.4529    0.0000 C   0  0  0  0  0  0  0  0  0
   -4.4474   -1.0404    0.0000 C   0  0  0  0  0  0  0  0  0
   -3.7329   -1.4529    0.0000 C   0  0  0  0  0  0  0  0  0
   -3.0184   -1.0404    0.0000 N   0  0  0  0  0  0  0  0  0
   -3.0184   -0.2154    0.0000 C   0  0  0  0  0  0  0  0  0
   -2.3039    0.1971    0.0000 C   0  0  0  0  0  0  0  0  0
   -1.5895   -0.2154    0.0000 N   0  0  0  0  0  0  0  0  0
   -1.5895   -1.0404    0.0000 C   0  0  0  0  0  0  0  0  0
   -2.3039   -1.4529    0.0000 C   0  0  0  0  0  0  0  0  0
   -0.8750   -1.4529    0.0000 C   0  0  0  0  0  0  0  0  0
   -2.3039    1.0221    0.0000 C   0  0  0  0  0  0  0  0  0
   -6.2014   -0.4134    0.0000 C   0  0  0  0  0  0  0  0  0
   -7.0084   -0.2418    0.0000 O   0  0  0  0  0  0  0  0  0
   -5.6494    0.1997    0.0000 C   0  0  0  0  0  0  0  0  0
   -5.9043    0.9844    0.0000 C   0  0  0  0  0  0  0  0  0
   -5.3523    1.5975    0.0000 C   0  0  0  0  0  0  0  0  0
   -4.5453    1.4259    0.0000 C   0  0  0  0  0  0  0  0  0
   -4.2903    0.6413    0.0000 C   0  0  0  0  0  0  0  0  0
   -4.8424    0.0282    0.0000 C   0  0  0  0  0  0  0  0  0
   -3.9933    2.0390    0.0000 C   0  0  0  0  0  0  0  0  0
   -4.2482    2.8236    0.0000 C   0  0  0  0  0  0  0  0  0
   -3.6962    3.4367    0.0000 C   0  0  0  0  0  0  0  0  0
   -2.8892    3.2652    0.0000 C   0  0  0  0  0  0  0  0  0
   -2.6342    2.4806    0.0000 C   0  0  0  0  0  0  0  0  0
   -3.1863    1.8675    0.0000 C   0  0  0  0  0  0  0  0  0
   -2.9313    1.0829    0.0000 C   0  0  0  0  0  0  0  0  0
   -2.3372    3.8783    0.0000 C   0  0  0  0  0  0  0  0  0
   -2.5921    4.6629    0.0000 O   0  0  0  0  0  0  0  0  0
   -1.5302    3.7068    0.0000 C   0  0  0  0  0  0  0  0  0
  1  2  1  0  0  0  0
  1  3  1  0  0  0  0
  3  4  4  0  0  0  0
  3 11  4  0  0  0  0
  4  5  4  0  0  0  0
  5  6  1  0  0  0  0
  5  9  4  0  0  0  0
  6  7  1  0  0  0  0
  7  8  1  0  0  0  0
  8  9  1  0  0  0  0
  8 20  1  0  0  0  0
  9 10  4  0  0  0  0
 10 11  4  0  0  0  0
 11 12  1  0  0  0  0
 12 13  1  0  0  0  0
 12 17  1  0  0  0  0
 13 14  1  0  0  0  0
 14 15  1  0  0  0  0
 14 19  1  0  0  0  0
 15 16  1  0  0  0  0
 16 17  1  0  0  0  0
 16 18  1  0  0  0  0
 20 21  2  0  0  0  0
 20 22  1  0  0  0  0
 22 23  4  0  0  0  0
 22 27  4  0  0  0  0
 23 24  4  0  0  0  0
 24 25  4  0  0  0  0
 25 26  4  0  0  0  0
 25 28  1  0  0  0  0
 26 27  4  0  0  0  0
 28 29  4  0  0  0  0
 28 33  4  0  0  0  0
 29 30  4  0  0  0  0
 30 31  4  0  0  0  0
 31 32  4  0  0  0  0
 31 35  1  0  0  0  0
 32 33  4  0  0  0  0
 33 34  1  0  0  0  0
 35 36  2  0  0  0  0
 35 37  1  0  0  0  0
M  END
>  <Name_Molregno>
326727

>  <5-HT1B>
8.5

>  <5-HT1D>
6.4

$$$$
326728
  Marvin  02231216192D 0   1.00000     0.00000     0

 34 37  0  0  1  0  0  0  0  0999 V2000
   -0.0836   -0.6499    0.0000 F   0  0  0  0  0  0  0  0  0
    0.4684   -1.2630    0.0000 C   0  0  0  0  0  0  0  0  0
    1.2754   -1.0914    0.0000 C   0  0  0  0  0  0  0  0  0
    1.8274   -1.7045    0.0000 C   0  0  0  0  0  0  0  0  0
    1.5725   -2.4892    0.0000 C   0  0  0  0  0  0  0  0  0
    0.7655   -2.6607    0.0000 C   0  0  0  0  0  0  0  0  0
    0.2135   -2.0476    0.0000 C   0  0  0  0  0  0  0  0  0
   -0.5935   -2.2191    0.0000 C   0  0  0  0  0  0  0  0  0
   -1.4004   -2.3907    0.0000 F   0  0  0  0  0  0  0  0  0
   -0.4219   -3.0261    0.0000 F   0  0  0  0  0  0  0  0  0
   -0.7650   -1.4122    0.0000 F   0  0  0  0  0  0  0  0  0
    1.5304   -0.3068    0.0000 C   0  0  0  0  0  0  0  0  0
    2.3373   -0.1353    0.0000 C   0  0  0  0  0  0  0  0  0
    2.8894   -0.7484    0.0000 O   0  0  0  0  0  0  0  0  0
    2.5923    0.6493    0.0000 N   0  0  0  0  0  0  0  0  0
    2.1073    1.3168    0.0000 C   0  0  0  0  0  0  0  0  0
    2.5923    1.9842    0.0000 C   0  0  0  0  0  0  0  0  0
    3.3769    1.7293    0.0000 C   0  0  0  0  0  0  0  0  0
    4.0914    2.1418    0.0000 C   0  0  0  0  0  0  0  0  0
    4.8058    1.7293    0.0000 C   0  0  0  0  0  0  0  0  0
    5.5203    2.1418    0.0000 O   0  0  0  0  0  0  0  0  0
    6.2348    1.7293    0.0000 C   0  0  0  0  0  0  0  0  0
    4.8058    0.9043    0.0000 C   0  0  0  0  0  0  0  0  0
    5.5203    0.4918    0.0000 N   0  0  0  0  0  0  0  0  0
    6.2348    0.9043    0.0000 C   0  0  0  0  0  0  0  0  0
    6.9492    0.4918    0.0000 C   0  0  0  0  0  0  0  0  0
    6.9492   -0.3332    0.0000 N   0  0  0  0  0  0  0  0  0
    7.6637   -0.7457    0.0000 C   0  0  0  0  0  0  0  0  0
    6.2348   -0.7457    0.0000 C   0  0  0  0  0  0  0  0  0
    5.5203   -0.3332    0.0000 C   0  0  0  0  0  0  0  0  0
    6.2348   -1.5707    0.0000 C   0  0  0  0  0  0  0  0  0
    7.6637    0.9043    0.0000 C   0  0  0  0  0  0  0  0  0
    4.0914    0.4918    0.0000 C   0  0  0  0  0  0  0  0  0
    3.3769    0.9043    0.0000 C   0  0  0  0  0  0  0  0  0
  1  2  1  0  0  0  0
  2  3  4  0  0  0  0
  2  7  4  0  0  0  0
  3  4  4  0  0  0  0
  3 12  1  0  0  0  0
  4  5  4  0  0  0  0
  5  6  4  0  0  0  0
  6  7  4  0  0  0  0
  7  8  1  0  0  0  0
  8  9  1  0  0  0  0
  8 10  1  0  0  0  0
  8 11  1  0  0  0  0
 12 13  1  0  0  0  0
 13 14  2  0  0  0  0
 13 15  1  0  0  0  0
 15 16  1  0  0  0  0
 15 34  1  0  0  0  0
 16 17  1  0  0  0  0
 17 18  1  0  0  0  0
 18 19  4  0  0  0  0
 18 34  4  0  0  0  0
 19 20  4  0  0  0  0
 20 21  1  0  0  0  0
 20 23  4  0  0  0  0
 21 22  1  0  0  0  0
 23 24  1  0  0  0  0
 23 33  4  0  0  0  0
 24 25  1  0  0  0  0
 24 30  1  0  0  0  0
 25 26  1  0  0  0  0
 26 27  1  0  0  0  0
 26 32  1  0  0  0  0
 27 28  1  0  0  0  0
 27 29  1  0  0  0  0
 29 30  1  0  0  0  0
 29 31  1  0  0  0  0
 33 34  4  0  0  0  0
M  END
>  <Name_Molregno>
326728

>  <5-HT1B>
8.8

>  <5-HT1D>
6.9

$$$$
326730
  Marvin  02231216192D 0   1.00000     0.00000     0

 31 34  0  0  1  0  0  0  0  0999 V2000
    2.8075   -1.8929    0.0000 Cl  0  0  0  0  0  0  0  0  0
    2.2555   -1.2798    0.0000 C   0  0  0  0  0  0  0  0  0
    1.4485   -1.4513    0.0000 C   0  0  0  0  0  0  0  0  0
    0.8965   -0.8382    0.0000 C   0  0  0  0  0  0  0  0  0
    1.1514   -0.0536    0.0000 C   0  0  0  0  0  0  0  0  0
    1.9584    0.1179    0.0000 C   0  0  0  0  0  0  0  0  0
    2.2134    0.9025    0.0000 N   0  0  0  0  0  0  0  0  0
    3.0203    1.0741    0.0000 C   0  0  0  0  0  0  0  0  0
    3.5724    0.4610    0.0000 O   0  0  0  0  0  0  0  0  0
    3.2753    1.8587    0.0000 N   0  0  0  0  0  0  0  0  0
    2.7903    2.5261    0.0000 C   0  0  0  0  0  0  0  0  0
    3.2753    3.1936    0.0000 C   0  0  0  0  0  0  0  0  0
    4.0599    2.9386    0.0000 C   0  0  0  0  0  0  0  0  0
    4.7744    3.3511    0.0000 C   0  0  0  0  0  0  0  0  0
    5.4888    2.9386    0.0000 C   0  0  0  0  0  0  0  0  0
    6.2033    3.3511    0.0000 O   0  0  0  0  0  0  0  0  0
    6.9178    2.9386    0.0000 C   0  0  0  0  0  0  0  0  0
    5.4888    2.1136    0.0000 C   0  0  0  0  0  0  0  0  0
    6.2033    1.7011    0.0000 N   0  0  0  0  0  0  0  0  0
    6.9178    2.1136    0.0000 C   0  0  0  0  0  0  0  0  0
    7.6322    1.7011    0.0000 C   0  0  0  0  0  0  0  0  0
    7.6322    0.8761    0.0000 N   0  0  0  0  0  0  0  0  0
    8.3467    0.4636    0.0000 C   0  0  0  0  0  0  0  0  0
    6.9178    0.4636    0.0000 C   0  0  0  0  0  0  0  0  0
    6.2033    0.8761    0.0000 C   0  0  0  0  0  0  0  0  0
    6.9178   -0.3614    0.0000 C   0  0  0  0  0  0  0  0  0
    8.3467    2.1136    0.0000 C   0  0  0  0  0  0  0  0  0
    4.7744    1.7011    0.0000 C   0  0  0  0  0  0  0  0  0
    4.0599    2.1136    0.0000 C   0  0  0  0  0  0  0  0  0
    2.5104   -0.4952    0.0000 C   0  0  0  0  0  0  0  0  0
    3.3174   -0.3237    0.0000 F   0  0  0  0  0  0  0  0  0
  1  2  1  0  0  0  0
  2  3  4  0  0  0  0
  2 30  4  0  0  0  0
  3  4  4  0  0  0  0
  4  5  4  0  0  0  0
  5  6  4  0  0  0  0
  6  7  1  0  0  0  0
  6 30  4  0  0  0  0
  7  8  1  0  0  0  0
  8  9  2  0  0  0  0
  8 10  1  0  0  0  0
 10 11  1  0  0  0  0
 10 29  1  0  0  0  0
 11 12  1  0  0  0  0
 12 13  1  0  0  0  0
 13 14  4  0  0  0  0
 13 29  4  0  0  0  0
 14 15  4  0  0  0  0
 15 16  1  0  0  0  0
 15 18  4  0  0  0  0
 16 17  1  0  0  0  0
 18 19  1  0  0  0  0
 18 28  4  0  0  0  0
 19 20  1  0  0  0  0
 19 25  1  0  0  0  0
 20 21  1  0  0  0  0
 21 22  1  0  0  0  0
 21 27  1  0  0  0  0
 22 23  1  0  0  0  0
 22 24  1  0  0  0  0
 24 25  1  0  0  0  0
 24 26  1  0  0  0  0
 28 29  4  0  0  0  0
 30 31  1  0  0  0  0
M  END
>  <Name_Molregno>
326730

>  <5-HT1B>
8.1

>  <5-HT1D>
6.7

$$$$
326735
  Marvin  02231216192D 0   1.00000     0.00000     0

 35 39  0  0  1  0  0  0  0  0999 V2000
   -2.5141   -2.4478    0.0000 O   0  0  0  0  0  0  0  0  0
   -1.7996   -2.0353    0.0000 C   0  0  0  0  0  0  0  0  0
   -3.2286   -2.0353    0.0000 C   0  0  0  0  0  0  0  0  0
   -3.9430   -2.4478    0.0000 C   0  0  0  0  0  0  0  0  0
   -4.6575   -2.0353    0.0000 C   0  0  0  0  0  0  0  0  0
   -5.4421   -2.2902    0.0000 C   0  0  0  0  0  0  0  0  0
   -5.9271   -1.6228    0.0000 C   0  0  0  0  0  0  0  0  0
   -5.4421   -0.9554    0.0000 N   0  0  0  0  0  0  0  0  0
   -4.6575   -1.2103    0.0000 C   0  0  0  0  0  0  0  0  0
   -3.9430   -0.7978    0.0000 C   0  0  0  0  0  0  0  0  0
   -3.2286   -1.2103    0.0000 C   0  0  0  0  0  0  0  0  0
   -2.5141   -0.7978    0.0000 N   0  0  0  0  0  0  0  0  0
   -2.5141    0.0272    0.0000 C   0  0  0  0  0  0  0  0  0
   -1.7996    0.4397    0.0000 C   0  0  0  0  0  0  0  0  0
   -1.0852    0.0272    0.0000 N   0  0  0  0  0  0  0  0  0
   -1.0852   -0.7978    0.0000 C   0  0  0  0  0  0  0  0  0
   -1.7996   -1.2103    0.0000 C   0  0  0  0  0  0  0  0  0
   -0.3707   -1.2103    0.0000 C   0  0  0  0  0  0  0  0  0
   -1.7996    1.2647    0.0000 C   0  0  0  0  0  0  0  0  0
   -5.6971   -0.1707    0.0000 C   0  0  0  0  0  0  0  0  0
   -6.5041    0.0008    0.0000 O   0  0  0  0  0  0  0  0  0
   -5.1450    0.4423    0.0000 C   0  0  0  0  0  0  0  0  0
   -5.4000    1.2270    0.0000 C   0  0  0  0  0  0  0  0  0
   -4.8480    1.8401    0.0000 C   0  0  0  0  0  0  0  0  0
   -4.0410    1.6685    0.0000 C   0  0  0  0  0  0  0  0  0
   -3.7860    0.8839    0.0000 C   0  0  0  0  0  0  0  0  0
   -4.3381    0.2708    0.0000 C   0  0  0  0  0  0  0  0  0
   -3.4889    2.2816    0.0000 C   0  0  0  0  0  0  0  0  0
   -3.7439    3.0663    0.0000 C   0  0  0  0  0  0  0  0  0
   -3.1919    3.6793    0.0000 C   0  0  0  0  0  0  0  0  0
   -2.3849    3.5078    0.0000 N   0  0  0  0  0  0  0  0  0
   -2.1299    2.7232    0.0000 C   0  0  0  0  0  0  0  0  0
   -2.6820    2.1101    0.0000 C   0  0  0  0  0  0  0  0  0
   -2.4270    1.3255    0.0000 C   0  0  0  0  0  0  0  0  0
   -3.4468    4.4640    0.0000 C   0  0  0  0  0  0  0  0  0
  1  2  1  0  0  0  0
  1  3  1  0  0  0  0
  3  4  4  0  0  0  0
  3 11  4  0  0  0  0
  4  5  4  0  0  0  0
  5  6  1  0  0  0  0
  5  9  4  0  0  0  0
  6  7  1  0  0  0  0
  7  8  1  0  0  0  0
  8  9  1  0  0  0  0
  8 20  1  0  0  0  0
  9 10  4  0  0  0  0
 10 11  4  0  0  0  0
 11 12  1  0  0  0  0
 12 13  1  0  0  0  0
 12 17  1  0  0  0  0
 13 14  1  0  0  0  0
 14 15  1  0  0  0  0
 14 19  1  0  0  0  0
 15 16  1  0  0  0  0
 16 17  1  0  0  0  0
 16 18  1  0  0  0  0
 20 21  2  0  0  0  0
 20 22  1  0  0  0  0
 22 23  4  0  0  0  0
 22 27  4  0  0  0  0
 23 24  4  0  0  0  0
 24 25  4  0  0  0  0
 25 26  4  0  0  0  0
 25 28  1  0  0  0  0
 26 27  4  0  0  0  0
 28 29  4  0  0  0  0
 28 33  4  0  0  0  0
 29 30  4  0  0  0  0
 30 31  4  0  0  0  0
 30 35  1  0  0  0  0
 31 32  4  0  0  0  0
 32 33  4  0  0  0  0
 33 34  1  0  0  0  0
M  END
>  <Name_Molregno>
326735

>  <5-HT1B>
8.1

>  <5-HT1D>
6.3

$$$$
326736
  Marvin  02231216192D 0   1.00000     0.00000     0

 41 46  0  0  1  0  0  0  0  0999 V2000
  -12.8378   -1.9756    0.0000 O   0  0  0  0  0  0  0  0  0
  -12.1233   -1.5631    0.0000 N   0  0  0  0  0  0  0  0  0
  -11.5102   -2.1151    0.0000 C   0  0  0  0  0  0  0  0  0
  -11.8458   -2.8688    0.0000 N   0  0  0  0  0  0  0  0  0
  -12.6663   -2.7825    0.0000 C   0  0  0  0  0  0  0  0  0
  -13.2183   -3.3956    0.0000 C   0  0  0  0  0  0  0  0  0
  -10.7033   -1.9436    0.0000 C   0  0  0  0  0  0  0  0  0
  -10.4483   -1.1590    0.0000 C   0  0  0  0  0  0  0  0  0
   -9.6414   -0.9874    0.0000 C   0  0  0  0  0  0  0  0  0
   -9.3864   -0.2028    0.0000 C   0  0  0  0  0  0  0  0  0
   -9.0893   -1.6005    0.0000 C   0  0  0  0  0  0  0  0  0
   -9.3443   -2.3851    0.0000 C   0  0  0  0  0  0  0  0  0
  -10.1512   -2.5567    0.0000 C   0  0  0  0  0  0  0  0  0
   -8.2824   -1.4290    0.0000 C   0  0  0  0  0  0  0  0  0
   -8.0274   -0.6444    0.0000 C   0  0  0  0  0  0  0  0  0
   -7.2204   -0.4729    0.0000 C   0  0  0  0  0  0  0  0  0
   -6.6684   -1.0859    0.0000 C   0  0  0  0  0  0  0  0  0
   -6.9233   -1.8706    0.0000 C   0  0  0  0  0  0  0  0  0
   -7.7303   -2.0421    0.0000 C   0  0  0  0  0  0  0  0  0
   -5.8614   -0.9144    0.0000 C   0  0  0  0  0  0  0  0  0
   -5.3094   -1.5275    0.0000 O   0  0  0  0  0  0  0  0  0
   -5.6065   -0.1298    0.0000 N   0  0  0  0  0  0  0  0  0
   -6.0914    0.5376    0.0000 C   0  0  0  0  0  0  0  0  0
   -5.6065    1.2051    0.0000 C   0  0  0  0  0  0  0  0  0
   -4.8219    0.9501    0.0000 C   0  0  0  0  0  0  0  0  0
   -4.1074    1.3626    0.0000 C   0  0  0  0  0  0  0  0  0
   -3.3929    0.9501    0.0000 C   0  0  0  0  0  0  0  0  0
   -2.6785    1.3626    0.0000 O   0  0  0  0  0  0  0  0  0
   -1.9640    0.9501    0.0000 C   0  0  0  0  0  0  0  0  0
   -3.3929    0.1251    0.0000 C   0  0  0  0  0  0  0  0  0
   -2.6785   -0.2874    0.0000 N   0  0  0  0  0  0  0  0  0
   -1.9640    0.1251    0.0000 C   0  0  0  0  0  0  0  0  0
   -1.2495   -0.2874    0.0000 C   0  0  0  0  0  0  0  0  0
   -1.2495   -1.1124    0.0000 N   0  0  0  0  0  0  0  0  0
   -0.5350   -1.5249    0.0000 C   0  0  0  0  0  0  0  0  0
   -1.9640   -1.5249    0.0000 C   0  0  0  0  0  0  0  0  0
   -2.6785   -1.1124    0.0000 C   0  0  0  0  0  0  0  0  0
   -1.9640   -2.3499    0.0000 C   0  0  0  0  0  0  0  0  0
   -0.5350    0.1251    0.0000 C   0  0  0  0  0  0  0  0  0
   -4.1074   -0.2874    0.0000 C   0  0  0  0  0  0  0  0  0
   -4.8219    0.1251    0.0000 C   0  0  0  0  0  0  0  0  0
  1  2  4  0  0  0  0
  1  5  4  0  0  0  0
  2  3  4  0  0  0  0
  3  4  4  0  0  0  0
  3  7  1  0  0  0  0
  4  5  4  0  0  0  0
  5  6  1  0  0  0  0
  7  8  4  0  0  0  0
  7 13  4  0  0  0  0
  8  9  4  0  0  0  0
  9 10  1  0  0  0  0
  9 11  4  0  0  0  0
 11 12  4  0  0  0  0
 11 14  1  0  0  0  0
 12 13  4  0  0  0  0
 14 15  4  0  0  0  0
 14 19  4  0  0  0  0
 15 16  4  0  0  0  0
 16 17  4  0  0  0  0
 17 18  4  0  0  0  0
 17 20  1  0  0  0  0
 18 19  4  0  0  0  0
 20 21  2  0  0  0  0
 20 22  1  0  0  0  0
 22 23  1  0  0  0  0
 22 41  1  0  0  0  0
 23 24  1  0  0  0  0
 24 25  1  0  0  0  0
 25 26  4  0  0  0  0
 25 41  4  0  0  0  0
 26 27  4  0  0  0  0
 27 28  1  0  0  0  0
 27 30  4  0  0  0  0
 28 29  1  0  0  0  0
 30 31  1  0  0  0  0
 30 40  4  0  0  0  0
 31 32  1  0  0  0  0
 31 37  1  0  0  0  0
 32 33  1  0  0  0  0
 33 34  1  0  0  0  0
 33 39  1  0  0  0  0
 34 35  1  0  0  0  0
 34 36  1  0  0  0  0
 36 37  1  0  0  0  0
 36 38  1  0  0  0  0
 40 41  4  0  0  0  0
M  END
>  <Name_Molregno>
326736

>  <5-HT1B>
8.3

>  <5-HT1D>
7.8

$$$$
326737
  Marvin  02231216192D 0   1.00000     0.00000     0

 40 45  0  0  1  0  0  0  0  0999 V2000
  -12.5564   -2.0163    0.0000 O   0  0  0  0  0  0  0  0  0
  -11.8420   -1.6038    0.0000 N   0  0  0  0  0  0  0  0  0
  -11.2289   -2.1559    0.0000 C   0  0  0  0  0  0  0  0  0
  -11.5644   -2.9096    0.0000 N   0  0  0  0  0  0  0  0  0
  -12.3849   -2.8233    0.0000 C   0  0  0  0  0  0  0  0  0
  -12.9369   -3.4364    0.0000 C   0  0  0  0  0  0  0  0  0
  -10.4219   -1.9844    0.0000 C   0  0  0  0  0  0  0  0  0
  -10.1670   -1.1997    0.0000 C   0  0  0  0  0  0  0  0  0
   -9.3600   -1.0282    0.0000 C   0  0  0  0  0  0  0  0  0
   -9.1051   -0.2436    0.0000 C   0  0  0  0  0  0  0  0  0
   -8.8080   -1.6413    0.0000 C   0  0  0  0  0  0  0  0  0
   -9.0629   -2.4259    0.0000 C   0  0  0  0  0  0  0  0  0
   -9.8699   -2.5974    0.0000 C   0  0  0  0  0  0  0  0  0
   -8.0010   -1.4698    0.0000 C   0  0  0  0  0  0  0  0  0
   -7.7461   -0.6852    0.0000 C   0  0  0  0  0  0  0  0  0
   -6.9391   -0.5136    0.0000 C   0  0  0  0  0  0  0  0  0
   -6.3870   -1.1267    0.0000 C   0  0  0  0  0  0  0  0  0
   -6.6420   -1.9113    0.0000 C   0  0  0  0  0  0  0  0  0
   -7.4490   -2.0829    0.0000 C   0  0  0  0  0  0  0  0  0
   -5.5801   -0.9552    0.0000 C   0  0  0  0  0  0  0  0  0
   -5.0280   -1.5683    0.0000 O   0  0  0  0  0  0  0  0  0
   -5.3251   -0.1706    0.0000 N   0  0  0  0  0  0  0  0  0
   -5.8101    0.4969    0.0000 C   0  0  0  0  0  0  0  0  0
   -5.3251    1.1643    0.0000 C   0  0  0  0  0  0  0  0  0
   -4.5405    0.9094    0.0000 C   0  0  0  0  0  0  0  0  0
   -3.8260    1.3219    0.0000 C   0  0  0  0  0  0  0  0  0
   -3.1116    0.9094    0.0000 C   0  0  0  0  0  0  0  0  0
   -2.3971    1.3219    0.0000 O   0  0  0  0  0  0  0  0  0
   -1.6826    0.9094    0.0000 C   0  0  0  0  0  0  0  0  0
   -3.1116    0.0844    0.0000 C   0  0  0  0  0  0  0  0  0
   -2.3971   -0.3281    0.0000 N   0  0  0  0  0  0  0  0  0
   -1.6826    0.0844    0.0000 C   0  0  0  0  0  0  0  0  0
   -0.9682   -0.3281    0.0000 C   0  0  0  0  0  0  0  0  0
   -0.9682   -1.1531    0.0000 N   0  0  0  0  0  0  0  0  0
   -1.6826   -1.5656    0.0000 C   0  0  0  0  0  0  0  0  0
   -2.3971   -1.1531    0.0000 C   0  0  0  0  0  0  0  0  0
   -1.6826   -2.3906    0.0000 C   0  0  0  0  0  0  0  0  0
   -0.2537    0.0844    0.0000 C   0  0  0  0  0  0  0  0  0
   -3.8260   -0.3281    0.0000 C   0  0  0  0  0  0  0  0  0
   -4.5405    0.0844    0.0000 C   0  0  0  0  0  0  0  0  0
  1  2  4  0  0  0  0
  1  5  4  0  0  0  0
  2  3  4  0  0  0  0
  3  4  4  0  0  0  0
  3  7  1  0  0  0  0
  4  5  4  0  0  0  0
  5  6  1  0  0  0  0
  7  8  4  0  0  0  0
  7 13  4  0  0  0  0
  8  9  4  0  0  0  0
  9 10  1  0  0  0  0
  9 11  4  0  0  0  0
 11 12  4  0  0  0  0
 11 14  1  0  0  0  0
 12 13  4  0  0  0  0
 14 15  4  0  0  0  0
 14 19  4  0  0  0  0
 15 16  4  0  0  0  0
 16 17  4  0  0  0  0
 17 18  4  0  0  0  0
 17 20  1  0  0  0  0
 18 19  4  0  0  0  0
 20 21  2  0  0  0  0
 20 22  1  0  0  0  0
 22 23  1  0  0  0  0
 22 40  1  0  0  0  0
 23 24  1  0  0  0  0
 24 25  1  0  0  0  0
 25 26  4  0  0  0  0
 25 40  4  0  0  0  0
 26 27  4  0  0  0  0
 27 28  1  0  0  0  0
 27 30  4  0  0  0  0
 28 29  1  0  0  0  0
 30 31  1  0  0  0  0
 30 39  4  0  0  0  0
 31 32  1  0  0  0  0
 31 36  1  0  0  0  0
 32 33  1  0  0  0  0
 33 34  1  0  0  0  0
 33 38  1  0  0  0  0
 34 35  1  0  0  0  0
 35 36  1  0  0  0  0
 35 37  1  0  0  0  0
 39 40  4  0  0  0  0
M  END
>  <Name_Molregno>
326737

>  <5-HT1B>
8.5

>  <5-HT1D>
6.6

$$$$
326738
  Marvin  02231216192D 0   1.00000     0.00000     0

 40 45  0  0  1  0  0  0  0  0999 V2000
   -3.6619   -3.1708    0.0000 O   0  0  0  0  0  0  0  0  0
   -2.9474   -2.7583    0.0000 C   0  0  0  0  0  0  0  0  0
   -4.3764   -2.7583    0.0000 C   0  0  0  0  0  0  0  0  0
   -5.0909   -3.1708    0.0000 C   0  0  0  0  0  0  0  0  0
   -5.8053   -2.7583    0.0000 C   0  0  0  0  0  0  0  0  0
   -6.5900   -3.0133    0.0000 C   0  0  0  0  0  0  0  0  0
   -7.0749   -2.3458    0.0000 C   0  0  0  0  0  0  0  0  0
   -6.5900   -1.6784    0.0000 N   0  0  0  0  0  0  0  0  0
   -5.8053   -1.9333    0.0000 C   0  0  0  0  0  0  0  0  0
   -5.0909   -1.5208    0.0000 C   0  0  0  0  0  0  0  0  0
   -4.3764   -1.9333    0.0000 C   0  0  0  0  0  0  0  0  0
   -3.6619   -1.5208    0.0000 N   0  0  0  0  0  0  0  0  0
   -3.6619   -0.6958    0.0000 C   0  0  0  0  0  0  0  0  0
   -2.9474   -0.2833    0.0000 C   0  0  0  0  0  0  0  0  0
   -2.2330   -0.6958    0.0000 N   0  0  0  0  0  0  0  0  0
   -2.2330   -1.5208    0.0000 C   0  0  0  0  0  0  0  0  0
   -2.9474   -1.9333    0.0000 C   0  0  0  0  0  0  0  0  0
   -1.5185   -1.9333    0.0000 C   0  0  0  0  0  0  0  0  0
   -2.9474    0.5417    0.0000 C   0  0  0  0  0  0  0  0  0
   -6.8449   -0.8938    0.0000 C   0  0  0  0  0  0  0  0  0
   -7.6519   -0.7223    0.0000 O   0  0  0  0  0  0  0  0  0
   -6.2929   -0.2807    0.0000 C   0  0  0  0  0  0  0  0  0
   -6.5478    0.5039    0.0000 C   0  0  0  0  0  0  0  0  0
   -5.9958    1.1170    0.0000 C   0  0  0  0  0  0  0  0  0
   -5.1888    0.9455    0.0000 C   0  0  0  0  0  0  0  0  0
   -4.9339    0.1609    0.0000 C   0  0  0  0  0  0  0  0  0
   -5.4859   -0.4522    0.0000 C   0  0  0  0  0  0  0  0  0
   -4.6368    1.5586    0.0000 C   0  0  0  0  0  0  0  0  0
   -4.8917    2.3432    0.0000 C   0  0  0  0  0  0  0  0  0
   -4.3397    2.9563    0.0000 C   0  0  0  0  0  0  0  0  0
   -3.5327    2.7848    0.0000 C   0  0  0  0  0  0  0  0  0
   -3.2778    2.0002    0.0000 N   0  0  0  0  0  0  0  0  0
   -3.8298    1.3871    0.0000 C   0  0  0  0  0  0  0  0  0
   -3.5749    0.6024    0.0000 C   0  0  0  0  0  0  0  0  0
   -2.9807    3.3979    0.0000 N   0  0  0  0  0  0  0  0  0
   -3.1522    4.2049    0.0000 C   0  0  0  0  0  0  0  0  0
   -2.4377    4.6174    0.0000 C   0  0  0  0  0  0  0  0  0
   -1.8246    4.0653    0.0000 C   0  0  0  0  0  0  0  0  0
   -2.1602    3.3116    0.0000 C   0  0  0  0  0  0  0  0  0
   -1.7477    2.5972    0.0000 O   0  0  0  0  0  0  0  0  0
  1  2  1  0  0  0  0
  1  3  1  0  0  0  0
  3  4  4  0  0  0  0
  3 11  4  0  0  0  0
  4  5  4  0  0  0  0
  5  6  1  0  0  0  0
  5  9  4  0  0  0  0
  6  7  1  0  0  0  0
  7  8  1  0  0  0  0
  8  9  1  0  0  0  0
  8 20  1  0  0  0  0
  9 10  4  0  0  0  0
 10 11  4  0  0  0  0
 11 12  1  0  0  0  0
 12 13  1  0  0  0  0
 12 17  1  0  0  0  0
 13 14  1  0  0  0  0
 14 15  1  0  0  0  0
 14 19  1  0  0  0  0
 15 16  1  0  0  0  0
 16 17  1  0  0  0  0
 16 18  1  0  0  0  0
 20 21  2  0  0  0  0
 20 22  1  0  0  0  0
 22 23  4  0  0  0  0
 22 27  4  0  0  0  0
 23 24  4  0  0  0  0
 24 25  4  0  0  0  0
 25 26  4  0  0  0  0
 25 28  1  0  0  0  0
 26 27  4  0  0  0  0
 28 29  4  0  0  0  0
 28 33  4  0  0  0  0
 29 30  4  0  0  0  0
 30 31  4  0  0  0  0
 31 32  4  0  0  0  0
 31 35  1  0  0  0  0
 32 33  4  0  0  0  0
 33 34  1  0  0  0  0
 35 36  1  0  0  0  0
 35 39  1  0  0  0  0
 36 37  1  0  0  0  0
 37 38  1  0  0  0  0
 38 39  1  0  0  0  0
 39 40  2  0  0  0  0
M  END
>  <Name_Molregno>
326738

>  <5-HT1B>
8.3

>  <5-HT1D>
6.4

$$$$
326739
  Marvin  02231216192D 0   1.00000     0.00000     0

 40 45  0  0  1  0  0  0  0  0999 V2000
   -3.6940   -3.1816    0.0000 O   0  0  0  0  0  0  0  0  0
   -2.9795   -2.7691    0.0000 C   0  0  0  0  0  0  0  0  0
   -4.4084   -2.7691    0.0000 C   0  0  0  0  0  0  0  0  0
   -5.1229   -3.1816    0.0000 C   0  0  0  0  0  0  0  0  0
   -5.8374   -2.7691    0.0000 C   0  0  0  0  0  0  0  0  0
   -6.6220   -3.0240    0.0000 C   0  0  0  0  0  0  0  0  0
   -7.1069   -2.3566    0.0000 C   0  0  0  0  0  0  0  0  0
   -6.6220   -1.6891    0.0000 N   0  0  0  0  0  0  0  0  0
   -5.8374   -1.9441    0.0000 C   0  0  0  0  0  0  0  0  0
   -5.1229   -1.5316    0.0000 C   0  0  0  0  0  0  0  0  0
   -4.4084   -1.9441    0.0000 C   0  0  0  0  0  0  0  0  0
   -3.6940   -1.5316    0.0000 N   0  0  0  0  0  0  0  0  0
   -3.6940   -0.7066    0.0000 C   0  0  0  0  0  0  0  0  0
   -2.9795   -0.2941    0.0000 C   0  0  0  0  0  0  0  0  0
   -2.2650   -0.7066    0.0000 N   0  0  0  0  0  0  0  0  0
   -2.2650   -1.5316    0.0000 C   0  0  0  0  0  0  0  0  0
   -2.9795   -1.9441    0.0000 C   0  0  0  0  0  0  0  0  0
   -1.5505   -1.9441    0.0000 C   0  0  0  0  0  0  0  0  0
   -2.9795    0.5309    0.0000 C   0  0  0  0  0  0  0  0  0
   -6.8769   -0.9045    0.0000 C   0  0  0  0  0  0  0  0  0
   -7.6839   -0.7330    0.0000 O   0  0  0  0  0  0  0  0  0
   -6.3249   -0.2914    0.0000 C   0  0  0  0  0  0  0  0  0
   -6.5798    0.4932    0.0000 C   0  0  0  0  0  0  0  0  0
   -6.0278    1.1063    0.0000 C   0  0  0  0  0  0  0  0  0
   -5.2208    0.9348    0.0000 C   0  0  0  0  0  0  0  0  0
   -4.9659    0.1501    0.0000 C   0  0  0  0  0  0  0  0  0
   -5.5179   -0.4629    0.0000 C   0  0  0  0  0  0  0  0  0
   -4.6688    1.5479    0.0000 C   0  0  0  0  0  0  0  0  0
   -4.9237    2.3325    0.0000 C   0  0  0  0  0  0  0  0  0
   -4.3717    2.9456    0.0000 C   0  0  0  0  0  0  0  0  0
   -3.5647    2.7740    0.0000 C   0  0  0  0  0  0  0  0  0
   -3.3098    1.9894    0.0000 C   0  0  0  0  0  0  0  0  0
   -3.8618    1.3763    0.0000 C   0  0  0  0  0  0  0  0  0
   -3.6069    0.5917    0.0000 C   0  0  0  0  0  0  0  0  0
   -3.0127    3.3871    0.0000 C   0  0  0  0  0  0  0  0  0
   -3.2676    4.1718    0.0000 N   0  0  0  0  0  0  0  0  0
   -2.7156    4.7849    0.0000 C   0  0  0  0  0  0  0  0  0
   -1.9086    4.6133    0.0000 C   0  0  0  0  0  0  0  0  0
   -1.6537    3.8287    0.0000 C   0  0  0  0  0  0  0  0  0
   -2.2057    3.2156    0.0000 N   0  0  0  0  0  0  0  0  0
  1  2  1  0  0  0  0
  1  3  1  0  0  0  0
  3  4  4  0  0  0  0
  3 11  4  0  0  0  0
  4  5  4  0  0  0  0
  5  6  1  0  0  0  0
  5  9  4  0  0  0  0
  6  7  1  0  0  0  0
  7  8  1  0  0  0  0
  8  9  1  0  0  0  0
  8 20  1  0  0  0  0
  9 10  4  0  0  0  0
 10 11  4  0  0  0  0
 11 12  1  0  0  0  0
 12 13  1  0  0  0  0
 12 17  1  0  0  0  0
 13 14  1  0  0  0  0
 14 15  1  0  0  0  0
 14 19  1  0  0  0  0
 15 16  1  0  0  0  0
 16 17  1  0  0  0  0
 16 18  1  0  0  0  0
 20 21  2  0  0  0  0
 20 22  1  0  0  0  0
 22 23  4  0  0  0  0
 22 27  4  0  0  0  0
 23 24  4  0  0  0  0
 24 25  4  0  0  0  0
 25 26  4  0  0  0  0
 25 28  1  0  0  0  0
 26 27  4  0  0  0  0
 28 29  4  0  0  0  0
 28 33  4  0  0  0  0
 29 30  4  0  0  0  0
 30 31  4  0  0  0  0
 31 32  4  0  0  0  0
 31 35  1  0  0  0  0
 32 33  4  0  0  0  0
 33 34  1  0  0  0  0
 35 36  4  0  0  0  0
 35 40  4  0  0  0  0
 36 37  4  0  0  0  0
 37 38  4  0  0  0  0
 38 39  4  0  0  0  0
 39 40  4  0  0  0  0
M  END
>  <Name_Molregno>
326739

>  <5-HT1B>
8.3

>  <5-HT1D>
6.6

$$$$
327069
  Marvin  02231216192D 0   1.00000     0.00000     0

 31 34  0  0  0  0  0  0  0  0999 V2000
    4.9165    5.1026    0.0000 Cl  0  0  0  0  0  0  0  0  0
    4.9165    4.2776    0.0000 C   0  0  0  0  0  0  0  0  0
    5.6310    3.8651    0.0000 C   0  0  0  0  0  0  0  0  0
    5.6310    3.0401    0.0000 C   0  0  0  0  0  0  0  0  0
    4.9165    2.6276    0.0000 C   0  0  0  0  0  0  0  0  0
    4.9165    1.8026    0.0000 N   0  0  0  0  0  0  0  0  0
    5.6310    1.3901    0.0000 C   0  0  0  0  0  0  0  0  0
    5.6310    0.5651    0.0000 C   0  0  0  0  0  0  0  0  0
    4.9165    0.1526    0.0000 N   0  0  0  0  0  0  0  0  0
    4.2021    0.5651    0.0000 C   0  0  0  0  0  0  0  0  0
    4.2021    1.3901    0.0000 C   0  0  0  0  0  0  0  0  0
    4.9165   -0.6724    0.0000 C   0  0  0  0  0  0  0  0  0
    4.2021   -1.0849    0.0000 O   0  0  0  0  0  0  0  0  0
    5.6310   -1.0849    0.0000 N   0  0  0  0  0  0  0  0  0
    5.6310   -1.9099    0.0000 C   0  0  0  0  0  0  0  0  0
    6.3455   -2.3224    0.0000 C   0  0  0  0  0  0  0  0  0
    6.3455   -3.1474    0.0000 C   0  0  0  0  0  0  0  0  0
    7.0599   -3.5599    0.0000 N   0  0  0  0  0  0  0  0  0
    7.7744   -3.1474    0.0000 C   0  0  0  0  0  0  0  0  0
    8.4889   -3.5599    0.0000 C   0  0  0  0  0  0  0  0  0
    8.4889   -4.3849    0.0000 N   0  0  0  0  0  0  0  0  0
    7.7744   -4.7974    0.0000 C   0  0  0  0  0  0  0  0  0
    7.0599   -4.3849    0.0000 C   0  0  0  0  0  0  0  0  0
    9.2034   -4.7974    0.0000 C   0  0  0  0  0  0  0  0  0
    5.6310   -3.5599    0.0000 C   0  0  0  0  0  0  0  0  0
    5.6310   -4.3849    0.0000 O   0  0  0  0  0  0  0  0  0
    4.9165   -4.7974    0.0000 C   0  0  0  0  0  0  0  0  0
    4.9165   -3.1474    0.0000 C   0  0  0  0  0  0  0  0  0
    4.9165   -2.3224    0.0000 C   0  0  0  0  0  0  0  0  0
    4.2021    3.0401    0.0000 C   0  0  0  0  0  0  0  0  0
    4.2021    3.8651    0.0000 C   0  0  0  0  0  0  0  0  0
  1  2  1  0  0  0  0
  2  3  4  0  0  0  0
  2 31  4  0  0  0  0
  3  4  4  0  0  0  0
  4  5  4  0  0  0  0
  5  6  1  0  0  0  0
  5 30  4  0  0  0  0
  6  7  1  0  0  0  0
  6 11  1  0  0  0  0
  7  8  1  0  0  0  0
  8  9  1  0  0  0  0
  9 10  1  0  0  0  0
  9 12  1  0  0  0  0
 10 11  1  0  0  0  0
 12 13  2  0  0  0  0
 12 14  1  0  0  0  0
 14 15  1  0  0  0  0
 15 16  4  0  0  0  0
 15 29  4  0  0  0  0
 16 17  4  0  0  0  0
 17 18  1  0  0  0  0
 17 25  4  0  0  0  0
 18 19  1  0  0  0  0
 18 23  1  0  0  0  0
 19 20  1  0  0  0  0
 20 21  1  0  0  0  0
 21 22  1  0  0  0  0
 21 24  1  0  0  0  0
 22 23  1  0  0  0  0
 25 26  1  0  0  0  0
 25 28  4  0  0  0  0
 26 27  1  0  0  0  0
 28 29  4  0  0  0  0
 30 31  4  0  0  0  0
M  END
>  <Name_Molregno>
327069

>  <5-HT1A>
7.28

>  <5-HT1B>
8.74

>  <5-HT1D>
8.19

>  <5-HT2A>
6

>  <5-HT2C>
6.57

>  <5-HT6>
5.29

>  <5-HT7>
5

>  <DOPAMINE D1>
5

>  <DOPAMINE D2>
5

>  <DOPAMINE D3>
5

>  <DOPAMINE D4>
5

>  <DOPAMINE D5>
5

>  <HISTAMINE H1>
5

>  <Muscarinic acetylcholine receptor M1>
5

>  <Muscarinic acetylcholine receptor M2>
5

>  <Muscarinic acetylcholine receptor M3>
5

>  <Muscarinic acetylcholine receptor M4>
5

>  <Muscarinic acetylcholine receptor M5>
5

$$$$
327077
  Marvin  02231216192D 0   1.00000     0.00000     0

 31 34  0  0  0  0  0  0  0  0999 V2000
    4.9165    5.1026    0.0000 F   0  0  0  0  0  0  0  0  0
    4.9165    4.2776    0.0000 C   0  0  0  0  0  0  0  0  0
    5.6310    3.8651    0.0000 C   0  0  0  0  0  0  0  0  0
    5.6310    3.0401    0.0000 C   0  0  0  0  0  0  0  0  0
    4.9165    2.6276    0.0000 C   0  0  0  0  0  0  0  0  0
    4.9165    1.8026    0.0000 N   0  0  0  0  0  0  0  0  0
    5.6310    1.3901    0.0000 C   0  0  0  0  0  0  0  0  0
    5.6310    0.5651    0.0000 C   0  0  0  0  0  0  0  0  0
    4.9165    0.1526    0.0000 N   0  0  0  0  0  0  0  0  0
    4.2021    0.5651    0.0000 C   0  0  0  0  0  0  0  0  0
    4.2021    1.3901    0.0000 C   0  0  0  0  0  0  0  0  0
    4.9165   -0.6724    0.0000 C   0  0  0  0  0  0  0  0  0
    4.2021   -1.0849    0.0000 O   0  0  0  0  0  0  0  0  0
    5.6310   -1.0849    0.0000 N   0  0  0  0  0  0  0  0  0
    5.6310   -1.9099    0.0000 C   0  0  0  0  0  0  0  0  0
    6.3455   -2.3224    0.0000 C   0  0  0  0  0  0  0  0  0
    6.3455   -3.1474    0.0000 C   0  0  0  0  0  0  0  0  0
    7.0599   -3.5599    0.0000 N   0  0  0  0  0  0  0  0  0
    7.7744   -3.1474    0.0000 C   0  0  0  0  0  0  0  0  0
    8.4889   -3.5599    0.0000 C   0  0  0  0  0  0  0  0  0
    8.4889   -4.3849    0.0000 N   0  0  0  0  0  0  0  0  0
    7.7744   -4.7974    0.0000 C   0  0  0  0  0  0  0  0  0
    7.0599   -4.3849    0.0000 C   0  0  0  0  0  0  0  0  0
    9.2034   -4.7974    0.0000 C   0  0  0  0  0  0  0  0  0
    5.6310   -3.5599    0.0000 C   0  0  0  0  0  0  0  0  0
    5.6310   -4.3849    0.0000 O   0  0  0  0  0  0  0  0  0
    4.9165   -4.7974    0.0000 C   0  0  0  0  0  0  0  0  0
    4.9165   -3.1474    0.0000 C   0  0  0  0  0  0  0  0  0
    4.9165   -2.3224    0.0000 C   0  0  0  0  0  0  0  0  0
    4.2021    3.0401    0.0000 C   0  0  0  0  0  0  0  0  0
    4.2021    3.8651    0.0000 C   0  0  0  0  0  0  0  0  0
  1  2  1  0  0  0  0
  2  3  4  0  0  0  0
  2 31  4  0  0  0  0
  3  4  4  0  0  0  0
  4  5  4  0  0  0  0
  5  6  1  0  0  0  0
  5 30  4  0  0  0  0
  6  7  1  0  0  0  0
  6 11  1  0  0  0  0
  7  8  1  0  0  0  0
  8  9  1  0  0  0  0
  9 10  1  0  0  0  0
  9 12  1  0  0  0  0
 10 11  1  0  0  0  0
 12 13  2  0  0  0  0
 12 14  1  0  0  0  0
 14 15  1  0  0  0  0
 15 16  4  0  0  0  0
 15 29  4  0  0  0  0
 16 17  4  0  0  0  0
 17 18  1  0  0  0  0
 17 25  4  0  0  0  0
 18 19  1  0  0  0  0
 18 23  1  0  0  0  0
 19 20  1  0  0  0  0
 20 21  1  0  0  0  0
 21 22  1  0  0  0  0
 21 24  1  0  0  0  0
 22 23  1  0  0  0  0
 25 26  1  0  0  0  0
 25 28  4  0  0  0  0
 26 27  1  0  0  0  0
 28 29  4  0  0  0  0
 30 31  4  0  0  0  0
M  END
>  <Name_Molregno>
327077

>  <5-HT1A>
5.97

>  <5-HT1B>
7.42

>  <5-HT1D>
6.77

>  <5-HT2A>
5.35

>  <5-HT2C>
5

>  <5-HT6>
5

>  <5-HT7>
5

>  <DOPAMINE D1>
5

>  <DOPAMINE D2>
5

>  <DOPAMINE D3>
5

>  <DOPAMINE D4>
5

>  <DOPAMINE D5>
5

>  <HISTAMINE H1>
5

>  <Muscarinic acetylcholine receptor M1>
5

>  <Muscarinic acetylcholine receptor M2>
5

>  <Muscarinic acetylcholine receptor M3>
5

>  <Muscarinic acetylcholine receptor M4>
5

>  <Muscarinic acetylcholine receptor M5>
5

$$$$
327082
  Marvin  02231216192D 0   1.00000     0.00000     0

 36 40  0  0  0  0  0  0  0  0999 V2000
   -4.3490    4.5404    0.0000 O   0  0  0  0  0  0  0  0  0
   -5.0635    4.9529    0.0000 C   0  0  0  0  0  0  0  0  0
   -4.3490    3.7154    0.0000 C   0  0  0  0  0  0  0  0  0
   -3.6345    3.3029    0.0000 C   0  0  0  0  0  0  0  0  0
   -3.6345    2.4779    0.0000 C   0  0  0  0  0  0  0  0  0
   -4.3490    2.0654    0.0000 C   0  0  0  0  0  0  0  0  0
   -4.3490    1.2404    0.0000 N   0  0  0  0  0  0  0  0  0
   -3.6345    0.8279    0.0000 C   0  0  0  0  0  0  0  0  0
   -2.9201    1.2404    0.0000 O   0  0  0  0  0  0  0  0  0
   -3.6345    0.0029    0.0000 N   0  0  0  0  0  0  0  0  0
   -2.9201   -0.4096    0.0000 C   0  0  0  0  0  0  0  0  0
   -2.9201   -1.2346    0.0000 C   0  0  0  0  0  0  0  0  0
   -3.6345   -1.6471    0.0000 N   0  0  0  0  0  0  0  0  0
   -4.3490   -1.2346    0.0000 C   0  0  0  0  0  0  0  0  0
   -4.3490   -0.4096    0.0000 C   0  0  0  0  0  0  0  0  0
   -3.6345   -2.4721    0.0000 C   0  0  0  0  0  0  0  0  0
   -2.9201   -2.8846    0.0000 C   0  0  0  0  0  0  0  0  0
   -2.9201   -3.7096    0.0000 C   0  0  0  0  0  0  0  0  0
   -3.6345   -4.1221    0.0000 C   0  0  0  0  0  0  0  0  0
   -4.3490   -3.7096    0.0000 C   0  0  0  0  0  0  0  0  0
   -4.3490   -2.8846    0.0000 C   0  0  0  0  0  0  0  0  0
   -3.6345   -4.9471    0.0000 C   0  0  0  0  0  0  0  0  0
   -2.9201   -5.3596    0.0000 C   0  0  0  0  0  0  0  0  0
   -2.9201   -6.1846    0.0000 C   0  0  0  0  0  0  0  0  0
   -3.6345   -6.5971    0.0000 C   0  0  0  0  0  0  0  0  0
   -4.3490   -6.1846    0.0000 C   0  0  0  0  0  0  0  0  0
   -4.3490   -5.3596    0.0000 C   0  0  0  0  0  0  0  0  0
   -5.0635    2.4779    0.0000 C   0  0  0  0  0  0  0  0  0
   -5.0635    3.3029    0.0000 C   0  0  0  0  0  0  0  0  0
   -5.7779    3.7154    0.0000 N   0  0  0  0  0  0  0  0  0
   -6.4924    3.3029    0.0000 C   0  0  0  0  0  0  0  0  0
   -7.2069    3.7154    0.0000 C   0  0  0  0  0  0  0  0  0
   -7.2069    4.5404    0.0000 N   0  0  0  0  0  0  0  0  0
   -6.4924    4.9529    0.0000 C   0  0  0  0  0  0  0  0  0
   -5.7779    4.5404    0.0000 C   0  0  0  0  0  0  0  0  0
   -7.9214    4.9529    0.0000 C   0  0  0  0  0  0  0  0  0
  1  2  1  0  0  0  0
  1  3  1  0  0  0  0
  3  4  4  0  0  0  0
  3 29  4  0  0  0  0
  4  5  4  0  0  0  0
  5  6  4  0  0  0  0
  6  7  1  0  0  0  0
  6 28  4  0  0  0  0
  7  8  1  0  0  0  0
  8  9  2  0  0  0  0
  8 10  1  0  0  0  0
 10 11  1  0  0  0  0
 10 15  1  0  0  0  0
 11 12  1  0  0  0  0
 12 13  1  0  0  0  0
 13 14  1  0  0  0  0
 13 16  1  0  0  0  0
 14 15  1  0  0  0  0
 16 17  4  0  0  0  0
 16 21  4  0  0  0  0
 17 18  4  0  0  0  0
 18 19  4  0  0  0  0
 19 20  4  0  0  0  0
 19 22  1  0  0  0  0
 20 21  4  0  0  0  0
 22 23  4  0  0  0  0
 22 27  4  0  0  0  0
 23 24  4  0  0  0  0
 24 25  4  0  0  0  0
 25 26  4  0  0  0  0
 26 27  4  0  0  0  0
 28 29  4  0  0  0  0
 29 30  1  0  0  0  0
 30 31  1  0  0  0  0
 30 35  1  0  0  0  0
 31 32  1  0  0  0  0
 32 33  1  0  0  0  0
 33 34  1  0  0  0  0
 33 36  1  0  0  0  0
 34 35  1  0  0  0  0
M  END
>  <Name_Molregno>
327082

>  <5-HT1A>
6.39

>  <5-HT1B>
7.86

>  <5-HT1D>
6.68

>  <5-HT2A>
6.77

>  <5-HT2C>
8.19

>  <5-HT6>
5.84

>  <5-HT7>
5

>  <DOPAMINE D1>
5

>  <DOPAMINE D2>
5

>  <DOPAMINE D3>
5

>  <DOPAMINE D4>
5

>  <DOPAMINE D5>
5

>  <HISTAMINE H1>
5

>  <Muscarinic acetylcholine receptor M1>
5

>  <Muscarinic acetylcholine receptor M2>
5

>  <Muscarinic acetylcholine receptor M3>
5

>  <Muscarinic acetylcholine receptor M4>
5

>  <Muscarinic acetylcholine receptor M5>
5

$$$$
327083
  Marvin  02231216192D 0   1.00000     0.00000     0

 34 37  0  0  0  0  0  0  0  0999 V2000
    5.2566    5.4075    0.0000 F   0  0  0  0  0  0  0  0  0
    5.2566    4.5825    0.0000 C   0  0  0  0  0  0  0  0  0
    4.4316    4.5825    0.0000 F   0  0  0  0  0  0  0  0  0
    6.0816    4.5825    0.0000 F   0  0  0  0  0  0  0  0  0
    5.2566    3.7575    0.0000 C   0  0  0  0  0  0  0  0  0
    5.9711    3.3450    0.0000 C   0  0  0  0  0  0  0  0  0
    5.9711    2.5200    0.0000 C   0  0  0  0  0  0  0  0  0
    5.2566    2.1075    0.0000 C   0  0  0  0  0  0  0  0  0
    5.2566    1.2825    0.0000 N   0  0  0  0  0  0  0  0  0
    5.9711    0.8700    0.0000 C   0  0  0  0  0  0  0  0  0
    5.9711    0.0450    0.0000 C   0  0  0  0  0  0  0  0  0
    5.2566   -0.3675    0.0000 N   0  0  0  0  0  0  0  0  0
    4.5421    0.0450    0.0000 C   0  0  0  0  0  0  0  0  0
    4.5421    0.8700    0.0000 C   0  0  0  0  0  0  0  0  0
    5.2566   -1.1925    0.0000 C   0  0  0  0  0  0  0  0  0
    4.5421   -1.6050    0.0000 O   0  0  0  0  0  0  0  0  0
    5.9711   -1.6050    0.0000 N   0  0  0  0  0  0  0  0  0
    5.9711   -2.4300    0.0000 C   0  0  0  0  0  0  0  0  0
    6.6855   -2.8425    0.0000 C   0  0  0  0  0  0  0  0  0
    6.6855   -3.6675    0.0000 C   0  0  0  0  0  0  0  0  0
    7.4000   -4.0800    0.0000 N   0  0  0  0  0  0  0  0  0
    8.1145   -3.6675    0.0000 C   0  0  0  0  0  0  0  0  0
    8.8289   -4.0800    0.0000 C   0  0  0  0  0  0  0  0  0
    8.8289   -4.9050    0.0000 N   0  0  0  0  0  0  0  0  0
    8.1145   -5.3175    0.0000 C   0  0  0  0  0  0  0  0  0
    7.4000   -4.9050    0.0000 C   0  0  0  0  0  0  0  0  0
    9.5434   -5.3175    0.0000 C   0  0  0  0  0  0  0  0  0
    5.9711   -4.0800    0.0000 C   0  0  0  0  0  0  0  0  0
    5.9711   -4.9050    0.0000 O   0  0  0  0  0  0  0  0  0
    5.2566   -5.3175    0.0000 C   0  0  0  0  0  0  0  0  0
    5.2566   -3.6675    0.0000 C   0  0  0  0  0  0  0  0  0
    5.2566   -2.8425    0.0000 C   0  0  0  0  0  0  0  0  0
    4.5421    2.5200    0.0000 C   0  0  0  0  0  0  0  0  0
    4.5421    3.3450    0.0000 C   0  0  0  0  0  0  0  0  0
  1  2  1  0  0  0  0
  2  3  1  0  0  0  0
  2  4  1  0  0  0  0
  2  5  1  0  0  0  0
  5  6  4  0  0  0  0
  5 34  4  0  0  0  0
  6  7  4  0  0  0  0
  7  8  4  0  0  0  0
  8  9  1  0  0  0  0
  8 33  4  0  0  0  0
  9 10  1  0  0  0  0
  9 14  1  0  0  0  0
 10 11  1  0  0  0  0
 11 12  1  0  0  0  0
 12 13  1  0  0  0  0
 12 15  1  0  0  0  0
 13 14  1  0  0  0  0
 15 16  2  0  0  0  0
 15 17  1  0  0  0  0
 17 18  1  0  0  0  0
 18 19  4  0  0  0  0
 18 32  4  0  0  0  0
 19 20  4  0  0  0  0
 20 21  1  0  0  0  0
 20 28  4  0  0  0  0
 21 22  1  0  0  0  0
 21 26  1  0  0  0  0
 22 23  1  0  0  0  0
 23 24  1  0  0  0  0
 24 25  1  0  0  0  0
 24 27  1  0  0  0  0
 25 26  1  0  0  0  0
 28 29  1  0  0  0  0
 28 31  4  0  0  0  0
 29 30  1  0  0  0  0
 31 32  4  0  0  0  0
 33 34  4  0  0  0  0
M  END
>  <Name_Molregno>
327083

>  <5-HT1A>
6.42

>  <5-HT1B>
7.55

>  <5-HT1D>
6.46

>  <5-HT2A>
6.21

>  <5-HT2C>
5.55

>  <5-HT6>
5.54

>  <5-HT7>
5

>  <DOPAMINE D1>
5

>  <DOPAMINE D2>
5

>  <DOPAMINE D3>
5

>  <DOPAMINE D4>
5

>  <DOPAMINE D5>
5

>  <HISTAMINE H1>
5

>  <Muscarinic acetylcholine receptor M1>
5

>  <Muscarinic acetylcholine receptor M2>
5

>  <Muscarinic acetylcholine receptor M3>
5

>  <Muscarinic acetylcholine receptor M4>
5

>  <Muscarinic acetylcholine receptor M5>
5

$$$$
327090
  Marvin  02231216192D 0   1.00000     0.00000     0

 32 35  0  0  0  0  0  0  0  0999 V2000
   -6.3746    6.5338    0.0000 S   0  0  0  0  0  0  0  0  0
   -7.0891    6.9463    0.0000 C   0  0  0  0  0  0  0  0  0
   -6.3746    5.7088    0.0000 C   0  0  0  0  0  0  0  0  0
   -5.6602    5.2963    0.0000 C   0  0  0  0  0  0  0  0  0
   -5.6602    4.4713    0.0000 C   0  0  0  0  0  0  0  0  0
   -6.3746    4.0588    0.0000 C   0  0  0  0  0  0  0  0  0
   -6.3746    3.2338    0.0000 N   0  0  0  0  0  0  0  0  0
   -5.6602    2.8213    0.0000 C   0  0  0  0  0  0  0  0  0
   -5.6602    1.9963    0.0000 C   0  0  0  0  0  0  0  0  0
   -6.3746    1.5838    0.0000 N   0  0  0  0  0  0  0  0  0
   -7.0891    1.9963    0.0000 C   0  0  0  0  0  0  0  0  0
   -7.0891    2.8213    0.0000 C   0  0  0  0  0  0  0  0  0
   -6.3746    0.7588    0.0000 C   0  0  0  0  0  0  0  0  0
   -7.0891    0.3463    0.0000 O   0  0  0  0  0  0  0  0  0
   -5.6602    0.3463    0.0000 N   0  0  0  0  0  0  0  0  0
   -5.6602   -0.4787    0.0000 C   0  0  0  0  0  0  0  0  0
   -4.9457   -0.8912    0.0000 C   0  0  0  0  0  0  0  0  0
   -4.9457   -1.7162    0.0000 C   0  0  0  0  0  0  0  0  0
   -4.2312   -2.1287    0.0000 N   0  0  0  0  0  0  0  0  0
   -3.5167   -1.7162    0.0000 C   0  0  0  0  0  0  0  0  0
   -2.8023   -2.1287    0.0000 C   0  0  0  0  0  0  0  0  0
   -2.8023   -2.9537    0.0000 N   0  0  0  0  0  0  0  0  0
   -3.5167   -3.3662    0.0000 C   0  0  0  0  0  0  0  0  0
   -4.2312   -2.9537    0.0000 C   0  0  0  0  0  0  0  0  0
   -2.0878   -3.3662    0.0000 C   0  0  0  0  0  0  0  0  0
   -5.6602   -2.1287    0.0000 C   0  0  0  0  0  0  0  0  0
   -5.6602   -2.9537    0.0000 O   0  0  0  0  0  0  0  0  0
   -6.3746   -3.3662    0.0000 C   0  0  0  0  0  0  0  0  0
   -6.3746   -1.7162    0.0000 C   0  0  0  0  0  0  0  0  0
   -6.3746   -0.8912    0.0000 C   0  0  0  0  0  0  0  0  0
   -7.0891    4.4713    0.0000 C   0  0  0  0  0  0  0  0  0
   -7.0891    5.2963    0.0000 C   0  0  0  0  0  0  0  0  0
  1  2  1  0  0  0  0
  1  3  1  0  0  0  0
  3  4  4  0  0  0  0
  3 32  4  0  0  0  0
  4  5  4  0  0  0  0
  5  6  4  0  0  0  0
  6  7  1  0  0  0  0
  6 31  4  0  0  0  0
  7  8  1  0  0  0  0
  7 12  1  0  0  0  0
  8  9  1  0  0  0  0
  9 10  1  0  0  0  0
 10 11  1  0  0  0  0
 10 13  1  0  0  0  0
 11 12  1  0  0  0  0
 13 14  2  0  0  0  0
 13 15  1  0  0  0  0
 15 16  1  0  0  0  0
 16 17  4  0  0  0  0
 16 30  4  0  0  0  0
 17 18  4  0  0  0  0
 18 19  1  0  0  0  0
 18 26  4  0  0  0  0
 19 20  1  0  0  0  0
 19 24  1  0  0  0  0
 20 21  1  0  0  0  0
 21 22  1  0  0  0  0
 22 23  1  0  0  0  0
 22 25  1  0  0  0  0
 23 24  1  0  0  0  0
 26 27  1  0  0  0  0
 26 29  4  0  0  0  0
 27 28  1  0  0  0  0
 29 30  4  0  0  0  0
 31 32  4  0  0  0  0
M  END
>  <Name_Molregno>
327090

>  <5-HT1A>
6.05

>  <5-HT1B>
7.78

>  <5-HT1D>
6.48

>  <5-HT2A>
5.87

>  <5-HT2C>
5.94

>  <5-HT6>
5

>  <5-HT7>
5

>  <DOPAMINE D1>
5

>  <DOPAMINE D2>
5

>  <DOPAMINE D3>
5

>  <DOPAMINE D4>
5

>  <DOPAMINE D5>
5

>  <HISTAMINE H1>
5

>  <Muscarinic acetylcholine receptor M1>
5

>  <Muscarinic acetylcholine receptor M2>
5

>  <Muscarinic acetylcholine receptor M3>
5

>  <Muscarinic acetylcholine receptor M4>
5

>  <Muscarinic acetylcholine receptor M5>
5

$$$$
327091
  Marvin  02231216192D 0   1.00000     0.00000     0

 32 35  0  0  0  0  0  0  0  0999 V2000
    3.7835    3.5848    0.0000 O   0  0  0  0  0  0  0  0  0
    3.0690    3.9973    0.0000 C   0  0  0  0  0  0  0  0  0
    3.7835    2.7598    0.0000 C   0  0  0  0  0  0  0  0  0
    4.4980    2.3473    0.0000 C   0  0  0  0  0  0  0  0  0
    4.4980    1.5223    0.0000 C   0  0  0  0  0  0  0  0  0
    3.7835    1.1098    0.0000 C   0  0  0  0  0  0  0  0  0
    3.7835    0.2848    0.0000 N   0  0  0  0  0  0  0  0  0
    4.4980   -0.1277    0.0000 C   0  0  0  0  0  0  0  0  0
    5.2124    0.2848    0.0000 O   0  0  0  0  0  0  0  0  0
    4.4980   -0.9527    0.0000 C   0  0  0  0  0  0  0  0  0
    5.2124   -1.3652    0.0000 C   0  0  0  0  0  0  0  0  0
    5.2124   -2.1902    0.0000 C   0  0  0  0  0  0  0  0  0
    4.4980   -2.6027    0.0000 N   0  0  0  0  0  0  0  0  0
    3.7835   -2.1902    0.0000 C   0  0  0  0  0  0  0  0  0
    3.7835   -1.3652    0.0000 C   0  0  0  0  0  0  0  0  0
    4.4980   -3.4277    0.0000 C   0  0  0  0  0  0  0  0  0
    5.2124   -3.8402    0.0000 C   0  0  0  0  0  0  0  0  0
    5.2124   -4.6652    0.0000 C   0  0  0  0  0  0  0  0  0
    4.4980   -5.0777    0.0000 C   0  0  0  0  0  0  0  0  0
    3.7835   -4.6652    0.0000 C   0  0  0  0  0  0  0  0  0
    3.7835   -3.8402    0.0000 C   0  0  0  0  0  0  0  0  0
    3.0690   -3.4277    0.0000 O   0  0  0  0  0  0  0  0  0
    2.3546   -3.8402    0.0000 C   0  0  0  0  0  0  0  0  0
    3.0690    1.5223    0.0000 C   0  0  0  0  0  0  0  0  0
    3.0690    2.3473    0.0000 C   0  0  0  0  0  0  0  0  0
    2.3546    2.7598    0.0000 N   0  0  0  0  0  0  0  0  0
    1.6401    2.3473    0.0000 C   0  0  0  0  0  0  0  0  0
    0.9256    2.7598    0.0000 C   0  0  0  0  0  0  0  0  0
    0.9256    3.5848    0.0000 N   0  0  0  0  0  0  0  0  0
    1.6401    3.9973    0.0000 C   0  0  0  0  0  0  0  0  0
    2.3546    3.5848    0.0000 C   0  0  0  0  0  0  0  0  0
    0.2111    3.9973    0.0000 C   0  0  0  0  0  0  0  0  0
  1  2  1  0  0  0  0
  1  3  1  0  0  0  0
  3  4  4  0  0  0  0
  3 25  4  0  0  0  0
  4  5  4  0  0  0  0
  5  6  4  0  0  0  0
  6  7  1  0  0  0  0
  6 24  4  0  0  0  0
  7  8  1  0  0  0  0
  8  9  2  0  0  0  0
  8 10  1  0  0  0  0
 10 11  1  0  0  0  0
 10 15  1  0  0  0  0
 11 12  1  0  0  0  0
 12 13  1  0  0  0  0
 13 14  1  0  0  0  0
 13 16  1  0  0  0  0
 14 15  1  0  0  0  0
 16 17  4  0  0  0  0
 16 21  4  0  0  0  0
 17 18  4  0  0  0  0
 18 19  4  0  0  0  0
 19 20  4  0  0  0  0
 20 21  4  0  0  0  0
 21 22  1  0  0  0  0
 22 23  1  0  0  0  0
 24 25  4  0  0  0  0
 25 26  1  0  0  0  0
 26 27  1  0  0  0  0
 26 31  1  0  0  0  0
 27 28  1  0  0  0  0
 28 29  1  0  0  0  0
 29 30  1  0  0  0  0
 29 32  1  0  0  0  0
 30 31  1  0  0  0  0
M  END
>  <Name_Molregno>
327091

>  <5-HT1A>
7.81

>  <5-HT1B>
8.01

>  <5-HT1D>
7.81

>  <5-HT2A>
5

>  <5-HT2C>
5

>  <DOPAMINE D1>
5

>  <DOPAMINE D2>
5

>  <DOPAMINE D3>
5

>  <DOPAMINE D4>
5

>  <DOPAMINE D5>
5

>  <HISTAMINE H1>
5

>  <Muscarinic acetylcholine receptor M1>
5

>  <Muscarinic acetylcholine receptor M2>
5

>  <Muscarinic acetylcholine receptor M3>
5

>  <Muscarinic acetylcholine receptor M4>
5

>  <Muscarinic acetylcholine receptor M5>
5

$$$$
330011
  Marvin  02231216192D 0   1.00000     0.00000     0

 29 33  0  0  0  0  0  0  0  0999 V2000
    8.8382    0.9139    0.0000 Cl  0  0  0  0  0  0  0  0  0
    8.0312    0.7424    0.0000 C   0  0  0  0  0  0  0  0  0
    7.7763   -0.0422    0.0000 C   0  0  0  0  0  0  0  0  0
    6.9693   -0.2138    0.0000 C   0  0  0  0  0  0  0  0  0
    6.4173    0.3993    0.0000 C   0  0  0  0  0  0  0  0  0
    6.6722    1.1840    0.0000 C   0  0  0  0  0  0  0  0  0
    7.4792    1.3555    0.0000 C   0  0  0  0  0  0  0  0  0
    5.6103    0.2278    0.0000 C   0  0  0  0  0  0  0  0  0
    5.0583    0.8409    0.0000 O   0  0  0  0  0  0  0  0  0
    5.3554   -0.5568    0.0000 N   0  0  0  0  0  0  0  0  0
    5.8403   -1.2243    0.0000 C   0  0  0  0  0  0  0  0  0
    5.3554   -1.8917    0.0000 C   0  0  0  0  0  0  0  0  0
    4.5708   -1.6368    0.0000 C   0  0  0  0  0  0  0  0  0
    4.5708   -0.8118    0.0000 C   0  0  0  0  0  0  0  0  0
    3.8563   -0.3993    0.0000 C   0  0  0  0  0  0  0  0  0
    3.1418   -0.8118    0.0000 C   0  0  0  0  0  0  0  0  0
    3.1418   -1.6368    0.0000 C   0  0  0  0  0  0  0  0  0
    3.8563   -2.0493    0.0000 C   0  0  0  0  0  0  0  0  0
    2.4273   -2.0493    0.0000 C   0  0  0  0  0  0  0  0  0
    1.7129   -1.6368    0.0000 C   0  0  0  0  0  0  0  0  0
    1.7129   -0.8118    0.0000 N   0  0  0  0  0  0  0  0  0
    2.4273   -0.3993    0.0000 C   0  0  0  0  0  0  0  0  0
    2.4273    0.4257    0.0000 N   0  0  0  0  0  0  0  0  0
    1.7129    0.8382    0.0000 C   0  0  0  0  0  0  0  0  0
    1.7129    1.6632    0.0000 C   0  0  0  0  0  0  0  0  0
    2.4273    2.0757    0.0000 N   0  0  0  0  0  0  0  0  0
    3.1418    1.6632    0.0000 C   0  0  0  0  0  0  0  0  0
    3.1418    0.8382    0.0000 C   0  0  0  0  0  0  0  0  0
    2.4273    2.9007    0.0000 C   0  0  0  0  0  0  0  0  0
  1  2  1  0  0  0  0
  2  3  4  0  0  0  0
  2  7  4  0  0  0  0
  3  4  4  0  0  0  0
  4  5  4  0  0  0  0
  5  6  4  0  0  0  0
  5  8  1  0  0  0  0
  6  7  4  0  0  0  0
  8  9  2  0  0  0  0
  8 10  1  0  0  0  0
 10 11  1  0  0  0  0
 10 14  1  0  0  0  0
 11 12  1  0  0  0  0
 12 13  1  0  0  0  0
 13 14  4  0  0  0  0
 13 18  4  0  0  0  0
 14 15  4  0  0  0  0
 15 16  4  0  0  0  0
 16 17  4  0  0  0  0
 16 22  4  0  0  0  0
 17 18  4  0  0  0  0
 17 19  4  0  0  0  0
 19 20  4  0  0  0  0
 20 21  4  0  0  0  0
 21 22  4  0  0  0  0
 22 23  1  0  0  0  0
 23 24  1  0  0  0  0
 23 28  1  0  0  0  0
 24 25  1  0  0  0  0
 25 26  1  0  0  0  0
 26 27  1  0  0  0  0
 26 29  1  0  0  0  0
 27 28  1  0  0  0  0
M  END
>  <Name_Molregno>
330011

>  <5-HT1A>
9.1

>  <5-HT1B>
9.5

>  <5-HT1D>
9.3

$$$$
330016
  Marvin  02231216192D 0   1.00000     0.00000     0

 30 34  0  0  0  0  0  0  0  0999 V2000
    1.0910    0.1321    0.0000 O   0  0  0  0  0  0  0  0  0
    1.6430   -0.4810    0.0000 C   0  0  0  0  0  0  0  0  0
    1.3881   -1.2657    0.0000 N   0  0  0  0  0  0  0  0  0
    1.8730   -1.9331    0.0000 C   0  0  0  0  0  0  0  0  0
    1.3881   -2.6005    0.0000 C   0  0  0  0  0  0  0  0  0
    0.6034   -2.3456    0.0000 C   0  0  0  0  0  0  0  0  0
    0.6034   -1.5206    0.0000 C   0  0  0  0  0  0  0  0  0
   -0.1110   -1.1081    0.0000 C   0  0  0  0  0  0  0  0  0
   -0.8255   -1.5206    0.0000 C   0  0  0  0  0  0  0  0  0
   -0.8255   -2.3456    0.0000 C   0  0  0  0  0  0  0  0  0
   -0.1110   -2.7581    0.0000 C   0  0  0  0  0  0  0  0  0
   -1.5400   -2.7581    0.0000 C   0  0  0  0  0  0  0  0  0
   -2.2544   -2.3456    0.0000 C   0  0  0  0  0  0  0  0  0
   -2.2544   -1.5206    0.0000 N   0  0  0  0  0  0  0  0  0
   -1.5400   -1.1081    0.0000 C   0  0  0  0  0  0  0  0  0
   -1.5400   -0.2831    0.0000 N   0  0  0  0  0  0  0  0  0
   -2.2544    0.1294    0.0000 C   0  0  0  0  0  0  0  0  0
   -2.2544    0.9544    0.0000 C   0  0  0  0  0  0  0  0  0
   -1.5400    1.3669    0.0000 N   0  0  0  0  0  0  0  0  0
   -0.8255    0.9544    0.0000 C   0  0  0  0  0  0  0  0  0
   -0.8255    0.1294    0.0000 C   0  0  0  0  0  0  0  0  0
   -1.5400    2.1919    0.0000 C   0  0  0  0  0  0  0  0  0
    2.4500   -0.3095    0.0000 C   0  0  0  0  0  0  0  0  0
    2.7049    0.4751    0.0000 C   0  0  0  0  0  0  0  0  0
    3.5119    0.6466    0.0000 C   0  0  0  0  0  0  0  0  0
    4.0639    0.0335    0.0000 C   0  0  0  0  0  0  0  0  0
    3.8090   -0.7511    0.0000 C   0  0  0  0  0  0  0  0  0
    3.0020   -0.9226    0.0000 C   0  0  0  0  0  0  0  0  0
    4.8709    0.2051    0.0000 C   0  0  0  0  0  0  0  0  0
    5.6779    0.3766    0.0000 N   0  0  0  0  0  0  0  0  0
  1  2  2  0  0  0  0
  2  3  1  0  0  0  0
  2 23  1  0  0  0  0
  3  4  1  0  0  0  0
  3  7  1  0  0  0  0
  4  5  1  0  0  0  0
  5  6  1  0  0  0  0
  6  7  4  0  0  0  0
  6 11  4  0  0  0  0
  7  8  4  0  0  0  0
  8  9  4  0  0  0  0
  9 10  4  0  0  0  0
  9 15  4  0  0  0  0
 10 11  4  0  0  0  0
 10 12  4  0  0  0  0
 12 13  4  0  0  0  0
 13 14  4  0  0  0  0
 14 15  4  0  0  0  0
 15 16  1  0  0  0  0
 16 17  1  0  0  0  0
 16 21  1  0  0  0  0
 17 18  1  0  0  0  0
 18 19  1  0  0  0  0
 19 20  1  0  0  0  0
 19 22  1  0  0  0  0
 20 21  1  0  0  0  0
 23 24  4  0  0  0  0
 23 28  4  0  0  0  0
 24 25  4  0  0  0  0
 25 26  4  0  0  0  0
 26 27  4  0  0  0  0
 26 29  1  0  0  0  0
 27 28  4  0  0  0  0
 29 30  3  0  0  0  0
M  END
>  <Name_Molregno>
330016

>  <5-HT1A>
9

>  <5-HT1B>
9.3

>  <5-HT1D>
9.1

$$$$
330017
  Marvin  02231216192D 0   1.00000     0.00000     0

 32 36  0  0  0  0  0  0  0  0999 V2000
    3.7084    0.6425    0.0000 F   0  0  0  0  0  0  0  0  0
    4.2604    0.0294    0.0000 C   0  0  0  0  0  0  0  0  0
    3.6473   -0.5226    0.0000 F   0  0  0  0  0  0  0  0  0
    4.8735    0.5815    0.0000 F   0  0  0  0  0  0  0  0  0
    4.8125   -0.5837    0.0000 C   0  0  0  0  0  0  0  0  0
    5.6194   -0.4121    0.0000 C   0  0  0  0  0  0  0  0  0
    6.1715   -1.0252    0.0000 C   0  0  0  0  0  0  0  0  0
    5.9165   -1.8098    0.0000 C   0  0  0  0  0  0  0  0  0
    5.1096   -1.9814    0.0000 C   0  0  0  0  0  0  0  0  0
    4.5575   -1.3683    0.0000 C   0  0  0  0  0  0  0  0  0
    3.7505   -1.5398    0.0000 C   0  0  0  0  0  0  0  0  0
    3.1985   -0.9267    0.0000 O   0  0  0  0  0  0  0  0  0
    3.4956   -2.3244    0.0000 N   0  0  0  0  0  0  0  0  0
    3.9805   -2.9919    0.0000 C   0  0  0  0  0  0  0  0  0
    3.4956   -3.6593    0.0000 C   0  0  0  0  0  0  0  0  0
    2.7110   -3.4044    0.0000 C   0  0  0  0  0  0  0  0  0
    2.7110   -2.5794    0.0000 C   0  0  0  0  0  0  0  0  0
    1.9965   -2.1669    0.0000 C   0  0  0  0  0  0  0  0  0
    1.2820   -2.5794    0.0000 C   0  0  0  0  0  0  0  0  0
    1.2820   -3.4044    0.0000 C   0  0  0  0  0  0  0  0  0
    1.9965   -3.8169    0.0000 C   0  0  0  0  0  0  0  0  0
    0.5676   -3.8169    0.0000 C   0  0  0  0  0  0  0  0  0
   -0.1469   -3.4044    0.0000 C   0  0  0  0  0  0  0  0  0
   -0.1469   -2.5794    0.0000 N   0  0  0  0  0  0  0  0  0
    0.5676   -2.1669    0.0000 C   0  0  0  0  0  0  0  0  0
    0.5676   -1.3419    0.0000 N   0  0  0  0  0  0  0  0  0
   -0.1469   -0.9294    0.0000 C   0  0  0  0  0  0  0  0  0
   -0.1469   -0.1044    0.0000 C   0  0  0  0  0  0  0  0  0
    0.5676    0.3081    0.0000 N   0  0  0  0  0  0  0  0  0
    1.2820   -0.1044    0.0000 C   0  0  0  0  0  0  0  0  0
    1.2820   -0.9294    0.0000 C   0  0  0  0  0  0  0  0  0
    0.5676    1.1331    0.0000 C   0  0  0  0  0  0  0  0  0
  1  2  1  0  0  0  0
  2  3  1  0  0  0  0
  2  4  1  0  0  0  0
  2  5  1  0  0  0  0
  5  6  4  0  0  0  0
  5 10  4  0  0  0  0
  6  7  4  0  0  0  0
  7  8  4  0  0  0  0
  8  9  4  0  0  0  0
  9 10  4  0  0  0  0
 10 11  1  0  0  0  0
 11 12  2  0  0  0  0
 11 13  1  0  0  0  0
 13 14  1  0  0  0  0
 13 17  1  0  0  0  0
 14 15  1  0  0  0  0
 15 16  1  0  0  0  0
 16 17  4  0  0  0  0
 16 21  4  0  0  0  0
 17 18  4  0  0  0  0
 18 19  4  0  0  0  0
 19 20  4  0  0  0  0
 19 25  4  0  0  0  0
 20 21  4  0  0  0  0
 20 22  4  0  0  0  0
 22 23  4  0  0  0  0
 23 24  4  0  0  0  0
 24 25  4  0  0  0  0
 25 26  1  0  0  0  0
 26 27  1  0  0  0  0
 26 31  1  0  0  0  0
 27 28  1  0  0  0  0
 28 29  1  0  0  0  0
 29 30  1  0  0  0  0
 29 32  1  0  0  0  0
 30 31  1  0  0  0  0
M  END
>  <Name_Molregno>
330017

>  <5-HT1A>
8

>  <5-HT1B>
7.8

>  <5-HT1D>
7.8

$$$$
330024
  Marvin  02231216192D 0   1.00000     0.00000     0

 29 33  0  0  0  0  0  0  0  0999 V2000
   -0.2750    0.4525    0.0000 Cl  0  0  0  0  0  0  0  0  0
    0.2770   -0.1606    0.0000 C   0  0  0  0  0  0  0  0  0
    1.0840    0.0110    0.0000 C   0  0  0  0  0  0  0  0  0
    1.6360   -0.6021    0.0000 C   0  0  0  0  0  0  0  0  0
    1.3811   -1.3867    0.0000 C   0  0  0  0  0  0  0  0  0
    0.5741   -1.5583    0.0000 C   0  0  0  0  0  0  0  0  0
    0.0220   -0.9452    0.0000 C   0  0  0  0  0  0  0  0  0
   -0.7849   -1.1167    0.0000 C   0  0  0  0  0  0  0  0  0
   -1.3370   -0.5036    0.0000 O   0  0  0  0  0  0  0  0  0
   -1.0399   -1.9013    0.0000 N   0  0  0  0  0  0  0  0  0
   -0.5549   -2.5688    0.0000 C   0  0  0  0  0  0  0  0  0
   -1.0399   -3.2362    0.0000 C   0  0  0  0  0  0  0  0  0
   -1.8245   -2.9813    0.0000 C   0  0  0  0  0  0  0  0  0
   -1.8245   -2.1563    0.0000 C   0  0  0  0  0  0  0  0  0
   -2.5390   -1.7438    0.0000 C   0  0  0  0  0  0  0  0  0
   -3.2534   -2.1563    0.0000 C   0  0  0  0  0  0  0  0  0
   -3.2534   -2.9813    0.0000 C   0  0  0  0  0  0  0  0  0
   -2.5390   -3.3938    0.0000 C   0  0  0  0  0  0  0  0  0
   -3.9679   -3.3938    0.0000 C   0  0  0  0  0  0  0  0  0
   -4.6824   -2.9813    0.0000 C   0  0  0  0  0  0  0  0  0
   -4.6824   -2.1563    0.0000 N   0  0  0  0  0  0  0  0  0
   -3.9679   -1.7438    0.0000 C   0  0  0  0  0  0  0  0  0
   -3.9679   -0.9188    0.0000 N   0  0  0  0  0  0  0  0  0
   -4.6824   -0.5063    0.0000 C   0  0  0  0  0  0  0  0  0
   -4.6824    0.3187    0.0000 C   0  0  0  0  0  0  0  0  0
   -3.9679    0.7312    0.0000 N   0  0  0  0  0  0  0  0  0
   -3.2534    0.3187    0.0000 C   0  0  0  0  0  0  0  0  0
   -3.2534   -0.5063    0.0000 C   0  0  0  0  0  0  0  0  0
   -3.9679    1.5562    0.0000 C   0  0  0  0  0  0  0  0  0
  1  2  1  0  0  0  0
  2  3  4  0  0  0  0
  2  7  4  0  0  0  0
  3  4  4  0  0  0  0
  4  5  4  0  0  0  0
  5  6  4  0  0  0  0
  6  7  4  0  0  0  0
  7  8  1  0  0  0  0
  8  9  2  0  0  0  0
  8 10  1  0  0  0  0
 10 11  1  0  0  0  0
 10 14  1  0  0  0  0
 11 12  1  0  0  0  0
 12 13  1  0  0  0  0
 13 14  4  0  0  0  0
 13 18  4  0  0  0  0
 14 15  4  0  0  0  0
 15 16  4  0  0  0  0
 16 17  4  0  0  0  0
 16 22  4  0  0  0  0
 17 18  4  0  0  0  0
 17 19  4  0  0  0  0
 19 20  4  0  0  0  0
 20 21  4  0  0  0  0
 21 22  4  0  0  0  0
 22 23  1  0  0  0  0
 23 24  1  0  0  0  0
 23 28  1  0  0  0  0
 24 25  1  0  0  0  0
 25 26  1  0  0  0  0
 26 27  1  0  0  0  0
 26 29  1  0  0  0  0
 27 28  1  0  0  0  0
M  END
>  <Name_Molregno>
330024

>  <5-HT1A>
8.3

>  <5-HT1B>
8.9

>  <5-HT1D>
8.6

$$$$
330032
  Marvin  02231216192D 0   1.00000     0.00000     0

 32 36  0  0  0  0  0  0  0  0999 V2000
    9.5697    1.0324    0.0000 F   0  0  0  0  0  0  0  0  0
    8.7627    0.8609    0.0000 C   0  0  0  0  0  0  0  0  0
    8.5912    1.6679    0.0000 F   0  0  0  0  0  0  0  0  0
    8.9342    0.0539    0.0000 F   0  0  0  0  0  0  0  0  0
    7.9557    0.6894    0.0000 C   0  0  0  0  0  0  0  0  0
    7.7008   -0.0952    0.0000 N   0  0  0  0  0  0  0  0  0
    6.8938   -0.2668    0.0000 C   0  0  0  0  0  0  0  0  0
    6.3418    0.3463    0.0000 C   0  0  0  0  0  0  0  0  0
    6.5967    1.1310    0.0000 C   0  0  0  0  0  0  0  0  0
    7.4037    1.3025    0.0000 C   0  0  0  0  0  0  0  0  0
    5.5348    0.1748    0.0000 C   0  0  0  0  0  0  0  0  0
    4.9828    0.7879    0.0000 O   0  0  0  0  0  0  0  0  0
    5.2799   -0.6098    0.0000 N   0  0  0  0  0  0  0  0  0
    5.7648   -1.2773    0.0000 C   0  0  0  0  0  0  0  0  0
    5.2799   -1.9447    0.0000 C   0  0  0  0  0  0  0  0  0
    4.4952   -1.6898    0.0000 C   0  0  0  0  0  0  0  0  0
    4.4952   -0.8648    0.0000 C   0  0  0  0  0  0  0  0  0
    3.7808   -0.4523    0.0000 C   0  0  0  0  0  0  0  0  0
    3.0663   -0.8648    0.0000 C   0  0  0  0  0  0  0  0  0
    3.0663   -1.6898    0.0000 C   0  0  0  0  0  0  0  0  0
    3.7808   -2.1023    0.0000 C   0  0  0  0  0  0  0  0  0
    2.3518   -2.1023    0.0000 C   0  0  0  0  0  0  0  0  0
    1.6374   -1.6898    0.0000 C   0  0  0  0  0  0  0  0  0
    1.6374   -0.8648    0.0000 N   0  0  0  0  0  0  0  0  0
    2.3518   -0.4523    0.0000 C   0  0  0  0  0  0  0  0  0
    2.3518    0.3727    0.0000 N   0  0  0  0  0  0  0  0  0
    1.6374    0.7852    0.0000 C   0  0  0  0  0  0  0  0  0
    1.6374    1.6102    0.0000 C   0  0  0  0  0  0  0  0  0
    2.3518    2.0227    0.0000 N   0  0  0  0  0  0  0  0  0
    3.0663    1.6102    0.0000 C   0  0  0  0  0  0  0  0  0
    3.0663    0.7852    0.0000 C   0  0  0  0  0  0  0  0  0
    2.3518    2.8477    0.0000 C   0  0  0  0  0  0  0  0  0
  1  2  1  0  0  0  0
  2  3  1  0  0  0  0
  2  4  1  0  0  0  0
  2  5  1  0  0  0  0
  5  6  4  0  0  0  0
  5 10  4  0  0  0  0
  6  7  4  0  0  0  0
  7  8  4  0  0  0  0
  8  9  4  0  0  0  0
  8 11  1  0  0  0  0
  9 10  4  0  0  0  0
 11 12  2  0  0  0  0
 11 13  1  0  0  0  0
 13 14  1  0  0  0  0
 13 17  1  0  0  0  0
 14 15  1  0  0  0  0
 15 16  1  0  0  0  0
 16 17  4  0  0  0  0
 16 21  4  0  0  0  0
 17 18  4  0  0  0  0
 18 19  4  0  0  0  0
 19 20  4  0  0  0  0
 19 25  4  0  0  0  0
 20 21  4  0  0  0  0
 20 22  4  0  0  0  0
 22 23  4  0  0  0  0
 23 24  4  0  0  0  0
 24 25  4  0  0  0  0
 25 26  1  0  0  0  0
 26 27  1  0  0  0  0
 26 31  1  0  0  0  0
 27 28  1  0  0  0  0
 28 29  1  0  0  0  0
 29 30  1  0  0  0  0
 29 32  1  0  0  0  0
 30 31  1  0  0  0  0
M  END
>  <Name_Molregno>
330032

>  <5-HT1A>
8.5

>  <5-HT1B>
9.6

>  <5-HT1D>
9.3

$$$$
330033
  Marvin  02231216192D 0   1.00000     0.00000     0

 32 37  0  0  0  0  0  0  0  0999 V2000
    2.5068   -1.7747    0.0000 O   0  0  0  0  0  0  0  0  0
    1.7923   -1.3622    0.0000 C   0  0  0  0  0  0  0  0  0
    1.0778   -1.7747    0.0000 N   0  0  0  0  0  0  0  0  0
    0.9916   -2.5951    0.0000 C   0  0  0  0  0  0  0  0  0
    0.1846   -2.7667    0.0000 C   0  0  0  0  0  0  0  0  0
   -0.2279   -2.0522    0.0000 C   0  0  0  0  0  0  0  0  0
    0.3241   -1.4391    0.0000 C   0  0  0  0  0  0  0  0  0
    0.0692   -0.6545    0.0000 C   0  0  0  0  0  0  0  0  0
   -0.7378   -0.4829    0.0000 C   0  0  0  0  0  0  0  0  0
   -1.2898   -1.0960    0.0000 C   0  0  0  0  0  0  0  0  0
   -1.0349   -1.8807    0.0000 C   0  0  0  0  0  0  0  0  0
   -2.0968   -0.9245    0.0000 C   0  0  0  0  0  0  0  0  0
   -2.3517   -0.1399    0.0000 C   0  0  0  0  0  0  0  0  0
   -1.7997    0.4732    0.0000 N   0  0  0  0  0  0  0  0  0
   -0.9927    0.3017    0.0000 C   0  0  0  0  0  0  0  0  0
   -0.4407    0.9148    0.0000 N   0  0  0  0  0  0  0  0  0
   -0.6956    1.6994    0.0000 C   0  0  0  0  0  0  0  0  0
   -0.1436    2.3125    0.0000 C   0  0  0  0  0  0  0  0  0
    0.6634    2.1410    0.0000 N   0  0  0  0  0  0  0  0  0
    0.9183    1.3563    0.0000 C   0  0  0  0  0  0  0  0  0
    0.3663    0.7432    0.0000 C   0  0  0  0  0  0  0  0  0
    1.2154    2.7541    0.0000 C   0  0  0  0  0  0  0  0  0
    1.7923   -0.5372    0.0000 C   0  0  0  0  0  0  0  0  0
    2.5068   -0.1247    0.0000 C   0  0  0  0  0  0  0  0  0
    2.5068    0.7003    0.0000 C   0  0  0  0  0  0  0  0  0
    3.2212    1.1128    0.0000 N   0  0  0  0  0  0  0  0  0
    3.9357    0.7003    0.0000 C   0  0  0  0  0  0  0  0  0
    3.9357   -0.1247    0.0000 C   0  0  0  0  0  0  0  0  0
    3.2212   -0.5372    0.0000 C   0  0  0  0  0  0  0  0  0
    1.7923    1.1128    0.0000 C   0  0  0  0  0  0  0  0  0
    1.0778    0.7003    0.0000 C   0  0  0  0  0  0  0  0  0
    1.0778   -0.1247    0.0000 C   0  0  0  0  0  0  0  0  0
  1  2  2  0  0  0  0
  2  3  1  0  0  0  0
  2 23  1  0  0  0  0
  3  4  1  0  0  0  0
  3  7  1  0  0  0  0
  4  5  1  0  0  0  0
  5  6  1  0  0  0  0
  6  7  4  0  0  0  0
  6 11  4  0  0  0  0
  7  8  4  0  0  0  0
  8  9  4  0  0  0  0
  9 10  4  0  0  0  0
  9 15  4  0  0  0  0
 10 11  4  0  0  0  0
 10 12  4  0  0  0  0
 12 13  4  0  0  0  0
 13 14  4  0  0  0  0
 14 15  4  0  0  0  0
 15 16  1  0  0  0  0
 16 17  1  0  0  0  0
 16 21  1  0  0  0  0
 17 18  1  0  0  0  0
 18 19  1  0  0  0  0
 19 20  1  0  0  0  0
 19 22  1  0  0  0  0
 20 21  1  0  0  0  0
 23 24  4  0  0  0  0
 23 32  4  0  0  0  0
 24 25  4  0  0  0  0
 24 29  4  0  0  0  0
 25 26  4  0  0  0  0
 25 30  4  0  0  0  0
 26 27  4  0  0  0  0
 27 28  4  0  0  0  0
 28 29  4  0  0  0  0
 30 31  4  0  0  0  0
 31 32  4  0  0  0  0
M  END
>  <Name_Molregno>
330033

>  <5-HT1A>
8.4

>  <5-HT1B>
9.1

>  <5-HT1D>
8.4

$$$$
330054
  Marvin  02231216192D 0   1.00000     0.00000     0

 32 36  0  0  0  0  0  0  0  0999 V2000
   -0.2709    0.2739    0.0000 F   0  0  0  0  0  0  0  0  0
    0.1416   -0.4406    0.0000 C   0  0  0  0  0  0  0  0  0
   -0.5729   -0.8531    0.0000 F   0  0  0  0  0  0  0  0  0
    0.8560   -0.0281    0.0000 F   0  0  0  0  0  0  0  0  0
    0.5541   -1.1551    0.0000 C   0  0  0  0  0  0  0  0  0
    1.3746   -1.2413    0.0000 O   0  0  0  0  0  0  0  0  0
    1.5461   -2.0483    0.0000 C   0  0  0  0  0  0  0  0  0
    0.8316   -2.4608    0.0000 C   0  0  0  0  0  0  0  0  0
    0.2185   -1.9087    0.0000 C   0  0  0  0  0  0  0  0  0
   -0.5885   -2.0803    0.0000 C   0  0  0  0  0  0  0  0  0
   -1.1405   -1.4672    0.0000 O   0  0  0  0  0  0  0  0  0
   -0.8434   -2.8649    0.0000 N   0  0  0  0  0  0  0  0  0
   -0.3585   -3.5323    0.0000 C   0  0  0  0  0  0  0  0  0
   -0.8434   -4.1998    0.0000 C   0  0  0  0  0  0  0  0  0
   -1.6280   -3.9448    0.0000 C   0  0  0  0  0  0  0  0  0
   -1.6280   -3.1198    0.0000 C   0  0  0  0  0  0  0  0  0
   -2.3425   -2.7073    0.0000 C   0  0  0  0  0  0  0  0  0
   -3.0570   -3.1198    0.0000 C   0  0  0  0  0  0  0  0  0
   -3.0570   -3.9448    0.0000 C   0  0  0  0  0  0  0  0  0
   -2.3425   -4.3573    0.0000 C   0  0  0  0  0  0  0  0  0
   -3.7714   -4.3573    0.0000 C   0  0  0  0  0  0  0  0  0
   -4.4859   -3.9448    0.0000 C   0  0  0  0  0  0  0  0  0
   -4.4859   -3.1198    0.0000 N   0  0  0  0  0  0  0  0  0
   -3.7714   -2.7073    0.0000 C   0  0  0  0  0  0  0  0  0
   -3.7714   -1.8823    0.0000 N   0  0  0  0  0  0  0  0  0
   -4.4859   -1.4698    0.0000 C   0  0  0  0  0  0  0  0  0
   -4.4859   -0.6448    0.0000 C   0  0  0  0  0  0  0  0  0
   -3.7714   -0.2323    0.0000 N   0  0  0  0  0  0  0  0  0
   -3.0570   -0.6448    0.0000 C   0  0  0  0  0  0  0  0  0
   -3.0570   -1.4698    0.0000 C   0  0  0  0  0  0  0  0  0
   -3.7714    0.5927    0.0000 C   0  0  0  0  0  0  0  0  0
    2.2998   -2.3838    0.0000 C   0  0  0  0  0  0  0  0  0
  1  2  1  0  0  0  0
  2  3  1  0  0  0  0
  2  4  1  0  0  0  0
  2  5  1  0  0  0  0
  5  6  4  0  0  0  0
  5  9  4  0  0  0  0
  6  7  4  0  0  0  0
  7  8  4  0  0  0  0
  7 32  1  0  0  0  0
  8  9  4  0  0  0  0
  9 10  1  0  0  0  0
 10 11  2  0  0  0  0
 10 12  1  0  0  0  0
 12 13  1  0  0  0  0
 12 16  1  0  0  0  0
 13 14  1  0  0  0  0
 14 15  1  0  0  0  0
 15 16  4  0  0  0  0
 15 20  4  0  0  0  0
 16 17  4  0  0  0  0
 17 18  4  0  0  0  0
 18 19  4  0  0  0  0
 18 24  4  0  0  0  0
 19 20  4  0  0  0  0
 19 21  4  0  0  0  0
 21 22  4  0  0  0  0
 22 23  4  0  0  0  0
 23 24  4  0  0  0  0
 24 25  1  0  0  0  0
 25 26  1  0  0  0  0
 25 30  1  0  0  0  0
 26 27  1  0  0  0  0
 27 28  1  0  0  0  0
 28 29  1  0  0  0  0
 28 31  1  0  0  0  0
 29 30  1  0  0  0  0
M  END
>  <Name_Molregno>
330054

>  <5-HT1A>
8.3

>  <5-HT1B>
8.7

>  <5-HT1D>
8.1

$$$$
330055
  Marvin  02231216192D 0   1.00000     0.00000     0

 29 33  0  0  0  0  0  0  0  0999 V2000
   -1.1059    1.7648    0.0000 O   0  0  0  0  0  0  0  0  0
   -1.2774    0.9578    0.0000 C   0  0  0  0  0  0  0  0  0
   -0.7254    0.3447    0.0000 C   0  0  0  0  0  0  0  0  0
    0.0816    0.5163    0.0000 O   0  0  0  0  0  0  0  0  0
   -0.9803   -0.4399    0.0000 N   0  0  0  0  0  0  0  0  0
   -0.4954   -1.1073    0.0000 C   0  0  0  0  0  0  0  0  0
   -0.9803   -1.7748    0.0000 C   0  0  0  0  0  0  0  0  0
   -1.7649   -1.5198    0.0000 C   0  0  0  0  0  0  0  0  0
   -1.7649   -0.6948    0.0000 C   0  0  0  0  0  0  0  0  0
   -2.4794   -0.2823    0.0000 C   0  0  0  0  0  0  0  0  0
   -3.1939   -0.6948    0.0000 C   0  0  0  0  0  0  0  0  0
   -3.1939   -1.5198    0.0000 C   0  0  0  0  0  0  0  0  0
   -2.4794   -1.9323    0.0000 C   0  0  0  0  0  0  0  0  0
   -3.9083   -1.9323    0.0000 C   0  0  0  0  0  0  0  0  0
   -4.6228   -1.5198    0.0000 C   0  0  0  0  0  0  0  0  0
   -4.6228   -0.6948    0.0000 N   0  0  0  0  0  0  0  0  0
   -3.9083   -0.2823    0.0000 C   0  0  0  0  0  0  0  0  0
   -3.9083    0.5427    0.0000 N   0  0  0  0  0  0  0  0  0
   -4.6228    0.9552    0.0000 C   0  0  0  0  0  0  0  0  0
   -4.6228    1.7802    0.0000 C   0  0  0  0  0  0  0  0  0
   -3.9083    2.1927    0.0000 N   0  0  0  0  0  0  0  0  0
   -3.1939    1.7802    0.0000 C   0  0  0  0  0  0  0  0  0
   -3.1939    0.9552    0.0000 C   0  0  0  0  0  0  0  0  0
   -3.9083    3.0177    0.0000 C   0  0  0  0  0  0  0  0  0
   -2.0979    0.8716    0.0000 C   0  0  0  0  0  0  0  0  0
   -2.4334    1.6253    0.0000 N   0  0  0  0  0  0  0  0  0
   -1.8203    2.1773    0.0000 C   0  0  0  0  0  0  0  0  0
   -1.9066    2.9978    0.0000 C   0  0  0  0  0  0  0  0  0
   -2.5104    0.1571    0.0000 C   0  0  0  0  0  0  0  0  0
  1  2  4  0  0  0  0
  1 27  4  0  0  0  0
  2  3  1  0  0  0  0
  2 25  4  0  0  0  0
  3  4  2  0  0  0  0
  3  5  1  0  0  0  0
  5  6  1  0  0  0  0
  5  9  1  0  0  0  0
  6  7  1  0  0  0  0
  7  8  1  0  0  0  0
  8  9  4  0  0  0  0
  8 13  4  0  0  0  0
  9 10  4  0  0  0  0
 10 11  4  0  0  0  0
 11 12  4  0  0  0  0
 11 17  4  0  0  0  0
 12 13  4  0  0  0  0
 12 14  4  0  0  0  0
 14 15  4  0  0  0  0
 15 16  4  0  0  0  0
 16 17  4  0  0  0  0
 17 18  1  0  0  0  0
 18 19  1  0  0  0  0
 18 23  1  0  0  0  0
 19 20  1  0  0  0  0
 20 21  1  0  0  0  0
 21 22  1  0  0  0  0
 21 24  1  0  0  0  0
 22 23  1  0  0  0  0
 25 26  4  0  0  0  0
 25 29  1  0  0  0  0
 26 27  4  0  0  0  0
 27 28  1  0  0  0  0
M  END
>  <Name_Molregno>
330055

>  <5-HT1A>
8.2

>  <5-HT1B>
7.8

>  <5-HT1D>
8.6

$$$$
330060
  Marvin  02231216192D 0   1.00000     0.00000     0

 32 36  0  0  0  0  0  0  0  0999 V2000
    3.5639    0.7584    0.0000 F   0  0  0  0  0  0  0  0  0
    3.9764    0.0439    0.0000 C   0  0  0  0  0  0  0  0  0
    3.2619   -0.3686    0.0000 F   0  0  0  0  0  0  0  0  0
    4.6908    0.4564    0.0000 F   0  0  0  0  0  0  0  0  0
    4.3889   -0.6706    0.0000 C   0  0  0  0  0  0  0  0  0
    5.2093   -0.7568    0.0000 N   0  0  0  0  0  0  0  0  0
    5.3809   -1.5638    0.0000 N   0  0  0  0  0  0  0  0  0
    4.6664   -1.9763    0.0000 C   0  0  0  0  0  0  0  0  0
    4.0533   -1.4243    0.0000 C   0  0  0  0  0  0  0  0  0
    3.2463   -1.5958    0.0000 C   0  0  0  0  0  0  0  0  0
    2.6943   -0.9827    0.0000 O   0  0  0  0  0  0  0  0  0
    2.9914   -2.3804    0.0000 N   0  0  0  0  0  0  0  0  0
    3.4763   -3.0479    0.0000 C   0  0  0  0  0  0  0  0  0
    2.9914   -3.7153    0.0000 C   0  0  0  0  0  0  0  0  0
    2.2068   -3.4604    0.0000 C   0  0  0  0  0  0  0  0  0
    2.2068   -2.6354    0.0000 C   0  0  0  0  0  0  0  0  0
    1.4923   -2.2229    0.0000 C   0  0  0  0  0  0  0  0  0
    0.7778   -2.6354    0.0000 C   0  0  0  0  0  0  0  0  0
    0.7778   -3.4604    0.0000 C   0  0  0  0  0  0  0  0  0
    1.4923   -3.8729    0.0000 C   0  0  0  0  0  0  0  0  0
    0.0634   -3.8729    0.0000 C   0  0  0  0  0  0  0  0  0
   -0.6511   -3.4604    0.0000 C   0  0  0  0  0  0  0  0  0
   -0.6511   -2.6354    0.0000 N   0  0  0  0  0  0  0  0  0
    0.0634   -2.2229    0.0000 C   0  0  0  0  0  0  0  0  0
    0.0634   -1.3979    0.0000 N   0  0  0  0  0  0  0  0  0
   -0.6511   -0.9854    0.0000 C   0  0  0  0  0  0  0  0  0
   -0.6511   -0.1604    0.0000 C   0  0  0  0  0  0  0  0  0
    0.0634    0.2521    0.0000 N   0  0  0  0  0  0  0  0  0
    0.7778   -0.1604    0.0000 C   0  0  0  0  0  0  0  0  0
    0.7778   -0.9854    0.0000 C   0  0  0  0  0  0  0  0  0
    0.0634    1.0771    0.0000 C   0  0  0  0  0  0  0  0  0
    5.7614   -0.1437    0.0000 C   0  0  0  0  0  0  0  0  0
  1  2  1  0  0  0  0
  2  3  1  0  0  0  0
  2  4  1  0  0  0  0
  2  5  1  0  0  0  0
  5  6  4  0  0  0  0
  5  9  4  0  0  0  0
  6  7  4  0  0  0  0
  6 32  1  0  0  0  0
  7  8  4  0  0  0  0
  8  9  4  0  0  0  0
  9 10  1  0  0  0  0
 10 11  2  0  0  0  0
 10 12  1  0  0  0  0
 12 13  1  0  0  0  0
 12 16  1  0  0  0  0
 13 14  1  0  0  0  0
 14 15  1  0  0  0  0
 15 16  4  0  0  0  0
 15 20  4  0  0  0  0
 16 17  4  0  0  0  0
 17 18  4  0  0  0  0
 18 19  4  0  0  0  0
 18 24  4  0  0  0  0
 19 20  4  0  0  0  0
 19 21  4  0  0  0  0
 21 22  4  0  0  0  0
 22 23  4  0  0  0  0
 23 24  4  0  0  0  0
 24 25  1  0  0  0  0
 25 26  1  0  0  0  0
 25 30  1  0  0  0  0
 26 27  1  0  0  0  0
 27 28  1  0  0  0  0
 28 29  1  0  0  0  0
 28 31  1  0  0  0  0
 29 30  1  0  0  0  0
M  END
>  <Name_Molregno>
330060

>  <5-HT1A>
8.2

>  <5-HT1B>
8.3

>  <5-HT1D>
8

$$$$
330061
  Marvin  02231216192D 0   1.00000     0.00000     0

 31 36  0  0  0  0  0  0  0  0999 V2000
    1.9023   -2.5928    0.0000 O   0  0  0  0  0  0  0  0  0
    1.3503   -1.9797    0.0000 C   0  0  0  0  0  0  0  0  0
    0.5433   -2.1512    0.0000 N   0  0  0  0  0  0  0  0  0
    0.2077   -2.9049    0.0000 C   0  0  0  0  0  0  0  0  0
   -0.6128   -2.8186    0.0000 C   0  0  0  0  0  0  0  0  0
   -0.7843   -2.0117    0.0000 C   0  0  0  0  0  0  0  0  0
   -0.0698   -1.5992    0.0000 C   0  0  0  0  0  0  0  0  0
   -0.0698   -0.7742    0.0000 C   0  0  0  0  0  0  0  0  0
   -0.7843   -0.3617    0.0000 C   0  0  0  0  0  0  0  0  0
   -1.4988   -0.7742    0.0000 C   0  0  0  0  0  0  0  0  0
   -1.4988   -1.5992    0.0000 C   0  0  0  0  0  0  0  0  0
   -2.2132   -0.3617    0.0000 C   0  0  0  0  0  0  0  0  0
   -2.2132    0.4633    0.0000 C   0  0  0  0  0  0  0  0  0
   -1.4988    0.8758    0.0000 N   0  0  0  0  0  0  0  0  0
   -0.7843    0.4633    0.0000 C   0  0  0  0  0  0  0  0  0
   -0.0698    0.8758    0.0000 N   0  0  0  0  0  0  0  0  0
   -0.0698    1.7008    0.0000 C   0  0  0  0  0  0  0  0  0
    0.6447    2.1133    0.0000 C   0  0  0  0  0  0  0  0  0
    1.3591    1.7008    0.0000 N   0  0  0  0  0  0  0  0  0
    1.3591    0.8758    0.0000 C   0  0  0  0  0  0  0  0  0
    0.6447    0.4633    0.0000 C   0  0  0  0  0  0  0  0  0
    2.0736    2.1133    0.0000 C   0  0  0  0  0  0  0  0  0
    1.6052   -1.1951    0.0000 C   0  0  0  0  0  0  0  0  0
    2.3898   -0.9401    0.0000 C   0  0  0  0  0  0  0  0  0
    2.3898   -0.1151    0.0000 N   0  0  0  0  0  0  0  0  0
    1.6052    0.1398    0.0000 N   0  0  0  0  0  0  0  0  0
    1.1203   -0.5276    0.0000 C   0  0  0  0  0  0  0  0  0
    3.1043    0.2974    0.0000 C   0  0  0  0  0  0  0  0  0
    3.8188   -0.1151    0.0000 C   0  0  0  0  0  0  0  0  0
    3.8188   -0.9401    0.0000 C   0  0  0  0  0  0  0  0  0
    3.1043   -1.3526    0.0000 C   0  0  0  0  0  0  0  0  0
  1  2  2  0  0  0  0
  2  3  1  0  0  0  0
  2 23  1  0  0  0  0
  3  4  1  0  0  0  0
  3  7  1  0  0  0  0
  4  5  1  0  0  0  0
  5  6  1  0  0  0  0
  6  7  4  0  0  0  0
  6 11  4  0  0  0  0
  7  8  4  0  0  0  0
  8  9  4  0  0  0  0
  9 10  4  0  0  0  0
  9 15  4  0  0  0  0
 10 11  4  0  0  0  0
 10 12  4  0  0  0  0
 12 13  4  0  0  0  0
 13 14  4  0  0  0  0
 14 15  4  0  0  0  0
 15 16  1  0  0  0  0
 16 17  1  0  0  0  0
 16 21  1  0  0  0  0
 17 18  1  0  0  0  0
 18 19  1  0  0  0  0
 19 20  1  0  0  0  0
 19 22  1  0  0  0  0
 20 21  1  0  0  0  0
 23 24  4  0  0  0  0
 23 27  4  0  0  0  0
 24 25  4  0  0  0  0
 24 31  4  0  0  0  0
 25 26  4  0  0  0  0
 25 28  4  0  0  0  0
 26 27  4  0  0  0  0
 28 29  4  0  0  0  0
 29 30  4  0  0  0  0
 30 31  4  0  0  0  0
M  END
>  <Name_Molregno>
330061

>  <5-HT1A>
9.5

>  <5-HT1B>
9

>  <5-HT1D>
8.9

$$$$
330066
  Marvin  02231216192D 0   1.00000     0.00000     0

 34 39  0  0  0  0  0  0  0  0999 V2000
    2.8410   -0.6665    0.0000 O   0  0  0  0  0  0  0  0  0
    2.0340   -0.8380    0.0000 C   0  0  0  0  0  0  0  0  0
    1.7791   -1.6226    0.0000 N   0  0  0  0  0  0  0  0  0
    2.2640   -2.2901    0.0000 C   0  0  0  0  0  0  0  0  0
    1.7791   -2.9575    0.0000 C   0  0  0  0  0  0  0  0  0
    0.9945   -2.7026    0.0000 C   0  0  0  0  0  0  0  0  0
    0.9945   -1.8776    0.0000 C   0  0  0  0  0  0  0  0  0
    0.2800   -1.4651    0.0000 C   0  0  0  0  0  0  0  0  0
   -0.4345   -1.8776    0.0000 C   0  0  0  0  0  0  0  0  0
   -0.4345   -2.7026    0.0000 C   0  0  0  0  0  0  0  0  0
    0.2800   -3.1151    0.0000 C   0  0  0  0  0  0  0  0  0
   -1.1489   -3.1151    0.0000 C   0  0  0  0  0  0  0  0  0
   -1.8634   -2.7026    0.0000 C   0  0  0  0  0  0  0  0  0
   -1.8634   -1.8776    0.0000 N   0  0  0  0  0  0  0  0  0
   -1.1489   -1.4651    0.0000 C   0  0  0  0  0  0  0  0  0
   -1.1489   -0.6401    0.0000 N   0  0  0  0  0  0  0  0  0
   -1.8634   -0.2276    0.0000 C   0  0  0  0  0  0  0  0  0
   -1.8634    0.5974    0.0000 C   0  0  0  0  0  0  0  0  0
   -1.1489    1.0099    0.0000 N   0  0  0  0  0  0  0  0  0
   -0.4345    0.5974    0.0000 C   0  0  0  0  0  0  0  0  0
   -0.4345   -0.2276    0.0000 C   0  0  0  0  0  0  0  0  0
   -1.1489    1.8349    0.0000 C   0  0  0  0  0  0  0  0  0
    1.4820   -0.2249    0.0000 C   0  0  0  0  0  0  0  0  0
    0.6615   -0.3111    0.0000 C   0  0  0  0  0  0  0  0  0
    0.3260    0.4425    0.0000 N   0  0  0  0  0  0  0  0  0
    0.9391    0.9946    0.0000 N   0  0  0  0  0  0  0  0  0
    1.6535    0.5821    0.0000 C   0  0  0  0  0  0  0  0  0
    2.4072    0.9176    0.0000 C   0  0  0  0  0  0  0  0  0
    0.8528    1.8151    0.0000 C   0  0  0  0  0  0  0  0  0
    0.0992    2.1506    0.0000 C   0  0  0  0  0  0  0  0  0
    0.0129    2.9711    0.0000 C   0  0  0  0  0  0  0  0  0
    0.6804    3.4560    0.0000 C   0  0  0  0  0  0  0  0  0
    1.4340    3.1205    0.0000 C   0  0  0  0  0  0  0  0  0
    1.5203    2.3000    0.0000 C   0  0  0  0  0  0  0  0  0
  1  2  2  0  0  0  0
  2  3  1  0  0  0  0
  2 23  1  0  0  0  0
  3  4  1  0  0  0  0
  3  7  1  0  0  0  0
  4  5  1  0  0  0  0
  5  6  1  0  0  0  0
  6  7  4  0  0  0  0
  6 11  4  0  0  0  0
  7  8  4  0  0  0  0
  8  9  4  0  0  0  0
  9 10  4  0  0  0  0
  9 15  4  0  0  0  0
 10 11  4  0  0  0  0
 10 12  4  0  0  0  0
 12 13  4  0  0  0  0
 13 14  4  0  0  0  0
 14 15  4  0  0  0  0
 15 16  1  0  0  0  0
 16 17  1  0  0  0  0
 16 21  1  0  0  0  0
 17 18  1  0  0  0  0
 18 19  1  0  0  0  0
 19 20  1  0  0  0  0
 19 22  1  0  0  0  0
 20 21  1  0  0  0  0
 23 24  4  0  0  0  0
 23 27  4  0  0  0  0
 24 25  4  0  0  0  0
 25 26  4  0  0  0  0
 26 27  4  0  0  0  0
 26 29  1  0  0  0  0
 27 28  1  0  0  0  0
 29 30  4  0  0  0  0
 29 34  4  0  0  0  0
 30 31  4  0  0  0  0
 31 32  4  0  0  0  0
 32 33  4  0  0  0  0
 33 34  4  0  0  0  0
M  END
>  <Name_Molregno>
330066

>  <5-HT1A>
9.2

>  <5-HT1B>
9.2

>  <5-HT1D>
9.2

$$$$
330067
  Marvin  02231216192D 0   1.00000     0.00000     0

 37 42  0  0  0  0  0  0  0  0999 V2000
    2.4263   -0.9963    0.0000 O   0  0  0  0  0  0  0  0  0
    1.6193   -1.1678    0.0000 C   0  0  0  0  0  0  0  0  0
    1.3643   -1.9524    0.0000 N   0  0  0  0  0  0  0  0  0
    1.8493   -2.6199    0.0000 C   0  0  0  0  0  0  0  0  0
    1.3643   -3.2873    0.0000 C   0  0  0  0  0  0  0  0  0
    0.5797   -3.0324    0.0000 C   0  0  0  0  0  0  0  0  0
    0.5797   -2.2074    0.0000 C   0  0  0  0  0  0  0  0  0
   -0.1347   -1.7949    0.0000 C   0  0  0  0  0  0  0  0  0
   -0.8492   -2.2074    0.0000 C   0  0  0  0  0  0  0  0  0
   -0.8492   -3.0324    0.0000 C   0  0  0  0  0  0  0  0  0
   -0.1347   -3.4449    0.0000 C   0  0  0  0  0  0  0  0  0
   -1.5637   -3.4449    0.0000 C   0  0  0  0  0  0  0  0  0
   -2.2782   -3.0324    0.0000 C   0  0  0  0  0  0  0  0  0
   -2.2782   -2.2074    0.0000 N   0  0  0  0  0  0  0  0  0
   -1.5637   -1.7949    0.0000 C   0  0  0  0  0  0  0  0  0
   -1.5637   -0.9699    0.0000 N   0  0  0  0  0  0  0  0  0
   -2.2782   -0.5574    0.0000 C   0  0  0  0  0  0  0  0  0
   -2.2782    0.2676    0.0000 C   0  0  0  0  0  0  0  0  0
   -1.5637    0.6801    0.0000 N   0  0  0  0  0  0  0  0  0
   -0.8492    0.2676    0.0000 C   0  0  0  0  0  0  0  0  0
   -0.8492   -0.5574    0.0000 C   0  0  0  0  0  0  0  0  0
   -1.5637    1.5051    0.0000 C   0  0  0  0  0  0  0  0  0
    1.0673   -0.5547    0.0000 C   0  0  0  0  0  0  0  0  0
    0.2468   -0.6409    0.0000 C   0  0  0  0  0  0  0  0  0
   -0.0888    0.1127    0.0000 N   0  0  0  0  0  0  0  0  0
    0.5243    0.6648    0.0000 N   0  0  0  0  0  0  0  0  0
    1.2388    0.2523    0.0000 C   0  0  0  0  0  0  0  0  0
    1.9925    0.5878    0.0000 C   0  0  0  0  0  0  0  0  0
    2.0787    1.4083    0.0000 C   0  0  0  0  0  0  0  0  0
    0.4381    1.4853    0.0000 C   0  0  0  0  0  0  0  0  0
   -0.3156    1.8208    0.0000 C   0  0  0  0  0  0  0  0  0
   -0.4018    2.6413    0.0000 C   0  0  0  0  0  0  0  0  0
    0.2656    3.1262    0.0000 C   0  0  0  0  0  0  0  0  0
    1.0193    2.7907    0.0000 C   0  0  0  0  0  0  0  0  0
    1.1055    1.9702    0.0000 C   0  0  0  0  0  0  0  0  0
    0.1794    3.9467    0.0000 C   0  0  0  0  0  0  0  0  0
    0.0931    4.7672    0.0000 N   0  0  0  0  0  0  0  0  0
  1  2  2  0  0  0  0
  2  3  1  0  0  0  0
  2 23  1  0  0  0  0
  3  4  1  0  0  0  0
  3  7  1  0  0  0  0
  4  5  1  0  0  0  0
  5  6  1  0  0  0  0
  6  7  4  0  0  0  0
  6 11  4  0  0  0  0
  7  8  4  0  0  0  0
  8  9  4  0  0  0  0
  9 10  4  0  0  0  0
  9 15  4  0  0  0  0
 10 11  4  0  0  0  0
 10 12  4  0  0  0  0
 12 13  4  0  0  0  0
 13 14  4  0  0  0  0
 14 15  4  0  0  0  0
 15 16  1  0  0  0  0
 16 17  1  0  0  0  0
 16 21  1  0  0  0  0
 17 18  1  0  0  0  0
 18 19  1  0  0  0  0
 19 20  1  0  0  0  0
 19 22  1  0  0  0  0
 20 21  1  0  0  0  0
 23 24  4  0  0  0  0
 23 27  4  0  0  0  0
 24 25  4  0  0  0  0
 25 26  4  0  0  0  0
 26 27  4  0  0  0  0
 26 30  1  0  0  0  0
 27 28  1  0  0  0  0
 28 29  1  0  0  0  0
 30 31  4  0  0  0  0
 30 35  4  0  0  0  0
 31 32  4  0  0  0  0
 32 33  4  0  0  0  0
 33 34  4  0  0  0  0
 33 36  1  0  0  0  0
 34 35  4  0  0  0  0
 36 37  3  0  0  0  0
M  END
>  <Name_Molregno>
330067

>  <5-HT1A>
8.9

>  <5-HT1B>
9

>  <5-HT1D>
9.2

$$$$
330073
  Marvin  02231216192D 0   1.00000     0.00000     0

 36 41  0  0  0  0  0  0  0  0999 V2000
    2.2412   -1.0050    0.0000 O   0  0  0  0  0  0  0  0  0
    1.4342   -1.1766    0.0000 C   0  0  0  0  0  0  0  0  0
    1.1793   -1.9612    0.0000 N   0  0  0  0  0  0  0  0  0
    1.6642   -2.6286    0.0000 C   0  0  0  0  0  0  0  0  0
    1.1793   -3.2961    0.0000 C   0  0  0  0  0  0  0  0  0
    0.3947   -3.0411    0.0000 C   0  0  0  0  0  0  0  0  0
    0.3947   -2.2161    0.0000 C   0  0  0  0  0  0  0  0  0
   -0.3198   -1.8036    0.0000 C   0  0  0  0  0  0  0  0  0
   -1.0343   -2.2161    0.0000 C   0  0  0  0  0  0  0  0  0
   -1.0343   -3.0411    0.0000 C   0  0  0  0  0  0  0  0  0
   -0.3198   -3.4536    0.0000 C   0  0  0  0  0  0  0  0  0
   -1.7488   -3.4536    0.0000 C   0  0  0  0  0  0  0  0  0
   -2.4632   -3.0411    0.0000 C   0  0  0  0  0  0  0  0  0
   -2.4632   -2.2161    0.0000 N   0  0  0  0  0  0  0  0  0
   -1.7488   -1.8036    0.0000 C   0  0  0  0  0  0  0  0  0
   -1.7488   -0.9786    0.0000 N   0  0  0  0  0  0  0  0  0
   -2.4632   -0.5661    0.0000 C   0  0  0  0  0  0  0  0  0
   -2.4632    0.2589    0.0000 C   0  0  0  0  0  0  0  0  0
   -1.7488    0.6714    0.0000 N   0  0  0  0  0  0  0  0  0
   -1.0343    0.2589    0.0000 C   0  0  0  0  0  0  0  0  0
   -1.0343   -0.5661    0.0000 C   0  0  0  0  0  0  0  0  0
    0.8822   -0.5635    0.0000 C   0  0  0  0  0  0  0  0  0
    0.0617   -0.6497    0.0000 C   0  0  0  0  0  0  0  0  0
   -0.2739    0.1040    0.0000 N   0  0  0  0  0  0  0  0  0
    0.3392    0.6560    0.0000 N   0  0  0  0  0  0  0  0  0
    1.0537    0.2435    0.0000 C   0  0  0  0  0  0  0  0  0
    1.8074    0.5791    0.0000 C   0  0  0  0  0  0  0  0  0
    1.8936    1.3996    0.0000 C   0  0  0  0  0  0  0  0  0
    0.2530    1.4765    0.0000 C   0  0  0  0  0  0  0  0  0
   -0.5007    1.8121    0.0000 C   0  0  0  0  0  0  0  0  0
   -0.5869    2.6325    0.0000 C   0  0  0  0  0  0  0  0  0
    0.0805    3.1175    0.0000 C   0  0  0  0  0  0  0  0  0
    0.8342    2.7819    0.0000 C   0  0  0  0  0  0  0  0  0
    0.9204    1.9614    0.0000 C   0  0  0  0  0  0  0  0  0
   -0.0057    3.9379    0.0000 C   0  0  0  0  0  0  0  0  0
   -0.0919    4.7584    0.0000 N   0  0  0  0  0  0  0  0  0
  1  2  2  0  0  0  0
  2  3  1  0  0  0  0
  2 22  1  0  0  0  0
  3  4  1  0  0  0  0
  3  7  1  0  0  0  0
  4  5  1  0  0  0  0
  5  6  1  0  0  0  0
  6  7  4  0  0  0  0
  6 11  4  0  0  0  0
  7  8  4  0  0  0  0
  8  9  4  0  0  0  0
  9 10  4  0  0  0  0
  9 15  4  0  0  0  0
 10 11  4  0  0  0  0
 10 12  4  0  0  0  0
 12 13  4  0  0  0  0
 13 14  4  0  0  0  0
 14 15  4  0  0  0  0
 15 16  1  0  0  0  0
 16 17  1  0  0  0  0
 16 21  1  0  0  0  0
 17 18  1  0  0  0  0
 18 19  1  0  0  0  0
 19 20  1  0  0  0  0
 20 21  1  0  0  0  0
 22 23  4  0  0  0  0
 22 26  4  0  0  0  0
 23 24  4  0  0  0  0
 24 25  4  0  0  0  0
 25 26  4  0  0  0  0
 25 29  1  0  0  0  0
 26 27  1  0  0  0  0
 27 28  1  0  0  0  0
 29 30  4  0  0  0  0
 29 34  4  0  0  0  0
 30 31  4  0  0  0  0
 31 32  4  0  0  0  0
 32 33  4  0  0  0  0
 32 35  1  0  0  0  0
 33 34  4  0  0  0  0
 35 36  3  0  0  0  0
M  END
>  <Name_Molregno>
330073

>  <5-HT1A>
8.9

>  <5-HT1B>
8.6

>  <5-HT1D>
8.6

$$$$
330080
  Marvin  02231216192D 0   1.00000     0.00000     0

 38 43  0  0  0  0  0  0  0  0999 V2000
    2.4621   -0.9410    0.0000 O   0  0  0  0  0  0  0  0  0
    1.6552   -1.1125    0.0000 C   0  0  0  0  0  0  0  0  0
    1.4002   -1.8971    0.0000 N   0  0  0  0  0  0  0  0  0
    1.8852   -2.5646    0.0000 C   0  0  0  0  0  0  0  0  0
    1.4002   -3.2320    0.0000 C   0  0  0  0  0  0  0  0  0
    0.6156   -2.9771    0.0000 C   0  0  0  0  0  0  0  0  0
    0.6156   -2.1521    0.0000 C   0  0  0  0  0  0  0  0  0
   -0.0989   -1.7396    0.0000 C   0  0  0  0  0  0  0  0  0
   -0.8133   -2.1521    0.0000 C   0  0  0  0  0  0  0  0  0
   -0.8133   -2.9771    0.0000 C   0  0  0  0  0  0  0  0  0
   -0.0989   -3.3896    0.0000 C   0  0  0  0  0  0  0  0  0
   -1.5278   -3.3896    0.0000 C   0  0  0  0  0  0  0  0  0
   -2.2423   -2.9771    0.0000 C   0  0  0  0  0  0  0  0  0
   -2.2423   -2.1521    0.0000 N   0  0  0  0  0  0  0  0  0
   -1.5278   -1.7396    0.0000 C   0  0  0  0  0  0  0  0  0
   -1.5278   -0.9146    0.0000 N   0  0  0  0  0  0  0  0  0
   -2.2423   -0.5021    0.0000 C   0  0  0  0  0  0  0  0  0
   -2.2423    0.3229    0.0000 C   0  0  0  0  0  0  0  0  0
   -1.5278    0.7354    0.0000 N   0  0  0  0  0  0  0  0  0
   -0.8133    0.3229    0.0000 C   0  0  0  0  0  0  0  0  0
   -0.8133   -0.5021    0.0000 C   0  0  0  0  0  0  0  0  0
   -1.5278    1.5604    0.0000 C   0  0  0  0  0  0  0  0  0
   -0.8133    1.9729    0.0000 C   0  0  0  0  0  0  0  0  0
    1.1031   -0.4994    0.0000 C   0  0  0  0  0  0  0  0  0
    0.2827   -0.5856    0.0000 C   0  0  0  0  0  0  0  0  0
   -0.0529    0.1680    0.0000 N   0  0  0  0  0  0  0  0  0
    0.5602    0.7201    0.0000 N   0  0  0  0  0  0  0  0  0
    1.2747    0.3076    0.0000 C   0  0  0  0  0  0  0  0  0
    2.0283    0.6431    0.0000 C   0  0  0  0  0  0  0  0  0
    2.1146    1.4636    0.0000 C   0  0  0  0  0  0  0  0  0
    0.4740    1.5405    0.0000 C   0  0  0  0  0  0  0  0  0
   -0.2797    1.8761    0.0000 C   0  0  0  0  0  0  0  0  0
   -0.3660    2.6966    0.0000 C   0  0  0  0  0  0  0  0  0
    0.3015    3.1815    0.0000 C   0  0  0  0  0  0  0  0  0
    1.0552    2.8460    0.0000 C   0  0  0  0  0  0  0  0  0
    1.1414    2.0255    0.0000 C   0  0  0  0  0  0  0  0  0
    0.2152    4.0020    0.0000 C   0  0  0  0  0  0  0  0  0
    0.1290    4.8225    0.0000 N   0  0  0  0  0  0  0  0  0
  1  2  2  0  0  0  0
  2  3  1  0  0  0  0
  2 24  1  0  0  0  0
  3  4  1  0  0  0  0
  3  7  1  0  0  0  0
  4  5  1  0  0  0  0
  5  6  1  0  0  0  0
  6  7  4  0  0  0  0
  6 11  4  0  0  0  0
  7  8  4  0  0  0  0
  8  9  4  0  0  0  0
  9 10  4  0  0  0  0
  9 15  4  0  0  0  0
 10 11  4  0  0  0  0
 10 12  4  0  0  0  0
 12 13  4  0  0  0  0
 13 14  4  0  0  0  0
 14 15  4  0  0  0  0
 15 16  1  0  0  0  0
 16 17  1  0  0  0  0
 16 21  1  0  0  0  0
 17 18  1  0  0  0  0
 18 19  1  0  0  0  0
 19 20  1  0  0  0  0
 19 22  1  0  0  0  0
 20 21  1  0  0  0  0
 22 23  1  0  0  0  0
 24 25  4  0  0  0  0
 24 28  4  0  0  0  0
 25 26  4  0  0  0  0
 26 27  4  0  0  0  0
 27 28  4  0  0  0  0
 27 31  1  0  0  0  0
 28 29  1  0  0  0  0
 29 30  1  0  0  0  0
 31 32  4  0  0  0  0
 31 36  4  0  0  0  0
 32 33  4  0  0  0  0
 33 34  4  0  0  0  0
 34 35  4  0  0  0  0
 34 37  1  0  0  0  0
 35 36  4  0  0  0  0
 37 38  3  0  0  0  0
M  END
>  <Name_Molregno>
330080

>  <5-HT1A>
8.5

>  <5-HT1B>
8.8

>  <5-HT1D>
8.6

$$$$
330087
  Marvin  02231216192D 0   1.00000     0.00000     0

 39 44  0  0  0  0  0  0  0  0999 V2000
    2.5089   -0.9143    0.0000 O   0  0  0  0  0  0  0  0  0
    1.7019   -1.0859    0.0000 C   0  0  0  0  0  0  0  0  0
    1.4470   -1.8705    0.0000 N   0  0  0  0  0  0  0  0  0
    1.9319   -2.5379    0.0000 C   0  0  0  0  0  0  0  0  0
    1.4470   -3.2054    0.0000 C   0  0  0  0  0  0  0  0  0
    0.6624   -2.9504    0.0000 C   0  0  0  0  0  0  0  0  0
    0.6624   -2.1254    0.0000 C   0  0  0  0  0  0  0  0  0
   -0.0521   -1.7129    0.0000 C   0  0  0  0  0  0  0  0  0
   -0.7666   -2.1254    0.0000 C   0  0  0  0  0  0  0  0  0
   -0.7666   -2.9504    0.0000 C   0  0  0  0  0  0  0  0  0
   -0.0521   -3.3629    0.0000 C   0  0  0  0  0  0  0  0  0
   -1.4810   -3.3629    0.0000 C   0  0  0  0  0  0  0  0  0
   -2.1955   -2.9504    0.0000 C   0  0  0  0  0  0  0  0  0
   -2.1955   -2.1254    0.0000 N   0  0  0  0  0  0  0  0  0
   -1.4810   -1.7129    0.0000 C   0  0  0  0  0  0  0  0  0
   -1.4810   -0.8879    0.0000 N   0  0  0  0  0  0  0  0  0
   -2.1955   -0.4754    0.0000 C   0  0  0  0  0  0  0  0  0
   -2.1955    0.3496    0.0000 C   0  0  0  0  0  0  0  0  0
   -1.4810    0.7621    0.0000 N   0  0  0  0  0  0  0  0  0
   -0.7666    0.3496    0.0000 C   0  0  0  0  0  0  0  0  0
   -0.7666   -0.4754    0.0000 C   0  0  0  0  0  0  0  0  0
   -1.4810    1.5871    0.0000 C   0  0  0  0  0  0  0  0  0
   -0.7666    1.9996    0.0000 C   0  0  0  0  0  0  0  0  0
   -2.1955    1.9996    0.0000 C   0  0  0  0  0  0  0  0  0
    1.1499   -0.4728    0.0000 C   0  0  0  0  0  0  0  0  0
    0.3294   -0.5590    0.0000 C   0  0  0  0  0  0  0  0  0
   -0.0061    0.1947    0.0000 N   0  0  0  0  0  0  0  0  0
    0.6070    0.7467    0.0000 N   0  0  0  0  0  0  0  0  0
    1.3214    0.3342    0.0000 C   0  0  0  0  0  0  0  0  0
    2.0751    0.6698    0.0000 C   0  0  0  0  0  0  0  0  0
    2.1613    1.4902    0.0000 C   0  0  0  0  0  0  0  0  0
    0.5207    1.5672    0.0000 C   0  0  0  0  0  0  0  0  0
   -0.2330    1.9027    0.0000 C   0  0  0  0  0  0  0  0  0
   -0.3192    2.7232    0.0000 C   0  0  0  0  0  0  0  0  0
    0.3483    3.2081    0.0000 C   0  0  0  0  0  0  0  0  0
    1.1019    2.8726    0.0000 C   0  0  0  0  0  0  0  0  0
    1.1882    2.0521    0.0000 C   0  0  0  0  0  0  0  0  0
    0.2620    4.0286    0.0000 C   0  0  0  0  0  0  0  0  0
    0.1758    4.8491    0.0000 N   0  0  0  0  0  0  0  0  0
  1  2  2  0  0  0  0
  2  3  1  0  0  0  0
  2 25  1  0  0  0  0
  3  4  1  0  0  0  0
  3  7  1  0  0  0  0
  4  5  1  0  0  0  0
  5  6  1  0  0  0  0
  6  7  4  0  0  0  0
  6 11  4  0  0  0  0
  7  8  4  0  0  0  0
  8  9  4  0  0  0  0
  9 10  4  0  0  0  0
  9 15  4  0  0  0  0
 10 11  4  0  0  0  0
 10 12  4  0  0  0  0
 12 13  4  0  0  0  0
 13 14  4  0  0  0  0
 14 15  4  0  0  0  0
 15 16  1  0  0  0  0
 16 17  1  0  0  0  0
 16 21  1  0  0  0  0
 17 18  1  0  0  0  0
 18 19  1  0  0  0  0
 19 20  1  0  0  0  0
 19 22  1  0  0  0  0
 20 21  1  0  0  0  0
 22 23  1  0  0  0  0
 22 24  1  0  0  0  0
 25 26  4  0  0  0  0
 25 29  4  0  0  0  0
 26 27  4  0  0  0  0
 27 28  4  0  0  0  0
 28 29  4  0  0  0  0
 28 32  1  0  0  0  0
 29 30  1  0  0  0  0
 30 31  1  0  0  0  0
 32 33  4  0  0  0  0
 32 37  4  0  0  0  0
 33 34  4  0  0  0  0
 34 35  4  0  0  0  0
 35 36  4  0  0  0  0
 35 38  1  0  0  0  0
 36 37  4  0  0  0  0
 38 39  3  0  0  0  0
M  END
>  <Name_Molregno>
330087

>  <5-HT1A>
8.2

>  <5-HT1B>
8.4

>  <5-HT1D>
8.1

$$$$
330093
  Marvin  02231216192D 0   1.00000     0.00000     0

 38 43  0  0  1  0  0  0  0  0999 V2000
    2.4673   -0.9339    0.0000 O   0  0  0  0  0  0  0  0  0
    1.6603   -1.1054    0.0000 C   0  0  0  0  0  0  0  0  0
    1.4054   -1.8900    0.0000 N   0  0  0  0  0  0  0  0  0
    1.8903   -2.5575    0.0000 C   0  0  0  0  0  0  0  0  0
    1.4054   -3.2249    0.0000 C   0  0  0  0  0  0  0  0  0
    0.6207   -2.9700    0.0000 C   0  0  0  0  0  0  0  0  0
    0.6207   -2.1450    0.0000 C   0  0  0  0  0  0  0  0  0
   -0.0937   -1.7325    0.0000 C   0  0  0  0  0  0  0  0  0
   -0.8082   -2.1450    0.0000 C   0  0  0  0  0  0  0  0  0
   -0.8082   -2.9700    0.0000 C   0  0  0  0  0  0  0  0  0
   -0.0937   -3.3825    0.0000 C   0  0  0  0  0  0  0  0  0
   -1.5227   -3.3825    0.0000 C   0  0  0  0  0  0  0  0  0
   -2.2371   -2.9700    0.0000 C   0  0  0  0  0  0  0  0  0
   -2.2371   -2.1450    0.0000 N   0  0  0  0  0  0  0  0  0
   -1.5227   -1.7325    0.0000 C   0  0  0  0  0  0  0  0  0
   -1.5227   -0.9075    0.0000 N   0  0  0  0  0  0  0  0  0
   -2.2371   -0.4950    0.0000 C   0  0  0  0  0  0  0  0  0
   -2.2371    0.3300    0.0000 C   0  0  0  0  0  0  0  0  0
   -1.5227    0.7425    0.0000 N   0  0  0  0  0  0  0  0  0
   -0.8082    0.3300    0.0000 C   0  0  0  0  0  0  0  0  0
   -0.8082   -0.4950    0.0000 C   0  0  0  0  0  0  0  0  0
   -0.0937    0.7425    0.0000 C   0  0  0  0  0  0  0  0  0
   -2.9516    0.7425    0.0000 C   0  0  0  0  0  0  0  0  0
    1.1083   -0.4923    0.0000 C   0  0  0  0  0  0  0  0  0
    0.2878   -0.5785    0.0000 C   0  0  0  0  0  0  0  0  0
   -0.0478    0.1751    0.0000 N   0  0  0  0  0  0  0  0  0
    0.5653    0.7272    0.0000 N   0  0  0  0  0  0  0  0  0
    1.2798    0.3147    0.0000 C   0  0  0  0  0  0  0  0  0
    2.0335    0.6502    0.0000 C   0  0  0  0  0  0  0  0  0
    2.1197    1.4707    0.0000 C   0  0  0  0  0  0  0  0  0
    0.4791    1.5476    0.0000 C   0  0  0  0  0  0  0  0  0
   -0.2746    1.8832    0.0000 C   0  0  0  0  0  0  0  0  0
   -0.3608    2.7037    0.0000 C   0  0  0  0  0  0  0  0  0
    0.3066    3.1886    0.0000 C   0  0  0  0  0  0  0  0  0
    1.0603    2.8530    0.0000 C   0  0  0  0  0  0  0  0  0
    1.1465    2.0326    0.0000 C   0  0  0  0  0  0  0  0  0
    0.2204    4.0091    0.0000 C   0  0  0  0  0  0  0  0  0
    0.1342    4.8296    0.0000 N   0  0  0  0  0  0  0  0  0
  1  2  2  0  0  0  0
  2  3  1  0  0  0  0
  2 24  1  0  0  0  0
  3  4  1  0  0  0  0
  3  7  1  0  0  0  0
  4  5  1  0  0  0  0
  5  6  1  0  0  0  0
  6  7  4  0  0  0  0
  6 11  4  0  0  0  0
  7  8  4  0  0  0  0
  8  9  4  0  0  0  0
  9 10  4  0  0  0  0
  9 15  4  0  0  0  0
 10 11  4  0  0  0  0
 10 12  4  0  0  0  0
 12 13  4  0  0  0  0
 13 14  4  0  0  0  0
 14 15  4  0  0  0  0
 15 16  1  0  0  0  0
 16 17  1  0  0  0  0
 16 21  1  0  0  0  0
 17 18  1  0  0  0  0
 18 19  1  0  0  0  0
 18 23  1  0  0  0  0
 19 20  1  0  0  0  0
 20 21  1  0  0  0  0
 20 22  1  0  0  0  0
 24 25  4  0  0  0  0
 24 28  4  0  0  0  0
 25 26  4  0  0  0  0
 26 27  4  0  0  0  0
 27 28  4  0  0  0  0
 27 31  1  0  0  0  0
 28 29  1  0  0  0  0
 29 30  1  0  0  0  0
 31 32  4  0  0  0  0
 31 36  4  0  0  0  0
 32 33  4  0  0  0  0
 33 34  4  0  0  0  0
 34 35  4  0  0  0  0
 34 37  1  0  0  0  0
 35 36  4  0  0  0  0
 37 38  3  0  0  0  0
M  END
>  <Name_Molregno>
330093

>  <5-HT1A>
7.5

>  <5-HT1B>
8.1

>  <5-HT1D>
8.1

$$$$
330100
  Marvin  02231216192D 0   1.00000     0.00000     0

 39 45  0  0  1  0  0  0  0  0999 V2000
    2.0062    1.7841    0.0000 O   0  0  0  0  0  0  0  0  0
    1.7513    0.9994    0.0000 C   0  0  0  0  0  0  0  0  0
    2.3033    0.3863    0.0000 N   0  0  0  0  0  0  0  0  0
    3.1238    0.4726    0.0000 C   0  0  0  0  0  0  0  0  0
    3.4593   -0.2811    0.0000 C   0  0  0  0  0  0  0  0  0
    2.8462   -0.8331    0.0000 C   0  0  0  0  0  0  0  0  0
    2.1318   -0.4206    0.0000 C   0  0  0  0  0  0  0  0  0
    1.4173   -0.8331    0.0000 C   0  0  0  0  0  0  0  0  0
    1.4173   -1.6581    0.0000 C   0  0  0  0  0  0  0  0  0
    2.1318   -2.0706    0.0000 C   0  0  0  0  0  0  0  0  0
    2.8462   -1.6581    0.0000 C   0  0  0  0  0  0  0  0  0
    2.1318   -2.8956    0.0000 C   0  0  0  0  0  0  0  0  0
    1.4173   -3.3081    0.0000 C   0  0  0  0  0  0  0  0  0
    0.7028   -2.8956    0.0000 N   0  0  0  0  0  0  0  0  0
    0.7028   -2.0706    0.0000 C   0  0  0  0  0  0  0  0  0
   -0.0116   -1.6581    0.0000 N   0  0  0  0  0  0  0  0  0
   -0.7261   -2.0706    0.0000 C   0  0  0  0  0  0  0  0  0
   -1.4406   -1.6581    0.0000 C   0  0  0  0  0  0  0  0  0
   -1.4406   -0.8331    0.0000 N   0  0  0  0  0  0  0  0  0
   -2.2252   -0.5782    0.0000 C   0  0  0  0  0  0  0  0  0
   -2.7101   -1.2456    0.0000 C   0  0  0  0  0  0  0  0  0
   -2.2252   -1.9131    0.0000 C   0  0  0  0  0  0  0  0  0
   -0.7261   -0.4206    0.0000 C   0  0  0  0  0  0  0  0  0
   -0.0116   -0.8331    0.0000 C   0  0  0  0  0  0  0  0  0
    0.9443    0.8279    0.0000 C   0  0  0  0  0  0  0  0  0
    0.6087    0.0742    0.0000 C   0  0  0  0  0  0  0  0  0
   -0.2117    0.1605    0.0000 N   0  0  0  0  0  0  0  0  0
   -0.3833    0.9674    0.0000 N   0  0  0  0  0  0  0  0  0
    0.3312    1.3799    0.0000 C   0  0  0  0  0  0  0  0  0
    0.4174    2.2004    0.0000 C   0  0  0  0  0  0  0  0  0
   -0.2500    2.6853    0.0000 C   0  0  0  0  0  0  0  0  0
   -1.1370    1.3030    0.0000 C   0  0  0  0  0  0  0  0  0
   -1.8044    0.8181    0.0000 C   0  0  0  0  0  0  0  0  0
   -2.5581    1.1536    0.0000 C   0  0  0  0  0  0  0  0  0
   -2.6443    1.9741    0.0000 C   0  0  0  0  0  0  0  0  0
   -1.9769    2.4590    0.0000 C   0  0  0  0  0  0  0  0  0
   -1.2232    2.1235    0.0000 C   0  0  0  0  0  0  0  0  0
   -3.3980    2.3097    0.0000 C   0  0  0  0  0  0  0  0  0
   -4.1517    2.6452    0.0000 N   0  0  0  0  0  0  0  0  0
  1  2  2  0  0  0  0
  2  3  1  0  0  0  0
  2 25  1  0  0  0  0
  3  4  1  0  0  0  0
  3  7  1  0  0  0  0
  4  5  1  0  0  0  0
  5  6  1  0  0  0  0
  6  7  4  0  0  0  0
  6 11  4  0  0  0  0
  7  8  4  0  0  0  0
  8  9  4  0  0  0  0
  9 10  4  0  0  0  0
  9 15  4  0  0  0  0
 10 11  4  0  0  0  0
 10 12  4  0  0  0  0
 12 13  4  0  0  0  0
 13 14  4  0  0  0  0
 14 15  4  0  0  0  0
 15 16  1  0  0  0  0
 16 17  1  0  0  0  0
 16 24  1  0  0  0  0
 17 18  1  0  0  0  0
 18 19  1  0  0  0  0
 18 22  1  0  0  0  0
 19 20  1  0  0  0  0
 19 23  1  0  0  0  0
 20 21  1  0  0  0  0
 21 22  1  0  0  0  0
 23 24  1  0  0  0  0
 25 26  4  0  0  0  0
 25 29  4  0  0  0  0
 26 27  4  0  0  0  0
 27 28  4  0  0  0  0
 28 29  4  0  0  0  0
 28 32  1  0  0  0  0
 29 30  1  0  0  0  0
 30 31  1  0  0  0  0
 32 33  4  0  0  0  0
 32 37  4  0  0  0  0
 33 34  4  0  0  0  0
 34 35  4  0  0  0  0
 35 36  4  0  0  0  0
 35 38  1  0  0  0  0
 36 37  4  0  0  0  0
 38 39  3  0  0  0  0
M  END
>  <Name_Molregno>
330100

>  <5-HT1A>
8.85

>  <5-HT1B>
8.85

>  <5-HT1D>
8.75

$$$$
330283
  Marvin  02231216192D 0   1.00000     0.00000     0

 31 34  0  0  0  0  0  0  0  0999 V2000
    0.1076    0.0239    0.0000 Cl  0  0  0  0  0  0  0  0  0
    0.1076   -0.8011    0.0000 C   0  0  0  0  0  0  0  0  0
    0.8221   -1.2136    0.0000 C   0  0  0  0  0  0  0  0  0
    0.8221   -2.0386    0.0000 C   0  0  0  0  0  0  0  0  0
    0.1076   -2.4511    0.0000 C   0  0  0  0  0  0  0  0  0
   -0.6069   -2.0386    0.0000 C   0  0  0  0  0  0  0  0  0
   -0.6069   -1.2136    0.0000 C   0  0  0  0  0  0  0  0  0
   -1.3213   -0.8011    0.0000 N   0  0  0  0  0  0  0  0  0
   -2.0358   -1.2136    0.0000 C   0  0  0  0  0  0  0  0  0
   -2.7503   -0.8011    0.0000 C   0  0  0  0  0  0  0  0  0
   -2.7503    0.0239    0.0000 N   0  0  0  0  0  0  0  0  0
   -2.0358    0.4364    0.0000 C   0  0  0  0  0  0  0  0  0
   -1.3213    0.0239    0.0000 C   0  0  0  0  0  0  0  0  0
   -3.4647    0.4364    0.0000 C   0  0  0  0  0  0  0  0  0
   -3.4647    1.2614    0.0000 O   0  0  0  0  0  0  0  0  0
   -4.1792    0.0239    0.0000 N   0  0  0  0  0  0  0  0  0
   -4.8937    0.4364    0.0000 C   0  0  0  0  0  0  0  0  0
   -5.6082    0.0239    0.0000 C   0  0  0  0  0  0  0  0  0
   -6.3226    0.4364    0.0000 C   0  0  0  0  0  0  0  0  0
   -7.0371    0.0239    0.0000 N   0  0  0  0  0  0  0  0  0
   -7.0371   -0.8011    0.0000 C   0  0  0  0  0  0  0  0  0
   -7.7516   -1.2136    0.0000 C   0  0  0  0  0  0  0  0  0
   -8.4660   -0.8011    0.0000 N   0  0  0  0  0  0  0  0  0
   -8.4660    0.0239    0.0000 C   0  0  0  0  0  0  0  0  0
   -7.7516    0.4364    0.0000 C   0  0  0  0  0  0  0  0  0
   -9.1805   -1.2136    0.0000 C   0  0  0  0  0  0  0  0  0
   -6.3226    1.2614    0.0000 C   0  0  0  0  0  0  0  0  0
   -7.0371    1.6739    0.0000 O   0  0  0  0  0  0  0  0  0
   -7.0371    2.4989    0.0000 C   0  0  0  0  0  0  0  0  0
   -5.6082    1.6739    0.0000 C   0  0  0  0  0  0  0  0  0
   -4.8937    1.2614    0.0000 C   0  0  0  0  0  0  0  0  0
  1  2  1  0  0  0  0
  2  3  4  0  0  0  0
  2  7  4  0  0  0  0
  3  4  4  0  0  0  0
  4  5  4  0  0  0  0
  5  6  4  0  0  0  0
  6  7  4  0  0  0  0
  7  8  1  0  0  0  0
  8  9  1  0  0  0  0
  8 13  1  0  0  0  0
  9 10  1  0  0  0  0
 10 11  1  0  0  0  0
 11 12  1  0  0  0  0
 11 14  1  0  0  0  0
 12 13  1  0  0  0  0
 14 15  2  0  0  0  0
 14 16  1  0  0  0  0
 16 17  1  0  0  0  0
 17 18  4  0  0  0  0
 17 31  4  0  0  0  0
 18 19  4  0  0  0  0
 19 20  1  0  0  0  0
 19 27  4  0  0  0  0
 20 21  1  0  0  0  0
 20 25  1  0  0  0  0
 21 22  1  0  0  0  0
 22 23  1  0  0  0  0
 23 24  1  0  0  0  0
 23 26  1  0  0  0  0
 24 25  1  0  0  0  0
 27 28  1  0  0  0  0
 27 30  4  0  0  0  0
 28 29  1  0  0  0  0
 30 31  4  0  0  0  0
M  END
>  <Name_Molregno>
330283

>  <5-HT1A>
6.47

>  <5-HT1B>
7.95

>  <5-HT1D>
7.46

>  <5-HT2A>
5.22

>  <5-HT2C>
5.91

>  <5-HT6>
6.33

>  <5-HT7>
6.47

>  <DOPAMINE D1>
5

>  <DOPAMINE D2>
5

>  <DOPAMINE D3>
5

>  <DOPAMINE D4>
5

>  <DOPAMINE D5>
5

>  <HISTAMINE H1>
5

>  <Muscarinic acetylcholine receptor M1>
5

>  <Muscarinic acetylcholine receptor M2>
5

>  <Muscarinic acetylcholine receptor M3>
5

>  <Muscarinic acetylcholine receptor M4>
5

>  <Muscarinic acetylcholine receptor M5>
5

$$$$
330287
  Marvin  02231216192D 0   1.00000     0.00000     0

 31 34  0  0  0  0  0  0  0  0999 V2000
    0.1076    0.0239    0.0000 F   0  0  0  0  0  0  0  0  0
    0.1076   -0.8011    0.0000 C   0  0  0  0  0  0  0  0  0
    0.8221   -1.2136    0.0000 C   0  0  0  0  0  0  0  0  0
    0.8221   -2.0386    0.0000 C   0  0  0  0  0  0  0  0  0
    0.1076   -2.4511    0.0000 C   0  0  0  0  0  0  0  0  0
   -0.6069   -2.0386    0.0000 C   0  0  0  0  0  0  0  0  0
   -0.6069   -1.2136    0.0000 C   0  0  0  0  0  0  0  0  0
   -1.3213   -0.8011    0.0000 N   0  0  0  0  0  0  0  0  0
   -2.0358   -1.2136    0.0000 C   0  0  0  0  0  0  0  0  0
   -2.7503   -0.8011    0.0000 C   0  0  0  0  0  0  0  0  0
   -2.7503    0.0239    0.0000 N   0  0  0  0  0  0  0  0  0
   -2.0358    0.4364    0.0000 C   0  0  0  0  0  0  0  0  0
   -1.3213    0.0239    0.0000 C   0  0  0  0  0  0  0  0  0
   -3.4647    0.4364    0.0000 C   0  0  0  0  0  0  0  0  0
   -3.4647    1.2614    0.0000 O   0  0  0  0  0  0  0  0  0
   -4.1792    0.0239    0.0000 N   0  0  0  0  0  0  0  0  0
   -4.8937    0.4364    0.0000 C   0  0  0  0  0  0  0  0  0
   -5.6082    0.0239    0.0000 C   0  0  0  0  0  0  0  0  0
   -6.3226    0.4364    0.0000 C   0  0  0  0  0  0  0  0  0
   -7.0371    0.0239    0.0000 N   0  0  0  0  0  0  0  0  0
   -7.0371   -0.8011    0.0000 C   0  0  0  0  0  0  0  0  0
   -7.7516   -1.2136    0.0000 C   0  0  0  0  0  0  0  0  0
   -8.4660   -0.8011    0.0000 N   0  0  0  0  0  0  0  0  0
   -8.4660    0.0239    0.0000 C   0  0  0  0  0  0  0  0  0
   -7.7516    0.4364    0.0000 C   0  0  0  0  0  0  0  0  0
   -9.1805   -1.2136    0.0000 C   0  0  0  0  0  0  0  0  0
   -6.3226    1.2614    0.0000 C   0  0  0  0  0  0  0  0  0
   -7.0371    1.6739    0.0000 O   0  0  0  0  0  0  0  0  0
   -7.0371    2.4989    0.0000 C   0  0  0  0  0  0  0  0  0
   -5.6082    1.6739    0.0000 C   0  0  0  0  0  0  0  0  0
   -4.8937    1.2614    0.0000 C   0  0  0  0  0  0  0  0  0
  1  2  1  0  0  0  0
  2  3  4  0  0  0  0
  2  7  4  0  0  0  0
  3  4  4  0  0  0  0
  4  5  4  0  0  0  0
  5  6  4  0  0  0  0
  6  7  4  0  0  0  0
  7  8  1  0  0  0  0
  8  9  1  0  0  0  0
  8 13  1  0  0  0  0
  9 10  1  0  0  0  0
 10 11  1  0  0  0  0
 11 12  1  0  0  0  0
 11 14  1  0  0  0  0
 12 13  1  0  0  0  0
 14 15  2  0  0  0  0
 14 16  1  0  0  0  0
 16 17  1  0  0  0  0
 17 18  4  0  0  0  0
 17 31  4  0  0  0  0
 18 19  4  0  0  0  0
 19 20  1  0  0  0  0
 19 27  4  0  0  0  0
 20 21  1  0  0  0  0
 20 25  1  0  0  0  0
 21 22  1  0  0  0  0
 22 23  1  0  0  0  0
 23 24  1  0  0  0  0
 23 26  1  0  0  0  0
 24 25  1  0  0  0  0
 27 28  1  0  0  0  0
 27 30  4  0  0  0  0
 28 29  1  0  0  0  0
 30 31  4  0  0  0  0
M  END
>  <Name_Molregno>
330287

>  <5-HT1A>
6.5

>  <5-HT1B>
7.74

>  <5-HT1D>
6.99

>  <5-HT2A>
5

>  <5-HT2C>
5.97

>  <5-HT6>
6.08

>  <5-HT7>
5

>  <DOPAMINE D1>
5

>  <DOPAMINE D2>
5

>  <DOPAMINE D3>
5

>  <DOPAMINE D4>
5

>  <DOPAMINE D5>
5

>  <HISTAMINE H1>
5

>  <Muscarinic acetylcholine receptor M1>
5

>  <Muscarinic acetylcholine receptor M2>
5

>  <Muscarinic acetylcholine receptor M3>
5

>  <Muscarinic acetylcholine receptor M4>
5

>  <Muscarinic acetylcholine receptor M5>
5

$$$$
331003
  Marvin  02231216192D 0   1.00000     0.00000     0

 33 37  0  0  1  0  0  0  0  0999 V2000
    3.4711   -4.7697    0.0000 Cl  0  0  0  0  0  0  0  0  0
    3.7261   -3.9851    0.0000 C   0  0  0  0  0  0  0  0  0
    4.5107   -3.7301    0.0000 C   0  0  0  0  0  0  0  0  0
    4.5107   -2.9051    0.0000 C   0  0  0  0  0  0  0  0  0
    3.7261   -2.6502    0.0000 S   0  0  0  0  0  0  0  0  0
    3.2411   -3.3176    0.0000 C   0  0  0  0  0  0  0  0  0
    2.4161   -3.3176    0.0000 C   0  0  0  0  0  0  0  0  0
    2.0036   -4.0321    0.0000 O   0  0  0  0  0  0  0  0  0
    2.0036   -2.6032    0.0000 N   0  0  0  0  0  0  0  0  0
    5.2251   -2.4926    0.0000 C   0  0  0  0  0  0  0  0  0
    5.9396   -2.9051    0.0000 O   0  0  0  0  0  0  0  0  0
    5.9396   -3.7301    0.0000 C   0  0  0  0  0  0  0  0  0
    5.2251   -4.1426    0.0000 C   0  0  0  0  0  0  0  0  0
    5.2251   -1.6676    0.0000 C   0  0  0  0  0  0  0  0  0
    4.5107   -1.2551    0.0000 C   0  0  0  0  0  0  0  0  0
    4.5107   -0.4301    0.0000 N   0  0  0  0  0  0  0  0  0
    3.7962   -0.0176    0.0000 C   0  0  0  0  0  0  0  0  0
    3.7962    0.8074    0.0000 C   0  0  0  0  0  0  0  0  0
    4.5107    1.2199    0.0000 N   0  0  0  0  0  0  0  0  0
    5.2251    0.8074    0.0000 C   0  0  0  0  0  0  0  0  0
    5.2251   -0.0176    0.0000 C   0  0  0  0  0  0  0  0  0
    5.9396   -0.4301    0.0000 C   0  0  0  0  0  0  0  0  0
    4.5107    2.0449    0.0000 C   0  0  0  0  0  0  0  0  0
    5.2251    2.4574    0.0000 C   0  0  0  0  0  0  0  0  0
    5.2251    3.2824    0.0000 C   0  0  0  0  0  0  0  0  0
    5.9396    3.6949    0.0000 C   0  0  0  0  0  0  0  0  0
    6.6541    3.2824    0.0000 C   0  0  0  0  0  0  0  0  0
    7.3686    3.6949    0.0000 F   0  0  0  0  0  0  0  0  0
    6.6541    2.4574    0.0000 C   0  0  0  0  0  0  0  0  0
    5.9396    2.0449    0.0000 C   0  0  0  0  0  0  0  0  0
    4.5107    3.6949    0.0000 C   0  0  0  0  0  0  0  0  0
    3.7962    3.2824    0.0000 C   0  0  0  0  0  0  0  0  0
    3.7962    2.4574    0.0000 C   0  0  0  0  0  0  0  0  0
  1  2  1  0  0  0  0
  2  3  4  0  0  0  0
  2  6  4  0  0  0  0
  3  4  4  0  0  0  0
  3 13  1  0  0  0  0
  4  5  4  0  0  0  0
  4 10  1  0  0  0  0
  5  6  4  0  0  0  0
  6  7  1  0  0  0  0
  7  8  2  0  0  0  0
  7  9  1  0  0  0  0
 10 11  1  0  0  0  0
 10 14  1  0  0  0  0
 11 12  1  0  0  0  0
 12 13  1  0  0  0  0
 14 15  1  0  0  0  0
 15 16  1  0  0  0  0
 16 17  1  0  0  0  0
 16 21  1  0  0  0  0
 17 18  1  0  0  0  0
 18 19  1  0  0  0  0
 19 20  1  0  0  0  0
 19 23  1  0  0  0  0
 20 21  1  0  0  0  0
 21 22  1  0  0  0  0
 23 24  4  0  0  0  0
 23 33  4  0  0  0  0
 24 25  4  0  0  0  0
 24 30  4  0  0  0  0
 25 26  4  0  0  0  0
 25 31  4  0  0  0  0
 26 27  4  0  0  0  0
 27 28  1  0  0  0  0
 27 29  4  0  0  0  0
 29 30  4  0  0  0  0
 31 32  4  0  0  0  0
 32 33  4  0  0  0  0
M  END
>  <Name_Molregno>
331003

>  <5-HT1B>
6

>  <5-HT1D>
7.35

>  <Alpha-1A>
6.85

>  <Alpha-1B>
6.85

>  <DOPAMINE D2>
6.54

$$$$
333385
  Marvin  02231216192D 0   1.00000     0.00000     0

 33 38  0  0  0  0  0  0  0  0999 V2000
    3.3947    2.9977    0.0000 S   0  0  0  0  0  0  0  0  0
    2.5743    3.0839    0.0000 C   0  0  0  0  0  0  0  0  0
    2.2387    2.3302    0.0000 C   0  0  0  0  0  0  0  0  0
    2.8518    1.7782    0.0000 C   0  0  0  0  0  0  0  0  0
    3.5663    2.1907    0.0000 C   0  0  0  0  0  0  0  0  0
    4.2807    1.7782    0.0000 N   0  0  0  0  0  0  0  0  0
    4.2807    0.9532    0.0000 C   0  0  0  0  0  0  0  0  0
    3.5663    0.5407    0.0000 N   0  0  0  0  0  0  0  0  0
    3.5663   -0.2843    0.0000 C   0  0  0  0  0  0  0  0  0
    4.2807   -0.6968    0.0000 C   0  0  0  0  0  0  0  0  0
    4.2807   -1.5218    0.0000 N   0  0  0  0  0  0  0  0  0
    4.9952   -1.9343    0.0000 C   0  0  0  0  0  0  0  0  0
    4.9952   -2.7593    0.0000 C   0  0  0  0  0  0  0  0  0
    4.2807   -3.1718    0.0000 N   0  0  0  0  0  0  0  0  0
    3.5663   -2.7593    0.0000 C   0  0  0  0  0  0  0  0  0
    3.5663   -1.9343    0.0000 C   0  0  0  0  0  0  0  0  0
    4.2807   -3.9968    0.0000 C   0  0  0  0  0  0  0  0  0
    3.5663   -4.4093    0.0000 N   0  0  0  0  0  0  0  0  0
    3.5663   -5.2343    0.0000 C   0  0  0  0  0  0  0  0  0
    4.2807   -5.6468    0.0000 C   0  0  0  0  0  0  0  0  0
    4.9952   -5.2343    0.0000 C   0  0  0  0  0  0  0  0  0
    4.9952   -4.4093    0.0000 C   0  0  0  0  0  0  0  0  0
    5.7097   -3.9968    0.0000 C   0  0  0  0  0  0  0  0  0
    6.4241   -4.4093    0.0000 C   0  0  0  0  0  0  0  0  0
    6.4241   -5.2343    0.0000 C   0  0  0  0  0  0  0  0  0
    5.7097   -5.6468    0.0000 C   0  0  0  0  0  0  0  0  0
    2.8518    0.9532    0.0000 C   0  0  0  0  0  0  0  0  0
    2.1373    0.5407    0.0000 O   0  0  0  0  0  0  0  0  0
    1.4182    2.2440    0.0000 C   0  0  0  0  0  0  0  0  0
    0.9333    2.9114    0.0000 C   0  0  0  0  0  0  0  0  0
    1.2689    3.6651    0.0000 N   0  0  0  0  0  0  0  0  0
    2.0893    3.7513    0.0000 C   0  0  0  0  0  0  0  0  0
    0.7839    4.3325    0.0000 C   0  0  0  0  0  0  0  0  0
  1  2  4  0  0  0  0
  1  5  4  0  0  0  0
  2  3  4  0  0  0  0
  2 32  1  0  0  0  0
  3  4  4  0  0  0  0
  3 29  1  0  0  0  0
  4  5  4  0  0  0  0
  4 27  1  0  0  0  0
  5  6  1  0  0  0  0
  6  7  2  0  0  0  0
  7  8  1  0  0  0  0
  8  9  1  0  0  0  0
  8 27  1  0  0  0  0
  9 10  1  0  0  0  0
 10 11  1  0  0  0  0
 11 12  1  0  0  0  0
 11 16  1  0  0  0  0
 12 13  1  0  0  0  0
 13 14  1  0  0  0  0
 14 15  1  0  0  0  0
 14 17  1  0  0  0  0
 15 16  1  0  0  0  0
 17 18  4  0  0  0  0
 17 22  4  0  0  0  0
 18 19  4  0  0  0  0
 19 20  4  0  0  0  0
 20 21  4  0  0  0  0
 21 22  4  0  0  0  0
 21 26  4  0  0  0  0
 22 23  4  0  0  0  0
 23 24  4  0  0  0  0
 24 25  4  0  0  0  0
 25 26  4  0  0  0  0
 27 28  2  0  0  0  0
 29 30  1  0  0  0  0
 30 31  1  0  0  0  0
 31 32  1  0  0  0  0
 31 33  1  0  0  0  0
M  END
>  <Name_Molregno>
333385

>  <5-HT1A>
9.15

>  <5-HT1B>
9.3

$$$$
333386
  Marvin  02231216192D 0   1.00000     0.00000     0

 31 35  0  0  0  0  0  0  0  0999 V2000
    5.8336   -2.6911    0.0000 S   0  0  0  0  0  0  0  0  0
    6.5011   -2.2062    0.0000 C   0  0  0  0  0  0  0  0  0
    6.2461   -1.4216    0.0000 C   0  0  0  0  0  0  0  0  0
    5.4211   -1.4216    0.0000 C   0  0  0  0  0  0  0  0  0
    5.1662   -2.2062    0.0000 C   0  0  0  0  0  0  0  0  0
    4.3592   -2.3778    0.0000 N   0  0  0  0  0  0  0  0  0
    3.8072   -1.7647    0.0000 C   0  0  0  0  0  0  0  0  0
    4.0621   -0.9800    0.0000 N   0  0  0  0  0  0  0  0  0
    3.5101   -0.3669    0.0000 C   0  0  0  0  0  0  0  0  0
    2.7031   -0.5385    0.0000 C   0  0  0  0  0  0  0  0  0
    2.1511    0.0746    0.0000 N   0  0  0  0  0  0  0  0  0
    1.3441   -0.0969    0.0000 C   0  0  0  0  0  0  0  0  0
    0.7921    0.5162    0.0000 C   0  0  0  0  0  0  0  0  0
    1.0470    1.3008    0.0000 N   0  0  0  0  0  0  0  0  0
    1.8540    1.4723    0.0000 C   0  0  0  0  0  0  0  0  0
    2.4060    0.8592    0.0000 C   0  0  0  0  0  0  0  0  0
    0.4950    1.9139    0.0000 C   0  0  0  0  0  0  0  0  0
   -0.3120    1.7424    0.0000 C   0  0  0  0  0  0  0  0  0
   -0.8640    2.3555    0.0000 C   0  0  0  0  0  0  0  0  0
   -0.6091    3.1401    0.0000 C   0  0  0  0  0  0  0  0  0
    0.1979    3.3116    0.0000 C   0  0  0  0  0  0  0  0  0
    0.7499    2.6985    0.0000 C   0  0  0  0  0  0  0  0  0
    1.5569    2.8701    0.0000 O   0  0  0  0  0  0  0  0  0
    1.8118    3.6547    0.0000 C   0  0  0  0  0  0  0  0  0
    4.8691   -0.8085    0.0000 C   0  0  0  0  0  0  0  0  0
    5.1240   -0.0239    0.0000 O   0  0  0  0  0  0  0  0  0
    6.7982   -0.8085    0.0000 C   0  0  0  0  0  0  0  0  0
    7.6051   -0.9800    0.0000 C   0  0  0  0  0  0  0  0  0
    7.8601   -1.7647    0.0000 N   0  0  0  0  0  0  0  0  0
    7.3080   -2.3778    0.0000 C   0  0  0  0  0  0  0  0  0
    8.6670   -1.9362    0.0000 C   0  0  0  0  0  0  0  0  0
  1  2  4  0  0  0  0
  1  5  4  0  0  0  0
  2  3  4  0  0  0  0
  2 30  1  0  0  0  0
  3  4  4  0  0  0  0
  3 27  1  0  0  0  0
  4  5  4  0  0  0  0
  4 25  1  0  0  0  0
  5  6  1  0  0  0  0
  6  7  2  0  0  0  0
  7  8  1  0  0  0  0
  8  9  1  0  0  0  0
  8 25  1  0  0  0  0
  9 10  1  0  0  0  0
 10 11  1  0  0  0  0
 11 12  1  0  0  0  0
 11 16  1  0  0  0  0
 12 13  1  0  0  0  0
 13 14  1  0  0  0  0
 14 15  1  0  0  0  0
 14 17  1  0  0  0  0
 15 16  1  0  0  0  0
 17 18  4  0  0  0  0
 17 22  4  0  0  0  0
 18 19  4  0  0  0  0
 19 20  4  0  0  0  0
 20 21  4  0  0  0  0
 21 22  4  0  0  0  0
 22 23  1  0  0  0  0
 23 24  1  0  0  0  0
 25 26  2  0  0  0  0
 27 28  1  0  0  0  0
 28 29  1  0  0  0  0
 29 30  1  0  0  0  0
 29 31  1  0  0  0  0
M  END
>  <Name_Molregno>
333386

>  <5-HT1A>
9.15

>  <5-HT1B>
8.85

$$$$
333395
  Marvin  02231216192D 0   1.00000     0.00000     0

 31 35  0  0  0  0  0  0  0  0999 V2000
    5.7899   -2.6699    0.0000 S   0  0  0  0  0  0  0  0  0
    6.4573   -2.1850    0.0000 C   0  0  0  0  0  0  0  0  0
    6.2024   -1.4003    0.0000 C   0  0  0  0  0  0  0  0  0
    5.3774   -1.4003    0.0000 C   0  0  0  0  0  0  0  0  0
    5.1224   -2.1850    0.0000 C   0  0  0  0  0  0  0  0  0
    4.3155   -2.3565    0.0000 N   0  0  0  0  0  0  0  0  0
    3.7634   -1.7434    0.0000 C   0  0  0  0  0  0  0  0  0
    4.0184   -0.9588    0.0000 N   0  0  0  0  0  0  0  0  0
    3.4663   -0.3457    0.0000 C   0  0  0  0  0  0  0  0  0
    2.6594   -0.5172    0.0000 C   0  0  0  0  0  0  0  0  0
    2.1073    0.0959    0.0000 N   0  0  0  0  0  0  0  0  0
    1.3004   -0.0756    0.0000 C   0  0  0  0  0  0  0  0  0
    0.7483    0.5375    0.0000 C   0  0  0  0  0  0  0  0  0
    1.0033    1.3221    0.0000 N   0  0  0  0  0  0  0  0  0
    1.8102    1.4936    0.0000 C   0  0  0  0  0  0  0  0  0
    2.3623    0.8805    0.0000 C   0  0  0  0  0  0  0  0  0
    0.4512    1.9352    0.0000 C   0  0  0  0  0  0  0  0  0
   -0.3557    1.7636    0.0000 C   0  0  0  0  0  0  0  0  0
   -0.9078    2.3767    0.0000 C   0  0  0  0  0  0  0  0  0
   -0.6528    3.1614    0.0000 C   0  0  0  0  0  0  0  0  0
    0.1542    3.3329    0.0000 C   0  0  0  0  0  0  0  0  0
    0.7062    2.7198    0.0000 C   0  0  0  0  0  0  0  0  0
    1.5132    2.8913    0.0000 C   0  0  0  0  0  0  0  0  0
    2.3201    3.0628    0.0000 N   0  0  0  0  0  0  0  0  0
    4.8254   -0.7872    0.0000 C   0  0  0  0  0  0  0  0  0
    5.0803   -0.0026    0.0000 O   0  0  0  0  0  0  0  0  0
    6.7544   -0.7872    0.0000 C   0  0  0  0  0  0  0  0  0
    7.5614   -0.9588    0.0000 C   0  0  0  0  0  0  0  0  0
    7.8163   -1.7434    0.0000 N   0  0  0  0  0  0  0  0  0
    7.2643   -2.3565    0.0000 C   0  0  0  0  0  0  0  0  0
    8.6233   -1.9149    0.0000 C   0  0  0  0  0  0  0  0  0
  1  2  4  0  0  0  0
  1  5  4  0  0  0  0
  2  3  4  0  0  0  0
  2 30  1  0  0  0  0
  3  4  4  0  0  0  0
  3 27  1  0  0  0  0
  4  5  4  0  0  0  0
  4 25  1  0  0  0  0
  5  6  1  0  0  0  0
  6  7  2  0  0  0  0
  7  8  1  0  0  0  0
  8  9  1  0  0  0  0
  8 25  1  0  0  0  0
  9 10  1  0  0  0  0
 10 11  1  0  0  0  0
 11 12  1  0  0  0  0
 11 16  1  0  0  0  0
 12 13  1  0  0  0  0
 13 14  1  0  0  0  0
 14 15  1  0  0  0  0
 14 17  1  0  0  0  0
 15 16  1  0  0  0  0
 17 18  4  0  0  0  0
 17 22  4  0  0  0  0
 18 19  4  0  0  0  0
 19 20  4  0  0  0  0
 20 21  4  0  0  0  0
 21 22  4  0  0  0  0
 22 23  1  0  0  0  0
 23 24  3  0  0  0  0
 25 26  2  0  0  0  0
 27 28  1  0  0  0  0
 28 29  1  0  0  0  0
 29 30  1  0  0  0  0
 29 31  1  0  0  0  0
M  END
>  <Name_Molregno>
333395

>  <5-HT1A>
8.6

>  <5-HT1B>
8.85

$$$$
333396
  Marvin  02231216192D 0   1.00000     0.00000     0

 30 34  0  0  0  0  0  0  0  0999 V2000
    5.4937   -3.6261    0.0000 S   0  0  0  0  0  0  0  0  0
    6.1611   -3.1412    0.0000 C   0  0  0  0  0  0  0  0  0
    5.9062   -2.3565    0.0000 C   0  0  0  0  0  0  0  0  0
    5.0812   -2.3565    0.0000 C   0  0  0  0  0  0  0  0  0
    4.8262   -3.1412    0.0000 C   0  0  0  0  0  0  0  0  0
    4.0193   -3.3127    0.0000 N   0  0  0  0  0  0  0  0  0
    3.4672   -2.6996    0.0000 C   0  0  0  0  0  0  0  0  0
    3.7222   -1.9150    0.0000 N   0  0  0  0  0  0  0  0  0
    3.1701   -1.3019    0.0000 C   0  0  0  0  0  0  0  0  0
    2.3632   -1.4734    0.0000 C   0  0  0  0  0  0  0  0  0
    1.8111   -0.8603    0.0000 N   0  0  0  0  0  0  0  0  0
    1.0042   -1.0318    0.0000 C   0  0  0  0  0  0  0  0  0
    0.4521   -0.4187    0.0000 C   0  0  0  0  0  0  0  0  0
    0.7071    0.3659    0.0000 N   0  0  0  0  0  0  0  0  0
    1.5140    0.5374    0.0000 C   0  0  0  0  0  0  0  0  0
    2.0661   -0.0757    0.0000 C   0  0  0  0  0  0  0  0  0
    0.1550    0.9790    0.0000 C   0  0  0  0  0  0  0  0  0
   -0.6519    0.8075    0.0000 C   0  0  0  0  0  0  0  0  0
   -1.2040    1.4206    0.0000 C   0  0  0  0  0  0  0  0  0
   -0.9490    2.2052    0.0000 C   0  0  0  0  0  0  0  0  0
   -0.1421    2.3767    0.0000 C   0  0  0  0  0  0  0  0  0
    0.4100    1.7636    0.0000 C   0  0  0  0  0  0  0  0  0
    1.2169    1.9351    0.0000 C   0  0  0  0  0  0  0  0  0
    4.5291   -1.7434    0.0000 C   0  0  0  0  0  0  0  0  0
    4.7841   -0.9588    0.0000 O   0  0  0  0  0  0  0  0  0
    6.4582   -1.7434    0.0000 C   0  0  0  0  0  0  0  0  0
    7.2652   -1.9150    0.0000 C   0  0  0  0  0  0  0  0  0
    7.5201   -2.6996    0.0000 N   0  0  0  0  0  0  0  0  0
    6.9681   -3.3127    0.0000 C   0  0  0  0  0  0  0  0  0
    8.3271   -2.8711    0.0000 C   0  0  0  0  0  0  0  0  0
  1  2  4  0  0  0  0
  1  5  4  0  0  0  0
  2  3  4  0  0  0  0
  2 29  1  0  0  0  0
  3  4  4  0  0  0  0
  3 26  1  0  0  0  0
  4  5  4  0  0  0  0
  4 24  1  0  0  0  0
  5  6  1  0  0  0  0
  6  7  2  0  0  0  0
  7  8  1  0  0  0  0
  8  9  1  0  0  0  0
  8 24  1  0  0  0  0
  9 10  1  0  0  0  0
 10 11  1  0  0  0  0
 11 12  1  0  0  0  0
 11 16  1  0  0  0  0
 12 13  1  0  0  0  0
 13 14  1  0  0  0  0
 14 15  1  0  0  0  0
 14 17  1  0  0  0  0
 15 16  1  0  0  0  0
 17 18  4  0  0  0  0
 17 22  4  0  0  0  0
 18 19  4  0  0  0  0
 19 20  4  0  0  0  0
 20 21  4  0  0  0  0
 21 22  4  0  0  0  0
 22 23  1  0  0  0  0
 24 25  2  0  0  0  0
 26 27  1  0  0  0  0
 27 28  1  0  0  0  0
 28 29  1  0  0  0  0
 28 30  1  0  0  0  0
M  END
>  <Name_Molregno>
333396

>  <5-HT1A>
8.54

>  <5-HT1B>
8.46

$$$$
333413
  Marvin  02231216192D 0   1.00000     0.00000     0

 35 40  0  0  0  0  0  0  0  0999 V2000
    6.0894   -4.1578    0.0000 S   0  0  0  0  0  0  0  0  0
    6.7568   -3.6729    0.0000 C   0  0  0  0  0  0  0  0  0
    6.5019   -2.8883    0.0000 C   0  0  0  0  0  0  0  0  0
    5.6769   -2.8883    0.0000 C   0  0  0  0  0  0  0  0  0
    5.4220   -3.6729    0.0000 C   0  0  0  0  0  0  0  0  0
    4.6150   -3.8444    0.0000 N   0  0  0  0  0  0  0  0  0
    4.0630   -3.2314    0.0000 C   0  0  0  0  0  0  0  0  0
    4.3179   -2.4467    0.0000 N   0  0  0  0  0  0  0  0  0
    3.7659   -1.8336    0.0000 C   0  0  0  0  0  0  0  0  0
    2.9589   -2.0052    0.0000 C   0  0  0  0  0  0  0  0  0
    2.4069   -1.3921    0.0000 N   0  0  0  0  0  0  0  0  0
    1.5999   -1.5636    0.0000 C   0  0  0  0  0  0  0  0  0
    1.0478   -0.9505    0.0000 C   0  0  0  0  0  0  0  0  0
    1.3028   -0.1659    0.0000 N   0  0  0  0  0  0  0  0  0
    2.1098    0.0056    0.0000 C   0  0  0  0  0  0  0  0  0
    2.6618   -0.6074    0.0000 C   0  0  0  0  0  0  0  0  0
    0.7508    0.4472    0.0000 C   0  0  0  0  0  0  0  0  0
   -0.0562    0.2757    0.0000 C   0  0  0  0  0  0  0  0  0
   -0.6082    0.8888    0.0000 C   0  0  0  0  0  0  0  0  0
   -0.3533    1.6734    0.0000 C   0  0  0  0  0  0  0  0  0
    0.4537    1.8449    0.0000 C   0  0  0  0  0  0  0  0  0
    1.0057    1.2318    0.0000 C   0  0  0  0  0  0  0  0  0
    1.8127    1.4034    0.0000 C   0  0  0  0  0  0  0  0  0
    2.0676    2.1880    0.0000 C   0  0  0  0  0  0  0  0  0
    2.8746    2.3595    0.0000 C   0  0  0  0  0  0  0  0  0
    3.4266    1.7464    0.0000 C   0  0  0  0  0  0  0  0  0
    3.1717    0.9618    0.0000 C   0  0  0  0  0  0  0  0  0
    2.3647    0.7903    0.0000 C   0  0  0  0  0  0  0  0  0
    5.1249   -2.2752    0.0000 C   0  0  0  0  0  0  0  0  0
    5.3798   -1.4906    0.0000 O   0  0  0  0  0  0  0  0  0
    7.0539   -2.2752    0.0000 C   0  0  0  0  0  0  0  0  0
    7.8609   -2.4467    0.0000 C   0  0  0  0  0  0  0  0  0
    8.1158   -3.2314    0.0000 N   0  0  0  0  0  0  0  0  0
    7.5638   -3.8444    0.0000 C   0  0  0  0  0  0  0  0  0
    8.9228   -3.4029    0.0000 C   0  0  0  0  0  0  0  0  0
  1  2  4  0  0  0  0
  1  5  4  0  0  0  0
  2  3  4  0  0  0  0
  2 34  1  0  0  0  0
  3  4  4  0  0  0  0
  3 31  1  0  0  0  0
  4  5  4  0  0  0  0
  4 29  1  0  0  0  0
  5  6  1  0  0  0  0
  6  7  2  0  0  0  0
  7  8  1  0  0  0  0
  8  9  1  0  0  0  0
  8 29  1  0  0  0  0
  9 10  1  0  0  0  0
 10 11  1  0  0  0  0
 11 12  1  0  0  0  0
 11 16  1  0  0  0  0
 12 13  1  0  0  0  0
 13 14  1  0  0  0  0
 14 15  1  0  0  0  0
 14 17  1  0  0  0  0
 15 16  1  0  0  0  0
 17 18  4  0  0  0  0
 17 22  4  0  0  0  0
 18 19  4  0  0  0  0
 19 20  4  0  0  0  0
 20 21  4  0  0  0  0
 21 22  4  0  0  0  0
 22 23  1  0  0  0  0
 23 24  4  0  0  0  0
 23 28  4  0  0  0  0
 24 25  4  0  0  0  0
 25 26  4  0  0  0  0
 26 27  4  0  0  0  0
 27 28  4  0  0  0  0
 29 30  2  0  0  0  0
 31 32  1  0  0  0  0
 32 33  1  0  0  0  0
 33 34  1  0  0  0  0
 33 35  1  0  0  0  0
M  END
>  <Name_Molregno>
333413

>  <5-HT1A>
8.39

>  <5-HT1B>
8.96

$$$$
333416
  Marvin  02231216192D 0   1.00000     0.00000     0

 36 41  0  0  0  0  0  0  0  0999 V2000
    6.4300   -4.7109    0.0000 S   0  0  0  0  0  0  0  0  0
    7.0974   -4.2260    0.0000 C   0  0  0  0  0  0  0  0  0
    6.8425   -3.4414    0.0000 C   0  0  0  0  0  0  0  0  0
    6.0175   -3.4414    0.0000 C   0  0  0  0  0  0  0  0  0
    5.7625   -4.2260    0.0000 C   0  0  0  0  0  0  0  0  0
    4.9556   -4.3975    0.0000 N   0  0  0  0  0  0  0  0  0
    4.4035   -3.7844    0.0000 C   0  0  0  0  0  0  0  0  0
    4.6585   -2.9998    0.0000 N   0  0  0  0  0  0  0  0  0
    4.1064   -2.3867    0.0000 C   0  0  0  0  0  0  0  0  0
    3.2995   -2.5583    0.0000 C   0  0  0  0  0  0  0  0  0
    2.7474   -1.9452    0.0000 N   0  0  0  0  0  0  0  0  0
    1.9405   -2.1167    0.0000 C   0  0  0  0  0  0  0  0  0
    1.3884   -1.5036    0.0000 C   0  0  0  0  0  0  0  0  0
    1.6434   -0.7190    0.0000 N   0  0  0  0  0  0  0  0  0
    2.4503   -0.5475    0.0000 C   0  0  0  0  0  0  0  0  0
    3.0024   -1.1605    0.0000 C   0  0  0  0  0  0  0  0  0
    1.0913   -0.1059    0.0000 C   0  0  0  0  0  0  0  0  0
    0.2844   -0.2774    0.0000 C   0  0  0  0  0  0  0  0  0
   -0.2677    0.3357    0.0000 C   0  0  0  0  0  0  0  0  0
   -0.0127    1.1203    0.0000 C   0  0  0  0  0  0  0  0  0
    0.7942    1.2918    0.0000 C   0  0  0  0  0  0  0  0  0
    1.3463    0.6787    0.0000 C   0  0  0  0  0  0  0  0  0
    2.1532    0.8503    0.0000 O   0  0  0  0  0  0  0  0  0
    2.4082    1.6349    0.0000 C   0  0  0  0  0  0  0  0  0
    1.8561    2.2480    0.0000 C   0  0  0  0  0  0  0  0  0
    2.1111    3.0326    0.0000 C   0  0  0  0  0  0  0  0  0
    2.9181    3.2041    0.0000 C   0  0  0  0  0  0  0  0  0
    3.4701    2.5910    0.0000 C   0  0  0  0  0  0  0  0  0
    3.2152    1.8064    0.0000 C   0  0  0  0  0  0  0  0  0
    5.4654   -2.8283    0.0000 C   0  0  0  0  0  0  0  0  0
    5.7204   -2.0437    0.0000 O   0  0  0  0  0  0  0  0  0
    7.3945   -2.8283    0.0000 C   0  0  0  0  0  0  0  0  0
    8.2015   -2.9998    0.0000 C   0  0  0  0  0  0  0  0  0
    8.4564   -3.7844    0.0000 N   0  0  0  0  0  0  0  0  0
    7.9044   -4.3975    0.0000 C   0  0  0  0  0  0  0  0  0
    9.2634   -3.9560    0.0000 C   0  0  0  0  0  0  0  0  0
  1  2  4  0  0  0  0
  1  5  4  0  0  0  0
  2  3  4  0  0  0  0
  2 35  1  0  0  0  0
  3  4  4  0  0  0  0
  3 32  1  0  0  0  0
  4  5  4  0  0  0  0
  4 30  1  0  0  0  0
  5  6  1  0  0  0  0
  6  7  2  0  0  0  0
  7  8  1  0  0  0  0
  8  9  1  0  0  0  0
  8 30  1  0  0  0  0
  9 10  1  0  0  0  0
 10 11  1  0  0  0  0
 11 12  1  0  0  0  0
 11 16  1  0  0  0  0
 12 13  1  0  0  0  0
 13 14  1  0  0  0  0
 14 15  1  0  0  0  0
 14 17  1  0  0  0  0
 15 16  1  0  0  0  0
 17 18  4  0  0  0  0
 17 22  4  0  0  0  0
 18 19  4  0  0  0  0
 19 20  4  0  0  0  0
 20 21  4  0  0  0  0
 21 22  4  0  0  0  0
 22 23  1  0  0  0  0
 23 24  1  0  0  0  0
 24 25  4  0  0  0  0
 24 29  4  0  0  0  0
 25 26  4  0  0  0  0
 26 27  4  0  0  0  0
 27 28  4  0  0  0  0
 28 29  4  0  0  0  0
 30 31  2  0  0  0  0
 32 33  1  0  0  0  0
 33 34  1  0  0  0  0
 34 35  1  0  0  0  0
 34 36  1  0  0  0  0
M  END
>  <Name_Molregno>
333416

>  <5-HT1A>
9.05

>  <5-HT1B>
8.96

$$$$
333417
  Marvin  02231216192D 0   1.00000     0.00000     0

 37 42  0  0  0  0  0  0  0  0999 V2000
    6.3387   -2.6724    0.0000 S   0  0  0  0  0  0  0  0  0
    7.0061   -2.1875    0.0000 C   0  0  0  0  0  0  0  0  0
    6.7512   -1.4028    0.0000 C   0  0  0  0  0  0  0  0  0
    5.9262   -1.4028    0.0000 C   0  0  0  0  0  0  0  0  0
    5.6712   -2.1875    0.0000 C   0  0  0  0  0  0  0  0  0
    4.8643   -2.3590    0.0000 N   0  0  0  0  0  0  0  0  0
    4.3122   -1.7459    0.0000 C   0  0  0  0  0  0  0  0  0
    4.5672   -0.9613    0.0000 N   0  0  0  0  0  0  0  0  0
    4.0151   -0.3482    0.0000 C   0  0  0  0  0  0  0  0  0
    3.2082   -0.5197    0.0000 C   0  0  0  0  0  0  0  0  0
    2.6561    0.0934    0.0000 N   0  0  0  0  0  0  0  0  0
    1.8492   -0.0781    0.0000 C   0  0  0  0  0  0  0  0  0
    1.2971    0.5349    0.0000 C   0  0  0  0  0  0  0  0  0
    1.5521    1.3196    0.0000 N   0  0  0  0  0  0  0  0  0
    2.3590    1.4911    0.0000 C   0  0  0  0  0  0  0  0  0
    2.9111    0.8780    0.0000 C   0  0  0  0  0  0  0  0  0
    1.0000    1.9327    0.0000 C   0  0  0  0  0  0  0  0  0
    0.1931    1.7611    0.0000 C   0  0  0  0  0  0  0  0  0
   -0.3590    2.3742    0.0000 C   0  0  0  0  0  0  0  0  0
   -0.1040    3.1589    0.0000 C   0  0  0  0  0  0  0  0  0
    0.7029    3.3304    0.0000 C   0  0  0  0  0  0  0  0  0
    1.2550    2.7173    0.0000 C   0  0  0  0  0  0  0  0  0
    2.0619    2.8888    0.0000 O   0  0  0  0  0  0  0  0  0
    2.3169    3.6734    0.0000 C   0  0  0  0  0  0  0  0  0
    3.1238    3.8450    0.0000 C   0  0  0  0  0  0  0  0  0
    3.3788    4.6296    0.0000 C   0  0  0  0  0  0  0  0  0
    4.1858    4.8011    0.0000 C   0  0  0  0  0  0  0  0  0
    4.7378    4.1880    0.0000 C   0  0  0  0  0  0  0  0  0
    4.4829    3.4034    0.0000 C   0  0  0  0  0  0  0  0  0
    3.6759    3.2319    0.0000 C   0  0  0  0  0  0  0  0  0
    5.3741   -0.7898    0.0000 C   0  0  0  0  0  0  0  0  0
    5.6291   -0.0051    0.0000 O   0  0  0  0  0  0  0  0  0
    7.3032   -0.7898    0.0000 C   0  0  0  0  0  0  0  0  0
    8.1102   -0.9613    0.0000 C   0  0  0  0  0  0  0  0  0
    8.3651   -1.7459    0.0000 N   0  0  0  0  0  0  0  0  0
    7.8131   -2.3590    0.0000 C   0  0  0  0  0  0  0  0  0
    9.1721   -1.9174    0.0000 C   0  0  0  0  0  0  0  0  0
  1  2  4  0  0  0  0
  1  5  4  0  0  0  0
  2  3  4  0  0  0  0
  2 36  1  0  0  0  0
  3  4  4  0  0  0  0
  3 33  1  0  0  0  0
  4  5  4  0  0  0  0
  4 31  1  0  0  0  0
  5  6  1  0  0  0  0
  6  7  2  0  0  0  0
  7  8  1  0  0  0  0
  8  9  1  0  0  0  0
  8 31  1  0  0  0  0
  9 10  1  0  0  0  0
 10 11  1  0  0  0  0
 11 12  1  0  0  0  0
 11 16  1  0  0  0  0
 12 13  1  0  0  0  0
 13 14  1  0  0  0  0
 14 15  1  0  0  0  0
 14 17  1  0  0  0  0
 15 16  1  0  0  0  0
 17 18  4  0  0  0  0
 17 22  4  0  0  0  0
 18 19  4  0  0  0  0
 19 20  4  0  0  0  0
 20 21  4  0  0  0  0
 21 22  4  0  0  0  0
 22 23  1  0  0  0  0
 23 24  1  0  0  0  0
 24 25  1  0  0  0  0
 25 26  4  0  0  0  0
 25 30  4  0  0  0  0
 26 27  4  0  0  0  0
 27 28  4  0  0  0  0
 28 29  4  0  0  0  0
 29 30  4  0  0  0  0
 31 32  2  0  0  0  0
 33 34  1  0  0  0  0
 34 35  1  0  0  0  0
 35 36  1  0  0  0  0
 35 37  1  0  0  0  0
M  END
>  <Name_Molregno>
333417

>  <5-HT1A>
8.72

>  <5-HT1B>
8.92

$$$$
333420
  Marvin  02231216192D 0   1.00000     0.00000     0

 30 34  0  0  0  0  0  0  0  0999 V2000
   -8.1376    0.9320    0.0000 Cl  0  0  0  0  0  0  0  0  0
   -7.8826    1.7167    0.0000 C   0  0  0  0  0  0  0  0  0
   -8.4347    2.3298    0.0000 C   0  0  0  0  0  0  0  0  0
   -8.1797    3.1144    0.0000 C   0  0  0  0  0  0  0  0  0
   -7.3728    3.2859    0.0000 C   0  0  0  0  0  0  0  0  0
   -6.8207    2.6728    0.0000 C   0  0  0  0  0  0  0  0  0
   -7.0757    1.8882    0.0000 C   0  0  0  0  0  0  0  0  0
   -6.5236    1.2751    0.0000 N   0  0  0  0  0  0  0  0  0
   -5.7167    1.4466    0.0000 C   0  0  0  0  0  0  0  0  0
   -5.1646    0.8335    0.0000 C   0  0  0  0  0  0  0  0  0
   -5.4196    0.0489    0.0000 N   0  0  0  0  0  0  0  0  0
   -6.2265   -0.1226    0.0000 C   0  0  0  0  0  0  0  0  0
   -6.7786    0.4905    0.0000 C   0  0  0  0  0  0  0  0  0
   -4.8675   -0.5642    0.0000 C   0  0  0  0  0  0  0  0  0
   -4.0606   -0.3927    0.0000 C   0  0  0  0  0  0  0  0  0
   -3.5085   -1.0058    0.0000 N   0  0  0  0  0  0  0  0  0
   -3.7635   -1.7904    0.0000 C   0  0  0  0  0  0  0  0  0
   -3.2114   -2.4035    0.0000 N   0  0  0  0  0  0  0  0  0
   -2.4045   -2.2319    0.0000 C   0  0  0  0  0  0  0  0  0
   -1.7370   -2.7169    0.0000 S   0  0  0  0  0  0  0  0  0
   -1.0696   -2.2319    0.0000 C   0  0  0  0  0  0  0  0  0
   -1.3245   -1.4473    0.0000 C   0  0  0  0  0  0  0  0  0
   -2.1495   -1.4473    0.0000 C   0  0  0  0  0  0  0  0  0
   -2.7016   -0.8342    0.0000 C   0  0  0  0  0  0  0  0  0
   -2.4466   -0.0496    0.0000 O   0  0  0  0  0  0  0  0  0
   -0.7725   -0.8342    0.0000 C   0  0  0  0  0  0  0  0  0
    0.0345   -1.0058    0.0000 C   0  0  0  0  0  0  0  0  0
    0.2894   -1.7904    0.0000 N   0  0  0  0  0  0  0  0  0
   -0.2626   -2.4035    0.0000 C   0  0  0  0  0  0  0  0  0
    1.0964   -1.9619    0.0000 C   0  0  0  0  0  0  0  0  0
  1  2  1  0  0  0  0
  2  3  4  0  0  0  0
  2  7  4  0  0  0  0
  3  4  4  0  0  0  0
  4  5  4  0  0  0  0
  5  6  4  0  0  0  0
  6  7  4  0  0  0  0
  7  8  1  0  0  0  0
  8  9  1  0  0  0  0
  8 13  1  0  0  0  0
  9 10  1  0  0  0  0
 10 11  1  0  0  0  0
 11 12  1  0  0  0  0
 11 14  1  0  0  0  0
 12 13  1  0  0  0  0
 14 15  1  0  0  0  0
 15 16  1  0  0  0  0
 16 17  1  0  0  0  0
 16 24  1  0  0  0  0
 17 18  2  0  0  0  0
 18 19  1  0  0  0  0
 19 20  4  0  0  0  0
 19 23  4  0  0  0  0
 20 21  4  0  0  0  0
 21 22  4  0  0  0  0
 21 29  1  0  0  0  0
 22 23  4  0  0  0  0
 22 26  1  0  0  0  0
 23 24  1  0  0  0  0
 24 25  2  0  0  0  0
 26 27  1  0  0  0  0
 27 28  1  0  0  0  0
 28 29  1  0  0  0  0
 28 30  1  0  0  0  0
M  END
>  <Name_Molregno>
333420

>  <5-HT1A>
8.55

>  <5-HT1B>
8.77

$$$$
333435
  Marvin  02231216192D 0   1.00000     0.00000     0

 32 36  0  0  0  0  0  0  0  0999 V2000
    1.9868    3.4508    0.0000 Cl  0  0  0  0  0  0  0  0  0
    1.7318    2.6662    0.0000 C   0  0  0  0  0  0  0  0  0
    2.2838    2.0531    0.0000 C   0  0  0  0  0  0  0  0  0
    2.0289    1.2685    0.0000 C   0  0  0  0  0  0  0  0  0
    2.5809    0.6554    0.0000 N   0  0  0  0  0  0  0  0  0
    3.3879    0.8269    0.0000 C   0  0  0  0  0  0  0  0  0
    3.9399    0.2138    0.0000 C   0  0  0  0  0  0  0  0  0
    3.6850   -0.5708    0.0000 N   0  0  0  0  0  0  0  0  0
    2.8780   -0.7423    0.0000 C   0  0  0  0  0  0  0  0  0
    2.3260   -0.1292    0.0000 C   0  0  0  0  0  0  0  0  0
    4.2370   -1.1839    0.0000 C   0  0  0  0  0  0  0  0  0
    5.0440   -1.0123    0.0000 C   0  0  0  0  0  0  0  0  0
    5.5960   -1.6254    0.0000 N   0  0  0  0  0  0  0  0  0
    5.3411   -2.4101    0.0000 C   0  0  0  0  0  0  0  0  0
    5.8931   -3.0232    0.0000 N   0  0  0  0  0  0  0  0  0
    6.7001   -2.8516    0.0000 C   0  0  0  0  0  0  0  0  0
    7.3675   -3.3366    0.0000 S   0  0  0  0  0  0  0  0  0
    8.0350   -2.8516    0.0000 C   0  0  0  0  0  0  0  0  0
    7.7800   -2.0670    0.0000 C   0  0  0  0  0  0  0  0  0
    6.9550   -2.0670    0.0000 C   0  0  0  0  0  0  0  0  0
    6.4030   -1.4539    0.0000 C   0  0  0  0  0  0  0  0  0
    6.6580   -0.6693    0.0000 O   0  0  0  0  0  0  0  0  0
    8.3321   -1.4539    0.0000 C   0  0  0  0  0  0  0  0  0
    9.1391   -1.6254    0.0000 C   0  0  0  0  0  0  0  0  0
    9.3940   -2.4101    0.0000 N   0  0  0  0  0  0  0  0  0
    8.8420   -3.0232    0.0000 C   0  0  0  0  0  0  0  0  0
   10.2010   -2.5816    0.0000 C   0  0  0  0  0  0  0  0  0
    1.2219    1.0970    0.0000 C   0  0  0  0  0  0  0  0  0
    0.9670    0.3124    0.0000 O   0  0  0  0  0  0  0  0  0
    0.1600    0.1408    0.0000 C   0  0  0  0  0  0  0  0  0
    0.6699    1.7101    0.0000 C   0  0  0  0  0  0  0  0  0
    0.9248    2.4947    0.0000 C   0  0  0  0  0  0  0  0  0
  1  2  1  0  0  0  0
  2  3  4  0  0  0  0
  2 32  4  0  0  0  0
  3  4  4  0  0  0  0
  4  5  1  0  0  0  0
  4 28  4  0  0  0  0
  5  6  1  0  0  0  0
  5 10  1  0  0  0  0
  6  7  1  0  0  0  0
  7  8  1  0  0  0  0
  8  9  1  0  0  0  0
  8 11  1  0  0  0  0
  9 10  1  0  0  0  0
 11 12  1  0  0  0  0
 12 13  1  0  0  0  0
 13 14  1  0  0  0  0
 13 21  1  0  0  0  0
 14 15  2  0  0  0  0
 15 16  1  0  0  0  0
 16 17  4  0  0  0  0
 16 20  4  0  0  0  0
 17 18  4  0  0  0  0
 18 19  4  0  0  0  0
 18 26  1  0  0  0  0
 19 20  4  0  0  0  0
 19 23  1  0  0  0  0
 20 21  1  0  0  0  0
 21 22  2  0  0  0  0
 23 24  1  0  0  0  0
 24 25  1  0  0  0  0
 25 26  1  0  0  0  0
 25 27  1  0  0  0  0
 28 29  1  0  0  0  0
 28 31  4  0  0  0  0
 29 30  1  0  0  0  0
 31 32  4  0  0  0  0
M  END
>  <Name_Molregno>
333435

>  <5-HT1A>
8.52

>  <5-HT1B>
7.15

$$$$
333436
  Marvin  02231216192D 0   1.00000     0.00000     0

 33 38  0  0  0  0  0  0  0  0999 V2000
   -3.7150   -5.1498    0.0000 S   0  0  0  0  0  0  0  0  0
   -2.8945   -5.2360    0.0000 C   0  0  0  0  0  0  0  0  0
   -2.5589   -4.4823    0.0000 C   0  0  0  0  0  0  0  0  0
   -3.1720   -3.9303    0.0000 C   0  0  0  0  0  0  0  0  0
   -3.8865   -4.3428    0.0000 C   0  0  0  0  0  0  0  0  0
   -4.6010   -3.9303    0.0000 N   0  0  0  0  0  0  0  0  0
   -4.6010   -3.1053    0.0000 C   0  0  0  0  0  0  0  0  0
   -3.8865   -2.6928    0.0000 N   0  0  0  0  0  0  0  0  0
   -3.8865   -1.8678    0.0000 C   0  0  0  0  0  0  0  0  0
   -4.6010   -1.4553    0.0000 C   0  0  0  0  0  0  0  0  0
   -4.6010   -0.6303    0.0000 N   0  0  0  0  0  0  0  0  0
   -5.3154   -0.2178    0.0000 C   0  0  0  0  0  0  0  0  0
   -5.3154    0.6072    0.0000 C   0  0  0  0  0  0  0  0  0
   -4.6010    1.0197    0.0000 N   0  0  0  0  0  0  0  0  0
   -3.8865    0.6072    0.0000 C   0  0  0  0  0  0  0  0  0
   -3.8865   -0.2178    0.0000 C   0  0  0  0  0  0  0  0  0
   -4.6010    1.8447    0.0000 C   0  0  0  0  0  0  0  0  0
   -3.8865    2.2572    0.0000 C   0  0  0  0  0  0  0  0  0
   -3.8865    3.0822    0.0000 C   0  0  0  0  0  0  0  0  0
   -4.6010    3.4947    0.0000 N   0  0  0  0  0  0  0  0  0
   -5.3154    3.0822    0.0000 C   0  0  0  0  0  0  0  0  0
   -5.3154    2.2572    0.0000 C   0  0  0  0  0  0  0  0  0
   -3.1720    3.4947    0.0000 C   0  0  0  0  0  0  0  0  0
   -2.4576    3.0822    0.0000 C   0  0  0  0  0  0  0  0  0
   -2.4576    2.2572    0.0000 C   0  0  0  0  0  0  0  0  0
   -3.1720    1.8447    0.0000 C   0  0  0  0  0  0  0  0  0
   -3.1720   -3.1053    0.0000 C   0  0  0  0  0  0  0  0  0
   -2.4576   -2.6928    0.0000 O   0  0  0  0  0  0  0  0  0
   -1.7385   -4.3961    0.0000 C   0  0  0  0  0  0  0  0  0
   -1.2535   -5.0635    0.0000 C   0  0  0  0  0  0  0  0  0
   -1.5891   -5.8172    0.0000 N   0  0  0  0  0  0  0  0  0
   -2.4096   -5.9034    0.0000 C   0  0  0  0  0  0  0  0  0
   -1.1042   -6.4846    0.0000 C   0  0  0  0  0  0  0  0  0
  1  2  4  0  0  0  0
  1  5  4  0  0  0  0
  2  3  4  0  0  0  0
  2 32  1  0  0  0  0
  3  4  4  0  0  0  0
  3 29  1  0  0  0  0
  4  5  4  0  0  0  0
  4 27  1  0  0  0  0
  5  6  1  0  0  0  0
  6  7  2  0  0  0  0
  7  8  1  0  0  0  0
  8  9  1  0  0  0  0
  8 27  1  0  0  0  0
  9 10  1  0  0  0  0
 10 11  1  0  0  0  0
 11 12  1  0  0  0  0
 11 16  1  0  0  0  0
 12 13  1  0  0  0  0
 13 14  1  0  0  0  0
 14 15  1  0  0  0  0
 14 17  1  0  0  0  0
 15 16  1  0  0  0  0
 17 18  4  0  0  0  0
 17 22  4  0  0  0  0
 18 19  4  0  0  0  0
 18 26  4  0  0  0  0
 19 20  4  0  0  0  0
 19 23  4  0  0  0  0
 20 21  4  0  0  0  0
 21 22  4  0  0  0  0
 23 24  4  0  0  0  0
 24 25  4  0  0  0  0
 25 26  4  0  0  0  0
 27 28  2  0  0  0  0
 29 30  1  0  0  0  0
 30 31  1  0  0  0  0
 31 32  1  0  0  0  0
 31 33  1  0  0  0  0
M  STY  1   1 DAT
M  SAL   1  1  20
M  SDT   1 MRV_IMPLICIT_H                                        
M  SDD   1     0.0000    0.0000    DR    ALL  0       0  
M  SED   1 IMPL_H1
M  END
>  <Name_Molregno>
333436

>  <5-HT1A>
8.19

>  <5-HT1B>
8.01

>  <5-HT2A>
8.92

>  <5-HT2C>
8.26

>  <5-HT5>
9

>  <DOPAMINE D3>
8.89

$$$$
333439
  Marvin  02231216192D 0   1.00000     0.00000     0

 33 37  0  0  0  0  0  0  0  0999 V2000
    6.1491   -3.4323    0.0000 S   0  0  0  0  0  0  0  0  0
    6.8165   -2.9474    0.0000 C   0  0  0  0  0  0  0  0  0
    6.5616   -2.1628    0.0000 C   0  0  0  0  0  0  0  0  0
    5.7366   -2.1628    0.0000 C   0  0  0  0  0  0  0  0  0
    5.4816   -2.9474    0.0000 C   0  0  0  0  0  0  0  0  0
    4.6747   -3.1189    0.0000 N   0  0  0  0  0  0  0  0  0
    4.1226   -2.5059    0.0000 C   0  0  0  0  0  0  0  0  0
    4.3776   -1.7212    0.0000 N   0  0  0  0  0  0  0  0  0
    3.8255   -1.1081    0.0000 C   0  0  0  0  0  0  0  0  0
    3.0186   -1.2797    0.0000 C   0  0  0  0  0  0  0  0  0
    2.4665   -0.6666    0.0000 N   0  0  0  0  0  0  0  0  0
    1.6596   -0.8381    0.0000 C   0  0  0  0  0  0  0  0  0
    1.1075   -0.2250    0.0000 C   0  0  0  0  0  0  0  0  0
    1.3625    0.5596    0.0000 N   0  0  0  0  0  0  0  0  0
    2.1694    0.7311    0.0000 C   0  0  0  0  0  0  0  0  0
    2.7215    0.1181    0.0000 C   0  0  0  0  0  0  0  0  0
    0.8104    1.1727    0.0000 C   0  0  0  0  0  0  0  0  0
    0.0035    1.0012    0.0000 C   0  0  0  0  0  0  0  0  0
   -0.5486    1.6143    0.0000 C   0  0  0  0  0  0  0  0  0
   -0.2936    2.3989    0.0000 C   0  0  0  0  0  0  0  0  0
    0.5133    2.5704    0.0000 C   0  0  0  0  0  0  0  0  0
    1.0654    1.9573    0.0000 C   0  0  0  0  0  0  0  0  0
    1.8723    2.1289    0.0000 O   0  0  0  0  0  0  0  0  0
    2.1273    2.9135    0.0000 C   0  0  0  0  0  0  0  0  0
    2.9342    3.0850    0.0000 C   0  0  0  0  0  0  0  0  0
    1.5752    3.5266    0.0000 C   0  0  0  0  0  0  0  0  0
    5.1845   -1.5497    0.0000 C   0  0  0  0  0  0  0  0  0
    5.4395   -0.7651    0.0000 O   0  0  0  0  0  0  0  0  0
    7.1136   -1.5497    0.0000 C   0  0  0  0  0  0  0  0  0
    7.9206   -1.7212    0.0000 C   0  0  0  0  0  0  0  0  0
    8.1755   -2.5059    0.0000 N   0  0  0  0  0  0  0  0  0
    7.6235   -3.1189    0.0000 C   0  0  0  0  0  0  0  0  0
    8.9825   -2.6774    0.0000 C   0  0  0  0  0  0  0  0  0
  1  2  4  0  0  0  0
  1  5  4  0  0  0  0
  2  3  4  0  0  0  0
  2 32  1  0  0  0  0
  3  4  4  0  0  0  0
  3 29  1  0  0  0  0
  4  5  4  0  0  0  0
  4 27  1  0  0  0  0
  5  6  1  0  0  0  0
  6  7  2  0  0  0  0
  7  8  1  0  0  0  0
  8  9  1  0  0  0  0
  8 27  1  0  0  0  0
  9 10  1  0  0  0  0
 10 11  1  0  0  0  0
 11 12  1  0  0  0  0
 11 16  1  0  0  0  0
 12 13  1  0  0  0  0
 13 14  1  0  0  0  0
 14 15  1  0  0  0  0
 14 17  1  0  0  0  0
 15 16  1  0  0  0  0
 17 18  4  0  0  0  0
 17 22  4  0  0  0  0
 18 19  4  0  0  0  0
 19 20  4  0  0  0  0
 20 21  4  0  0  0  0
 21 22  4  0  0  0  0
 22 23  1  0  0  0  0
 23 24  1  0  0  0  0
 24 25  1  0  0  0  0
 24 26  1  0  0  0  0
 27 28  2  0  0  0  0
 29 30  1  0  0  0  0
 30 31  1  0  0  0  0
 31 32  1  0  0  0  0
 31 33  1  0  0  0  0
M  END
>  <Name_Molregno>
333439

>  <5-HT1A>
9.15

>  <5-HT1B>
8.6

$$$$
333440
  Marvin  02231216192D 0   1.00000     0.00000     0

 35 39  0  0  0  0  0  0  0  0999 V2000
    6.2905   -2.7183    0.0000 S   0  0  0  0  0  0  0  0  0
    6.9580   -2.2334    0.0000 C   0  0  0  0  0  0  0  0  0
    6.7030   -1.4487    0.0000 C   0  0  0  0  0  0  0  0  0
    5.8780   -1.4487    0.0000 C   0  0  0  0  0  0  0  0  0
    5.6231   -2.2334    0.0000 C   0  0  0  0  0  0  0  0  0
    4.8161   -2.4049    0.0000 N   0  0  0  0  0  0  0  0  0
    4.2641   -1.7918    0.0000 C   0  0  0  0  0  0  0  0  0
    4.5190   -1.0072    0.0000 N   0  0  0  0  0  0  0  0  0
    3.9670   -0.3941    0.0000 C   0  0  0  0  0  0  0  0  0
    3.1600   -0.5656    0.0000 C   0  0  0  0  0  0  0  0  0
    2.6080    0.0475    0.0000 N   0  0  0  0  0  0  0  0  0
    1.8010   -0.1240    0.0000 C   0  0  0  0  0  0  0  0  0
    1.2490    0.4891    0.0000 C   0  0  0  0  0  0  0  0  0
    1.5039    1.2737    0.0000 N   0  0  0  0  0  0  0  0  0
    2.3109    1.4452    0.0000 C   0  0  0  0  0  0  0  0  0
    2.8629    0.8321    0.0000 C   0  0  0  0  0  0  0  0  0
    0.9519    1.8868    0.0000 C   0  0  0  0  0  0  0  0  0
    0.1449    1.7152    0.0000 C   0  0  0  0  0  0  0  0  0
   -0.4071    2.3283    0.0000 C   0  0  0  0  0  0  0  0  0
   -0.1522    3.1130    0.0000 C   0  0  0  0  0  0  0  0  0
    0.6548    3.2845    0.0000 C   0  0  0  0  0  0  0  0  0
    1.2068    2.6714    0.0000 C   0  0  0  0  0  0  0  0  0
    2.0138    2.8429    0.0000 O   0  0  0  0  0  0  0  0  0
    2.2687    3.6275    0.0000 C   0  0  0  0  0  0  0  0  0
    3.0757    3.7991    0.0000 C   0  0  0  0  0  0  0  0  0
    3.8827    3.9706    0.0000 C   0  0  0  0  0  0  0  0  0
    2.9042    4.6060    0.0000 C   0  0  0  0  0  0  0  0  0
    3.2472    2.9921    0.0000 C   0  0  0  0  0  0  0  0  0
    5.3260   -0.8356    0.0000 C   0  0  0  0  0  0  0  0  0
    5.5809   -0.0510    0.0000 O   0  0  0  0  0  0  0  0  0
    7.2550   -0.8356    0.0000 C   0  0  0  0  0  0  0  0  0
    8.0620   -1.0072    0.0000 C   0  0  0  0  0  0  0  0  0
    8.3170   -1.7918    0.0000 N   0  0  0  0  0  0  0  0  0
    7.7649   -2.4049    0.0000 C   0  0  0  0  0  0  0  0  0
    9.1239   -1.9633    0.0000 C   0  0  0  0  0  0  0  0  0
  1  2  4  0  0  0  0
  1  5  4  0  0  0  0
  2  3  4  0  0  0  0
  2 34  1  0  0  0  0
  3  4  4  0  0  0  0
  3 31  1  0  0  0  0
  4  5  4  0  0  0  0
  4 29  1  0  0  0  0
  5  6  1  0  0  0  0
  6  7  2  0  0  0  0
  7  8  1  0  0  0  0
  8  9  1  0  0  0  0
  8 29  1  0  0  0  0
  9 10  1  0  0  0  0
 10 11  1  0  0  0  0
 11 12  1  0  0  0  0
 11 16  1  0  0  0  0
 12 13  1  0  0  0  0
 13 14  1  0  0  0  0
 14 15  1  0  0  0  0
 14 17  1  0  0  0  0
 15 16  1  0  0  0  0
 17 18  4  0  0  0  0
 17 22  4  0  0  0  0
 18 19  4  0  0  0  0
 19 20  4  0  0  0  0
 20 21  4  0  0  0  0
 21 22  4  0  0  0  0
 22 23  1  0  0  0  0
 23 24  1  0  0  0  0
 24 25  1  0  0  0  0
 25 26  1  0  0  0  0
 25 27  1  0  0  0  0
 25 28  1  0  0  0  0
 29 30  2  0  0  0  0
 31 32  1  0  0  0  0
 32 33  1  0  0  0  0
 33 34  1  0  0  0  0
 33 35  1  0  0  0  0
M  END
>  <Name_Molregno>
333440

>  <5-HT1A>
8.6

>  <5-HT1B>
8.27

$$$$
333537
  Marvin  02231216192D 0   1.00000     0.00000     0

 33 38  0  0  0  0  0  0  0  0999 V2000
   -3.7150   -5.1498    0.0000 S   0  0  0  0  0  0  0  0  0
   -2.8945   -5.2360    0.0000 C   0  0  0  0  0  0  0  0  0
   -2.5589   -4.4823    0.0000 C   0  0  0  0  0  0  0  0  0
   -3.1720   -3.9303    0.0000 C   0  0  0  0  0  0  0  0  0
   -3.8865   -4.3428    0.0000 C   0  0  0  0  0  0  0  0  0
   -4.6010   -3.9303    0.0000 N   0  0  0  0  0  0  0  0  0
   -4.6010   -3.1053    0.0000 C   0  0  0  0  0  0  0  0  0
   -3.8865   -2.6928    0.0000 N   0  0  0  0  0  0  0  0  0
   -3.8865   -1.8678    0.0000 C   0  0  0  0  0  0  0  0  0
   -4.6010   -1.4553    0.0000 C   0  0  0  0  0  0  0  0  0
   -4.6010   -0.6303    0.0000 N   0  0  0  0  0  0  0  0  0
   -5.3154   -0.2178    0.0000 C   0  0  0  0  0  0  0  0  0
   -5.3154    0.6072    0.0000 C   0  0  0  0  0  0  0  0  0
   -4.6010    1.0197    0.0000 N   0  0  0  0  0  0  0  0  0
   -3.8865    0.6072    0.0000 C   0  0  0  0  0  0  0  0  0
   -3.8865   -0.2178    0.0000 C   0  0  0  0  0  0  0  0  0
   -4.6010    1.8447    0.0000 C   0  0  0  0  0  0  0  0  0
   -3.8865    2.2572    0.0000 C   0  0  0  0  0  0  0  0  0
   -3.8865    3.0822    0.0000 C   0  0  0  0  0  0  0  0  0
   -4.6010    3.4947    0.0000 C   0  0  0  0  0  0  0  0  0
   -5.3154    3.0822    0.0000 C   0  0  0  0  0  0  0  0  0
   -5.3154    2.2572    0.0000 C   0  0  0  0  0  0  0  0  0
   -3.1720    3.4947    0.0000 C   0  0  0  0  0  0  0  0  0
   -2.4576    3.0822    0.0000 C   0  0  0  0  0  0  0  0  0
   -2.4576    2.2572    0.0000 C   0  0  0  0  0  0  0  0  0
   -3.1720    1.8447    0.0000 C   0  0  0  0  0  0  0  0  0
   -3.1720   -3.1053    0.0000 C   0  0  0  0  0  0  0  0  0
   -2.4576   -2.6928    0.0000 O   0  0  0  0  0  0  0  0  0
   -1.7385   -4.3961    0.0000 C   0  0  0  0  0  0  0  0  0
   -1.2535   -5.0635    0.0000 C   0  0  0  0  0  0  0  0  0
   -1.5891   -5.8172    0.0000 N   0  0  0  0  0  0  0  0  0
   -2.4096   -5.9034    0.0000 C   0  0  0  0  0  0  0  0  0
   -1.1042   -6.4846    0.0000 C   0  0  0  0  0  0  0  0  0
  1  2  4  0  0  0  0
  1  5  4  0  0  0  0
  2  3  4  0  0  0  0
  2 32  1  0  0  0  0
  3  4  4  0  0  0  0
  3 29  1  0  0  0  0
  4  5  4  0  0  0  0
  4 27  1  0  0  0  0
  5  6  1  0  0  0  0
  6  7  2  0  0  0  0
  7  8  1  0  0  0  0
  8  9  1  0  0  0  0
  8 27  1  0  0  0  0
  9 10  1  0  0  0  0
 10 11  1  0  0  0  0
 11 12  1  0  0  0  0
 11 16  1  0  0  0  0
 12 13  1  0  0  0  0
 13 14  1  0  0  0  0
 14 15  1  0  0  0  0
 14 17  1  0  0  0  0
 15 16  1  0  0  0  0
 17 18  4  0  0  0  0
 17 22  4  0  0  0  0
 18 19  4  0  0  0  0
 18 26  4  0  0  0  0
 19 20  4  0  0  0  0
 19 23  4  0  0  0  0
 20 21  4  0  0  0  0
 21 22  4  0  0  0  0
 23 24  4  0  0  0  0
 24 25  4  0  0  0  0
 25 26  4  0  0  0  0
 27 28  2  0  0  0  0
 29 30  1  0  0  0  0
 30 31  1  0  0  0  0
 31 32  1  0  0  0  0
 31 33  1  0  0  0  0
M  END
>  <Name_Molregno>
333537

>  <5-HT1A>
9.15

>  <5-HT1B>
9.3

$$$$
333547
  Marvin  02231216192D 0   1.00000     0.00000     0

 33 37  0  0  0  0  0  0  0  0999 V2000
   -1.0353   -3.8271    0.0000 S   0  0  0  0  0  0  0  0  0
   -0.3678   -3.3421    0.0000 C   0  0  0  0  0  0  0  0  0
   -0.6228   -2.5575    0.0000 C   0  0  0  0  0  0  0  0  0
   -1.4478   -2.5575    0.0000 C   0  0  0  0  0  0  0  0  0
   -1.7027   -3.3421    0.0000 C   0  0  0  0  0  0  0  0  0
   -2.5097   -3.5137    0.0000 N   0  0  0  0  0  0  0  0  0
   -3.0617   -2.9006    0.0000 C   0  0  0  0  0  0  0  0  0
   -2.8068   -2.1159    0.0000 N   0  0  0  0  0  0  0  0  0
   -3.3588   -1.5028    0.0000 C   0  0  0  0  0  0  0  0  0
   -4.1658   -1.6744    0.0000 C   0  0  0  0  0  0  0  0  0
   -4.7178   -1.0613    0.0000 N   0  0  0  0  0  0  0  0  0
   -5.5248   -1.2328    0.0000 C   0  0  0  0  0  0  0  0  0
   -6.0768   -0.6197    0.0000 C   0  0  0  0  0  0  0  0  0
   -5.8219    0.1649    0.0000 N   0  0  0  0  0  0  0  0  0
   -5.0149    0.3364    0.0000 C   0  0  0  0  0  0  0  0  0
   -4.4629   -0.2767    0.0000 C   0  0  0  0  0  0  0  0  0
   -6.3739    0.7780    0.0000 C   0  0  0  0  0  0  0  0  0
   -7.1809    0.6065    0.0000 C   0  0  0  0  0  0  0  0  0
   -7.7329    1.2196    0.0000 C   0  0  0  0  0  0  0  0  0
   -8.5399    1.0480    0.0000 O   0  0  0  0  0  0  0  0  0
   -9.0919    1.6611    0.0000 C   0  0  0  0  0  0  0  0  0
   -7.4780    2.0042    0.0000 C   0  0  0  0  0  0  0  0  0
   -6.6710    2.1757    0.0000 C   0  0  0  0  0  0  0  0  0
   -6.1190    1.5626    0.0000 C   0  0  0  0  0  0  0  0  0
   -5.3120    1.7342    0.0000 O   0  0  0  0  0  0  0  0  0
   -5.0571    2.5188    0.0000 C   0  0  0  0  0  0  0  0  0
   -1.9998   -1.9444    0.0000 C   0  0  0  0  0  0  0  0  0
   -1.7449   -1.1598    0.0000 O   0  0  0  0  0  0  0  0  0
   -0.0708   -1.9444    0.0000 C   0  0  0  0  0  0  0  0  0
    0.7362   -2.1159    0.0000 C   0  0  0  0  0  0  0  0  0
    0.9912   -2.9006    0.0000 N   0  0  0  0  0  0  0  0  0
    0.4391   -3.5137    0.0000 C   0  0  0  0  0  0  0  0  0
    1.7981   -3.0721    0.0000 C   0  0  0  0  0  0  0  0  0
  1  2  4  0  0  0  0
  1  5  4  0  0  0  0
  2  3  4  0  0  0  0
  2 32  1  0  0  0  0
  3  4  4  0  0  0  0
  3 29  1  0  0  0  0
  4  5  4  0  0  0  0
  4 27  1  0  0  0  0
  5  6  1  0  0  0  0
  6  7  2  0  0  0  0
  7  8  1  0  0  0  0
  8  9  1  0  0  0  0
  8 27  1  0  0  0  0
  9 10  1  0  0  0  0
 10 11  1  0  0  0  0
 11 12  1  0  0  0  0
 11 16  1  0  0  0  0
 12 13  1  0  0  0  0
 13 14  1  0  0  0  0
 14 15  1  0  0  0  0
 14 17  1  0  0  0  0
 15 16  1  0  0  0  0
 17 18  4  0  0  0  0
 17 24  4  0  0  0  0
 18 19  4  0  0  0  0
 19 20  1  0  0  0  0
 19 22  4  0  0  0  0
 20 21  1  0  0  0  0
 22 23  4  0  0  0  0
 23 24  4  0  0  0  0
 24 25  1  0  0  0  0
 25 26  1  0  0  0  0
 27 28  2  0  0  0  0
 29 30  1  0  0  0  0
 30 31  1  0  0  0  0
 31 32  1  0  0  0  0
 31 33  1  0  0  0  0
M  END
>  <Name_Molregno>
333547

>  <5-HT1A>
7.62

>  <5-HT1B>
7.3

$$$$
333548
  Marvin  02231216192D 0   1.00000     0.00000     0

 32 36  0  0  0  0  0  0  0  0999 V2000
    6.0066   -3.8028    0.0000 S   0  0  0  0  0  0  0  0  0
    6.6740   -3.3179    0.0000 C   0  0  0  0  0  0  0  0  0
    6.4191   -2.5333    0.0000 C   0  0  0  0  0  0  0  0  0
    5.5941   -2.5333    0.0000 C   0  0  0  0  0  0  0  0  0
    5.3391   -3.3179    0.0000 C   0  0  0  0  0  0  0  0  0
    4.5322   -3.4894    0.0000 N   0  0  0  0  0  0  0  0  0
    3.9801   -2.8763    0.0000 C   0  0  0  0  0  0  0  0  0
    4.2351   -2.0917    0.0000 N   0  0  0  0  0  0  0  0  0
    3.6830   -1.4786    0.0000 C   0  0  0  0  0  0  0  0  0
    2.8761   -1.6502    0.0000 C   0  0  0  0  0  0  0  0  0
    2.3240   -1.0371    0.0000 N   0  0  0  0  0  0  0  0  0
    1.5171   -1.2086    0.0000 C   0  0  0  0  0  0  0  0  0
    0.9650   -0.5955    0.0000 C   0  0  0  0  0  0  0  0  0
    1.2200    0.1891    0.0000 N   0  0  0  0  0  0  0  0  0
    2.0269    0.3607    0.0000 C   0  0  0  0  0  0  0  0  0
    2.5790   -0.2524    0.0000 C   0  0  0  0  0  0  0  0  0
    0.6679    0.8022    0.0000 C   0  0  0  0  0  0  0  0  0
   -0.1390    0.6307    0.0000 C   0  0  0  0  0  0  0  0  0
   -0.6911    1.2438    0.0000 C   0  0  0  0  0  0  0  0  0
   -0.4361    2.0284    0.0000 C   0  0  0  0  0  0  0  0  0
    0.3708    2.1999    0.0000 C   0  0  0  0  0  0  0  0  0
    0.9229    1.5868    0.0000 C   0  0  0  0  0  0  0  0  0
    1.7298    1.7584    0.0000 O   0  0  0  0  0  0  0  0  0
    1.9848    2.5430    0.0000 C   0  0  0  0  0  0  0  0  0
   -1.4980    1.0723    0.0000 C   0  0  0  0  0  0  0  0  0
    5.0420   -1.9202    0.0000 C   0  0  0  0  0  0  0  0  0
    5.2970   -1.1356    0.0000 O   0  0  0  0  0  0  0  0  0
    6.9711   -1.9202    0.0000 C   0  0  0  0  0  0  0  0  0
    7.7781   -2.0917    0.0000 C   0  0  0  0  0  0  0  0  0
    8.0330   -2.8763    0.0000 N   0  0  0  0  0  0  0  0  0
    7.4810   -3.4894    0.0000 C   0  0  0  0  0  0  0  0  0
    8.8400   -3.0479    0.0000 C   0  0  0  0  0  0  0  0  0
  1  2  4  0  0  0  0
  1  5  4  0  0  0  0
  2  3  4  0  0  0  0
  2 31  1  0  0  0  0
  3  4  4  0  0  0  0
  3 28  1  0  0  0  0
  4  5  4  0  0  0  0
  4 26  1  0  0  0  0
  5  6  1  0  0  0  0
  6  7  2  0  0  0  0
  7  8  1  0  0  0  0
  8  9  1  0  0  0  0
  8 26  1  0  0  0  0
  9 10  1  0  0  0  0
 10 11  1  0  0  0  0
 11 12  1  0  0  0  0
 11 16  1  0  0  0  0
 12 13  1  0  0  0  0
 13 14  1  0  0  0  0
 14 15  1  0  0  0  0
 14 17  1  0  0  0  0
 15 16  1  0  0  0  0
 17 18  4  0  0  0  0
 17 22  4  0  0  0  0
 18 19  4  0  0  0  0
 19 20  4  0  0  0  0
 19 25  1  0  0  0  0
 20 21  4  0  0  0  0
 21 22  4  0  0  0  0
 22 23  1  0  0  0  0
 23 24  1  0  0  0  0
 26 27  2  0  0  0  0
 28 29  1  0  0  0  0
 29 30  1  0  0  0  0
 30 31  1  0  0  0  0
 30 32  1  0  0  0  0
M  END
>  <Name_Molregno>
333548

>  <5-HT1A>
8.25

>  <5-HT1B>
7.92

$$$$
333565
  Marvin  02231216192D 0   1.00000     0.00000     0

 35 39  0  0  0  0  0  0  0  0999 V2000
    6.9346   -3.7948    0.0000 S   0  0  0  0  0  0  0  0  0
    7.6021   -3.3099    0.0000 C   0  0  0  0  0  0  0  0  0
    7.3471   -2.5253    0.0000 C   0  0  0  0  0  0  0  0  0
    6.5221   -2.5253    0.0000 C   0  0  0  0  0  0  0  0  0
    6.2672   -3.3099    0.0000 C   0  0  0  0  0  0  0  0  0
    5.4602   -3.4814    0.0000 N   0  0  0  0  0  0  0  0  0
    4.9082   -2.8683    0.0000 C   0  0  0  0  0  0  0  0  0
    5.1631   -2.0837    0.0000 N   0  0  0  0  0  0  0  0  0
    4.6111   -1.4706    0.0000 C   0  0  0  0  0  0  0  0  0
    3.8041   -1.6422    0.0000 C   0  0  0  0  0  0  0  0  0
    3.2521   -1.0291    0.0000 N   0  0  0  0  0  0  0  0  0
    2.4451   -1.2006    0.0000 C   0  0  0  0  0  0  0  0  0
    1.8931   -0.5875    0.0000 C   0  0  0  0  0  0  0  0  0
    2.1480    0.1971    0.0000 N   0  0  0  0  0  0  0  0  0
    2.9550    0.3687    0.0000 C   0  0  0  0  0  0  0  0  0
    3.5070   -0.2444    0.0000 C   0  0  0  0  0  0  0  0  0
    1.5960    0.8102    0.0000 C   0  0  0  0  0  0  0  0  0
    0.7890    0.6387    0.0000 C   0  0  0  0  0  0  0  0  0
    0.2370    1.2518    0.0000 C   0  0  0  0  0  0  0  0  0
    0.4919    2.0364    0.0000 C   0  0  0  0  0  0  0  0  0
    1.2989    2.2079    0.0000 C   0  0  0  0  0  0  0  0  0
    1.8509    1.5948    0.0000 C   0  0  0  0  0  0  0  0  0
    2.6579    1.7664    0.0000 O   0  0  0  0  0  0  0  0  0
    2.9128    2.5510    0.0000 C   0  0  0  0  0  0  0  0  0
   -0.5700    1.0803    0.0000 C   0  0  0  0  0  0  0  0  0
   -1.3770    0.9087    0.0000 F   0  0  0  0  0  0  0  0  0
   -0.3985    0.2733    0.0000 F   0  0  0  0  0  0  0  0  0
   -0.7415    1.8872    0.0000 F   0  0  0  0  0  0  0  0  0
    5.9701   -1.9122    0.0000 C   0  0  0  0  0  0  0  0  0
    6.2250   -1.1276    0.0000 O   0  0  0  0  0  0  0  0  0
    7.8991   -1.9122    0.0000 C   0  0  0  0  0  0  0  0  0
    8.7061   -2.0837    0.0000 C   0  0  0  0  0  0  0  0  0
    8.9611   -2.8683    0.0000 N   0  0  0  0  0  0  0  0  0
    8.4090   -3.4814    0.0000 C   0  0  0  0  0  0  0  0  0
    9.7680   -3.0399    0.0000 C   0  0  0  0  0  0  0  0  0
  1  2  4  0  0  0  0
  1  5  4  0  0  0  0
  2  3  4  0  0  0  0
  2 34  1  0  0  0  0
  3  4  4  0  0  0  0
  3 31  1  0  0  0  0
  4  5  4  0  0  0  0
  4 29  1  0  0  0  0
  5  6  1  0  0  0  0
  6  7  2  0  0  0  0
  7  8  1  0  0  0  0
  8  9  1  0  0  0  0
  8 29  1  0  0  0  0
  9 10  1  0  0  0  0
 10 11  1  0  0  0  0
 11 12  1  0  0  0  0
 11 16  1  0  0  0  0
 12 13  1  0  0  0  0
 13 14  1  0  0  0  0
 14 15  1  0  0  0  0
 14 17  1  0  0  0  0
 15 16  1  0  0  0  0
 17 18  4  0  0  0  0
 17 22  4  0  0  0  0
 18 19  4  0  0  0  0
 19 20  4  0  0  0  0
 19 25  1  0  0  0  0
 20 21  4  0  0  0  0
 21 22  4  0  0  0  0
 22 23  1  0  0  0  0
 23 24  1  0  0  0  0
 25 26  1  0  0  0  0
 25 27  1  0  0  0  0
 25 28  1  0  0  0  0
 29 30  2  0  0  0  0
 31 32  1  0  0  0  0
 32 33  1  0  0  0  0
 33 34  1  0  0  0  0
 33 35  1  0  0  0  0
M  END
>  <Name_Molregno>
333565

>  <5-HT1A>
6.98

>  <5-HT1B>
7.37

$$$$
333566
  Marvin  02231216192D 0   1.00000     0.00000     0

 32 37  0  0  0  0  0  0  0  0999 V2000
    3.7200   -4.8186    0.0000 S   0  0  0  0  0  0  0  0  0
    4.5405   -4.9048    0.0000 C   0  0  0  0  0  0  0  0  0
    4.8760   -4.1512    0.0000 C   0  0  0  0  0  0  0  0  0
    4.2629   -3.5991    0.0000 C   0  0  0  0  0  0  0  0  0
    3.5485   -4.0116    0.0000 C   0  0  0  0  0  0  0  0  0
    2.8340   -3.5991    0.0000 N   0  0  0  0  0  0  0  0  0
    2.8340   -2.7741    0.0000 C   0  0  0  0  0  0  0  0  0
    3.5485   -2.3616    0.0000 N   0  0  0  0  0  0  0  0  0
    3.5485   -1.5366    0.0000 C   0  0  0  0  0  0  0  0  0
    2.8340   -1.1241    0.0000 C   0  0  0  0  0  0  0  0  0
    2.8340   -0.2991    0.0000 N   0  0  0  0  0  0  0  0  0
    2.1195    0.1134    0.0000 C   0  0  0  0  0  0  0  0  0
    2.1195    0.9384    0.0000 C   0  0  0  0  0  0  0  0  0
    2.8340    1.3509    0.0000 N   0  0  0  0  0  0  0  0  0
    3.5485    0.9384    0.0000 C   0  0  0  0  0  0  0  0  0
    3.5485    0.1134    0.0000 C   0  0  0  0  0  0  0  0  0
    2.8340    2.1759    0.0000 C   0  0  0  0  0  0  0  0  0
    2.1195    2.5884    0.0000 C   0  0  0  0  0  0  0  0  0
    1.3349    2.3334    0.0000 O   0  0  0  0  0  0  0  0  0
    0.8500    3.0009    0.0000 C   0  0  0  0  0  0  0  0  0
    1.3349    3.6683    0.0000 C   0  0  0  0  0  0  0  0  0
    2.1195    3.4134    0.0000 C   0  0  0  0  0  0  0  0  0
    2.8340    3.8259    0.0000 C   0  0  0  0  0  0  0  0  0
    3.5485    3.4134    0.0000 C   0  0  0  0  0  0  0  0  0
    3.5485    2.5884    0.0000 C   0  0  0  0  0  0  0  0  0
    4.2629   -2.7741    0.0000 C   0  0  0  0  0  0  0  0  0
    4.9774   -2.3616    0.0000 O   0  0  0  0  0  0  0  0  0
    5.6965   -4.0649    0.0000 C   0  0  0  0  0  0  0  0  0
    6.1814   -4.7324    0.0000 C   0  0  0  0  0  0  0  0  0
    5.8459   -5.4860    0.0000 N   0  0  0  0  0  0  0  0  0
    5.0254   -5.5723    0.0000 C   0  0  0  0  0  0  0  0  0
    6.3308   -6.1535    0.0000 C   0  0  0  0  0  0  0  0  0
  1  2  4  0  0  0  0
  1  5  4  0  0  0  0
  2  3  4  0  0  0  0
  2 31  1  0  0  0  0
  3  4  4  0  0  0  0
  3 28  1  0  0  0  0
  4  5  4  0  0  0  0
  4 26  1  0  0  0  0
  5  6  1  0  0  0  0
  6  7  2  0  0  0  0
  7  8  1  0  0  0  0
  8  9  1  0  0  0  0
  8 26  1  0  0  0  0
  9 10  1  0  0  0  0
 10 11  1  0  0  0  0
 11 12  1  0  0  0  0
 11 16  1  0  0  0  0
 12 13  1  0  0  0  0
 13 14  1  0  0  0  0
 14 15  1  0  0  0  0
 14 17  1  0  0  0  0
 15 16  1  0  0  0  0
 17 18  4  0  0  0  0
 17 25  4  0  0  0  0
 18 19  1  0  0  0  0
 18 22  4  0  0  0  0
 19 20  1  0  0  0  0
 20 21  1  0  0  0  0
 21 22  1  0  0  0  0
 22 23  4  0  0  0  0
 23 24  4  0  0  0  0
 24 25  4  0  0  0  0
 26 27  2  0  0  0  0
 28 29  1  0  0  0  0
 29 30  1  0  0  0  0
 30 31  1  0  0  0  0
 30 32  1  0  0  0  0
M  END
>  <Name_Molregno>
333566

>  <5-HT1A>
9.22

>  <5-HT1B>
9.3

$$$$
333573
  Marvin  02231216192D 0   1.00000     0.00000     0

 32 37  0  0  0  0  0  0  0  0999 V2000
    3.7200   -4.8186    0.0000 S   0  0  0  0  0  0  0  0  0
    4.5405   -4.9048    0.0000 C   0  0  0  0  0  0  0  0  0
    4.8760   -4.1512    0.0000 C   0  0  0  0  0  0  0  0  0
    4.2629   -3.5991    0.0000 C   0  0  0  0  0  0  0  0  0
    3.5485   -4.0116    0.0000 C   0  0  0  0  0  0  0  0  0
    2.8340   -3.5991    0.0000 N   0  0  0  0  0  0  0  0  0
    2.8340   -2.7741    0.0000 C   0  0  0  0  0  0  0  0  0
    3.5485   -2.3616    0.0000 N   0  0  0  0  0  0  0  0  0
    3.5485   -1.5366    0.0000 C   0  0  0  0  0  0  0  0  0
    2.8340   -1.1241    0.0000 C   0  0  0  0  0  0  0  0  0
    2.8340   -0.2991    0.0000 N   0  0  0  0  0  0  0  0  0
    2.1195    0.1134    0.0000 C   0  0  0  0  0  0  0  0  0
    2.1195    0.9384    0.0000 C   0  0  0  0  0  0  0  0  0
    2.8340    1.3509    0.0000 N   0  0  0  0  0  0  0  0  0
    3.5485    0.9384    0.0000 C   0  0  0  0  0  0  0  0  0
    3.5485    0.1134    0.0000 C   0  0  0  0  0  0  0  0  0
    2.8340    2.1759    0.0000 C   0  0  0  0  0  0  0  0  0
    2.1195    2.5884    0.0000 C   0  0  0  0  0  0  0  0  0
    1.3349    2.3334    0.0000 S   0  0  0  0  0  0  0  0  0
    0.8500    3.0009    0.0000 C   0  0  0  0  0  0  0  0  0
    1.3349    3.6683    0.0000 C   0  0  0  0  0  0  0  0  0
    2.1195    3.4134    0.0000 C   0  0  0  0  0  0  0  0  0
    2.8340    3.8259    0.0000 C   0  0  0  0  0  0  0  0  0
    3.5485    3.4134    0.0000 C   0  0  0  0  0  0  0  0  0
    3.5485    2.5884    0.0000 C   0  0  0  0  0  0  0  0  0
    4.2629   -2.7741    0.0000 C   0  0  0  0  0  0  0  0  0
    4.9774   -2.3616    0.0000 O   0  0  0  0  0  0  0  0  0
    5.6965   -4.0649    0.0000 C   0  0  0  0  0  0  0  0  0
    6.1814   -4.7324    0.0000 C   0  0  0  0  0  0  0  0  0
    5.8459   -5.4860    0.0000 N   0  0  0  0  0  0  0  0  0
    5.0254   -5.5723    0.0000 C   0  0  0  0  0  0  0  0  0
    6.3308   -6.1535    0.0000 C   0  0  0  0  0  0  0  0  0
  1  2  4  0  0  0  0
  1  5  4  0  0  0  0
  2  3  4  0  0  0  0
  2 31  1  0  0  0  0
  3  4  4  0  0  0  0
  3 28  1  0  0  0  0
  4  5  4  0  0  0  0
  4 26  1  0  0  0  0
  5  6  1  0  0  0  0
  6  7  2  0  0  0  0
  7  8  1  0  0  0  0
  8  9  1  0  0  0  0
  8 26  1  0  0  0  0
  9 10  1  0  0  0  0
 10 11  1  0  0  0  0
 11 12  1  0  0  0  0
 11 16  1  0  0  0  0
 12 13  1  0  0  0  0
 13 14  1  0  0  0  0
 14 15  1  0  0  0  0
 14 17  1  0  0  0  0
 15 16  1  0  0  0  0
 17 18  4  0  0  0  0
 17 25  4  0  0  0  0
 18 19  4  0  0  0  0
 18 22  4  0  0  0  0
 19 20  4  0  0  0  0
 20 21  4  0  0  0  0
 21 22  4  0  0  0  0
 22 23  4  0  0  0  0
 23 24  4  0  0  0  0
 24 25  4  0  0  0  0
 26 27  2  0  0  0  0
 28 29  1  0  0  0  0
 29 30  1  0  0  0  0
 30 31  1  0  0  0  0
 30 32  1  0  0  0  0
M  END
>  <Name_Molregno>
333573

>  <5-HT1A>
9.4

>  <5-HT1B>
9.4

$$$$
333574
  Marvin  02231216192D 0   1.00000     0.00000     0

 33 38  0  0  0  0  0  0  0  0999 V2000
   -3.7150   -5.1498    0.0000 S   0  0  0  0  0  0  0  0  0
   -2.8945   -5.2360    0.0000 C   0  0  0  0  0  0  0  0  0
   -2.5589   -4.4823    0.0000 C   0  0  0  0  0  0  0  0  0
   -3.1720   -3.9303    0.0000 C   0  0  0  0  0  0  0  0  0
   -3.8865   -4.3428    0.0000 C   0  0  0  0  0  0  0  0  0
   -4.6010   -3.9303    0.0000 N   0  0  0  0  0  0  0  0  0
   -4.6010   -3.1053    0.0000 C   0  0  0  0  0  0  0  0  0
   -3.8865   -2.6928    0.0000 N   0  0  0  0  0  0  0  0  0
   -3.8865   -1.8678    0.0000 C   0  0  0  0  0  0  0  0  0
   -4.6010   -1.4553    0.0000 C   0  0  0  0  0  0  0  0  0
   -4.6010   -0.6303    0.0000 N   0  0  0  0  0  0  0  0  0
   -5.3154   -0.2178    0.0000 C   0  0  0  0  0  0  0  0  0
   -5.3154    0.6072    0.0000 C   0  0  0  0  0  0  0  0  0
   -4.6010    1.0197    0.0000 N   0  0  0  0  0  0  0  0  0
   -3.8865    0.6072    0.0000 C   0  0  0  0  0  0  0  0  0
   -3.8865   -0.2178    0.0000 C   0  0  0  0  0  0  0  0  0
   -4.6010    1.8447    0.0000 C   0  0  0  0  0  0  0  0  0
   -3.8865    2.2572    0.0000 C   0  0  0  0  0  0  0  0  0
   -3.8865    3.0822    0.0000 C   0  0  0  0  0  0  0  0  0
   -3.1720    3.4947    0.0000 C   0  0  0  0  0  0  0  0  0
   -2.4576    3.0822    0.0000 C   0  0  0  0  0  0  0  0  0
   -2.4576    2.2572    0.0000 C   0  0  0  0  0  0  0  0  0
   -3.1720    1.8447    0.0000 C   0  0  0  0  0  0  0  0  0
   -4.6010    3.4947    0.0000 C   0  0  0  0  0  0  0  0  0
   -5.3154    3.0822    0.0000 N   0  0  0  0  0  0  0  0  0
   -5.3154    2.2572    0.0000 C   0  0  0  0  0  0  0  0  0
   -3.1720   -3.1053    0.0000 C   0  0  0  0  0  0  0  0  0
   -2.4576   -2.6928    0.0000 O   0  0  0  0  0  0  0  0  0
   -1.7385   -4.3961    0.0000 C   0  0  0  0  0  0  0  0  0
   -1.2535   -5.0635    0.0000 C   0  0  0  0  0  0  0  0  0
   -1.5891   -5.8172    0.0000 N   0  0  0  0  0  0  0  0  0
   -2.4096   -5.9034    0.0000 C   0  0  0  0  0  0  0  0  0
   -1.1042   -6.4846    0.0000 C   0  0  0  0  0  0  0  0  0
  1  2  4  0  0  0  0
  1  5  4  0  0  0  0
  2  3  4  0  0  0  0
  2 32  1  0  0  0  0
  3  4  4  0  0  0  0
  3 29  1  0  0  0  0
  4  5  4  0  0  0  0
  4 27  1  0  0  0  0
  5  6  1  0  0  0  0
  6  7  2  0  0  0  0
  7  8  1  0  0  0  0
  8  9  1  0  0  0  0
  8 27  1  0  0  0  0
  9 10  1  0  0  0  0
 10 11  1  0  0  0  0
 11 12  1  0  0  0  0
 11 16  1  0  0  0  0
 12 13  1  0  0  0  0
 13 14  1  0  0  0  0
 14 15  1  0  0  0  0
 14 17  1  0  0  0  0
 15 16  1  0  0  0  0
 17 18  4  0  0  0  0
 17 26  4  0  0  0  0
 18 19  4  0  0  0  0
 18 23  4  0  0  0  0
 19 20  4  0  0  0  0
 19 24  4  0  0  0  0
 20 21  4  0  0  0  0
 21 22  4  0  0  0  0
 22 23  4  0  0  0  0
 24 25  4  0  0  0  0
 25 26  4  0  0  0  0
 27 28  2  0  0  0  0
 29 30  1  0  0  0  0
 30 31  1  0  0  0  0
 31 32  1  0  0  0  0
 31 33  1  0  0  0  0
M  END
>  <Name_Molregno>
333574

>  <5-HT1A>
8.33

>  <5-HT1B>
8.6

>  <5-HT2A>
6.74

>  <5-HT2C>
8

>  <5-HT5>
8

>  <DOPAMINE D3>
8.93

$$$$
333592
  Marvin  02231216192D 0   1.00000     0.00000     0

 37 42  0  0  0  0  0  0  0  0999 V2000
    7.4550   -4.4418    0.0000 S   0  0  0  0  0  0  0  0  0
    8.1224   -3.9569    0.0000 C   0  0  0  0  0  0  0  0  0
    7.8675   -3.1723    0.0000 C   0  0  0  0  0  0  0  0  0
    7.0425   -3.1723    0.0000 C   0  0  0  0  0  0  0  0  0
    6.7876   -3.9569    0.0000 C   0  0  0  0  0  0  0  0  0
    5.9806   -4.1284    0.0000 N   0  0  0  0  0  0  0  0  0
    5.4285   -3.5153    0.0000 C   0  0  0  0  0  0  0  0  0
    5.6835   -2.7307    0.0000 N   0  0  0  0  0  0  0  0  0
    5.1315   -2.1176    0.0000 C   0  0  0  0  0  0  0  0  0
    4.3245   -2.2891    0.0000 C   0  0  0  0  0  0  0  0  0
    3.7725   -1.6760    0.0000 N   0  0  0  0  0  0  0  0  0
    2.9655   -1.8476    0.0000 C   0  0  0  0  0  0  0  0  0
    2.4134   -1.2345    0.0000 C   0  0  0  0  0  0  0  0  0
    2.6684   -0.4498    0.0000 N   0  0  0  0  0  0  0  0  0
    3.4754   -0.2783    0.0000 C   0  0  0  0  0  0  0  0  0
    4.0274   -0.8914    0.0000 C   0  0  0  0  0  0  0  0  0
    2.1164    0.1633    0.0000 C   0  0  0  0  0  0  0  0  0
    1.3094   -0.0083    0.0000 C   0  0  0  0  0  0  0  0  0
    0.7573    0.6048    0.0000 C   0  0  0  0  0  0  0  0  0
    1.0123    1.3894    0.0000 C   0  0  0  0  0  0  0  0  0
    1.8193    1.5610    0.0000 C   0  0  0  0  0  0  0  0  0
    2.3713    0.9479    0.0000 C   0  0  0  0  0  0  0  0  0
    3.1783    1.1194    0.0000 O   0  0  0  0  0  0  0  0  0
    3.4332    1.9040    0.0000 C   0  0  0  0  0  0  0  0  0
   -0.0496    0.4333    0.0000 C   0  0  0  0  0  0  0  0  0
   -0.3046   -0.3513    0.0000 C   0  0  0  0  0  0  0  0  0
   -1.1115   -0.5229    0.0000 C   0  0  0  0  0  0  0  0  0
   -1.6636    0.0902    0.0000 C   0  0  0  0  0  0  0  0  0
   -1.4086    0.8749    0.0000 C   0  0  0  0  0  0  0  0  0
   -0.6017    1.0464    0.0000 C   0  0  0  0  0  0  0  0  0
    6.4905   -2.5592    0.0000 C   0  0  0  0  0  0  0  0  0
    6.7454   -1.7745    0.0000 O   0  0  0  0  0  0  0  0  0
    8.4195   -2.5592    0.0000 C   0  0  0  0  0  0  0  0  0
    9.2265   -2.7307    0.0000 C   0  0  0  0  0  0  0  0  0
    9.4814   -3.5153    0.0000 N   0  0  0  0  0  0  0  0  0
    8.9294   -4.1284    0.0000 C   0  0  0  0  0  0  0  0  0
   10.2884   -3.6868    0.0000 C   0  0  0  0  0  0  0  0  0
  1  2  4  0  0  0  0
  1  5  4  0  0  0  0
  2  3  4  0  0  0  0
  2 36  1  0  0  0  0
  3  4  4  0  0  0  0
  3 33  1  0  0  0  0
  4  5  4  0  0  0  0
  4 31  1  0  0  0  0
  5  6  1  0  0  0  0
  6  7  2  0  0  0  0
  7  8  1  0  0  0  0
  8  9  1  0  0  0  0
  8 31  1  0  0  0  0
  9 10  1  0  0  0  0
 10 11  1  0  0  0  0
 11 12  1  0  0  0  0
 11 16  1  0  0  0  0
 12 13  1  0  0  0  0
 13 14  1  0  0  0  0
 14 15  1  0  0  0  0
 14 17  1  0  0  0  0
 15 16  1  0  0  0  0
 17 18  4  0  0  0  0
 17 22  4  0  0  0  0
 18 19  4  0  0  0  0
 19 20  4  0  0  0  0
 19 25  1  0  0  0  0
 20 21  4  0  0  0  0
 21 22  4  0  0  0  0
 22 23  1  0  0  0  0
 23 24  1  0  0  0  0
 25 26  4  0  0  0  0
 25 30  4  0  0  0  0
 26 27  4  0  0  0  0
 27 28  4  0  0  0  0
 28 29  4  0  0  0  0
 29 30  4  0  0  0  0
 31 32  2  0  0  0  0
 33 34  1  0  0  0  0
 34 35  1  0  0  0  0
 35 36  1  0  0  0  0
 35 37  1  0  0  0  0
M  END
>  <Name_Molregno>
333592

>  <5-HT1A>
6.37

>  <5-HT1B>
6.93

$$$$
333593
  Marvin  02231216192D 0   1.00000     0.00000     0

 32 36  0  0  0  0  0  0  0  0999 V2000
    1.0301    4.3045    0.0000 Cl  0  0  0  0  0  0  0  0  0
    1.5821    3.6914    0.0000 C   0  0  0  0  0  0  0  0  0
    2.3891    3.8630    0.0000 C   0  0  0  0  0  0  0  0  0
    2.9411    3.2499    0.0000 C   0  0  0  0  0  0  0  0  0
    3.7481    3.4214    0.0000 O   0  0  0  0  0  0  0  0  0
    4.3001    2.8083    0.0000 C   0  0  0  0  0  0  0  0  0
    2.6862    2.4652    0.0000 C   0  0  0  0  0  0  0  0  0
    3.2382    1.8522    0.0000 N   0  0  0  0  0  0  0  0  0
    4.0452    2.0237    0.0000 C   0  0  0  0  0  0  0  0  0
    4.5972    1.4106    0.0000 C   0  0  0  0  0  0  0  0  0
    4.3423    0.6260    0.0000 N   0  0  0  0  0  0  0  0  0
    3.5353    0.4544    0.0000 C   0  0  0  0  0  0  0  0  0
    2.9833    1.0675    0.0000 C   0  0  0  0  0  0  0  0  0
    4.8943    0.0129    0.0000 C   0  0  0  0  0  0  0  0  0
    5.7013    0.1844    0.0000 C   0  0  0  0  0  0  0  0  0
    6.2533   -0.4287    0.0000 N   0  0  0  0  0  0  0  0  0
    5.9984   -1.2133    0.0000 C   0  0  0  0  0  0  0  0  0
    6.5504   -1.8264    0.0000 N   0  0  0  0  0  0  0  0  0
    7.3574   -1.6549    0.0000 C   0  0  0  0  0  0  0  0  0
    8.0248   -2.1398    0.0000 S   0  0  0  0  0  0  0  0  0
    8.6923   -1.6549    0.0000 C   0  0  0  0  0  0  0  0  0
    8.4373   -0.8703    0.0000 C   0  0  0  0  0  0  0  0  0
    7.6123   -0.8703    0.0000 C   0  0  0  0  0  0  0  0  0
    7.0603   -0.2572    0.0000 C   0  0  0  0  0  0  0  0  0
    7.3152    0.5274    0.0000 O   0  0  0  0  0  0  0  0  0
    8.9893   -0.2572    0.0000 C   0  0  0  0  0  0  0  0  0
    9.7963   -0.4287    0.0000 C   0  0  0  0  0  0  0  0  0
   10.0513   -1.2133    0.0000 N   0  0  0  0  0  0  0  0  0
    9.4992   -1.8264    0.0000 C   0  0  0  0  0  0  0  0  0
   10.8582   -1.3848    0.0000 C   0  0  0  0  0  0  0  0  0
    1.8792    2.2937    0.0000 C   0  0  0  0  0  0  0  0  0
    1.3272    2.9068    0.0000 C   0  0  0  0  0  0  0  0  0
  1  2  1  0  0  0  0
  2  3  4  0  0  0  0
  2 32  4  0  0  0  0
  3  4  4  0  0  0  0
  4  5  1  0  0  0  0
  4  7  4  0  0  0  0
  5  6  1  0  0  0  0
  7  8  1  0  0  0  0
  7 31  4  0  0  0  0
  8  9  1  0  0  0  0
  8 13  1  0  0  0  0
  9 10  1  0  0  0  0
 10 11  1  0  0  0  0
 11 12  1  0  0  0  0
 11 14  1  0  0  0  0
 12 13  1  0  0  0  0
 14 15  1  0  0  0  0
 15 16  1  0  0  0  0
 16 17  1  0  0  0  0
 16 24  1  0  0  0  0
 17 18  2  0  0  0  0
 18 19  1  0  0  0  0
 19 20  4  0  0  0  0
 19 23  4  0  0  0  0
 20 21  4  0  0  0  0
 21 22  4  0  0  0  0
 21 29  1  0  0  0  0
 22 23  4  0  0  0  0
 22 26  1  0  0  0  0
 23 24  1  0  0  0  0
 24 25  2  0  0  0  0
 26 27  1  0  0  0  0
 27 28  1  0  0  0  0
 28 29  1  0  0  0  0
 28 30  1  0  0  0  0
 31 32  4  0  0  0  0
M  END
>  <Name_Molregno>
333593

>  <5-HT1A>
7.73

>  <5-HT1B>
8.48

$$$$
333633
  Marvin  02231216192D 0   1.00000     0.00000     0

 33 38  0  0  0  0  0  0  0  0999 V2000
   -3.7150   -5.1498    0.0000 S   0  0  0  0  0  0  0  0  0
   -2.8945   -5.2360    0.0000 C   0  0  0  0  0  0  0  0  0
   -2.5589   -4.4823    0.0000 C   0  0  0  0  0  0  0  0  0
   -3.1720   -3.9303    0.0000 C   0  0  0  0  0  0  0  0  0
   -3.8865   -4.3428    0.0000 C   0  0  0  0  0  0  0  0  0
   -4.6010   -3.9303    0.0000 N   0  0  0  0  0  0  0  0  0
   -4.6010   -3.1053    0.0000 C   0  0  0  0  0  0  0  0  0
   -3.8865   -2.6928    0.0000 N   0  0  0  0  0  0  0  0  0
   -3.8865   -1.8678    0.0000 C   0  0  0  0  0  0  0  0  0
   -4.6010   -1.4553    0.0000 C   0  0  0  0  0  0  0  0  0
   -4.6010   -0.6303    0.0000 N   0  0  0  0  0  0  0  0  0
   -5.3154   -0.2178    0.0000 C   0  0  0  0  0  0  0  0  0
   -5.3154    0.6072    0.0000 C   0  0  0  0  0  0  0  0  0
   -4.6010    1.0197    0.0000 N   0  0  0  0  0  0  0  0  0
   -3.8865    0.6072    0.0000 C   0  0  0  0  0  0  0  0  0
   -3.8865   -0.2178    0.0000 C   0  0  0  0  0  0  0  0  0
   -4.6010    1.8447    0.0000 C   0  0  0  0  0  0  0  0  0
   -3.8865    2.2572    0.0000 C   0  0  0  0  0  0  0  0  0
   -3.8865    3.0822    0.0000 C   0  0  0  0  0  0  0  0  0
   -3.1720    3.4947    0.0000 N   0  0  0  0  0  0  0  0  0
   -2.4576    3.0822    0.0000 C   0  0  0  0  0  0  0  0  0
   -2.4576    2.2572    0.0000 C   0  0  0  0  0  0  0  0  0
   -3.1720    1.8447    0.0000 C   0  0  0  0  0  0  0  0  0
   -4.6010    3.4947    0.0000 C   0  0  0  0  0  0  0  0  0
   -5.3154    3.0822    0.0000 C   0  0  0  0  0  0  0  0  0
   -5.3154    2.2572    0.0000 C   0  0  0  0  0  0  0  0  0
   -3.1720   -3.1053    0.0000 C   0  0  0  0  0  0  0  0  0
   -2.4576   -2.6928    0.0000 O   0  0  0  0  0  0  0  0  0
   -1.7385   -4.3961    0.0000 C   0  0  0  0  0  0  0  0  0
   -1.2535   -5.0635    0.0000 C   0  0  0  0  0  0  0  0  0
   -1.5891   -5.8172    0.0000 N   0  0  0  0  0  0  0  0  0
   -2.4096   -5.9034    0.0000 C   0  0  0  0  0  0  0  0  0
   -1.1042   -6.4846    0.0000 C   0  0  0  0  0  0  0  0  0
  1  2  4  0  0  0  0
  1  5  4  0  0  0  0
  2  3  4  0  0  0  0
  2 32  1  0  0  0  0
  3  4  4  0  0  0  0
  3 29  1  0  0  0  0
  4  5  4  0  0  0  0
  4 27  1  0  0  0  0
  5  6  1  0  0  0  0
  6  7  2  0  0  0  0
  7  8  1  0  0  0  0
  8  9  1  0  0  0  0
  8 27  1  0  0  0  0
  9 10  1  0  0  0  0
 10 11  1  0  0  0  0
 11 12  1  0  0  0  0
 11 16  1  0  0  0  0
 12 13  1  0  0  0  0
 13 14  1  0  0  0  0
 14 15  1  0  0  0  0
 14 17  1  0  0  0  0
 15 16  1  0  0  0  0
 17 18  4  0  0  0  0
 17 26  4  0  0  0  0
 18 19  4  0  0  0  0
 18 23  4  0  0  0  0
 19 20  4  0  0  0  0
 19 24  4  0  0  0  0
 20 21  4  0  0  0  0
 21 22  4  0  0  0  0
 22 23  4  0  0  0  0
 24 25  4  0  0  0  0
 25 26  4  0  0  0  0
 27 28  2  0  0  0  0
 29 30  1  0  0  0  0
 30 31  1  0  0  0  0
 31 32  1  0  0  0  0
 31 33  1  0  0  0  0
M  END
>  <Name_Molregno>
333633

>  <5-HT1A>
8.82

>  <5-HT1B>
8.77

$$$$
333634
  Marvin  02231216192D 0   1.00000     0.00000     0

 33 38  0  0  0  0  0  0  0  0999 V2000
   -3.7150   -5.1498    0.0000 S   0  0  0  0  0  0  0  0  0
   -2.8945   -5.2360    0.0000 C   0  0  0  0  0  0  0  0  0
   -2.5589   -4.4823    0.0000 C   0  0  0  0  0  0  0  0  0
   -3.1720   -3.9303    0.0000 C   0  0  0  0  0  0  0  0  0
   -3.8865   -4.3428    0.0000 C   0  0  0  0  0  0  0  0  0
   -4.6010   -3.9303    0.0000 N   0  0  0  0  0  0  0  0  0
   -4.6010   -3.1053    0.0000 C   0  0  0  0  0  0  0  0  0
   -3.8865   -2.6928    0.0000 N   0  0  0  0  0  0  0  0  0
   -3.8865   -1.8678    0.0000 C   0  0  0  0  0  0  0  0  0
   -4.6010   -1.4553    0.0000 C   0  0  0  0  0  0  0  0  0
   -4.6010   -0.6303    0.0000 N   0  0  0  0  0  0  0  0  0
   -5.3154   -0.2178    0.0000 C   0  0  0  0  0  0  0  0  0
   -5.3154    0.6072    0.0000 C   0  0  0  0  0  0  0  0  0
   -4.6010    1.0197    0.0000 N   0  0  0  0  0  0  0  0  0
   -3.8865    0.6072    0.0000 C   0  0  0  0  0  0  0  0  0
   -3.8865   -0.2178    0.0000 C   0  0  0  0  0  0  0  0  0
   -4.6010    1.8447    0.0000 C   0  0  0  0  0  0  0  0  0
   -3.8865    2.2572    0.0000 C   0  0  0  0  0  0  0  0  0
   -3.8865    3.0822    0.0000 C   0  0  0  0  0  0  0  0  0
   -4.6010    3.4947    0.0000 C   0  0  0  0  0  0  0  0  0
   -5.3154    3.0822    0.0000 C   0  0  0  0  0  0  0  0  0
   -5.3154    2.2572    0.0000 C   0  0  0  0  0  0  0  0  0
   -3.1720    3.4947    0.0000 C   0  0  0  0  0  0  0  0  0
   -2.4576    3.0822    0.0000 N   0  0  0  0  0  0  0  0  0
   -2.4576    2.2572    0.0000 C   0  0  0  0  0  0  0  0  0
   -3.1720    1.8447    0.0000 C   0  0  0  0  0  0  0  0  0
   -3.1720   -3.1053    0.0000 C   0  0  0  0  0  0  0  0  0
   -2.4576   -2.6928    0.0000 O   0  0  0  0  0  0  0  0  0
   -1.7385   -4.3961    0.0000 C   0  0  0  0  0  0  0  0  0
   -1.2535   -5.0635    0.0000 C   0  0  0  0  0  0  0  0  0
   -1.5891   -5.8172    0.0000 N   0  0  0  0  0  0  0  0  0
   -2.4096   -5.9034    0.0000 C   0  0  0  0  0  0  0  0  0
   -1.1042   -6.4846    0.0000 C   0  0  0  0  0  0  0  0  0
  1  2  4  0  0  0  0
  1  5  4  0  0  0  0
  2  3  4  0  0  0  0
  2 32  1  0  0  0  0
  3  4  4  0  0  0  0
  3 29  1  0  0  0  0
  4  5  4  0  0  0  0
  4 27  1  0  0  0  0
  5  6  1  0  0  0  0
  6  7  2  0  0  0  0
  7  8  1  0  0  0  0
  8  9  1  0  0  0  0
  8 27  1  0  0  0  0
  9 10  1  0  0  0  0
 10 11  1  0  0  0  0
 11 12  1  0  0  0  0
 11 16  1  0  0  0  0
 12 13  1  0  0  0  0
 13 14  1  0  0  0  0
 14 15  1  0  0  0  0
 14 17  1  0  0  0  0
 15 16  1  0  0  0  0
 17 18  4  0  0  0  0
 17 22  4  0  0  0  0
 18 19  4  0  0  0  0
 18 26  4  0  0  0  0
 19 20  4  0  0  0  0
 19 23  4  0  0  0  0
 20 21  4  0  0  0  0
 21 22  4  0  0  0  0
 23 24  4  0  0  0  0
 24 25  4  0  0  0  0
 25 26  4  0  0  0  0
 27 28  2  0  0  0  0
 29 30  1  0  0  0  0
 30 31  1  0  0  0  0
 31 32  1  0  0  0  0
 31 33  1  0  0  0  0
M  END
>  <Name_Molregno>
333634

>  <5-HT1A>
9.05

>  <5-HT1B>
9.05

$$$$
333667
  Marvin  02231216192D 0   1.00000     0.00000     0

 32 36  0  0  0  0  0  0  0  0999 V2000
    0.2725    2.8464    0.0000 Cl  0  0  0  0  0  0  0  0  0
    1.0795    3.0180    0.0000 C   0  0  0  0  0  0  0  0  0
    1.3344    3.8026    0.0000 C   0  0  0  0  0  0  0  0  0
    2.1414    3.9741    0.0000 C   0  0  0  0  0  0  0  0  0
    2.6934    3.3610    0.0000 C   0  0  0  0  0  0  0  0  0
    2.4385    2.5764    0.0000 C   0  0  0  0  0  0  0  0  0
    2.9905    1.9633    0.0000 N   0  0  0  0  0  0  0  0  0
    3.7975    2.1348    0.0000 C   0  0  0  0  0  0  0  0  0
    4.3495    1.5217    0.0000 C   0  0  0  0  0  0  0  0  0
    4.0946    0.7371    0.0000 N   0  0  0  0  0  0  0  0  0
    3.2876    0.5656    0.0000 C   0  0  0  0  0  0  0  0  0
    2.7356    1.1787    0.0000 C   0  0  0  0  0  0  0  0  0
    4.6466    0.1240    0.0000 C   0  0  0  0  0  0  0  0  0
    5.4536    0.2955    0.0000 C   0  0  0  0  0  0  0  0  0
    6.0056   -0.3175    0.0000 N   0  0  0  0  0  0  0  0  0
    5.7507   -1.1022    0.0000 C   0  0  0  0  0  0  0  0  0
    6.3027   -1.7153    0.0000 N   0  0  0  0  0  0  0  0  0
    7.1097   -1.5437    0.0000 C   0  0  0  0  0  0  0  0  0
    7.7771   -2.0287    0.0000 S   0  0  0  0  0  0  0  0  0
    8.4445   -1.5437    0.0000 C   0  0  0  0  0  0  0  0  0
    8.1896   -0.7591    0.0000 C   0  0  0  0  0  0  0  0  0
    7.3646   -0.7591    0.0000 C   0  0  0  0  0  0  0  0  0
    6.8126   -0.1460    0.0000 C   0  0  0  0  0  0  0  0  0
    7.0675    0.6386    0.0000 O   0  0  0  0  0  0  0  0  0
    8.7416   -0.1460    0.0000 C   0  0  0  0  0  0  0  0  0
    9.5486   -0.3175    0.0000 C   0  0  0  0  0  0  0  0  0
    9.8036   -1.1022    0.0000 N   0  0  0  0  0  0  0  0  0
    9.2515   -1.7153    0.0000 C   0  0  0  0  0  0  0  0  0
   10.6105   -1.2737    0.0000 C   0  0  0  0  0  0  0  0  0
    1.6315    2.4049    0.0000 C   0  0  0  0  0  0  0  0  0
    1.3766    1.6202    0.0000 O   0  0  0  0  0  0  0  0  0
    1.9286    1.0072    0.0000 C   0  0  0  0  0  0  0  0  0
  1  2  1  0  0  0  0
  2  3  4  0  0  0  0
  2 30  4  0  0  0  0
  3  4  4  0  0  0  0
  4  5  4  0  0  0  0
  5  6  4  0  0  0  0
  6  7  1  0  0  0  0
  6 30  4  0  0  0  0
  7  8  1  0  0  0  0
  7 12  1  0  0  0  0
  8  9  1  0  0  0  0
  9 10  1  0  0  0  0
 10 11  1  0  0  0  0
 10 13  1  0  0  0  0
 11 12  1  0  0  0  0
 13 14  1  0  0  0  0
 14 15  1  0  0  0  0
 15 16  1  0  0  0  0
 15 23  1  0  0  0  0
 16 17  2  0  0  0  0
 17 18  1  0  0  0  0
 18 19  4  0  0  0  0
 18 22  4  0  0  0  0
 19 20  4  0  0  0  0
 20 21  4  0  0  0  0
 20 28  1  0  0  0  0
 21 22  4  0  0  0  0
 21 25  1  0  0  0  0
 22 23  1  0  0  0  0
 23 24  2  0  0  0  0
 25 26  1  0  0  0  0
 26 27  1  0  0  0  0
 27 28  1  0  0  0  0
 27 29  1  0  0  0  0
 30 31  1  0  0  0  0
 31 32  1  0  0  0  0
M  END
>  <Name_Molregno>
333667

>  <5-HT1A>
8.6

>  <5-HT1B>
9.3

$$$$
333668
  Marvin  02231216192D 0   1.00000     0.00000     0

 33 37  0  0  0  0  0  0  0  0999 V2000
    2.4649    3.7701    0.0000 Cl  0  0  0  0  0  0  0  0  0
    2.2100    2.9855    0.0000 C   0  0  0  0  0  0  0  0  0
    2.7620    2.3724    0.0000 C   0  0  0  0  0  0  0  0  0
    2.5071    1.5878    0.0000 C   0  0  0  0  0  0  0  0  0
    3.0591    0.9747    0.0000 N   0  0  0  0  0  0  0  0  0
    3.8661    1.1462    0.0000 C   0  0  0  0  0  0  0  0  0
    4.4181    0.5331    0.0000 C   0  0  0  0  0  0  0  0  0
    4.1632   -0.2515    0.0000 N   0  0  0  0  0  0  0  0  0
    3.3562   -0.4230    0.0000 C   0  0  0  0  0  0  0  0  0
    2.8041    0.1901    0.0000 C   0  0  0  0  0  0  0  0  0
    4.7152   -0.8646    0.0000 C   0  0  0  0  0  0  0  0  0
    4.4602   -1.6492    0.0000 C   0  0  0  0  0  0  0  0  0
    5.0123   -2.2623    0.0000 N   0  0  0  0  0  0  0  0  0
    4.7573   -3.0469    0.0000 C   0  0  0  0  0  0  0  0  0
    5.3094   -3.6600    0.0000 N   0  0  0  0  0  0  0  0  0
    6.1163   -3.4885    0.0000 C   0  0  0  0  0  0  0  0  0
    6.7838   -3.9734    0.0000 S   0  0  0  0  0  0  0  0  0
    7.4512   -3.4885    0.0000 C   0  0  0  0  0  0  0  0  0
    7.1963   -2.7039    0.0000 C   0  0  0  0  0  0  0  0  0
    6.3713   -2.7039    0.0000 C   0  0  0  0  0  0  0  0  0
    5.8192   -2.0908    0.0000 C   0  0  0  0  0  0  0  0  0
    6.0742   -1.3062    0.0000 O   0  0  0  0  0  0  0  0  0
    7.7483   -2.0908    0.0000 C   0  0  0  0  0  0  0  0  0
    8.5553   -2.2623    0.0000 C   0  0  0  0  0  0  0  0  0
    8.8102   -3.0469    0.0000 N   0  0  0  0  0  0  0  0  0
    8.2582   -3.6600    0.0000 C   0  0  0  0  0  0  0  0  0
    9.6172   -3.2185    0.0000 C   0  0  0  0  0  0  0  0  0
    1.7001    1.4163    0.0000 C   0  0  0  0  0  0  0  0  0
    1.4451    0.6316    0.0000 O   0  0  0  0  0  0  0  0  0
    0.6382    0.4601    0.0000 C   0  0  0  0  0  0  0  0  0
    1.1480    2.0294    0.0000 C   0  0  0  0  0  0  0  0  0
    1.4030    2.8140    0.0000 C   0  0  0  0  0  0  0  0  0
    0.8510    3.4271    0.0000 Cl  0  0  0  0  0  0  0  0  0
  1  2  1  0  0  0  0
  2  3  4  0  0  0  0
  2 32  4  0  0  0  0
  3  4  4  0  0  0  0
  4  5  1  0  0  0  0
  4 28  4  0  0  0  0
  5  6  1  0  0  0  0
  5 10  1  0  0  0  0
  6  7  1  0  0  0  0
  7  8  1  0  0  0  0
  8  9  1  0  0  0  0
  8 11  1  0  0  0  0
  9 10  1  0  0  0  0
 11 12  1  0  0  0  0
 12 13  1  0  0  0  0
 13 14  1  0  0  0  0
 13 21  1  0  0  0  0
 14 15  2  0  0  0  0
 15 16  1  0  0  0  0
 16 17  4  0  0  0  0
 16 20  4  0  0  0  0
 17 18  4  0  0  0  0
 18 19  4  0  0  0  0
 18 26  1  0  0  0  0
 19 20  4  0  0  0  0
 19 23  1  0  0  0  0
 20 21  1  0  0  0  0
 21 22  2  0  0  0  0
 23 24  1  0  0  0  0
 24 25  1  0  0  0  0
 25 26  1  0  0  0  0
 25 27  1  0  0  0  0
 28 29  1  0  0  0  0
 28 31  4  0  0  0  0
 29 30  1  0  0  0  0
 31 32  4  0  0  0  0
 32 33  1  0  0  0  0
M  END
>  <Name_Molregno>
333668

>  <5-HT1A>
8.6

>  <5-HT1B>
8.31

$$$$
333675
  Marvin  02231216192D 0   1.00000     0.00000     0

 33 38  0  0  0  0  0  0  0  0999 V2000
   -3.7150   -5.1498    0.0000 S   0  0  0  0  0  0  0  0  0
   -2.8945   -5.2360    0.0000 C   0  0  0  0  0  0  0  0  0
   -2.5589   -4.4823    0.0000 C   0  0  0  0  0  0  0  0  0
   -3.1720   -3.9303    0.0000 C   0  0  0  0  0  0  0  0  0
   -3.8865   -4.3428    0.0000 C   0  0  0  0  0  0  0  0  0
   -4.6010   -3.9303    0.0000 N   0  0  0  0  0  0  0  0  0
   -4.6010   -3.1053    0.0000 C   0  0  0  0  0  0  0  0  0
   -3.8865   -2.6928    0.0000 N   0  0  0  0  0  0  0  0  0
   -3.8865   -1.8678    0.0000 C   0  0  0  0  0  0  0  0  0
   -4.6010   -1.4553    0.0000 C   0  0  0  0  0  0  0  0  0
   -4.6010   -0.6303    0.0000 N   0  0  0  0  0  0  0  0  0
   -5.3154   -0.2178    0.0000 C   0  0  0  0  0  0  0  0  0
   -5.3154    0.6072    0.0000 C   0  0  0  0  0  0  0  0  0
   -4.6010    1.0197    0.0000 N   0  0  0  0  0  0  0  0  0
   -3.8865    0.6072    0.0000 C   0  0  0  0  0  0  0  0  0
   -3.8865   -0.2178    0.0000 C   0  0  0  0  0  0  0  0  0
   -4.6010    1.8447    0.0000 C   0  0  0  0  0  0  0  0  0
   -3.8865    2.2572    0.0000 C   0  0  0  0  0  0  0  0  0
   -3.8865    3.0822    0.0000 C   0  0  0  0  0  0  0  0  0
   -4.6010    3.4947    0.0000 C   0  0  0  0  0  0  0  0  0
   -5.3154    3.0822    0.0000 C   0  0  0  0  0  0  0  0  0
   -5.3154    2.2572    0.0000 C   0  0  0  0  0  0  0  0  0
   -3.1720    3.4947    0.0000 C   0  0  0  0  0  0  0  0  0
   -2.4576    3.0822    0.0000 C   0  0  0  0  0  0  0  0  0
   -2.4576    2.2572    0.0000 N   0  0  0  0  0  0  0  0  0
   -3.1720    1.8447    0.0000 C   0  0  0  0  0  0  0  0  0
   -3.1720   -3.1053    0.0000 C   0  0  0  0  0  0  0  0  0
   -2.4576   -2.6928    0.0000 O   0  0  0  0  0  0  0  0  0
   -1.7385   -4.3961    0.0000 C   0  0  0  0  0  0  0  0  0
   -1.2535   -5.0635    0.0000 C   0  0  0  0  0  0  0  0  0
   -1.5891   -5.8172    0.0000 N   0  0  0  0  0  0  0  0  0
   -2.4096   -5.9034    0.0000 C   0  0  0  0  0  0  0  0  0
   -1.1042   -6.4846    0.0000 C   0  0  0  0  0  0  0  0  0
  1  2  4  0  0  0  0
  1  5  4  0  0  0  0
  2  3  4  0  0  0  0
  2 32  1  0  0  0  0
  3  4  4  0  0  0  0
  3 29  1  0  0  0  0
  4  5  4  0  0  0  0
  4 27  1  0  0  0  0
  5  6  1  0  0  0  0
  6  7  2  0  0  0  0
  7  8  1  0  0  0  0
  8  9  1  0  0  0  0
  8 27  1  0  0  0  0
  9 10  1  0  0  0  0
 10 11  1  0  0  0  0
 11 12  1  0  0  0  0
 11 16  1  0  0  0  0
 12 13  1  0  0  0  0
 13 14  1  0  0  0  0
 14 15  1  0  0  0  0
 14 17  1  0  0  0  0
 15 16  1  0  0  0  0
 17 18  4  0  0  0  0
 17 22  4  0  0  0  0
 18 19  4  0  0  0  0
 18 26  4  0  0  0  0
 19 20  4  0  0  0  0
 19 23  4  0  0  0  0
 20 21  4  0  0  0  0
 21 22  4  0  0  0  0
 23 24  4  0  0  0  0
 24 25  4  0  0  0  0
 25 26  4  0  0  0  0
 27 28  2  0  0  0  0
 29 30  1  0  0  0  0
 30 31  1  0  0  0  0
 31 32  1  0  0  0  0
 31 33  1  0  0  0  0
M  END
>  <Name_Molregno>
333675

>  <5-HT1A>
9.52

>  <5-HT1B>
10

$$$$
333676
  Marvin  02231216192D 0   1.00000     0.00000     0

 33 38  0  0  0  0  0  0  0  0999 V2000
    3.3947    2.9977    0.0000 S   0  0  0  0  0  0  0  0  0
    2.5743    3.0839    0.0000 C   0  0  0  0  0  0  0  0  0
    2.2387    2.3302    0.0000 C   0  0  0  0  0  0  0  0  0
    2.8518    1.7782    0.0000 C   0  0  0  0  0  0  0  0  0
    3.5663    2.1907    0.0000 C   0  0  0  0  0  0  0  0  0
    4.2807    1.7782    0.0000 N   0  0  0  0  0  0  0  0  0
    4.2807    0.9532    0.0000 C   0  0  0  0  0  0  0  0  0
    3.5663    0.5407    0.0000 N   0  0  0  0  0  0  0  0  0
    3.5663   -0.2843    0.0000 C   0  0  0  0  0  0  0  0  0
    4.2807   -0.6968    0.0000 C   0  0  0  0  0  0  0  0  0
    4.2807   -1.5218    0.0000 N   0  0  0  0  0  0  0  0  0
    4.9952   -1.9343    0.0000 C   0  0  0  0  0  0  0  0  0
    4.9952   -2.7593    0.0000 C   0  0  0  0  0  0  0  0  0
    4.2807   -3.1718    0.0000 N   0  0  0  0  0  0  0  0  0
    3.5663   -2.7593    0.0000 C   0  0  0  0  0  0  0  0  0
    3.5663   -1.9343    0.0000 C   0  0  0  0  0  0  0  0  0
    4.2807   -3.9968    0.0000 C   0  0  0  0  0  0  0  0  0
    4.9952   -4.4093    0.0000 C   0  0  0  0  0  0  0  0  0
    5.7097   -3.9968    0.0000 N   0  0  0  0  0  0  0  0  0
    6.4241   -4.4093    0.0000 C   0  0  0  0  0  0  0  0  0
    6.4241   -5.2343    0.0000 C   0  0  0  0  0  0  0  0  0
    5.7097   -5.6468    0.0000 C   0  0  0  0  0  0  0  0  0
    4.9952   -5.2343    0.0000 C   0  0  0  0  0  0  0  0  0
    4.2807   -5.6468    0.0000 C   0  0  0  0  0  0  0  0  0
    3.5663   -5.2343    0.0000 C   0  0  0  0  0  0  0  0  0
    3.5663   -4.4093    0.0000 C   0  0  0  0  0  0  0  0  0
    2.8518    0.9532    0.0000 C   0  0  0  0  0  0  0  0  0
    2.1373    0.5407    0.0000 O   0  0  0  0  0  0  0  0  0
    1.4182    2.2440    0.0000 C   0  0  0  0  0  0  0  0  0
    0.9333    2.9114    0.0000 C   0  0  0  0  0  0  0  0  0
    1.2689    3.6651    0.0000 N   0  0  0  0  0  0  0  0  0
    2.0893    3.7513    0.0000 C   0  0  0  0  0  0  0  0  0
    0.7839    4.3325    0.0000 C   0  0  0  0  0  0  0  0  0
  1  2  4  0  0  0  0
  1  5  4  0  0  0  0
  2  3  4  0  0  0  0
  2 32  1  0  0  0  0
  3  4  4  0  0  0  0
  3 29  1  0  0  0  0
  4  5  4  0  0  0  0
  4 27  1  0  0  0  0
  5  6  1  0  0  0  0
  6  7  2  0  0  0  0
  7  8  1  0  0  0  0
  8  9  1  0  0  0  0
  8 27  1  0  0  0  0
  9 10  1  0  0  0  0
 10 11  1  0  0  0  0
 11 12  1  0  0  0  0
 11 16  1  0  0  0  0
 12 13  1  0  0  0  0
 13 14  1  0  0  0  0
 14 15  1  0  0  0  0
 14 17  1  0  0  0  0
 15 16  1  0  0  0  0
 17 18  4  0  0  0  0
 17 26  4  0  0  0  0
 18 19  4  0  0  0  0
 18 23  4  0  0  0  0
 19 20  4  0  0  0  0
 20 21  4  0  0  0  0
 21 22  4  0  0  0  0
 22 23  4  0  0  0  0
 23 24  4  0  0  0  0
 24 25  4  0  0  0  0
 25 26  4  0  0  0  0
 27 28  2  0  0  0  0
 29 30  1  0  0  0  0
 30 31  1  0  0  0  0
 31 32  1  0  0  0  0
 31 33  1  0  0  0  0
M  END
>  <Name_Molregno>
333676

>  <5-HT1A>
9.7

>  <5-HT1B>
9.52

$$$$
333682
  Marvin  02231216192D 0   1.00000     0.00000     0

 33 38  0  0  0  0  0  0  0  0999 V2000
    3.3947    2.9977    0.0000 S   0  0  0  0  0  0  0  0  0
    2.5743    3.0839    0.0000 C   0  0  0  0  0  0  0  0  0
    2.2387    2.3302    0.0000 C   0  0  0  0  0  0  0  0  0
    2.8518    1.7782    0.0000 C   0  0  0  0  0  0  0  0  0
    3.5663    2.1907    0.0000 C   0  0  0  0  0  0  0  0  0
    4.2807    1.7782    0.0000 N   0  0  0  0  0  0  0  0  0
    4.2807    0.9532    0.0000 C   0  0  0  0  0  0  0  0  0
    3.5663    0.5407    0.0000 N   0  0  0  0  0  0  0  0  0
    3.5663   -0.2843    0.0000 C   0  0  0  0  0  0  0  0  0
    4.2807   -0.6968    0.0000 C   0  0  0  0  0  0  0  0  0
    4.2807   -1.5218    0.0000 N   0  0  0  0  0  0  0  0  0
    4.9952   -1.9343    0.0000 C   0  0  0  0  0  0  0  0  0
    4.9952   -2.7593    0.0000 C   0  0  0  0  0  0  0  0  0
    4.2807   -3.1718    0.0000 N   0  0  0  0  0  0  0  0  0
    3.5663   -2.7593    0.0000 C   0  0  0  0  0  0  0  0  0
    3.5663   -1.9343    0.0000 C   0  0  0  0  0  0  0  0  0
    4.2807   -3.9968    0.0000 C   0  0  0  0  0  0  0  0  0
    3.5663   -4.4093    0.0000 N   0  0  0  0  0  0  0  0  0
    3.5663   -5.2343    0.0000 C   0  0  0  0  0  0  0  0  0
    4.2807   -5.6468    0.0000 N   0  0  0  0  0  0  0  0  0
    4.9952   -5.2343    0.0000 C   0  0  0  0  0  0  0  0  0
    4.9952   -4.4093    0.0000 C   0  0  0  0  0  0  0  0  0
    5.7097   -3.9968    0.0000 C   0  0  0  0  0  0  0  0  0
    6.4241   -4.4093    0.0000 C   0  0  0  0  0  0  0  0  0
    6.4241   -5.2343    0.0000 C   0  0  0  0  0  0  0  0  0
    5.7097   -5.6468    0.0000 C   0  0  0  0  0  0  0  0  0
    2.8518    0.9532    0.0000 C   0  0  0  0  0  0  0  0  0
    2.1373    0.5407    0.0000 O   0  0  0  0  0  0  0  0  0
    1.4182    2.2440    0.0000 C   0  0  0  0  0  0  0  0  0
    0.9333    2.9114    0.0000 C   0  0  0  0  0  0  0  0  0
    1.2689    3.6651    0.0000 N   0  0  0  0  0  0  0  0  0
    2.0893    3.7513    0.0000 C   0  0  0  0  0  0  0  0  0
    0.7839    4.3325    0.0000 C   0  0  0  0  0  0  0  0  0
  1  2  4  0  0  0  0
  1  5  4  0  0  0  0
  2  3  4  0  0  0  0
  2 32  1  0  0  0  0
  3  4  4  0  0  0  0
  3 29  1  0  0  0  0
  4  5  4  0  0  0  0
  4 27  1  0  0  0  0
  5  6  1  0  0  0  0
  6  7  2  0  0  0  0
  7  8  1  0  0  0  0
  8  9  1  0  0  0  0
  8 27  1  0  0  0  0
  9 10  1  0  0  0  0
 10 11  1  0  0  0  0
 11 12  1  0  0  0  0
 11 16  1  0  0  0  0
 12 13  1  0  0  0  0
 13 14  1  0  0  0  0
 14 15  1  0  0  0  0
 14 17  1  0  0  0  0
 15 16  1  0  0  0  0
 17 18  4  0  0  0  0
 17 22  4  0  0  0  0
 18 19  4  0  0  0  0
 19 20  4  0  0  0  0
 20 21  4  0  0  0  0
 21 22  4  0  0  0  0
 21 26  4  0  0  0  0
 22 23  4  0  0  0  0
 23 24  4  0  0  0  0
 24 25  4  0  0  0  0
 25 26  4  0  0  0  0
 27 28  2  0  0  0  0
 29 30  1  0  0  0  0
 30 31  1  0  0  0  0
 31 32  1  0  0  0  0
 31 33  1  0  0  0  0
M  END
>  <Name_Molregno>
333682

>  <5-HT1A>
7.03

>  <5-HT1B>
6.5

$$$$
333697
  Marvin  02231216192D 0   1.00000     0.00000     0

 33 37  0  0  0  0  0  0  0  0999 V2000
    0.2384    2.6627    0.0000 Cl  0  0  0  0  0  0  0  0  0
    1.0454    2.8343    0.0000 C   0  0  0  0  0  0  0  0  0
    1.3003    3.6189    0.0000 C   0  0  0  0  0  0  0  0  0
    2.1073    3.7904    0.0000 C   0  0  0  0  0  0  0  0  0
    2.3622    4.5750    0.0000 Cl  0  0  0  0  0  0  0  0  0
    2.6593    3.1773    0.0000 C   0  0  0  0  0  0  0  0  0
    2.4044    2.3927    0.0000 C   0  0  0  0  0  0  0  0  0
    2.9564    1.7796    0.0000 N   0  0  0  0  0  0  0  0  0
    3.7634    1.9511    0.0000 C   0  0  0  0  0  0  0  0  0
    4.3154    1.3380    0.0000 C   0  0  0  0  0  0  0  0  0
    4.0605    0.5534    0.0000 N   0  0  0  0  0  0  0  0  0
    3.2535    0.3819    0.0000 C   0  0  0  0  0  0  0  0  0
    2.7015    0.9950    0.0000 C   0  0  0  0  0  0  0  0  0
    4.6125   -0.0597    0.0000 C   0  0  0  0  0  0  0  0  0
    5.4195    0.1118    0.0000 C   0  0  0  0  0  0  0  0  0
    5.9715   -0.5012    0.0000 N   0  0  0  0  0  0  0  0  0
    5.7166   -1.2859    0.0000 C   0  0  0  0  0  0  0  0  0
    6.2686   -1.8990    0.0000 N   0  0  0  0  0  0  0  0  0
    7.0756   -1.7274    0.0000 C   0  0  0  0  0  0  0  0  0
    7.7430   -2.2124    0.0000 S   0  0  0  0  0  0  0  0  0
    8.4105   -1.7274    0.0000 C   0  0  0  0  0  0  0  0  0
    8.1555   -0.9428    0.0000 C   0  0  0  0  0  0  0  0  0
    7.3305   -0.9428    0.0000 C   0  0  0  0  0  0  0  0  0
    6.7785   -0.3297    0.0000 C   0  0  0  0  0  0  0  0  0
    7.0334    0.4549    0.0000 O   0  0  0  0  0  0  0  0  0
    8.7076   -0.3297    0.0000 C   0  0  0  0  0  0  0  0  0
    9.5145   -0.5012    0.0000 C   0  0  0  0  0  0  0  0  0
    9.7695   -1.2859    0.0000 N   0  0  0  0  0  0  0  0  0
    9.2174   -1.8990    0.0000 C   0  0  0  0  0  0  0  0  0
   10.5764   -1.4574    0.0000 C   0  0  0  0  0  0  0  0  0
    1.5974    2.2212    0.0000 C   0  0  0  0  0  0  0  0  0
    1.3425    1.4365    0.0000 O   0  0  0  0  0  0  0  0  0
    1.8945    0.8235    0.0000 C   0  0  0  0  0  0  0  0  0
  1  2  1  0  0  0  0
  2  3  4  0  0  0  0
  2 31  4  0  0  0  0
  3  4  4  0  0  0  0
  4  5  1  0  0  0  0
  4  6  4  0  0  0  0
  6  7  4  0  0  0  0
  7  8  1  0  0  0  0
  7 31  4  0  0  0  0
  8  9  1  0  0  0  0
  8 13  1  0  0  0  0
  9 10  1  0  0  0  0
 10 11  1  0  0  0  0
 11 12  1  0  0  0  0
 11 14  1  0  0  0  0
 12 13  1  0  0  0  0
 14 15  1  0  0  0  0
 15 16  1  0  0  0  0
 16 17  1  0  0  0  0
 16 24  1  0  0  0  0
 17 18  2  0  0  0  0
 18 19  1  0  0  0  0
 19 20  4  0  0  0  0
 19 23  4  0  0  0  0
 20 21  4  0  0  0  0
 21 22  4  0  0  0  0
 21 29  1  0  0  0  0
 22 23  4  0  0  0  0
 22 26  1  0  0  0  0
 23 24  1  0  0  0  0
 24 25  2  0  0  0  0
 26 27  1  0  0  0  0
 27 28  1  0  0  0  0
 28 29  1  0  0  0  0
 28 30  1  0  0  0  0
 31 32  1  0  0  0  0
 32 33  1  0  0  0  0
M  END
>  <Name_Molregno>
333697

>  <5-HT1A>
7.59

>  <5-HT1B>
8.42

$$$$
333709
  Marvin  02231216192D 0   1.00000     0.00000     0

 35 40  0  0  0  0  0  0  0  0999 V2000
    3.8617   -5.0918    0.0000 S   0  0  0  0  0  0  0  0  0
    4.6822   -5.1781    0.0000 C   0  0  0  0  0  0  0  0  0
    5.0178   -4.4244    0.0000 C   0  0  0  0  0  0  0  0  0
    4.4047   -3.8723    0.0000 C   0  0  0  0  0  0  0  0  0
    3.6902   -4.2848    0.0000 C   0  0  0  0  0  0  0  0  0
    2.9757   -3.8723    0.0000 N   0  0  0  0  0  0  0  0  0
    2.9757   -3.0473    0.0000 C   0  0  0  0  0  0  0  0  0
    3.6902   -2.6348    0.0000 N   0  0  0  0  0  0  0  0  0
    3.6902   -1.8098    0.0000 C   0  0  0  0  0  0  0  0  0
    2.9757   -1.3973    0.0000 C   0  0  0  0  0  0  0  0  0
    2.9757   -0.5723    0.0000 N   0  0  0  0  0  0  0  0  0
    2.2613   -0.1598    0.0000 C   0  0  0  0  0  0  0  0  0
    2.2613    0.6652    0.0000 C   0  0  0  0  0  0  0  0  0
    2.9757    1.0777    0.0000 N   0  0  0  0  0  0  0  0  0
    3.6902    0.6652    0.0000 C   0  0  0  0  0  0  0  0  0
    3.6902   -0.1598    0.0000 C   0  0  0  0  0  0  0  0  0
    2.9757    1.9027    0.0000 C   0  0  0  0  0  0  0  0  0
    3.6902    2.3152    0.0000 C   0  0  0  0  0  0  0  0  0
    3.6902    3.1402    0.0000 C   0  0  0  0  0  0  0  0  0
    2.9757    3.5527    0.0000 C   0  0  0  0  0  0  0  0  0
    2.2613    3.1402    0.0000 C   0  0  0  0  0  0  0  0  0
    2.2613    2.3152    0.0000 C   0  0  0  0  0  0  0  0  0
    1.5468    1.9027    0.0000 O   0  0  0  0  0  0  0  0  0
    0.8323    2.3152    0.0000 C   0  0  0  0  0  0  0  0  0
    4.4047    3.5527    0.0000 C   0  0  0  0  0  0  0  0  0
    5.1191    3.1402    0.0000 C   0  0  0  0  0  0  0  0  0
    5.1191    2.3152    0.0000 C   0  0  0  0  0  0  0  0  0
    4.4047    1.9027    0.0000 C   0  0  0  0  0  0  0  0  0
    4.4047   -3.0473    0.0000 C   0  0  0  0  0  0  0  0  0
    5.1191   -2.6348    0.0000 O   0  0  0  0  0  0  0  0  0
    5.8383   -4.3381    0.0000 C   0  0  0  0  0  0  0  0  0
    6.3232   -5.0056    0.0000 C   0  0  0  0  0  0  0  0  0
    5.9876   -5.7593    0.0000 N   0  0  0  0  0  0  0  0  0
    5.1671   -5.8455    0.0000 C   0  0  0  0  0  0  0  0  0
    6.4725   -6.4267    0.0000 C   0  0  0  0  0  0  0  0  0
  1  2  4  0  0  0  0
  1  5  4  0  0  0  0
  2  3  4  0  0  0  0
  2 34  1  0  0  0  0
  3  4  4  0  0  0  0
  3 31  1  0  0  0  0
  4  5  4  0  0  0  0
  4 29  1  0  0  0  0
  5  6  1  0  0  0  0
  6  7  2  0  0  0  0
  7  8  1  0  0  0  0
  8  9  1  0  0  0  0
  8 29  1  0  0  0  0
  9 10  1  0  0  0  0
 10 11  1  0  0  0  0
 11 12  1  0  0  0  0
 11 16  1  0  0  0  0
 12 13  1  0  0  0  0
 13 14  1  0  0  0  0
 14 15  1  0  0  0  0
 14 17  1  0  0  0  0
 15 16  1  0  0  0  0
 17 18  4  0  0  0  0
 17 22  4  0  0  0  0
 18 19  4  0  0  0  0
 18 28  4  0  0  0  0
 19 20  4  0  0  0  0
 19 25  4  0  0  0  0
 20 21  4  0  0  0  0
 21 22  4  0  0  0  0
 22 23  1  0  0  0  0
 23 24  1  0  0  0  0
 25 26  4  0  0  0  0
 26 27  4  0  0  0  0
 27 28  4  0  0  0  0
 29 30  2  0  0  0  0
 31 32  1  0  0  0  0
 32 33  1  0  0  0  0
 33 34  1  0  0  0  0
 33 35  1  0  0  0  0
M  END
>  <Name_Molregno>
333709

>  <5-HT1A>
7.93

>  <5-HT1B>
8.27

$$$$
333710
  Marvin  02231216192D 0   1.00000     0.00000     0

 33 38  0  0  0  0  0  0  0  0999 V2000
    0.3733   -2.6664    0.0000 S   0  0  0  0  0  0  0  0  0
    0.7089   -3.4200    0.0000 C   0  0  0  0  0  0  0  0  0
    1.5294   -3.3338    0.0000 C   0  0  0  0  0  0  0  0  0
    1.7009   -2.5268    0.0000 C   0  0  0  0  0  0  0  0  0
    0.9864   -2.1143    0.0000 C   0  0  0  0  0  0  0  0  0
    0.9864   -1.2893    0.0000 N   0  0  0  0  0  0  0  0  0
    1.7009   -0.8768    0.0000 C   0  0  0  0  0  0  0  0  0
    2.4154   -1.2893    0.0000 N   0  0  0  0  0  0  0  0  0
    3.1299   -0.8768    0.0000 C   0  0  0  0  0  0  0  0  0
    3.1299   -0.0518    0.0000 C   0  0  0  0  0  0  0  0  0
    3.8443    0.3607    0.0000 N   0  0  0  0  0  0  0  0  0
    3.8443    1.1857    0.0000 C   0  0  0  0  0  0  0  0  0
    4.5588    1.5982    0.0000 C   0  0  0  0  0  0  0  0  0
    5.2733    1.1857    0.0000 N   0  0  0  0  0  0  0  0  0
    5.2733    0.3607    0.0000 C   0  0  0  0  0  0  0  0  0
    4.5588   -0.0518    0.0000 C   0  0  0  0  0  0  0  0  0
    5.9877    1.5982    0.0000 C   0  0  0  0  0  0  0  0  0
    6.7022    1.1857    0.0000 N   0  0  0  0  0  0  0  0  0
    7.4167    1.5982    0.0000 C   0  0  0  0  0  0  0  0  0
    7.4167    2.4232    0.0000 C   0  0  0  0  0  0  0  0  0
    6.7022    2.8357    0.0000 C   0  0  0  0  0  0  0  0  0
    5.9877    2.4232    0.0000 C   0  0  0  0  0  0  0  0  0
    8.1311    2.8357    0.0000 C   0  0  0  0  0  0  0  0  0
    8.8456    2.4232    0.0000 C   0  0  0  0  0  0  0  0  0
    8.8456    1.5982    0.0000 C   0  0  0  0  0  0  0  0  0
    8.1311    1.1857    0.0000 C   0  0  0  0  0  0  0  0  0
    2.4154   -2.1143    0.0000 C   0  0  0  0  0  0  0  0  0
    3.1299   -2.5268    0.0000 O   0  0  0  0  0  0  0  0  0
    2.0143   -4.0012    0.0000 C   0  0  0  0  0  0  0  0  0
    1.6787   -4.7549    0.0000 C   0  0  0  0  0  0  0  0  0
    0.8583   -4.8411    0.0000 N   0  0  0  0  0  0  0  0  0
    0.3733   -4.1737    0.0000 C   0  0  0  0  0  0  0  0  0
    0.5227   -5.5948    0.0000 C   0  0  0  0  0  0  0  0  0
  1  2  4  0  0  0  0
  1  5  4  0  0  0  0
  2  3  4  0  0  0  0
  2 32  1  0  0  0  0
  3  4  4  0  0  0  0
  3 29  1  0  0  0  0
  4  5  4  0  0  0  0
  4 27  1  0  0  0  0
  5  6  1  0  0  0  0
  6  7  2  0  0  0  0
  7  8  1  0  0  0  0
  8  9  1  0  0  0  0
  8 27  1  0  0  0  0
  9 10  1  0  0  0  0
 10 11  1  0  0  0  0
 11 12  1  0  0  0  0
 11 16  1  0  0  0  0
 12 13  1  0  0  0  0
 13 14  1  0  0  0  0
 14 15  1  0  0  0  0
 14 17  1  0  0  0  0
 15 16  1  0  0  0  0
 17 18  4  0  0  0  0
 17 22  4  0  0  0  0
 18 19  4  0  0  0  0
 19 20  4  0  0  0  0
 19 26  4  0  0  0  0
 20 21  4  0  0  0  0
 20 23  4  0  0  0  0
 21 22  4  0  0  0  0
 23 24  4  0  0  0  0
 24 25  4  0  0  0  0
 25 26  4  0  0  0  0
 27 28  2  0  0  0  0
 29 30  1  0  0  0  0
 30 31  1  0  0  0  0
 31 32  1  0  0  0  0
 31 33  1  0  0  0  0
M  END
>  <Name_Molregno>
333710

>  <5-HT1A>
8.04

>  <5-HT1B>
7.44

$$$$
335730
  Marvin  02231216192D 0   1.00000     0.00000     0

 14 15  0  0  1  0  0  0  0  0999 V2000
    0.1624   -1.0405    0.0000 O   0  0  0  0  0  0  0  0  0
   -0.5521   -0.6280    0.0000 C   0  0  0  0  0  0  0  0  0
   -1.2666   -1.0405    0.0000 C   0  0  0  0  0  0  0  0  0
   -1.9811   -0.6280    0.0000 C   0  0  0  0  0  0  0  0  0
   -2.7657   -0.8829    0.0000 N   0  0  0  0  0  0  0  0  0
   -3.2506   -0.2155    0.0000 N   0  0  0  0  0  0  0  0  0
   -2.7657    0.4520    0.0000 C   0  0  0  0  0  0  0  0  0
   -1.9811    0.1970    0.0000 C   0  0  0  0  0  0  0  0  0
   -1.2666    0.6095    0.0000 C   0  0  0  0  0  0  0  0  0
   -0.5521    0.1970    0.0000 C   0  0  0  0  0  0  0  0  0
   -3.0206   -1.6675    0.0000 C   0  0  0  0  0  0  0  0  0
   -3.8276   -1.8391    0.0000 C   0  0  0  0  0  0  0  0  0
   -4.0825   -2.6237    0.0000 N   0  0  0  0  0  0  0  0  0
   -4.3796   -1.2260    0.0000 C   0  0  0  0  0  0  0  0  0
  1  2  1  0  0  0  0
  2  3  4  0  0  0  0
  2 10  4  0  0  0  0
  3  4  4  0  0  0  0
  4  5  4  0  0  0  0
  4  8  4  0  0  0  0
  5  6  4  0  0  0  0
  5 11  1  0  0  0  0
  6  7  4  0  0  0  0
  7  8  4  0  0  0  0
  8  9  4  0  0  0  0
  9 10  4  0  0  0  0
 11 12  1  0  0  0  0
 12 13  1  0  0  0  0
 12 14  1  0  0  0  0
M  END
>  <Name_Molregno>
335730

>  <5-HT1A>
6.85

>  <5-HT1B>
5

>  <5-HT1D>
5.1

>  <5-HT2A>
7.45

>  <5-HT2C>
8

>  <5-HT3>
5

>  <5-HT5>
5

>  <5-HT6>
5

>  <Alpha-1A>
4.52

>  <Alpha-1B>
4.52

>  <Alpha-2A>
5.64

>  <Alpha-2C>
5.33

>  <Norepinephrine transporter>
5

>  <Serotonin transporter>
5

$$$$
341020
  Marvin  02231216192D 0   1.00000     0.00000     0

 26 28  0  0  1  0  0  0  0  0999 V2000
   -3.7395   -1.2429    0.0000 S   0  0  0  0  0  0  0  0  0
   -3.5413   -0.4420    0.0000 O   0  0  0  0  0  0  0  0  0
   -3.9376   -2.0437    0.0000 O   0  0  0  0  0  0  0  0  0
   -2.9386   -1.4410    0.0000 C   0  0  0  0  0  0  0  0  0
   -2.1378   -1.6392    0.0000 C   0  0  0  0  0  0  0  0  0
   -1.5658   -1.0447    0.0000 C   0  0  0  0  0  0  0  0  0
   -0.7649   -1.2429    0.0000 C   0  0  0  0  0  0  0  0  0
   -0.1929   -0.6484    0.0000 N   0  0  0  0  0  0  0  0  0
   -0.4217    0.1442    0.0000 C   0  0  0  0  0  0  0  0  0
    0.1504    0.7387    0.0000 C   0  0  0  0  0  0  0  0  0
    0.9512    0.5405    0.0000 C   0  0  0  0  0  0  0  0  0
    1.1800   -0.2521    0.0000 C   0  0  0  0  0  0  0  0  0
    0.6080   -0.8466    0.0000 C   0  0  0  0  0  0  0  0  0
   -0.0785    1.5313    0.0000 C   0  0  0  0  0  0  0  0  0
   -0.8542    1.8121    0.0000 O   0  0  0  0  0  0  0  0  0
   -0.8269    2.6367    0.0000 C   0  0  0  0  0  0  0  0  0
   -0.0343    2.8655    0.0000 N   0  0  0  0  0  0  0  0  0
    0.4283    2.1824    0.0000 C   0  0  0  0  0  0  0  0  0
   -2.7405   -0.6402    0.0000 C   0  0  0  0  0  0  0  0  0
   -3.1368   -2.2419    0.0000 C   0  0  0  0  0  0  0  0  0
   -4.5403   -1.0447    0.0000 C   0  0  0  0  0  0  0  0  0
   -5.1124   -1.6392    0.0000 C   0  0  0  0  0  0  0  0  0
   -5.9132   -1.4410    0.0000 C   0  0  0  0  0  0  0  0  0
   -6.1420   -0.6484    0.0000 C   0  0  0  0  0  0  0  0  0
   -5.5700   -0.0539    0.0000 C   0  0  0  0  0  0  0  0  0
   -4.7691   -0.2521    0.0000 C   0  0  0  0  0  0  0  0  0
  1  2  2  0  0  0  0
  1  3  2  0  0  0  0
  1  4  1  0  0  0  0
  1 21  1  0  0  0  0
  4  5  1  0  0  0  0
  4 19  1  0  0  0  0
  4 20  1  0  0  0  0
  5  6  1  0  0  0  0
  6  7  1  0  0  0  0
  7  8  1  0  0  0  0
  8  9  1  0  0  0  0
  8 13  1  0  0  0  0
  9 10  1  0  0  0  0
 10 11  1  0  0  0  0
 10 14  1  0  0  0  0
 11 12  1  0  0  0  0
 12 13  1  0  0  0  0
 14 15  4  0  0  0  0
 14 18  4  0  0  0  0
 15 16  4  0  0  0  0
 16 17  4  0  0  0  0
 17 18  4  0  0  0  0
 21 22  4  0  0  0  0
 21 26  4  0  0  0  0
 22 23  4  0  0  0  0
 23 24  4  0  0  0  0
 24 25  4  0  0  0  0
 25 26  4  0  0  0  0
M  END
>  <Name_Molregno>
341020

>  <5-HT1A>
5.15

>  <5-HT1B>
5.3

>  <5-HT2A>
6

>  <5-HT7>
7.82

>  <DOPAMINE D2>
5.82

$$$$
341385
  Marvin  02231216192D 0   1.00000     0.00000     0

 27 29  0  0  1  0  0  0  0  0999 V2000
   -3.9769   -1.3635    0.0000 S   0  0  0  0  0  0  0  0  0
   -3.7787   -0.5626    0.0000 O   0  0  0  0  0  0  0  0  0
   -4.1750   -2.1643    0.0000 O   0  0  0  0  0  0  0  0  0
   -3.1760   -1.5616    0.0000 C   0  0  0  0  0  0  0  0  0
   -2.3752   -1.7598    0.0000 C   0  0  0  0  0  0  0  0  0
   -1.8031   -1.1653    0.0000 C   0  0  0  0  0  0  0  0  0
   -1.0023   -1.3635    0.0000 C   0  0  0  0  0  0  0  0  0
   -0.4302   -0.7690    0.0000 N   0  0  0  0  0  0  0  0  0
   -0.6591    0.0237    0.0000 C   0  0  0  0  0  0  0  0  0
   -0.0870    0.6181    0.0000 C   0  0  0  0  0  0  0  0  0
    0.7138    0.4200    0.0000 C   0  0  0  0  0  0  0  0  0
    0.9426   -0.3727    0.0000 C   0  0  0  0  0  0  0  0  0
    0.3706   -0.9671    0.0000 C   0  0  0  0  0  0  0  0  0
   -0.3158    1.4108    0.0000 C   0  0  0  0  0  0  0  0  0
   -1.1167    1.6089    0.0000 C   0  0  0  0  0  0  0  0  0
   -1.3455    2.4016    0.0000 C   0  0  0  0  0  0  0  0  0
   -0.7735    2.9960    0.0000 C   0  0  0  0  0  0  0  0  0
    0.0274    2.7979    0.0000 C   0  0  0  0  0  0  0  0  0
    0.2562    2.0052    0.0000 C   0  0  0  0  0  0  0  0  0
   -2.9778   -0.7608    0.0000 C   0  0  0  0  0  0  0  0  0
   -3.3742   -2.3625    0.0000 C   0  0  0  0  0  0  0  0  0
   -4.7777   -1.1653    0.0000 C   0  0  0  0  0  0  0  0  0
   -5.3497   -1.7598    0.0000 C   0  0  0  0  0  0  0  0  0
   -6.1506   -1.5616    0.0000 C   0  0  0  0  0  0  0  0  0
   -6.3794   -0.7690    0.0000 C   0  0  0  0  0  0  0  0  0
   -5.8074   -0.1745    0.0000 C   0  0  0  0  0  0  0  0  0
   -5.0065   -0.3727    0.0000 C   0  0  0  0  0  0  0  0  0
  1  2  2  0  0  0  0
  1  3  2  0  0  0  0
  1  4  1  0  0  0  0
  1 22  1  0  0  0  0
  4  5  1  0  0  0  0
  4 20  1  0  0  0  0
  4 21  1  0  0  0  0
  5  6  1  0  0  0  0
  6  7  1  0  0  0  0
  7  8  1  0  0  0  0
  8  9  1  0  0  0  0
  8 13  1  0  0  0  0
  9 10  1  0  0  0  0
 10 11  1  0  0  0  0
 10 14  1  0  0  0  0
 11 12  1  0  0  0  0
 12 13  1  0  0  0  0
 14 15  4  0  0  0  0
 14 19  4  0  0  0  0
 15 16  4  0  0  0  0
 16 17  4  0  0  0  0
 17 18  4  0  0  0  0
 18 19  4  0  0  0  0
 22 23  4  0  0  0  0
 22 27  4  0  0  0  0
 23 24  4  0  0  0  0
 24 25  4  0  0  0  0
 25 26  4  0  0  0  0
 26 27  4  0  0  0  0
M  END
>  <Name_Molregno>
341385

>  <5-HT1A>
6.4

>  <5-HT1B>
5.11

>  <5-HT2A>
5.74

>  <5-HT7>
8.15

>  <DOPAMINE D2>
6.66

$$$$
341446
  Marvin  02231216192D 0   1.00000     0.00000     0

 25 26  0  0  1  0  0  0  0  0999 V2000
   -3.4458   -1.1233    0.0000 S   0  0  0  0  0  0  0  0  0
   -3.2476   -0.3224    0.0000 O   0  0  0  0  0  0  0  0  0
   -3.6439   -1.9241    0.0000 O   0  0  0  0  0  0  0  0  0
   -2.6449   -1.3214    0.0000 C   0  0  0  0  0  0  0  0  0
   -1.8441   -1.5196    0.0000 C   0  0  0  0  0  0  0  0  0
   -1.2721   -0.9251    0.0000 C   0  0  0  0  0  0  0  0  0
   -0.4712   -1.1233    0.0000 C   0  0  0  0  0  0  0  0  0
    0.1008   -0.5288    0.0000 N   0  0  0  0  0  0  0  0  0
   -0.1280    0.2638    0.0000 C   0  0  0  0  0  0  0  0  0
    0.4441    0.8583    0.0000 C   0  0  0  0  0  0  0  0  0
    1.2449    0.6601    0.0000 C   0  0  0  0  0  0  0  0  0
    1.4737   -0.1325    0.0000 C   0  0  0  0  0  0  0  0  0
    0.9017   -0.7270    0.0000 C   0  0  0  0  0  0  0  0  0
    0.2152    1.6509    0.0000 C   0  0  0  0  0  0  0  0  0
   -0.0136    2.4436    0.0000 F   0  0  0  0  0  0  0  0  0
   -0.5774    1.4221    0.0000 F   0  0  0  0  0  0  0  0  0
    1.0079    1.8797    0.0000 F   0  0  0  0  0  0  0  0  0
   -2.4468   -0.5206    0.0000 C   0  0  0  0  0  0  0  0  0
   -2.8431   -2.1223    0.0000 C   0  0  0  0  0  0  0  0  0
   -4.2466   -0.9251    0.0000 C   0  0  0  0  0  0  0  0  0
   -4.8187   -1.5196    0.0000 C   0  0  0  0  0  0  0  0  0
   -5.6195   -1.3214    0.0000 C   0  0  0  0  0  0  0  0  0
   -5.8483   -0.5288    0.0000 C   0  0  0  0  0  0  0  0  0
   -5.2763    0.0657    0.0000 C   0  0  0  0  0  0  0  0  0
   -4.4754   -0.1325    0.0000 C   0  0  0  0  0  0  0  0  0
  1  2  2  0  0  0  0
  1  3  2  0  0  0  0
  1  4  1  0  0  0  0
  1 20  1  0  0  0  0
  4  5  1  0  0  0  0
  4 18  1  0  0  0  0
  4 19  1  0  0  0  0
  5  6  1  0  0  0  0
  6  7  1  0  0  0  0
  7  8  1  0  0  0  0
  8  9  1  0  0  0  0
  8 13  1  0  0  0  0
  9 10  1  0  0  0  0
 10 11  1  0  0  0  0
 10 14  1  0  0  0  0
 11 12  1  0  0  0  0
 12 13  1  0  0  0  0
 14 15  1  0  0  0  0
 14 16  1  0  0  0  0
 14 17  1  0  0  0  0
 20 21  4  0  0  0  0
 20 25  4  0  0  0  0
 21 22  4  0  0  0  0
 22 23  4  0  0  0  0
 23 24  4  0  0  0  0
 24 25  4  0  0  0  0
M  END
>  <Name_Molregno>
341446

>  <5-HT1A>
5.15

>  <5-HT1B>
5.15

>  <5-HT2A>
5.7

>  <5-HT7>
7.27

>  <DOPAMINE D2>
6

$$$$
341469
  Marvin  02231216192D 0   1.00000     0.00000     0

 26 27  0  0  1  0  0  0  0  0999 V2000
    0.2162    0.0185    0.0000 S   0  0  0  0  0  0  0  0  0
   -0.3239    0.6422    0.0000 O   0  0  0  0  0  0  0  0  0
    0.7563   -0.6051    0.0000 O   0  0  0  0  0  0  0  0  0
    0.8399    0.5586    0.0000 C   0  0  0  0  0  0  0  0  0
    1.4635    1.0987    0.0000 C   0  0  0  0  0  0  0  0  0
    2.2431    0.8287    0.0000 C   0  0  0  0  0  0  0  0  0
    2.3990    0.0185    0.0000 C   0  0  0  0  0  0  0  0  0
    3.1785   -0.2515    0.0000 N   0  0  0  0  0  0  0  0  0
    3.8022    0.2886    0.0000 C   0  0  0  0  0  0  0  0  0
    4.5817    0.0185    0.0000 C   0  0  0  0  0  0  0  0  0
    4.7376   -0.7916    0.0000 C   0  0  0  0  0  0  0  0  0
    4.1140   -1.3317    0.0000 C   0  0  0  0  0  0  0  0  0
    3.3344   -1.0616    0.0000 C   0  0  0  0  0  0  0  0  0
    5.2054    0.5586    0.0000 C   0  0  0  0  0  0  0  0  0
    5.9849    0.2886    0.0000 O   0  0  0  0  0  0  0  0  0
    6.6086    0.8287    0.0000 C   0  0  0  0  0  0  0  0  0
    7.3881    0.5586    0.0000 C   0  0  0  0  0  0  0  0  0
    5.0494    1.3688    0.0000 O   0  0  0  0  0  0  0  0  0
    0.2998    1.1823    0.0000 C   0  0  0  0  0  0  0  0  0
    1.3800   -0.0650    0.0000 C   0  0  0  0  0  0  0  0  0
   -0.4074   -0.5215    0.0000 C   0  0  0  0  0  0  0  0  0
   -0.2515   -1.3317    0.0000 C   0  0  0  0  0  0  0  0  0
   -0.8751   -1.8718    0.0000 C   0  0  0  0  0  0  0  0  0
   -1.6547   -1.6017    0.0000 C   0  0  0  0  0  0  0  0  0
   -1.8106   -0.7916    0.0000 C   0  0  0  0  0  0  0  0  0
   -1.1870   -0.2515    0.0000 C   0  0  0  0  0  0  0  0  0
  1  2  2  0  0  0  0
  1  3  2  0  0  0  0
  1  4  1  0  0  0  0
  1 21  1  0  0  0  0
  4  5  1  0  0  0  0
  4 19  1  0  0  0  0
  4 20  1  0  0  0  0
  5  6  1  0  0  0  0
  6  7  1  0  0  0  0
  7  8  1  0  0  0  0
  8  9  1  0  0  0  0
  8 13  1  0  0  0  0
  9 10  1  0  0  0  0
 10 11  1  0  0  0  0
 10 14  1  0  0  0  0
 11 12  1  0  0  0  0
 12 13  1  0  0  0  0
 14 15  1  0  0  0  0
 14 18  2  0  0  0  0
 15 16  1  0  0  0  0
 16 17  1  0  0  0  0
 21 22  4  0  0  0  0
 21 26  4  0  0  0  0
 22 23  4  0  0  0  0
 23 24  4  0  0  0  0
 24 25  4  0  0  0  0
 25 26  4  0  0  0  0
M  END
>  <Name_Molregno>
341469

>  <5-HT1A>
5.62

>  <5-HT1B>
5.15

>  <5-HT2A>
5.73

>  <5-HT7>
6.98

>  <DOPAMINE D2>
6.15

$$$$
341518
  Marvin  02231216192D 0   1.00000     0.00000     0

 25 27  0  0  1  0  0  0  0  0999 V2000
   -3.8526   -0.6700    0.0000 S   0  0  0  0  0  0  0  0  0
   -3.6545    0.1308    0.0000 O   0  0  0  0  0  0  0  0  0
   -4.0508   -1.4709    0.0000 O   0  0  0  0  0  0  0  0  0
   -3.0518   -0.8682    0.0000 C   0  0  0  0  0  0  0  0  0
   -2.2509   -1.0663    0.0000 C   0  0  0  0  0  0  0  0  0
   -1.6789   -0.4719    0.0000 C   0  0  0  0  0  0  0  0  0
   -0.8780   -0.6700    0.0000 C   0  0  0  0  0  0  0  0  0
   -0.3060   -0.0756    0.0000 N   0  0  0  0  0  0  0  0  0
    0.4948   -0.2737    0.0000 C   0  0  0  0  0  0  0  0  0
    1.0669    0.3208    0.0000 C   0  0  0  0  0  0  0  0  0
    0.8381    1.1134    0.0000 C   0  0  0  0  0  0  0  0  0
    1.4101    1.7079    0.0000 C   0  0  0  0  0  0  0  0  0
    2.2109    1.5097    0.0000 C   0  0  0  0  0  0  0  0  0
    2.4398    0.7171    0.0000 C   0  0  0  0  0  0  0  0  0
    1.8677    0.1226    0.0000 C   0  0  0  0  0  0  0  0  0
    0.0372    1.3116    0.0000 C   0  0  0  0  0  0  0  0  0
   -0.5348    0.7171    0.0000 C   0  0  0  0  0  0  0  0  0
   -2.8536   -0.0673    0.0000 C   0  0  0  0  0  0  0  0  0
   -3.2499   -1.6690    0.0000 C   0  0  0  0  0  0  0  0  0
   -4.6535   -0.4719    0.0000 C   0  0  0  0  0  0  0  0  0
   -5.2255   -1.0663    0.0000 C   0  0  0  0  0  0  0  0  0
   -6.0263   -0.8682    0.0000 C   0  0  0  0  0  0  0  0  0
   -6.2552   -0.0756    0.0000 C   0  0  0  0  0  0  0  0  0
   -5.6831    0.5189    0.0000 C   0  0  0  0  0  0  0  0  0
   -4.8823    0.3208    0.0000 C   0  0  0  0  0  0  0  0  0
  1  2  2  0  0  0  0
  1  3  2  0  0  0  0
  1  4  1  0  0  0  0
  1 20  1  0  0  0  0
  4  5  1  0  0  0  0
  4 18  1  0  0  0  0
  4 19  1  0  0  0  0
  5  6  1  0  0  0  0
  6  7  1  0  0  0  0
  7  8  1  0  0  0  0
  8  9  1  0  0  0  0
  8 17  1  0  0  0  0
  9 10  1  0  0  0  0
 10 11  1  0  0  0  0
 10 15  1  0  0  0  0
 11 12  1  0  0  0  0
 11 16  1  0  0  0  0
 12 13  1  0  0  0  0
 13 14  1  0  0  0  0
 14 15  1  0  0  0  0
 16 17  1  0  0  0  0
 20 21  4  0  0  0  0
 20 25  4  0  0  0  0
 21 22  4  0  0  0  0
 22 23  4  0  0  0  0
 23 24  4  0  0  0  0
 24 25  4  0  0  0  0
M  END
>  <Name_Molregno>
341518

>  <5-HT1A>
5.82

>  <5-HT1B>
5.15

>  <5-HT2A>
5.7

>  <5-HT7>
8.1

>  <DOPAMINE D2>
6.05

$$$$
342514
  Marvin  02231216192D 0   1.00000     0.00000     0

 20 23  0  0  1  0  0  0  0  0999 V2000
   -3.9747   -0.6378    0.0000 O   0  0  0  0  0  0  0  0  0
   -4.5268   -1.2508    0.0000 C   0  0  0  0  0  0  0  0  0
   -5.3338   -1.0793    0.0000 C   0  0  0  0  0  0  0  0  0
   -6.1184   -1.3343    0.0000 C   0  0  0  0  0  0  0  0  0
   -5.9468   -0.5273    0.0000 C   0  0  0  0  0  0  0  0  0
   -3.1678   -0.8093    0.0000 C   0  0  0  0  0  0  0  0  0
   -2.6157   -0.1962    0.0000 C   0  0  0  0  0  0  0  0  0
   -1.8088   -0.3677    0.0000 N   0  0  0  0  0  0  0  0  0
   -1.2567    0.2454    0.0000 C   0  0  0  0  0  0  0  0  0
   -0.4317    0.2454    0.0000 N   0  0  0  0  0  0  0  0  0
   -0.1768    1.0300    0.0000 C   0  0  0  0  0  0  0  0  0
   -0.8442    1.5149    0.0000 C   0  0  0  0  0  0  0  0  0
   -1.5117    1.0300    0.0000 C   0  0  0  0  0  0  0  0  0
   -2.3187    1.2015    0.0000 C   0  0  0  0  0  0  0  0  0
   -2.8707    0.5884    0.0000 C   0  0  0  0  0  0  0  0  0
    0.6302    1.2015    0.0000 C   0  0  0  0  0  0  0  0  0
    1.1822    0.5884    0.0000 N   0  0  0  0  0  0  0  0  0
    0.9273   -0.1962    0.0000 C   0  0  0  0  0  0  0  0  0
    0.1203   -0.3677    0.0000 C   0  0  0  0  0  0  0  0  0
   -0.1346   -1.1523    0.0000 C   0  0  0  0  0  0  0  0  0
  1  2  1  0  0  0  0
  1  6  1  0  0  0  0
  2  3  1  0  0  0  0
  3  4  1  0  0  0  0
  3  5  1  0  0  0  0
  4  5  1  0  0  0  0
  6  7  1  0  0  0  0
  7  8  4  0  0  0  0
  7 15  4  0  0  0  0
  8  9  4  0  0  0  0
  9 10  1  0  0  0  0
  9 13  4  0  0  0  0
 10 11  1  0  0  0  0
 10 19  1  0  0  0  0
 11 12  1  0  0  0  0
 11 16  1  0  0  0  0
 12 13  1  0  0  0  0
 13 14  4  0  0  0  0
 14 15  4  0  0  0  0
 16 17  1  0  0  0  0
 17 18  1  0  0  0  0
 18 19  1  0  0  0  0
 19 20  1  0  0  0  0
M  END
>  <Name_Molregno>
342514

>  <5-HT1A>
6.14

>  <5-HT1B>
6.14

>  <5-HT1D>
6.44

>  <5-HT2A>
7.13

>  <5-HT2C>
8.44

>  <5-HT3>
6

>  <5-HT5>
6.14

>  <5-HT6>
6.14

>  <5-HT7>
6

>  <Beta-1>
6

>  <DOPAMINE D4>
6.14

>  <Dopamine transporter>
6

>  <Norepinephrine transporter>
6

>  <Serotonin transporter>
6

$$$$
344371
  Marvin  02231216192D 0   1.00000     0.00000     0

 27 29  0  0  0  0  0  0  0  0999 V2000
   -8.3424    3.5017    0.0000 O   0  0  0  0  0  0  0  0  0
   -9.0569    3.9142    0.0000 C   0  0  0  0  0  0  0  0  0
   -8.3424    2.6767    0.0000 C   0  0  0  0  0  0  0  0  0
   -7.6279    2.2642    0.0000 C   0  0  0  0  0  0  0  0  0
   -7.6279    1.4392    0.0000 C   0  0  0  0  0  0  0  0  0
   -6.9134    1.0267    0.0000 N   0  0  0  0  0  0  0  0  0
   -6.1990    1.4392    0.0000 C   0  0  0  0  0  0  0  0  0
   -5.4845    1.0267    0.0000 C   0  0  0  0  0  0  0  0  0
   -5.4845    0.2017    0.0000 N   0  0  0  0  0  0  0  0  0
   -6.1990   -0.2108    0.0000 C   0  0  0  0  0  0  0  0  0
   -6.9134    0.2017    0.0000 C   0  0  0  0  0  0  0  0  0
   -4.7700   -0.2108    0.0000 C   0  0  0  0  0  0  0  0  0
   -4.0556    0.2017    0.0000 C   0  0  0  0  0  0  0  0  0
   -3.3411   -0.2108    0.0000 C   0  0  0  0  0  0  0  0  0
   -2.6266    0.2017    0.0000 C   0  0  0  0  0  0  0  0  0
   -1.9121   -0.2108    0.0000 N   0  0  0  0  0  0  0  0  0
   -1.1977    0.2017    0.0000 N   0  0  0  0  0  0  0  0  0
   -0.4832   -0.2108    0.0000 C   0  0  0  0  0  0  0  0  0
   -0.4832   -1.0358    0.0000 C   0  0  0  0  0  0  0  0  0
    0.2313   -1.4483    0.0000 O   0  0  0  0  0  0  0  0  0
   -1.1977   -1.4483    0.0000 N   0  0  0  0  0  0  0  0  0
   -1.1977   -2.2733    0.0000 C   0  0  0  0  0  0  0  0  0
   -1.9121   -1.0358    0.0000 C   0  0  0  0  0  0  0  0  0
   -2.6266   -1.4483    0.0000 O   0  0  0  0  0  0  0  0  0
   -8.3424    1.0267    0.0000 C   0  0  0  0  0  0  0  0  0
   -9.0569    1.4392    0.0000 C   0  0  0  0  0  0  0  0  0
   -9.0569    2.2642    0.0000 C   0  0  0  0  0  0  0  0  0
  1  2  1  0  0  0  0
  1  3  1  0  0  0  0
  3  4  4  0  0  0  0
  3 27  4  0  0  0  0
  4  5  4  0  0  0  0
  5  6  1  0  0  0  0
  5 25  4  0  0  0  0
  6  7  1  0  0  0  0
  6 11  1  0  0  0  0
  7  8  1  0  0  0  0
  8  9  1  0  0  0  0
  9 10  1  0  0  0  0
  9 12  1  0  0  0  0
 10 11  1  0  0  0  0
 12 13  1  0  0  0  0
 13 14  1  0  0  0  0
 14 15  1  0  0  0  0
 15 16  1  0  0  0  0
 16 17  1  0  0  0  0
 16 23  1  0  0  0  0
 17 18  2  0  0  0  0
 18 19  1  0  0  0  0
 19 20  2  0  0  0  0
 19 21  1  0  0  0  0
 21 22  1  0  0  0  0
 21 23  1  0  0  0  0
 23 24  2  0  0  0  0
 25 26  4  0  0  0  0
 26 27  4  0  0  0  0
M  END
>  <Name_Molregno>
344371

>  <5-HT1A>
8.96

>  <5-HT1B>
6.64

>  <5-HT1E>
5

>  <5-HT2A>
5.68

>  <5-HT3>
5

>  <5-HT5>
5

>  <5-HT6>
5

>  <5-HT7>
6.48

>  <Alpha-1A>
6.38

>  <Alpha-1B>
6.42

>  <Alpha-2A>
6.6

>  <Alpha-2C>
6.96

>  <DOPAMINE D2>
5.59

>  <DOPAMINE D3>
5

>  <DOPAMINE D4>
5

>  <DOPAMINE D5>
5

>  <Dopamine transporter>
5

>  <HISTAMINE H1>
6.08

>  <HISTAMINE H2>
5.67

>  <HISTAMINE H3>
5

>  <HISTAMINE H4>
5

>  <Norepinephrine transporter>
5

>  <Serotonin transporter>
5

$$$$
354026
  Marvin  02231216192D 0   1.00000     0.00000     0

 31 34  0  0  0  0  0  0  0  0999 V2000
    5.2194    1.3362    0.0000 Cl  0  0  0  0  0  0  0  0  0
    4.5049    0.9237    0.0000 C   0  0  0  0  0  0  0  0  0
    4.5049    0.0987    0.0000 C   0  0  0  0  0  0  0  0  0
    3.7904   -0.3138    0.0000 C   0  0  0  0  0  0  0  0  0
    3.0759    0.0987    0.0000 C   0  0  0  0  0  0  0  0  0
    3.0759    0.9237    0.0000 C   0  0  0  0  0  0  0  0  0
    3.7904    1.3362    0.0000 C   0  0  0  0  0  0  0  0  0
    3.7904    2.1612    0.0000 Cl  0  0  0  0  0  0  0  0  0
    3.7904   -1.1388    0.0000 C   0  0  0  0  0  0  0  0  0
    4.4578   -1.6237    0.0000 C   0  0  0  0  0  0  0  0  0
    4.2029   -2.4084    0.0000 C   0  0  0  0  0  0  0  0  0
    3.3779   -2.4084    0.0000 N   0  0  0  0  0  0  0  0  0
    3.1230   -1.6237    0.0000 C   0  0  0  0  0  0  0  0  0
    2.3383   -1.3688    0.0000 O   0  0  0  0  0  0  0  0  0
    2.8930   -3.0758    0.0000 C   0  0  0  0  0  0  0  0  0
    3.2285   -3.8295    0.0000 C   0  0  0  0  0  0  0  0  0
    2.7436   -4.4969    0.0000 C   0  0  0  0  0  0  0  0  0
    3.0792   -5.2506    0.0000 O   0  0  0  0  0  0  0  0  0
    2.5943   -5.9180    0.0000 C   0  0  0  0  0  0  0  0  0
    2.9298   -6.6717    0.0000 C   0  0  0  0  0  0  0  0  0
    2.4449   -7.3391    0.0000 N   0  0  0  0  0  0  0  0  0
    2.7804   -8.0928    0.0000 C   0  0  0  0  0  0  0  0  0
    2.2955   -8.7602    0.0000 C   0  0  0  0  0  0  0  0  0
    1.4750   -8.6740    0.0000 C   0  0  0  0  0  0  0  0  0
    1.1395   -7.9203    0.0000 C   0  0  0  0  0  0  0  0  0
    1.6244   -7.2529    0.0000 C   0  0  0  0  0  0  0  0  0
    1.9231   -4.4107    0.0000 C   0  0  0  0  0  0  0  0  0
    1.4382   -5.0781    0.0000 O   0  0  0  0  0  0  0  0  0
    0.6177   -4.9919    0.0000 C   0  0  0  0  0  0  0  0  0
    1.5876   -3.6570    0.0000 C   0  0  0  0  0  0  0  0  0
    2.0725   -2.9896    0.0000 C   0  0  0  0  0  0  0  0  0
  1  2  1  0  0  0  0
  2  3  4  0  0  0  0
  2  7  4  0  0  0  0
  3  4  4  0  0  0  0
  4  5  4  0  0  0  0
  4  9  1  0  0  0  0
  5  6  4  0  0  0  0
  6  7  4  0  0  0  0
  7  8  1  0  0  0  0
  9 10  2  0  0  0  0
  9 13  1  0  0  0  0
 10 11  1  0  0  0  0
 11 12  1  0  0  0  0
 12 13  1  0  0  0  0
 12 15  1  0  0  0  0
 13 14  2  0  0  0  0
 15 16  4  0  0  0  0
 15 31  4  0  0  0  0
 16 17  4  0  0  0  0
 17 18  1  0  0  0  0
 17 27  4  0  0  0  0
 18 19  1  0  0  0  0
 19 20  1  0  0  0  0
 20 21  1  0  0  0  0
 21 22  1  0  0  0  0
 21 26  1  0  0  0  0
 22 23  1  0  0  0  0
 23 24  1  0  0  0  0
 24 25  1  0  0  0  0
 25 26  1  0  0  0  0
 27 28  1  0  0  0  0
 27 30  4  0  0  0  0
 28 29  1  0  0  0  0
 30 31  4  0  0  0  0
M  END
>  <Name_Molregno>
354026

>  <5-HT1A>
5.5

>  <5-HT1B>
5.5

>  <5-HT1D>
5.5

>  <5-HT2A>
6.2

>  <5-HT2C>
9.1

>  <5-HT6>
5.5

>  <5-HT7>
5.5

>  <Alpha-1A>
5.74

>  <Alpha-1B>
5.74

>  <DOPAMINE D3>
6.34

$$$$
376249
  Marvin  02231216192D 0   1.00000     0.00000     0

 36 39  0  0  0  0  0  0  0  0999 V2000
   -6.9443   -7.0482    0.0000 O   0  0  0  0  0  0  0  0  0
   -7.6588   -6.6357    0.0000 C   0  0  0  0  0  0  0  0  0
   -7.6588   -5.8107    0.0000 C   0  0  0  0  0  0  0  0  0
   -6.9443   -5.3982    0.0000 N   0  0  0  0  0  0  0  0  0
   -6.2298   -5.8107    0.0000 C   0  0  0  0  0  0  0  0  0
   -6.2298   -6.6357    0.0000 C   0  0  0  0  0  0  0  0  0
   -6.9443   -4.5732    0.0000 C   0  0  0  0  0  0  0  0  0
   -7.6588   -4.1607    0.0000 C   0  0  0  0  0  0  0  0  0
   -7.6588   -3.3357    0.0000 C   0  0  0  0  0  0  0  0  0
   -6.9443   -2.9232    0.0000 C   0  0  0  0  0  0  0  0  0
   -6.9443   -2.0982    0.0000 N   0  0  0  0  0  0  0  0  0
   -6.2298   -1.6857    0.0000 C   0  0  0  0  0  0  0  0  0
   -5.5154   -2.0982    0.0000 O   0  0  0  0  0  0  0  0  0
   -6.2298   -0.8607    0.0000 C   0  0  0  0  0  0  0  0  0
   -5.5154   -0.4482    0.0000 N   0  0  0  0  0  0  0  0  0
   -5.5154    0.3768    0.0000 C   0  0  0  0  0  0  0  0  0
   -6.2298    0.7893    0.0000 C   0  0  0  0  0  0  0  0  0
   -6.2298    1.6143    0.0000 C   0  0  0  0  0  0  0  0  0
   -5.5154    2.0268    0.0000 C   0  0  0  0  0  0  0  0  0
   -5.5154    2.8518    0.0000 O   0  0  0  0  0  0  0  0  0
   -4.8009    3.2643    0.0000 C   0  0  0  0  0  0  0  0  0
   -4.8009    1.6143    0.0000 C   0  0  0  0  0  0  0  0  0
   -4.8009    0.7893    0.0000 C   0  0  0  0  0  0  0  0  0
   -4.0864    0.3768    0.0000 N   0  0  0  0  0  0  0  0  0
   -3.3720    0.7893    0.0000 C   0  0  0  0  0  0  0  0  0
   -2.6575    0.3768    0.0000 C   0  0  0  0  0  0  0  0  0
   -1.9430    0.7893    0.0000 C   0  0  0  0  0  0  0  0  0
   -1.2285    0.3768    0.0000 N   0  0  0  0  0  0  0  0  0
   -0.5141    0.7893    0.0000 C   0  0  0  0  0  0  0  0  0
   -1.2285   -0.4482    0.0000 C   0  0  0  0  0  0  0  0  0
   -4.0864   -0.4482    0.0000 C   0  0  0  0  0  0  0  0  0
   -6.9443    0.3768    0.0000 C   0  0  0  0  0  0  0  0  0
   -7.6588    0.7893    0.0000 O   0  0  0  0  0  0  0  0  0
   -6.9443   -0.4482    0.0000 C   0  0  0  0  0  0  0  0  0
   -6.2298   -3.3357    0.0000 C   0  0  0  0  0  0  0  0  0
   -6.2298   -4.1607    0.0000 C   0  0  0  0  0  0  0  0  0
  1  2  1  0  0  0  0
  1  6  1  0  0  0  0
  2  3  1  0  0  0  0
  3  4  1  0  0  0  0
  4  5  1  0  0  0  0
  4  7  1  0  0  0  0
  5  6  1  0  0  0  0
  7  8  4  0  0  0  0
  7 36  4  0  0  0  0
  8  9  4  0  0  0  0
  9 10  4  0  0  0  0
 10 11  1  0  0  0  0
 10 35  4  0  0  0  0
 11 12  1  0  0  0  0
 12 13  2  0  0  0  0
 12 14  1  0  0  0  0
 14 15  1  0  0  0  0
 14 34  2  0  0  0  0
 15 16  1  0  0  0  0
 16 17  4  0  0  0  0
 16 23  4  0  0  0  0
 17 18  4  0  0  0  0
 17 32  1  0  0  0  0
 18 19  4  0  0  0  0
 19 20  1  0  0  0  0
 19 22  4  0  0  0  0
 20 21  1  0  0  0  0
 22 23  4  0  0  0  0
 23 24  1  0  0  0  0
 24 25  1  0  0  0  0
 24 31  1  0  0  0  0
 25 26  1  0  0  0  0
 26 27  1  0  0  0  0
 27 28  1  0  0  0  0
 28 29  1  0  0  0  0
 28 30  1  0  0  0  0
 32 33  2  0  0  0  0
 32 34  1  0  0  0  0
 35 36  4  0  0  0  0
M  END
>  <Name_Molregno>
376249

>  <5-HT1B>
6.53

$$$$
376250
  Marvin  02231216192D 0   1.00000     0.00000     0

 35 39  0  0  0  0  0  0  0  0999 V2000
   -0.0042   -2.8250    0.0000 O   0  0  0  0  0  0  0  0  0
   -0.0042   -2.0000    0.0000 C   0  0  0  0  0  0  0  0  0
    0.7103   -1.5875    0.0000 C   0  0  0  0  0  0  0  0  0
    1.4248   -2.0000    0.0000 N   0  0  0  0  0  0  0  0  0
    1.4248   -2.8250    0.0000 C   0  0  0  0  0  0  0  0  0
    0.7103   -3.2375    0.0000 C   0  0  0  0  0  0  0  0  0
    2.1393   -1.5875    0.0000 C   0  0  0  0  0  0  0  0  0
    2.1393   -0.7625    0.0000 C   0  0  0  0  0  0  0  0  0
    2.8537   -0.3500    0.0000 C   0  0  0  0  0  0  0  0  0
    3.5682   -0.7625    0.0000 C   0  0  0  0  0  0  0  0  0
    4.2827   -0.3500    0.0000 N   0  0  0  0  0  0  0  0  0
    4.9971   -0.7625    0.0000 C   0  0  0  0  0  0  0  0  0
    4.9971   -1.5875    0.0000 O   0  0  0  0  0  0  0  0  0
    5.7116   -0.3500    0.0000 C   0  0  0  0  0  0  0  0  0
    6.4261   -0.7625    0.0000 N   0  0  0  0  0  0  0  0  0
    7.1406   -0.3500    0.0000 C   0  0  0  0  0  0  0  0  0
    7.1406    0.4750    0.0000 C   0  0  0  0  0  0  0  0  0
    7.8550    0.8875    0.0000 C   0  0  0  0  0  0  0  0  0
    8.5695    0.4750    0.0000 C   0  0  0  0  0  0  0  0  0
    9.2840    0.8875    0.0000 O   0  0  0  0  0  0  0  0  0
    9.9984    0.4750    0.0000 C   0  0  0  0  0  0  0  0  0
    8.5695   -0.3500    0.0000 C   0  0  0  0  0  0  0  0  0
    7.8550   -0.7625    0.0000 C   0  0  0  0  0  0  0  0  0
    7.8550   -1.5875    0.0000 N   0  0  0  0  0  0  0  0  0
    8.5695   -2.0000    0.0000 C   0  0  0  0  0  0  0  0  0
    8.5695   -2.8250    0.0000 C   0  0  0  0  0  0  0  0  0
    7.8550   -3.2375    0.0000 N   0  0  0  0  0  0  0  0  0
    7.1406   -2.8250    0.0000 C   0  0  0  0  0  0  0  0  0
    7.1406   -2.0000    0.0000 C   0  0  0  0  0  0  0  0  0
    7.8550   -4.0625    0.0000 C   0  0  0  0  0  0  0  0  0
    6.4261    0.8875    0.0000 C   0  0  0  0  0  0  0  0  0
    6.4261    1.7125    0.0000 O   0  0  0  0  0  0  0  0  0
    5.7116    0.4750    0.0000 C   0  0  0  0  0  0  0  0  0
    3.5682   -1.5875    0.0000 C   0  0  0  0  0  0  0  0  0
    2.8537   -2.0000    0.0000 C   0  0  0  0  0  0  0  0  0
  1  2  1  0  0  0  0
  1  6  1  0  0  0  0
  2  3  1  0  0  0  0
  3  4  1  0  0  0  0
  4  5  1  0  0  0  0
  4  7  1  0  0  0  0
  5  6  1  0  0  0  0
  7  8  4  0  0  0  0
  7 35  4  0  0  0  0
  8  9  4  0  0  0  0
  9 10  4  0  0  0  0
 10 11  1  0  0  0  0
 10 34  4  0  0  0  0
 11 12  1  0  0  0  0
 12 13  2  0  0  0  0
 12 14  1  0  0  0  0
 14 15  1  0  0  0  0
 14 33  2  0  0  0  0
 15 16  1  0  0  0  0
 16 17  4  0  0  0  0
 16 23  4  0  0  0  0
 17 18  4  0  0  0  0
 17 31  1  0  0  0  0
 18 19  4  0  0  0  0
 19 20  1  0  0  0  0
 19 22  4  0  0  0  0
 20 21  1  0  0  0  0
 22 23  4  0  0  0  0
 23 24  1  0  0  0  0
 24 25  1  0  0  0  0
 24 29  1  0  0  0  0
 25 26  1  0  0  0  0
 26 27  1  0  0  0  0
 27 28  1  0  0  0  0
 27 30  1  0  0  0  0
 28 29  1  0  0  0  0
 31 32  2  0  0  0  0
 31 33  1  0  0  0  0
 34 35  4  0  0  0  0
M  END
>  <Name_Molregno>
376250

>  <5-HT1B>
8.46

$$$$
376258
  Marvin  02231216192D 0   1.00000     0.00000     0

 35 38  0  0  0  0  0  0  0  0999 V2000
  -10.8727   -2.8978    0.0000 O   0  0  0  0  0  0  0  0  0
  -10.8727   -2.0728    0.0000 C   0  0  0  0  0  0  0  0  0
  -10.1582   -1.6603    0.0000 C   0  0  0  0  0  0  0  0  0
   -9.4438   -2.0728    0.0000 N   0  0  0  0  0  0  0  0  0
   -9.4438   -2.8978    0.0000 C   0  0  0  0  0  0  0  0  0
  -10.1582   -3.3103    0.0000 C   0  0  0  0  0  0  0  0  0
   -8.7293   -1.6603    0.0000 C   0  0  0  0  0  0  0  0  0
   -8.7293   -0.8353    0.0000 C   0  0  0  0  0  0  0  0  0
   -8.0148   -0.4228    0.0000 C   0  0  0  0  0  0  0  0  0
   -7.3004   -0.8353    0.0000 C   0  0  0  0  0  0  0  0  0
   -6.5859   -0.4228    0.0000 N   0  0  0  0  0  0  0  0  0
   -5.8714   -0.8353    0.0000 C   0  0  0  0  0  0  0  0  0
   -5.8714   -1.6603    0.0000 O   0  0  0  0  0  0  0  0  0
   -5.1569   -0.4228    0.0000 C   0  0  0  0  0  0  0  0  0
   -4.4425   -0.8353    0.0000 N   0  0  0  0  0  0  0  0  0
   -3.7280   -0.4228    0.0000 C   0  0  0  0  0  0  0  0  0
   -3.7280    0.4022    0.0000 C   0  0  0  0  0  0  0  0  0
   -3.0135    0.8147    0.0000 C   0  0  0  0  0  0  0  0  0
   -2.2991    0.4022    0.0000 C   0  0  0  0  0  0  0  0  0
   -1.5846    0.8147    0.0000 O   0  0  0  0  0  0  0  0  0
   -0.8701    0.4022    0.0000 C   0  0  0  0  0  0  0  0  0
   -2.2991   -0.4228    0.0000 C   0  0  0  0  0  0  0  0  0
   -3.0135   -0.8353    0.0000 C   0  0  0  0  0  0  0  0  0
   -3.0135   -1.6603    0.0000 N   0  0  0  0  0  0  0  0  0
   -3.7280   -2.0728    0.0000 C   0  0  0  0  0  0  0  0  0
   -3.7280   -2.8978    0.0000 C   0  0  0  0  0  0  0  0  0
   -3.0135   -3.3103    0.0000 N   0  0  0  0  0  0  0  0  0
   -2.2991   -2.8978    0.0000 C   0  0  0  0  0  0  0  0  0
   -3.0135   -4.1353    0.0000 C   0  0  0  0  0  0  0  0  0
   -2.2991   -2.0728    0.0000 C   0  0  0  0  0  0  0  0  0
   -4.4425    0.8147    0.0000 C   0  0  0  0  0  0  0  0  0
   -4.4425    1.6397    0.0000 O   0  0  0  0  0  0  0  0  0
   -5.1569    0.4022    0.0000 C   0  0  0  0  0  0  0  0  0
   -7.3004   -1.6603    0.0000 C   0  0  0  0  0  0  0  0  0
   -8.0148   -2.0728    0.0000 C   0  0  0  0  0  0  0  0  0
  1  2  1  0  0  0  0
  1  6  1  0  0  0  0
  2  3  1  0  0  0  0
  3  4  1  0  0  0  0
  4  5  1  0  0  0  0
  4  7  1  0  0  0  0
  5  6  1  0  0  0  0
  7  8  4  0  0  0  0
  7 35  4  0  0  0  0
  8  9  4  0  0  0  0
  9 10  4  0  0  0  0
 10 11  1  0  0  0  0
 10 34  4  0  0  0  0
 11 12  1  0  0  0  0
 12 13  2  0  0  0  0
 12 14  1  0  0  0  0
 14 15  1  0  0  0  0
 14 33  2  0  0  0  0
 15 16  1  0  0  0  0
 16 17  4  0  0  0  0
 16 23  4  0  0  0  0
 17 18  4  0  0  0  0
 17 31  1  0  0  0  0
 18 19  4  0  0  0  0
 19 20  1  0  0  0  0
 19 22  4  0  0  0  0
 20 21  1  0  0  0  0
 22 23  4  0  0  0  0
 23 24  1  0  0  0  0
 24 25  1  0  0  0  0
 24 30  1  0  0  0  0
 25 26  1  0  0  0  0
 26 27  1  0  0  0  0
 27 28  1  0  0  0  0
 27 29  1  0  0  0  0
 31 32  2  0  0  0  0
 31 33  1  0  0  0  0
 34 35  4  0  0  0  0
M  END
>  <Name_Molregno>
376258

>  <5-HT1B>
6.41

$$$$
376259
  Marvin  02231216192D 0   1.00000     0.00000     0

 36 40  0  0  1  0  0  0  0  0999 V2000
   -0.0688   -2.8870    0.0000 O   0  0  0  0  0  0  0  0  0
   -0.0688   -2.0620    0.0000 C   0  0  0  0  0  0  0  0  0
    0.6457   -1.6495    0.0000 C   0  0  0  0  0  0  0  0  0
    1.3601   -2.0620    0.0000 N   0  0  0  0  0  0  0  0  0
    1.3601   -2.8870    0.0000 C   0  0  0  0  0  0  0  0  0
    0.6457   -3.2995    0.0000 C   0  0  0  0  0  0  0  0  0
    2.0746   -1.6495    0.0000 C   0  0  0  0  0  0  0  0  0
    2.0746   -0.8245    0.0000 C   0  0  0  0  0  0  0  0  0
    2.7891   -0.4120    0.0000 C   0  0  0  0  0  0  0  0  0
    3.5036   -0.8245    0.0000 C   0  0  0  0  0  0  0  0  0
    4.2180   -0.4120    0.0000 N   0  0  0  0  0  0  0  0  0
    4.9325   -0.8245    0.0000 C   0  0  0  0  0  0  0  0  0
    4.9325   -1.6495    0.0000 O   0  0  0  0  0  0  0  0  0
    5.6470   -0.4120    0.0000 C   0  0  0  0  0  0  0  0  0
    6.3614   -0.8245    0.0000 N   0  0  0  0  0  0  0  0  0
    7.0759   -0.4120    0.0000 C   0  0  0  0  0  0  0  0  0
    7.0759    0.4130    0.0000 C   0  0  0  0  0  0  0  0  0
    7.7904    0.8255    0.0000 C   0  0  0  0  0  0  0  0  0
    8.5049    0.4130    0.0000 C   0  0  0  0  0  0  0  0  0
    9.2193    0.8255    0.0000 O   0  0  0  0  0  0  0  0  0
    9.9338    0.4130    0.0000 C   0  0  0  0  0  0  0  0  0
    8.5049   -0.4120    0.0000 C   0  0  0  0  0  0  0  0  0
    7.7904   -0.8245    0.0000 C   0  0  0  0  0  0  0  0  0
    7.7904   -1.6495    0.0000 N   0  0  0  0  0  0  0  0  0
    8.4578   -2.1344    0.0000 C   0  0  0  0  0  0  0  0  0
    8.2029   -2.9190    0.0000 C   0  0  0  0  0  0  0  0  0
    8.6878   -3.5864    0.0000 N   0  0  0  0  0  0  0  0  0
    9.5083   -3.5002    0.0000 C   0  0  0  0  0  0  0  0  0
    8.3523   -4.3401    0.0000 C   0  0  0  0  0  0  0  0  0
    7.3779   -2.9190    0.0000 C   0  0  0  0  0  0  0  0  0
    7.1229   -2.1344    0.0000 C   0  0  0  0  0  0  0  0  0
    6.3614    0.8255    0.0000 C   0  0  0  0  0  0  0  0  0
    6.3614    1.6505    0.0000 O   0  0  0  0  0  0  0  0  0
    5.6470    0.4130    0.0000 C   0  0  0  0  0  0  0  0  0
    3.5036   -1.6495    0.0000 C   0  0  0  0  0  0  0  0  0
    2.7891   -2.0620    0.0000 C   0  0  0  0  0  0  0  0  0
  1  2  1  0  0  0  0
  1  6  1  0  0  0  0
  2  3  1  0  0  0  0
  3  4  1  0  0  0  0
  4  5  1  0  0  0  0
  4  7  1  0  0  0  0
  5  6  1  0  0  0  0
  7  8  4  0  0  0  0
  7 36  4  0  0  0  0
  8  9  4  0  0  0  0
  9 10  4  0  0  0  0
 10 11  1  0  0  0  0
 10 35  4  0  0  0  0
 11 12  1  0  0  0  0
 12 13  2  0  0  0  0
 12 14  1  0  0  0  0
 14 15  1  0  0  0  0
 14 34  2  0  0  0  0
 15 16  1  0  0  0  0
 16 17  4  0  0  0  0
 16 23  4  0  0  0  0
 17 18  4  0  0  0  0
 17 32  1  0  0  0  0
 18 19  4  0  0  0  0
 19 20  1  0  0  0  0
 19 22  4  0  0  0  0
 20 21  1  0  0  0  0
 22 23  4  0  0  0  0
 23 24  1  0  0  0  0
 24 25  1  0  0  0  0
 24 31  1  0  0  0  0
 25 26  1  0  0  0  0
 26 27  1  0  0  0  0
 26 30  1  0  0  0  0
 27 28  1  0  0  0  0
 27 29  1  0  0  0  0
 30 31  1  0  0  0  0
 32 33  2  0  0  0  0
 32 34  1  0  0  0  0
 35 36  4  0  0  0  0
M  END
>  <Name_Molregno>
376259

>  <5-HT1B>
6.73

$$$$
376273
  Marvin  02231216192D 0   1.00000     0.00000     0

 38 42  0  0  1  0  0  0  0  0999 V2000
  -11.5859   -3.0202    0.0000 O   0  0  0  0  0  0  0  0  0
  -11.5859   -2.1952    0.0000 C   0  0  0  0  0  0  0  0  0
  -10.8714   -1.7827    0.0000 C   0  0  0  0  0  0  0  0  0
  -10.1569   -2.1952    0.0000 N   0  0  0  0  0  0  0  0  0
  -10.1569   -3.0202    0.0000 C   0  0  0  0  0  0  0  0  0
  -10.8714   -3.4327    0.0000 C   0  0  0  0  0  0  0  0  0
   -9.4425   -1.7827    0.0000 C   0  0  0  0  0  0  0  0  0
   -9.4425   -0.9577    0.0000 C   0  0  0  0  0  0  0  0  0
   -8.7280   -0.5452    0.0000 C   0  0  0  0  0  0  0  0  0
   -8.0135   -0.9577    0.0000 C   0  0  0  0  0  0  0  0  0
   -7.2991   -0.5452    0.0000 N   0  0  0  0  0  0  0  0  0
   -6.5846   -0.9577    0.0000 C   0  0  0  0  0  0  0  0  0
   -6.5846   -1.7827    0.0000 O   0  0  0  0  0  0  0  0  0
   -5.8701   -0.5452    0.0000 C   0  0  0  0  0  0  0  0  0
   -5.1556   -0.9577    0.0000 N   0  0  0  0  0  0  0  0  0
   -4.4412   -0.5452    0.0000 C   0  0  0  0  0  0  0  0  0
   -4.4412    0.2798    0.0000 C   0  0  0  0  0  0  0  0  0
   -3.7267    0.6923    0.0000 C   0  0  0  0  0  0  0  0  0
   -3.0122    0.2798    0.0000 C   0  0  0  0  0  0  0  0  0
   -2.2978    0.6923    0.0000 O   0  0  0  0  0  0  0  0  0
   -1.5833    0.2798    0.0000 C   0  0  0  0  0  0  0  0  0
   -3.0122   -0.5452    0.0000 C   0  0  0  0  0  0  0  0  0
   -3.7267   -0.9577    0.0000 C   0  0  0  0  0  0  0  0  0
   -3.7267   -1.7827    0.0000 N   0  0  0  0  0  0  0  0  0
   -4.4412   -2.1952    0.0000 C   0  0  0  0  0  0  0  0  0
   -4.4412   -3.0202    0.0000 C   0  0  0  0  0  0  0  0  0
   -3.0122   -2.1952    0.0000 C   0  0  0  0  0  0  0  0  0
   -2.2586   -1.8597    0.0000 C   0  0  0  0  0  0  0  0  0
   -1.7065   -2.4728    0.0000 C   0  0  0  0  0  0  0  0  0
   -2.1190   -3.1872    0.0000 N   0  0  0  0  0  0  0  0  0
   -2.9260   -3.0157    0.0000 C   0  0  0  0  0  0  0  0  0
   -1.7835   -3.9409    0.0000 C   0  0  0  0  0  0  0  0  0
   -0.9630   -4.0271    0.0000 C   0  0  0  0  0  0  0  0  0
   -5.1556    0.6923    0.0000 C   0  0  0  0  0  0  0  0  0
   -5.1556    1.5173    0.0000 O   0  0  0  0  0  0  0  0  0
   -5.8701    0.2798    0.0000 C   0  0  0  0  0  0  0  0  0
   -8.0135   -1.7827    0.0000 C   0  0  0  0  0  0  0  0  0
   -8.7280   -2.1952    0.0000 C   0  0  0  0  0  0  0  0  0
  1  2  1  0  0  0  0
  1  6  1  0  0  0  0
  2  3  1  0  0  0  0
  3  4  1  0  0  0  0
  4  5  1  0  0  0  0
  4  7  1  0  0  0  0
  5  6  1  0  0  0  0
  7  8  4  0  0  0  0
  7 38  4  0  0  0  0
  8  9  4  0  0  0  0
  9 10  4  0  0  0  0
 10 11  1  0  0  0  0
 10 37  4  0  0  0  0
 11 12  1  0  0  0  0
 12 13  2  0  0  0  0
 12 14  1  0  0  0  0
 14 15  1  0  0  0  0
 14 36  2  0  0  0  0
 15 16  1  0  0  0  0
 16 17  4  0  0  0  0
 16 23  4  0  0  0  0
 17 18  4  0  0  0  0
 17 34  1  0  0  0  0
 18 19  4  0  0  0  0
 19 20  1  0  0  0  0
 19 22  4  0  0  0  0
 20 21  1  0  0  0  0
 22 23  4  0  0  0  0
 23 24  1  0  0  0  0
 24 25  1  0  0  0  0
 24 27  1  0  0  0  0
 25 26  1  0  0  0  0
 27 28  1  0  0  0  0
 27 31  1  0  0  0  0
 28 29  1  0  0  0  0
 29 30  1  0  0  0  0
 30 31  1  0  0  0  0
 30 32  1  0  0  0  0
 32 33  1  0  0  0  0
 34 35  2  0  0  0  0
 34 36  1  0  0  0  0
 37 38  4  0  0  0  0
M  END
>  <Name_Molregno>
376273

>  <5-HT1B>
6.77

$$$$
376280
  Marvin  02231216192D 0   1.00000     0.00000     0

 36 40  0  0  1  0  0  0  0  0999 V2000
   -0.0489   -3.0028    0.0000 O   0  0  0  0  0  0  0  0  0
   -0.0489   -2.1778    0.0000 C   0  0  0  0  0  0  0  0  0
    0.6656   -1.7653    0.0000 C   0  0  0  0  0  0  0  0  0
    1.3800   -2.1778    0.0000 N   0  0  0  0  0  0  0  0  0
    1.3800   -3.0028    0.0000 C   0  0  0  0  0  0  0  0  0
    0.6656   -3.4153    0.0000 C   0  0  0  0  0  0  0  0  0
    2.0945   -1.7653    0.0000 C   0  0  0  0  0  0  0  0  0
    2.0945   -0.9403    0.0000 C   0  0  0  0  0  0  0  0  0
    2.8090   -0.5278    0.0000 C   0  0  0  0  0  0  0  0  0
    3.5235   -0.9403    0.0000 C   0  0  0  0  0  0  0  0  0
    4.2379   -0.5278    0.0000 N   0  0  0  0  0  0  0  0  0
    4.9524   -0.9403    0.0000 C   0  0  0  0  0  0  0  0  0
    4.9524   -1.7653    0.0000 O   0  0  0  0  0  0  0  0  0
    5.6669   -0.5278    0.0000 C   0  0  0  0  0  0  0  0  0
    6.3813   -0.9403    0.0000 N   0  0  0  0  0  0  0  0  0
    7.0958   -0.5278    0.0000 C   0  0  0  0  0  0  0  0  0
    7.0958    0.2972    0.0000 C   0  0  0  0  0  0  0  0  0
    7.8103    0.7097    0.0000 C   0  0  0  0  0  0  0  0  0
    8.5248    0.2972    0.0000 C   0  0  0  0  0  0  0  0  0
    9.2392    0.7097    0.0000 O   0  0  0  0  0  0  0  0  0
    9.9537    0.2972    0.0000 C   0  0  0  0  0  0  0  0  0
    8.5248   -0.5278    0.0000 C   0  0  0  0  0  0  0  0  0
    7.8103   -0.9403    0.0000 C   0  0  0  0  0  0  0  0  0
    7.8103   -1.7653    0.0000 N   0  0  0  0  0  0  0  0  0
    7.0958   -2.1778    0.0000 C   0  0  0  0  0  0  0  0  0
    8.5248   -2.1778    0.0000 C   0  0  0  0  0  0  0  0  0
    9.2784   -1.8422    0.0000 C   0  0  0  0  0  0  0  0  0
    9.8305   -2.4553    0.0000 C   0  0  0  0  0  0  0  0  0
    9.4180   -3.1698    0.0000 N   0  0  0  0  0  0  0  0  0
    8.6110   -2.9982    0.0000 C   0  0  0  0  0  0  0  0  0
    9.7535   -3.9234    0.0000 C   0  0  0  0  0  0  0  0  0
    6.3813    0.7097    0.0000 C   0  0  0  0  0  0  0  0  0
    6.3813    1.5347    0.0000 O   0  0  0  0  0  0  0  0  0
    5.6669    0.2972    0.0000 C   0  0  0  0  0  0  0  0  0
    3.5235   -1.7653    0.0000 C   0  0  0  0  0  0  0  0  0
    2.8090   -2.1778    0.0000 C   0  0  0  0  0  0  0  0  0
  1  2  1  0  0  0  0
  1  6  1  0  0  0  0
  2  3  1  0  0  0  0
  3  4  1  0  0  0  0
  4  5  1  0  0  0  0
  4  7  1  0  0  0  0
  5  6  1  0  0  0  0
  7  8  4  0  0  0  0
  7 36  4  0  0  0  0
  8  9  4  0  0  0  0
  9 10  4  0  0  0  0
 10 11  1  0  0  0  0
 10 35  4  0  0  0  0
 11 12  1  0  0  0  0
 12 13  2  0  0  0  0
 12 14  1  0  0  0  0
 14 15  1  0  0  0  0
 14 34  2  0  0  0  0
 15 16  1  0  0  0  0
 16 17  4  0  0  0  0
 16 23  4  0  0  0  0
 17 18  4  0  0  0  0
 17 32  1  0  0  0  0
 18 19  4  0  0  0  0
 19 20  1  0  0  0  0
 19 22  4  0  0  0  0
 20 21  1  0  0  0  0
 22 23  4  0  0  0  0
 23 24  1  0  0  0  0
 24 25  1  0  0  0  0
 24 26  1  0  0  0  0
 26 27  1  0  0  0  0
 26 30  1  0  0  0  0
 27 28  1  0  0  0  0
 28 29  1  0  0  0  0
 29 30  1  0  0  0  0
 29 31  1  0  0  0  0
 32 33  2  0  0  0  0
 32 34  1  0  0  0  0
 35 36  4  0  0  0  0
M  END
>  <Name_Molregno>
376280

>  <5-HT1B>
6

$$$$
376281
  Marvin  02231216192D 0   1.00000     0.00000     0

 34 38  0  0  0  0  0  0  0  0999 V2000
    0.1350   -4.5075    0.0000 F   0  0  0  0  0  0  0  0  0
    0.8495   -4.0950    0.0000 C   0  0  0  0  0  0  0  0  0
    0.8495   -3.2700    0.0000 C   0  0  0  0  0  0  0  0  0
    1.5640   -2.8575    0.0000 C   0  0  0  0  0  0  0  0  0
    1.5640   -2.0325    0.0000 N   0  0  0  0  0  0  0  0  0
    0.8495   -1.6200    0.0000 C   0  0  0  0  0  0  0  0  0
    0.8495   -0.7950    0.0000 C   0  0  0  0  0  0  0  0  0
    1.5640   -0.3825    0.0000 N   0  0  0  0  0  0  0  0  0
    2.2784   -0.7950    0.0000 C   0  0  0  0  0  0  0  0  0
    2.2784   -1.6200    0.0000 C   0  0  0  0  0  0  0  0  0
    1.5640    0.4425    0.0000 C   0  0  0  0  0  0  0  0  0
    2.2784   -3.2700    0.0000 C   0  0  0  0  0  0  0  0  0
    2.9929   -2.8575    0.0000 N   0  0  0  0  0  0  0  0  0
    3.7074   -3.2700    0.0000 C   0  0  0  0  0  0  0  0  0
    3.7074   -4.0950    0.0000 C   0  0  0  0  0  0  0  0  0
    2.9929   -4.5075    0.0000 C   0  0  0  0  0  0  0  0  0
    2.9929   -5.3325    0.0000 O   0  0  0  0  0  0  0  0  0
    2.2784   -4.0950    0.0000 C   0  0  0  0  0  0  0  0  0
    1.5640   -4.5075    0.0000 C   0  0  0  0  0  0  0  0  0
    4.4218   -2.8575    0.0000 C   0  0  0  0  0  0  0  0  0
    5.1363   -3.2700    0.0000 O   0  0  0  0  0  0  0  0  0
    4.4218   -2.0325    0.0000 N   0  0  0  0  0  0  0  0  0
    5.1363   -1.6200    0.0000 C   0  0  0  0  0  0  0  0  0
    5.1363   -0.7950    0.0000 C   0  0  0  0  0  0  0  0  0
    5.8508   -0.3825    0.0000 C   0  0  0  0  0  0  0  0  0
    6.5653   -0.7950    0.0000 C   0  0  0  0  0  0  0  0  0
    7.2797   -0.3825    0.0000 N   0  0  0  0  0  0  0  0  0
    7.2797    0.4425    0.0000 C   0  0  0  0  0  0  0  0  0
    7.9942    0.8550    0.0000 C   0  0  0  0  0  0  0  0  0
    8.7087    0.4425    0.0000 O   0  0  0  0  0  0  0  0  0
    8.7087   -0.3825    0.0000 C   0  0  0  0  0  0  0  0  0
    7.9942   -0.7950    0.0000 C   0  0  0  0  0  0  0  0  0
    6.5653   -1.6200    0.0000 C   0  0  0  0  0  0  0  0  0
    5.8508   -2.0325    0.0000 C   0  0  0  0  0  0  0  0  0
  1  2  1  0  0  0  0
  2  3  4  0  0  0  0
  2 19  4  0  0  0  0
  3  4  4  0  0  0  0
  4  5  1  0  0  0  0
  4 12  4  0  0  0  0
  5  6  1  0  0  0  0
  5 10  1  0  0  0  0
  6  7  1  0  0  0  0
  7  8  1  0  0  0  0
  8  9  1  0  0  0  0
  8 11  1  0  0  0  0
  9 10  1  0  0  0  0
 12 13  1  0  0  0  0
 12 18  4  0  0  0  0
 13 14  1  0  0  0  0
 14 15  2  0  0  0  0
 14 20  1  0  0  0  0
 15 16  1  0  0  0  0
 16 17  2  0  0  0  0
 16 18  1  0  0  0  0
 18 19  4  0  0  0  0
 20 21  2  0  0  0  0
 20 22  1  0  0  0  0
 22 23  1  0  0  0  0
 23 24  4  0  0  0  0
 23 34  4  0  0  0  0
 24 25  4  0  0  0  0
 25 26  4  0  0  0  0
 26 27  1  0  0  0  0
 26 33  4  0  0  0  0
 27 28  1  0  0  0  0
 27 32  1  0  0  0  0
 28 29  1  0  0  0  0
 29 30  1  0  0  0  0
 30 31  1  0  0  0  0
 31 32  1  0  0  0  0
 33 34  4  0  0  0  0
M  END
>  <Name_Molregno>
376281

>  <5-HT1B>
8.03

$$$$
376288
  Marvin  02231216192D 0   1.00000     0.00000     0

 37 41  0  0  0  0  0  0  0  0999 V2000
    0.0744   -2.9064    0.0000 O   0  0  0  0  0  0  0  0  0
    0.0744   -2.0814    0.0000 C   0  0  0  0  0  0  0  0  0
    0.7889   -1.6689    0.0000 C   0  0  0  0  0  0  0  0  0
    1.5034   -2.0814    0.0000 N   0  0  0  0  0  0  0  0  0
    1.5034   -2.9064    0.0000 C   0  0  0  0  0  0  0  0  0
    0.7889   -3.3189    0.0000 C   0  0  0  0  0  0  0  0  0
    2.2178   -1.6689    0.0000 C   0  0  0  0  0  0  0  0  0
    2.2178   -0.8439    0.0000 C   0  0  0  0  0  0  0  0  0
    2.9323   -0.4314    0.0000 C   0  0  0  0  0  0  0  0  0
    3.6468   -0.8439    0.0000 C   0  0  0  0  0  0  0  0  0
    4.3612   -0.4314    0.0000 N   0  0  0  0  0  0  0  0  0
    5.0757   -0.8439    0.0000 C   0  0  0  0  0  0  0  0  0
    5.0757   -1.6689    0.0000 O   0  0  0  0  0  0  0  0  0
    5.7902   -0.4314    0.0000 C   0  0  0  0  0  0  0  0  0
    6.5047   -0.8439    0.0000 N   0  0  0  0  0  0  0  0  0
    7.2191   -0.4314    0.0000 C   0  0  0  0  0  0  0  0  0
    7.2191    0.3936    0.0000 C   0  0  0  0  0  0  0  0  0
    7.9336    0.8061    0.0000 C   0  0  0  0  0  0  0  0  0
    8.6481    0.3936    0.0000 C   0  0  0  0  0  0  0  0  0
    9.3625    0.8061    0.0000 O   0  0  0  0  0  0  0  0  0
   10.0770    0.3936    0.0000 C   0  0  0  0  0  0  0  0  0
    8.6481   -0.4314    0.0000 C   0  0  0  0  0  0  0  0  0
    7.9336   -0.8439    0.0000 C   0  0  0  0  0  0  0  0  0
    7.9336   -1.6689    0.0000 N   0  0  0  0  0  0  0  0  0
    8.6481   -2.0814    0.0000 C   0  0  0  0  0  0  0  0  0
    8.6481   -2.9064    0.0000 C   0  0  0  0  0  0  0  0  0
    7.9336   -3.3189    0.0000 N   0  0  0  0  0  0  0  0  0
    7.2191   -2.9064    0.0000 C   0  0  0  0  0  0  0  0  0
    7.2191   -2.0814    0.0000 C   0  0  0  0  0  0  0  0  0
    7.9336   -4.1439    0.0000 C   0  0  0  0  0  0  0  0  0
    6.5047    0.8061    0.0000 C   0  0  0  0  0  0  0  0  0
    6.5047    1.6311    0.0000 N   0  0  0  0  0  0  0  0  0
    5.7902    2.0436    0.0000 C   0  0  0  0  0  0  0  0  0
    7.2191    2.0436    0.0000 C   0  0  0  0  0  0  0  0  0
    5.7902    0.3936    0.0000 C   0  0  0  0  0  0  0  0  0
    3.6468   -1.6689    0.0000 C   0  0  0  0  0  0  0  0  0
    2.9323   -2.0814    0.0000 C   0  0  0  0  0  0  0  0  0
  1  2  1  0  0  0  0
  1  6  1  0  0  0  0
  2  3  1  0  0  0  0
  3  4  1  0  0  0  0
  4  5  1  0  0  0  0
  4  7  1  0  0  0  0
  5  6  1  0  0  0  0
  7  8  4  0  0  0  0
  7 37  4  0  0  0  0
  8  9  4  0  0  0  0
  9 10  4  0  0  0  0
 10 11  1  0  0  0  0
 10 36  4  0  0  0  0
 11 12  1  0  0  0  0
 12 13  2  0  0  0  0
 12 14  1  0  0  0  0
 14 15  4  0  0  0  0
 14 35  4  0  0  0  0
 15 16  4  0  0  0  0
 16 17  4  0  0  0  0
 16 23  4  0  0  0  0
 17 18  4  0  0  0  0
 17 31  4  0  0  0  0
 18 19  4  0  0  0  0
 19 20  1  0  0  0  0
 19 22  4  0  0  0  0
 20 21  1  0  0  0  0
 22 23  4  0  0  0  0
 23 24  1  0  0  0  0
 24 25  1  0  0  0  0
 24 29  1  0  0  0  0
 25 26  1  0  0  0  0
 26 27  1  0  0  0  0
 27 28  1  0  0  0  0
 27 30  1  0  0  0  0
 28 29  1  0  0  0  0
 31 32  1  0  0  0  0
 31 35  4  0  0  0  0
 32 33  1  0  0  0  0
 32 34  1  0  0  0  0
 36 37  4  0  0  0  0
M  STY  1   1 DAT
M  SAL   1  1  15
M  SDT   1 MRV_IMPLICIT_H                                        
M  SDD   1     0.0000    0.0000    DR    ALL  0       0  
M  SED   1 IMPL_H1
M  END
>  <Name_Molregno>
376288

>  <5-HT1B>
7.29

$$$$
376289
  Marvin  02231216192D 0   1.00000     0.00000     0

 36 40  0  0  0  0  0  0  0  0999 V2000
    0.0421   -2.8232    0.0000 O   0  0  0  0  0  0  0  0  0
    0.0421   -1.9982    0.0000 C   0  0  0  0  0  0  0  0  0
    0.7566   -1.5857    0.0000 C   0  0  0  0  0  0  0  0  0
    1.4710   -1.9982    0.0000 N   0  0  0  0  0  0  0  0  0
    1.4710   -2.8232    0.0000 C   0  0  0  0  0  0  0  0  0
    0.7566   -3.2357    0.0000 C   0  0  0  0  0  0  0  0  0
    2.1855   -1.5857    0.0000 C   0  0  0  0  0  0  0  0  0
    2.1855   -0.7607    0.0000 C   0  0  0  0  0  0  0  0  0
    2.9000   -0.3482    0.0000 C   0  0  0  0  0  0  0  0  0
    3.6144   -0.7607    0.0000 C   0  0  0  0  0  0  0  0  0
    4.3289   -0.3482    0.0000 N   0  0  0  0  0  0  0  0  0
    5.0434   -0.7607    0.0000 C   0  0  0  0  0  0  0  0  0
    5.0434   -1.5857    0.0000 O   0  0  0  0  0  0  0  0  0
    5.7579   -0.3482    0.0000 C   0  0  0  0  0  0  0  0  0
    6.4723   -0.7607    0.0000 N   0  0  0  0  0  0  0  0  0
    7.1868   -0.3482    0.0000 C   0  0  0  0  0  0  0  0  0
    7.1868    0.4768    0.0000 C   0  0  0  0  0  0  0  0  0
    7.9013    0.8893    0.0000 C   0  0  0  0  0  0  0  0  0
    8.6157    0.4768    0.0000 C   0  0  0  0  0  0  0  0  0
    9.3302    0.8893    0.0000 O   0  0  0  0  0  0  0  0  0
   10.0447    0.4768    0.0000 C   0  0  0  0  0  0  0  0  0
    8.6157   -0.3482    0.0000 C   0  0  0  0  0  0  0  0  0
    7.9013   -0.7607    0.0000 C   0  0  0  0  0  0  0  0  0
    7.9013   -1.5857    0.0000 N   0  0  0  0  0  0  0  0  0
    8.6157   -1.9982    0.0000 C   0  0  0  0  0  0  0  0  0
    8.6157   -2.8232    0.0000 C   0  0  0  0  0  0  0  0  0
    7.9013   -3.2357    0.0000 N   0  0  0  0  0  0  0  0  0
    7.1868   -2.8232    0.0000 C   0  0  0  0  0  0  0  0  0
    7.1868   -1.9982    0.0000 C   0  0  0  0  0  0  0  0  0
    7.9013   -4.0607    0.0000 C   0  0  0  0  0  0  0  0  0
    6.4723    0.8893    0.0000 C   0  0  0  0  0  0  0  0  0
    6.4723    1.7143    0.0000 N   0  0  0  0  0  0  0  0  0
    5.7579    2.1268    0.0000 C   0  0  0  0  0  0  0  0  0
    5.7579    0.4768    0.0000 C   0  0  0  0  0  0  0  0  0
    3.6144   -1.5857    0.0000 C   0  0  0  0  0  0  0  0  0
    2.9000   -1.9982    0.0000 C   0  0  0  0  0  0  0  0  0
  1  2  1  0  0  0  0
  1  6  1  0  0  0  0
  2  3  1  0  0  0  0
  3  4  1  0  0  0  0
  4  5  1  0  0  0  0
  4  7  1  0  0  0  0
  5  6  1  0  0  0  0
  7  8  4  0  0  0  0
  7 36  4  0  0  0  0
  8  9  4  0  0  0  0
  9 10  4  0  0  0  0
 10 11  1  0  0  0  0
 10 35  4  0  0  0  0
 11 12  1  0  0  0  0
 12 13  2  0  0  0  0
 12 14  1  0  0  0  0
 14 15  4  0  0  0  0
 14 34  4  0  0  0  0
 15 16  4  0  0  0  0
 16 17  4  0  0  0  0
 16 23  4  0  0  0  0
 17 18  4  0  0  0  0
 17 31  4  0  0  0  0
 18 19  4  0  0  0  0
 19 20  1  0  0  0  0
 19 22  4  0  0  0  0
 20 21  1  0  0  0  0
 22 23  4  0  0  0  0
 23 24  1  0  0  0  0
 24 25  1  0  0  0  0
 24 29  1  0  0  0  0
 25 26  1  0  0  0  0
 26 27  1  0  0  0  0
 27 28  1  0  0  0  0
 27 30  1  0  0  0  0
 28 29  1  0  0  0  0
 31 32  1  0  0  0  0
 31 34  4  0  0  0  0
 32 33  1  0  0  0  0
 35 36  4  0  0  0  0
M  STY  1   1 DAT
M  SAL   1  1  15
M  SDT   1 MRV_IMPLICIT_H                                        
M  SDD   1     0.0000    0.0000    DR    ALL  0       0  
M  SED   1 IMPL_H1
M  END
>  <Name_Molregno>
376289

>  <5-HT1B>
5.89

$$$$
376296
  Marvin  02231216192D 0   1.00000     0.00000     0

 35 39  0  0  0  0  0  0  0  0999 V2000
    0.1651   -4.3184    0.0000 F   0  0  0  0  0  0  0  0  0
    0.8796   -3.9059    0.0000 C   0  0  0  0  0  0  0  0  0
    0.8796   -3.0809    0.0000 C   0  0  0  0  0  0  0  0  0
    1.5940   -2.6684    0.0000 C   0  0  0  0  0  0  0  0  0
    1.5940   -1.8434    0.0000 N   0  0  0  0  0  0  0  0  0
    0.8796   -1.4309    0.0000 C   0  0  0  0  0  0  0  0  0
    0.8796   -0.6059    0.0000 C   0  0  0  0  0  0  0  0  0
    1.5940   -0.1934    0.0000 N   0  0  0  0  0  0  0  0  0
    2.3085   -0.6059    0.0000 C   0  0  0  0  0  0  0  0  0
    2.3085   -1.4309    0.0000 C   0  0  0  0  0  0  0  0  0
    1.5940    0.6316    0.0000 C   0  0  0  0  0  0  0  0  0
    2.3085   -3.0809    0.0000 C   0  0  0  0  0  0  0  0  0
    3.0230   -2.6684    0.0000 N   0  0  0  0  0  0  0  0  0
    3.7374   -3.0809    0.0000 C   0  0  0  0  0  0  0  0  0
    3.7374   -3.9059    0.0000 C   0  0  0  0  0  0  0  0  0
    3.0230   -4.3184    0.0000 C   0  0  0  0  0  0  0  0  0
    3.0230   -5.1434    0.0000 O   0  0  0  0  0  0  0  0  0
    2.3085   -5.5559    0.0000 C   0  0  0  0  0  0  0  0  0
    2.3085   -3.9059    0.0000 C   0  0  0  0  0  0  0  0  0
    1.5940   -4.3184    0.0000 C   0  0  0  0  0  0  0  0  0
    4.4519   -2.6684    0.0000 C   0  0  0  0  0  0  0  0  0
    5.1664   -3.0809    0.0000 O   0  0  0  0  0  0  0  0  0
    4.4519   -1.8434    0.0000 N   0  0  0  0  0  0  0  0  0
    5.1664   -1.4309    0.0000 C   0  0  0  0  0  0  0  0  0
    5.1664   -0.6059    0.0000 C   0  0  0  0  0  0  0  0  0
    5.8809   -0.1934    0.0000 C   0  0  0  0  0  0  0  0  0
    6.5953   -0.6059    0.0000 C   0  0  0  0  0  0  0  0  0
    7.3098   -0.1934    0.0000 N   0  0  0  0  0  0  0  0  0
    7.3098    0.6316    0.0000 C   0  0  0  0  0  0  0  0  0
    8.0243    1.0441    0.0000 C   0  0  0  0  0  0  0  0  0
    8.7387    0.6316    0.0000 O   0  0  0  0  0  0  0  0  0
    8.7387   -0.1934    0.0000 C   0  0  0  0  0  0  0  0  0
    8.0243   -0.6059    0.0000 C   0  0  0  0  0  0  0  0  0
    6.5953   -1.4309    0.0000 C   0  0  0  0  0  0  0  0  0
    5.8809   -1.8434    0.0000 C   0  0  0  0  0  0  0  0  0
  1  2  1  0  0  0  0
  2  3  4  0  0  0  0
  2 20  4  0  0  0  0
  3  4  4  0  0  0  0
  4  5  1  0  0  0  0
  4 12  4  0  0  0  0
  5  6  1  0  0  0  0
  5 10  1  0  0  0  0
  6  7  1  0  0  0  0
  7  8  1  0  0  0  0
  8  9  1  0  0  0  0
  8 11  1  0  0  0  0
  9 10  1  0  0  0  0
 12 13  4  0  0  0  0
 12 19  4  0  0  0  0
 13 14  4  0  0  0  0
 14 15  4  0  0  0  0
 14 21  1  0  0  0  0
 15 16  4  0  0  0  0
 16 17  1  0  0  0  0
 16 19  4  0  0  0  0
 17 18  1  0  0  0  0
 19 20  4  0  0  0  0
 21 22  2  0  0  0  0
 21 23  1  0  0  0  0
 23 24  1  0  0  0  0
 24 25  4  0  0  0  0
 24 35  4  0  0  0  0
 25 26  4  0  0  0  0
 26 27  4  0  0  0  0
 27 28  1  0  0  0  0
 27 34  4  0  0  0  0
 28 29  1  0  0  0  0
 28 33  1  0  0  0  0
 29 30  1  0  0  0  0
 30 31  1  0  0  0  0
 31 32  1  0  0  0  0
 32 33  1  0  0  0  0
 34 35  4  0  0  0  0
M  END
>  <Name_Molregno>
376296

>  <5-HT1B>
7.52

$$$$
376384
  Marvin  02231216192D 0   1.00000     0.00000     0

 36 40  0  0  0  0  0  0  0  0999 V2000
  -10.8274   -0.4318    0.0000 O   0  0  0  0  0  0  0  0  0
  -10.8274    0.3932    0.0000 C   0  0  0  0  0  0  0  0  0
  -10.1129    0.8057    0.0000 C   0  0  0  0  0  0  0  0  0
   -9.3984    0.3932    0.0000 N   0  0  0  0  0  0  0  0  0
   -9.3984   -0.4318    0.0000 C   0  0  0  0  0  0  0  0  0
  -10.1129   -0.8443    0.0000 C   0  0  0  0  0  0  0  0  0
   -8.6840    0.8057    0.0000 C   0  0  0  0  0  0  0  0  0
   -8.6840    1.6307    0.0000 C   0  0  0  0  0  0  0  0  0
   -7.9695    2.0432    0.0000 C   0  0  0  0  0  0  0  0  0
   -7.2550    1.6307    0.0000 C   0  0  0  0  0  0  0  0  0
   -6.5406    2.0432    0.0000 N   0  0  0  0  0  0  0  0  0
   -5.8261    1.6307    0.0000 C   0  0  0  0  0  0  0  0  0
   -5.8261    0.8057    0.0000 O   0  0  0  0  0  0  0  0  0
   -5.1116    2.0432    0.0000 C   0  0  0  0  0  0  0  0  0
   -4.3971    1.6307    0.0000 N   0  0  0  0  0  0  0  0  0
   -3.6827    2.0432    0.0000 C   0  0  0  0  0  0  0  0  0
   -3.6827    2.8682    0.0000 C   0  0  0  0  0  0  0  0  0
   -2.9682    3.2807    0.0000 C   0  0  0  0  0  0  0  0  0
   -2.2537    2.8682    0.0000 C   0  0  0  0  0  0  0  0  0
   -1.5393    3.2807    0.0000 O   0  0  0  0  0  0  0  0  0
   -0.8248    2.8682    0.0000 C   0  0  0  0  0  0  0  0  0
   -2.2537    2.0432    0.0000 C   0  0  0  0  0  0  0  0  0
   -2.9682    1.6307    0.0000 C   0  0  0  0  0  0  0  0  0
   -2.9682    0.8057    0.0000 N   0  0  0  0  0  0  0  0  0
   -2.2249    0.4477    0.0000 C   0  0  0  0  0  0  0  0  0
   -2.0413   -0.3566    0.0000 C   0  0  0  0  0  0  0  0  0
   -2.5557   -1.0016    0.0000 C   0  0  0  0  0  0  0  0  0
   -3.3807   -1.0016    0.0000 N   0  0  0  0  0  0  0  0  0
   -3.8951   -0.3566    0.0000 C   0  0  0  0  0  0  0  0  0
   -3.7115    0.4477    0.0000 C   0  0  0  0  0  0  0  0  0
   -3.7387   -1.7449    0.0000 C   0  0  0  0  0  0  0  0  0
   -4.3971    3.2807    0.0000 C   0  0  0  0  0  0  0  0  0
   -4.3971    4.1057    0.0000 O   0  0  0  0  0  0  0  0  0
   -5.1116    2.8682    0.0000 C   0  0  0  0  0  0  0  0  0
   -7.2550    0.8057    0.0000 C   0  0  0  0  0  0  0  0  0
   -7.9695    0.3932    0.0000 C   0  0  0  0  0  0  0  0  0
  1  2  1  0  0  0  0
  1  6  1  0  0  0  0
  2  3  1  0  0  0  0
  3  4  1  0  0  0  0
  4  5  1  0  0  0  0
  4  7  1  0  0  0  0
  5  6  1  0  0  0  0
  7  8  4  0  0  0  0
  7 36  4  0  0  0  0
  8  9  4  0  0  0  0
  9 10  4  0  0  0  0
 10 11  1  0  0  0  0
 10 35  4  0  0  0  0
 11 12  1  0  0  0  0
 12 13  2  0  0  0  0
 12 14  1  0  0  0  0
 14 15  1  0  0  0  0
 14 34  2  0  0  0  0
 15 16  1  0  0  0  0
 16 17  4  0  0  0  0
 16 23  4  0  0  0  0
 17 18  4  0  0  0  0
 17 32  1  0  0  0  0
 18 19  4  0  0  0  0
 19 20  1  0  0  0  0
 19 22  4  0  0  0  0
 20 21  1  0  0  0  0
 22 23  4  0  0  0  0
 23 24  1  0  0  0  0
 24 25  1  0  0  0  0
 24 30  1  0  0  0  0
 25 26  1  0  0  0  0
 26 27  1  0  0  0  0
 27 28  1  0  0  0  0
 28 29  1  0  0  0  0
 28 31  1  0  0  0  0
 29 30  1  0  0  0  0
 32 33  2  0  0  0  0
 32 34  1  0  0  0  0
 35 36  4  0  0  0  0
M  END
>  <Name_Molregno>
376384

>  <5-HT1B>
9.05

$$$$
382415
  Marvin  02231216192D 0   1.00000     0.00000     0

 18 19  0  0  0  0  0  0  0  0999 V2000
   -0.7360    1.4792    0.0000 S   0  0  0  0  0  0  0  0  0
   -0.9909    0.6946    0.0000 C   0  0  0  0  0  0  0  0  0
   -1.8159    0.6946    0.0000 C   0  0  0  0  0  0  0  0  0
   -2.0709    1.4792    0.0000 N   0  0  0  0  0  0  0  0  0
   -1.4034    1.9642    0.0000 C   0  0  0  0  0  0  0  0  0
   -1.4034    2.7892    0.0000 C   0  0  0  0  0  0  0  0  0
   -0.6890    3.2017    0.0000 F   0  0  0  0  0  0  0  0  0
   -2.3008    0.0272    0.0000 C   0  0  0  0  0  0  0  0  0
   -2.7858   -0.6403    0.0000 C   0  0  0  0  0  0  0  0  0
   -3.2707   -1.3077    0.0000 C   0  0  0  0  0  0  0  0  0
   -2.9351   -2.0614    0.0000 C   0  0  0  0  0  0  0  0  0
   -3.4201   -2.7288    0.0000 C   0  0  0  0  0  0  0  0  0
   -4.2405   -2.6426    0.0000 C   0  0  0  0  0  0  0  0  0
   -4.5761   -1.8889    0.0000 C   0  0  0  0  0  0  0  0  0
   -5.3966   -1.8027    0.0000 F   0  0  0  0  0  0  0  0  0
   -4.0912   -1.2215    0.0000 C   0  0  0  0  0  0  0  0  0
   -3.0845   -3.4825    0.0000 C   0  0  0  0  0  0  0  0  0
   -2.7489   -4.2362    0.0000 N   0  0  0  0  0  0  0  0  0
  1  2  4  0  0  0  0
  1  5  4  0  0  0  0
  2  3  4  0  0  0  0
  3  4  4  0  0  0  0
  3  8  1  0  0  0  0
  4  5  4  0  0  0  0
  5  6  1  0  0  0  0
  6  7  1  0  0  0  0
  8  9  3  0  0  0  0
  9 10  1  0  0  0  0
 10 11  4  0  0  0  0
 10 16  4  0  0  0  0
 11 12  4  0  0  0  0
 12 13  4  0  0  0  0
 12 17  1  0  0  0  0
 13 14  4  0  0  0  0
 14 15  1  0  0  0  0
 14 16  4  0  0  0  0
 17 18  3  0  0  0  0
M  END
>  <Name_Molregno>
382415

>  <5-HT1A>
5

>  <5-HT1B>
5

>  <5-HT1D>
5

>  <5-HT1E>
5

>  <5-HT2A>
5

>  <5-HT2C>
5

>  <5-HT3>
5

>  <5-HT5>
5

>  <5-HT6>
5

>  <5-HT7>
5

>  <Alpha-1A>
5

>  <Alpha-1B>
5

>  <Alpha-2A>
5

>  <Alpha-2B>
5

>  <Alpha-2C>
5

>  <Beta-1>
5

>  <Beta-2>
5

>  <DOPAMINE D1>
5

>  <DOPAMINE D2>
5

>  <DOPAMINE D3>
5

>  <DOPAMINE D4>
5

>  <DOPAMINE D5>
5

>  <Dopamine transporter>
5

>  <HISTAMINE H1>
5

>  <HISTAMINE H2>
5

>  <HISTAMINE H3>
5

>  <HISTAMINE H4>
5

>  <Muscarinic acetylcholine receptor M1>
5

>  <Muscarinic acetylcholine receptor M2>
5

>  <Muscarinic acetylcholine receptor M3>
5

>  <Muscarinic acetylcholine receptor M4>
5

>  <Muscarinic acetylcholine receptor M5>
5

>  <Norepinephrine transporter>
5

>  <Serotonin transporter>
5

$$$$
389011
  Marvin  02231216192D 0   1.00000     0.00000     0

 25 26  0  0  1  0  0  0  0  0999 V2000
   -2.9244    1.8604    0.0000 S   0  0  0  0  0  0  0  0  0
   -3.7494    1.8604    0.0000 O   0  0  0  0  0  0  0  0  0
   -2.0994    1.8604    0.0000 O   0  0  0  0  0  0  0  0  0
   -2.9244    2.6854    0.0000 C   0  0  0  0  0  0  0  0  0
   -3.6388    3.0979    0.0000 C   0  0  0  0  0  0  0  0  0
   -2.9244    1.0354    0.0000 C   0  0  0  0  0  0  0  0  0
   -2.2099    0.6229    0.0000 C   0  0  0  0  0  0  0  0  0
   -2.2099   -0.2021    0.0000 C   0  0  0  0  0  0  0  0  0
   -1.4954   -0.6146    0.0000 C   0  0  0  0  0  0  0  0  0
   -0.7810   -0.2021    0.0000 O   0  0  0  0  0  0  0  0  0
   -1.4954   -1.4396    0.0000 N   0  0  0  0  0  0  0  0  0
   -0.7810   -1.8521    0.0000 C   0  0  0  0  0  0  0  0  0
   -0.7810   -2.6771    0.0000 C   0  0  0  0  0  0  0  0  0
   -0.1135   -3.1620    0.0000 N   0  0  0  0  0  0  0  0  0
   -0.3685   -3.9466    0.0000 C   0  0  0  0  0  0  0  0  0
   -1.1935   -3.9466    0.0000 C   0  0  0  0  0  0  0  0  0
   -1.4484   -3.1620    0.0000 C   0  0  0  0  0  0  0  0  0
    0.6711   -2.9071    0.0000 C   0  0  0  0  0  0  0  0  0
    1.2842   -3.4591    0.0000 C   0  0  0  0  0  0  0  0  0
   -2.9244   -0.6146    0.0000 C   0  0  0  0  0  0  0  0  0
   -2.9244   -1.4396    0.0000 O   0  0  0  0  0  0  0  0  0
   -3.6388   -1.8521    0.0000 C   0  0  0  0  0  0  0  0  0
   -3.6388   -0.2021    0.0000 C   0  0  0  0  0  0  0  0  0
   -3.6388    0.6229    0.0000 C   0  0  0  0  0  0  0  0  0
   -4.3533    1.0354    0.0000 N   0  0  0  0  0  0  0  0  0
  1  2  2  0  0  0  0
  1  3  2  0  0  0  0
  1  4  1  0  0  0  0
  1  6  1  0  0  0  0
  4  5  1  0  0  0  0
  6  7  4  0  0  0  0
  6 24  4  0  0  0  0
  7  8  4  0  0  0  0
  8  9  1  0  0  0  0
  8 20  4  0  0  0  0
  9 10  2  0  0  0  0
  9 11  1  0  0  0  0
 11 12  1  0  0  0  0
 12 13  1  0  0  0  0
 13 14  1  0  0  0  0
 13 17  1  0  0  0  0
 14 15  1  0  0  0  0
 14 18  1  0  0  0  0
 15 16  1  0  0  0  0
 16 17  1  0  0  0  0
 18 19  1  0  0  0  0
 20 21  1  0  0  0  0
 20 23  4  0  0  0  0
 21 22  1  0  0  0  0
 23 24  4  0  0  0  0
 24 25  1  0  0  0  0
M  END
>  <Name_Molregno>
389011

>  <5-HT1A>
5

>  <5-HT1B>
5.76

>  <5-HT1D>
5.87

>  <5-HT1E>
5

>  <5-HT2A>
5.64

>  <5-HT2C>
5

>  <5-HT3>
5

>  <5-HT5>
5

>  <5-HT6>
5.38

>  <5-HT7>
7.47

>  <Alpha-1A>
5

>  <Alpha-1B>
5

>  <Alpha-2A>
5.95

>  <Alpha-2C>
5.81

>  <Beta-1>
5

>  <Beta-2>
5

>  <DOPAMINE D1>
5

>  <DOPAMINE D2>
8.71

>  <DOPAMINE D3>
8.51

>  <DOPAMINE D4>
5.63

>  <DOPAMINE D5>
5

>  <Dopamine transporter>
5

>  <HISTAMINE H1>
5

>  <HISTAMINE H2>
5

>  <HISTAMINE H4>
5

>  <Muscarinic acetylcholine receptor M1>
5

>  <Muscarinic acetylcholine receptor M2>
5

>  <Muscarinic acetylcholine receptor M3>
5

>  <Muscarinic acetylcholine receptor M4>
5

>  <Muscarinic acetylcholine receptor M5>
5

>  <Norepinephrine transporter>
5

>  <Serotonin transporter>
5

$$$$
390008
  Marvin  02231216192D 0   1.00000     0.00000     0

 39 44  0  0  0  0  0  0  0  0999 V2000
    0.3222    0.7886    0.0000 S   0  0  0  0  0  0  0  0  0
   -0.0134    0.0349    0.0000 C   0  0  0  0  0  0  0  0  0
    0.4715   -0.6325    0.0000 C   0  0  0  0  0  0  0  0  0
    0.1360   -1.3862    0.0000 C   0  0  0  0  0  0  0  0  0
    0.6209   -2.0537    0.0000 N   0  0  0  0  0  0  0  0  0
    1.4326   -1.9063    0.0000 C   0  0  0  0  0  0  0  0  0
    2.0539   -2.4491    0.0000 C   0  0  0  0  0  0  0  0  0
    2.0169   -3.2733    0.0000 C   0  0  0  0  0  0  0  0  0
    2.7706   -3.6089    0.0000 C   0  0  0  0  0  0  0  0  0
    2.8568   -4.4294    0.0000 C   0  0  0  0  0  0  0  0  0
    2.1894   -4.9143    0.0000 C   0  0  0  0  0  0  0  0  0
    1.4357   -4.5787    0.0000 C   0  0  0  0  0  0  0  0  0
    1.3495   -3.7582    0.0000 C   0  0  0  0  0  0  0  0  0
    0.5542   -3.5388    0.0000 C   0  0  0  0  0  0  0  0  0
    0.2299   -2.7801    0.0000 C   0  0  0  0  0  0  0  0  0
    3.6105   -4.7649    0.0000 C   0  0  0  0  0  0  0  0  0
    4.3250   -4.3524    0.0000 N   0  0  0  0  0  0  0  0  0
    4.9380   -4.9044    0.0000 N   0  0  0  0  0  0  0  0  0
    4.6025   -5.6581    0.0000 C   0  0  0  0  0  0  0  0  0
    3.7820   -5.5719    0.0000 C   0  0  0  0  0  0  0  0  0
    5.0150   -6.3726    0.0000 C   0  0  0  0  0  0  0  0  0
    4.4112   -3.5319    0.0000 C   0  0  0  0  0  0  0  0  0
   -0.1628    1.4560    0.0000 C   0  0  0  0  0  0  0  0  0
   -0.9878    1.4560    0.0000 N   0  0  0  0  0  0  0  0  0
   -1.2427    2.2406    0.0000 N   0  0  0  0  0  0  0  0  0
   -0.5753    2.7256    0.0000 C   0  0  0  0  0  0  0  0  0
    0.0922    2.2406    0.0000 N   0  0  0  0  0  0  0  0  0
    0.8768    2.4956    0.0000 C   0  0  0  0  0  0  0  0  0
   -0.5753    3.5506    0.0000 C   0  0  0  0  0  0  0  0  0
    0.1392    3.9631    0.0000 C   0  0  0  0  0  0  0  0  0
    0.1392    4.7881    0.0000 C   0  0  0  0  0  0  0  0  0
    0.8537    5.2006    0.0000 N   0  0  0  0  0  0  0  0  0
    1.5681    4.7881    0.0000 C   0  0  0  0  0  0  0  0  0
    1.5681    3.9631    0.0000 C   0  0  0  0  0  0  0  0  0
    0.8537    3.5506    0.0000 C   0  0  0  0  0  0  0  0  0
    2.2826    5.2006    0.0000 C   0  0  0  0  0  0  0  0  0
   -0.5753    5.2006    0.0000 C   0  0  0  0  0  0  0  0  0
   -1.2897    4.7881    0.0000 C   0  0  0  0  0  0  0  0  0
   -1.2897    3.9631    0.0000 C   0  0  0  0  0  0  0  0  0
  1  2  1  0  0  0  0
  1 23  1  0  0  0  0
  2  3  1  0  0  0  0
  3  4  1  0  0  0  0
  4  5  1  0  0  0  0
  5  6  1  0  0  0  0
  5 15  1  0  0  0  0
  6  7  1  0  0  0  0
  7  8  1  0  0  0  0
  8  9  4  0  0  0  0
  8 13  4  0  0  0  0
  9 10  4  0  0  0  0
 10 11  4  0  0  0  0
 10 16  1  0  0  0  0
 11 12  4  0  0  0  0
 12 13  4  0  0  0  0
 13 14  1  0  0  0  0
 14 15  1  0  0  0  0
 16 17  4  0  0  0  0
 16 20  4  0  0  0  0
 17 18  4  0  0  0  0
 17 22  1  0  0  0  0
 18 19  4  0  0  0  0
 19 20  4  0  0  0  0
 19 21  1  0  0  0  0
 23 24  4  0  0  0  0
 23 27  4  0  0  0  0
 24 25  4  0  0  0  0
 25 26  4  0  0  0  0
 26 27  4  0  0  0  0
 26 29  1  0  0  0  0
 27 28  1  0  0  0  0
 29 30  4  0  0  0  0
 29 39  4  0  0  0  0
 30 31  4  0  0  0  0
 30 35  4  0  0  0  0
 31 32  4  0  0  0  0
 31 37  4  0  0  0  0
 32 33  4  0  0  0  0
 33 34  4  0  0  0  0
 33 36  1  0  0  0  0
 34 35  4  0  0  0  0
 37 38  4  0  0  0  0
 38 39  4  0  0  0  0
M  END
>  <Name_Molregno>
390008

>  <5-HT1A>
6.2

>  <5-HT1B>
6.3

>  <5-HT1D>
6.7

>  <5-HT2A>
5.4

>  <5-HT2C>
5.4

>  <5-HT6>
5.9

>  <5-HT7>
5.7

>  <Alpha-1A>
6.2

>  <Alpha-1B>
5.7

>  <DOPAMINE D2>
6.25

>  <DOPAMINE D3>
8.7

>  <HISTAMINE H3>
6.5

$$$$
395931
  Marvin  02231216192D 0   1.00000     0.00000     0

 33 37  0  0  1  0  0  0  0  0999 V2000
    6.8150    3.3661    0.0000 F   0  0  0  0  0  0  0  0  0
    6.1005    2.9536    0.0000 C   0  0  0  0  0  0  0  0  0
    5.3860    3.3661    0.0000 C   0  0  0  0  0  0  0  0  0
    4.6715    2.9536    0.0000 C   0  0  0  0  0  0  0  0  0
    4.6715    2.1286    0.0000 C   0  0  0  0  0  0  0  0  0
    5.3860    1.7161    0.0000 C   0  0  0  0  0  0  0  0  0
    6.1005    2.1286    0.0000 C   0  0  0  0  0  0  0  0  0
    3.9571    1.7161    0.0000 C   0  0  0  0  0  0  0  0  0
    3.9571    0.8911    0.0000 N   0  0  0  0  0  0  0  0  0
    4.6715    0.4786    0.0000 C   0  0  0  0  0  0  0  0  0
    4.6715   -0.3464    0.0000 C   0  0  0  0  0  0  0  0  0
    3.9571   -0.7589    0.0000 N   0  0  0  0  0  0  0  0  0
    3.2426   -0.3464    0.0000 C   0  0  0  0  0  0  0  0  0
    3.2426    0.4786    0.0000 C   0  0  0  0  0  0  0  0  0
    3.9571   -1.5839    0.0000 C   0  0  0  0  0  0  0  0  0
    4.6715   -1.9964    0.0000 C   0  0  0  0  0  0  0  0  0
    4.6715   -2.8214    0.0000 C   0  0  0  0  0  0  0  0  0
    3.9571   -3.2339    0.0000 O   0  0  0  0  0  0  0  0  0
    3.9571   -4.0589    0.0000 C   0  0  0  0  0  0  0  0  0
    4.6715   -4.4714    0.0000 C   0  0  0  0  0  0  0  0  0
    5.3860   -4.0589    0.0000 C   0  0  0  0  0  0  0  0  0
    5.3860   -3.2339    0.0000 C   0  0  0  0  0  0  0  0  0
    6.1005   -2.8214    0.0000 C   0  0  0  0  0  0  0  0  0
    6.8150   -3.2339    0.0000 C   0  0  0  0  0  0  0  0  0
    6.8150   -4.0589    0.0000 C   0  0  0  0  0  0  0  0  0
    6.1005   -4.4714    0.0000 C   0  0  0  0  0  0  0  0  0
    7.5294   -4.4714    0.0000 C   0  0  0  0  0  0  0  0  0
    8.2439   -4.0589    0.0000 O   0  0  0  0  0  0  0  0  0
    7.5294   -5.2964    0.0000 N   0  0  0  0  0  0  0  0  0
    5.3860   -0.7589    0.0000 C   0  0  0  0  0  0  0  0  0
    3.2426    2.1286    0.0000 C   0  0  0  0  0  0  0  0  0
    3.2426    2.9536    0.0000 C   0  0  0  0  0  0  0  0  0
    3.9571    3.3661    0.0000 C   0  0  0  0  0  0  0  0  0
  1  2  1  0  0  0  0
  2  3  4  0  0  0  0
  2  7  4  0  0  0  0
  3  4  4  0  0  0  0
  4  5  4  0  0  0  0
  4 33  4  0  0  0  0
  5  6  4  0  0  0  0
  5  8  4  0  0  0  0
  6  7  4  0  0  0  0
  8  9  1  0  0  0  0
  8 31  4  0  0  0  0
  9 10  1  0  0  0  0
  9 14  1  0  0  0  0
 10 11  1  0  0  0  0
 11 12  1  0  0  0  0
 11 30  1  0  0  0  0
 12 13  1  0  0  0  0
 12 15  1  0  0  0  0
 13 14  1  0  0  0  0
 15 16  1  0  0  0  0
 16 17  1  0  0  0  0
 17 18  1  0  0  0  0
 17 22  1  0  0  0  0
 18 19  1  0  0  0  0
 19 20  1  0  0  0  0
 20 21  1  0  0  0  0
 21 22  4  0  0  0  0
 21 26  4  0  0  0  0
 22 23  4  0  0  0  0
 23 24  4  0  0  0  0
 24 25  4  0  0  0  0
 25 26  4  0  0  0  0
 25 27  1  0  0  0  0
 27 28  2  0  0  0  0
 27 29  1  0  0  0  0
 31 32  4  0  0  0  0
 32 33  4  0  0  0  0
M  END
>  <Name_Molregno>
395931

>  <5-HT1A>
6.96

>  <5-HT1B>
6.86

>  <5-HT1D>
7.49

>  <Serotonin transporter>
8.58

$$$$
395934
  Marvin  02231216192D 0   1.00000     0.00000     0

 33 37  0  0  1  0  0  0  0  0999 V2000
    5.5365    7.2538    0.0000 F   0  0  0  0  0  0  0  0  0
    5.5365    6.4288    0.0000 C   0  0  0  0  0  0  0  0  0
    4.8220    6.0163    0.0000 C   0  0  0  0  0  0  0  0  0
    4.8220    5.1913    0.0000 C   0  0  0  0  0  0  0  0  0
    5.5365    4.7788    0.0000 C   0  0  0  0  0  0  0  0  0
    5.5365    3.9538    0.0000 C   0  0  0  0  0  0  0  0  0
    4.8220    3.5413    0.0000 C   0  0  0  0  0  0  0  0  0
    4.8220    2.7163    0.0000 N   0  0  0  0  0  0  0  0  0
    5.5365    2.3038    0.0000 C   0  0  0  0  0  0  0  0  0
    5.5365    1.4788    0.0000 C   0  0  0  0  0  0  0  0  0
    4.8220    1.0663    0.0000 N   0  0  0  0  0  0  0  0  0
    4.1076    1.4788    0.0000 C   0  0  0  0  0  0  0  0  0
    4.1076    2.3038    0.0000 C   0  0  0  0  0  0  0  0  0
    4.8220    0.2413    0.0000 C   0  0  0  0  0  0  0  0  0
    5.5365   -0.1712    0.0000 C   0  0  0  0  0  0  0  0  0
    5.5365   -0.9962    0.0000 C   0  0  0  0  0  0  0  0  0
    4.8220   -1.4087    0.0000 O   0  0  0  0  0  0  0  0  0
    4.8220   -2.2337    0.0000 C   0  0  0  0  0  0  0  0  0
    5.5365   -2.6462    0.0000 C   0  0  0  0  0  0  0  0  0
    6.2510   -2.2337    0.0000 C   0  0  0  0  0  0  0  0  0
    6.2510   -1.4087    0.0000 C   0  0  0  0  0  0  0  0  0
    6.9654   -0.9962    0.0000 C   0  0  0  0  0  0  0  0  0
    7.6799   -1.4087    0.0000 C   0  0  0  0  0  0  0  0  0
    7.6799   -2.2337    0.0000 C   0  0  0  0  0  0  0  0  0
    6.9654   -2.6462    0.0000 C   0  0  0  0  0  0  0  0  0
    8.3944   -2.6462    0.0000 C   0  0  0  0  0  0  0  0  0
    9.1089   -2.2337    0.0000 O   0  0  0  0  0  0  0  0  0
    8.3944   -3.4712    0.0000 N   0  0  0  0  0  0  0  0  0
    6.2510    1.0663    0.0000 C   0  0  0  0  0  0  0  0  0
    4.1076    3.9538    0.0000 C   0  0  0  0  0  0  0  0  0
    4.1076    4.7788    0.0000 C   0  0  0  0  0  0  0  0  0
    6.2510    5.1913    0.0000 C   0  0  0  0  0  0  0  0  0
    6.2510    6.0163    0.0000 C   0  0  0  0  0  0  0  0  0
  1  2  1  0  0  0  0
  2  3  4  0  0  0  0
  2 33  4  0  0  0  0
  3  4  4  0  0  0  0
  4  5  4  0  0  0  0
  4 31  4  0  0  0  0
  5  6  4  0  0  0  0
  5 32  4  0  0  0  0
  6  7  4  0  0  0  0
  7  8  1  0  0  0  0
  7 30  4  0  0  0  0
  8  9  1  0  0  0  0
  8 13  1  0  0  0  0
  9 10  1  0  0  0  0
 10 11  1  0  0  0  0
 10 29  1  0  0  0  0
 11 12  1  0  0  0  0
 11 14  1  0  0  0  0
 12 13  1  0  0  0  0
 14 15  1  0  0  0  0
 15 16  1  0  0  0  0
 16 17  1  0  0  0  0
 16 21  1  0  0  0  0
 17 18  1  0  0  0  0
 18 19  1  0  0  0  0
 19 20  1  0  0  0  0
 20 21  4  0  0  0  0
 20 25  4  0  0  0  0
 21 22  4  0  0  0  0
 22 23  4  0  0  0  0
 23 24  4  0  0  0  0
 24 25  4  0  0  0  0
 24 26  1  0  0  0  0
 26 27  2  0  0  0  0
 26 28  1  0  0  0  0
 30 31  4  0  0  0  0
 32 33  4  0  0  0  0
M  END
>  <Name_Molregno>
395934

>  <5-HT1A>
6.51

>  <5-HT1B>
6

>  <5-HT1D>
7.85

>  <Serotonin transporter>
8.68

$$$$
395935
  Marvin  02231216192D 0   1.00000     0.00000     0

 32 36  0  0  1  0  0  0  0  0999 V2000
    5.5395    4.5598    0.0000 F   0  0  0  0  0  0  0  0  0
    5.5395    3.7348    0.0000 C   0  0  0  0  0  0  0  0  0
    4.8251    3.3223    0.0000 C   0  0  0  0  0  0  0  0  0
    4.8251    2.4973    0.0000 C   0  0  0  0  0  0  0  0  0
    5.5395    2.0848    0.0000 C   0  0  0  0  0  0  0  0  0
    5.5395    1.2598    0.0000 C   0  0  0  0  0  0  0  0  0
    4.8251    0.8473    0.0000 C   0  0  0  0  0  0  0  0  0
    4.8251    0.0223    0.0000 N   0  0  0  0  0  0  0  0  0
    5.5395   -0.3902    0.0000 C   0  0  0  0  0  0  0  0  0
    5.5395   -1.2152    0.0000 C   0  0  0  0  0  0  0  0  0
    4.8251   -1.6277    0.0000 N   0  0  0  0  0  0  0  0  0
    4.1106   -1.2152    0.0000 C   0  0  0  0  0  0  0  0  0
    4.1106   -0.3902    0.0000 C   0  0  0  0  0  0  0  0  0
    4.8251   -2.4527    0.0000 C   0  0  0  0  0  0  0  0  0
    5.5395   -2.8652    0.0000 C   0  0  0  0  0  0  0  0  0
    5.5395   -3.6902    0.0000 C   0  0  0  0  0  0  0  0  0
    4.8251   -4.1027    0.0000 O   0  0  0  0  0  0  0  0  0
    4.8251   -4.9277    0.0000 C   0  0  0  0  0  0  0  0  0
    5.5395   -5.3402    0.0000 C   0  0  0  0  0  0  0  0  0
    6.2540   -4.9277    0.0000 C   0  0  0  0  0  0  0  0  0
    6.2540   -4.1027    0.0000 C   0  0  0  0  0  0  0  0  0
    6.9685   -3.6902    0.0000 C   0  0  0  0  0  0  0  0  0
    7.6830   -4.1027    0.0000 C   0  0  0  0  0  0  0  0  0
    7.6830   -4.9277    0.0000 C   0  0  0  0  0  0  0  0  0
    6.9685   -5.3402    0.0000 C   0  0  0  0  0  0  0  0  0
    8.3974   -5.3402    0.0000 C   0  0  0  0  0  0  0  0  0
    9.1119   -4.9277    0.0000 O   0  0  0  0  0  0  0  0  0
    8.3974   -6.1652    0.0000 N   0  0  0  0  0  0  0  0  0
    4.1106    1.2598    0.0000 C   0  0  0  0  0  0  0  0  0
    4.1106    2.0848    0.0000 C   0  0  0  0  0  0  0  0  0
    6.2540    2.4973    0.0000 C   0  0  0  0  0  0  0  0  0
    6.2540    3.3223    0.0000 C   0  0  0  0  0  0  0  0  0
  1  2  1  0  0  0  0
  2  3  4  0  0  0  0
  2 32  4  0  0  0  0
  3  4  4  0  0  0  0
  4  5  4  0  0  0  0
  4 30  4  0  0  0  0
  5  6  4  0  0  0  0
  5 31  4  0  0  0  0
  6  7  4  0  0  0  0
  7  8  1  0  0  0  0
  7 29  4  0  0  0  0
  8  9  1  0  0  0  0
  8 13  1  0  0  0  0
  9 10  1  0  0  0  0
 10 11  1  0  0  0  0
 11 12  1  0  0  0  0
 11 14  1  0  0  0  0
 12 13  1  0  0  0  0
 14 15  1  0  0  0  0
 15 16  1  0  0  0  0
 16 17  1  0  0  0  0
 16 21  1  0  0  0  0
 17 18  1  0  0  0  0
 18 19  1  0  0  0  0
 19 20  1  0  0  0  0
 20 21  4  0  0  0  0
 20 25  4  0  0  0  0
 21 22  4  0  0  0  0
 22 23  4  0  0  0  0
 23 24  4  0  0  0  0
 24 25  4  0  0  0  0
 24 26  1  0  0  0  0
 26 27  2  0  0  0  0
 26 28  1  0  0  0  0
 29 30  4  0  0  0  0
 31 32  4  0  0  0  0
M  END
>  <Name_Molregno>
395935

>  <5-HT1B>
6

>  <5-HT1D>
8

>  <Serotonin transporter>
8.09

$$$$
395936
  Marvin  02231216192D 0   1.00000     0.00000     0

 34 38  0  0  1  0  0  0  0  0999 V2000
   -3.7500   -2.2869    0.0000 O   0  0  0  0  0  0  0  0  0
   -3.7500   -3.1119    0.0000 C   0  0  0  0  0  0  0  0  0
   -3.0355   -3.5244    0.0000 C   0  0  0  0  0  0  0  0  0
   -2.3210   -3.1119    0.0000 C   0  0  0  0  0  0  0  0  0
   -2.3210   -2.2869    0.0000 C   0  0  0  0  0  0  0  0  0
   -1.6066   -1.8744    0.0000 C   0  0  0  0  0  0  0  0  0
   -0.8921   -2.2869    0.0000 C   0  0  0  0  0  0  0  0  0
   -0.8921   -3.1119    0.0000 C   0  0  0  0  0  0  0  0  0
   -1.6066   -3.5244    0.0000 C   0  0  0  0  0  0  0  0  0
   -0.1776   -3.5244    0.0000 C   0  0  0  0  0  0  0  0  0
   -0.1776   -4.3494    0.0000 O   0  0  0  0  0  0  0  0  0
    0.5368   -3.1119    0.0000 N   0  0  0  0  0  0  0  0  0
   -3.0355   -1.8744    0.0000 C   0  0  0  0  0  0  0  0  0
   -3.0355   -1.0494    0.0000 C   0  0  0  0  0  0  0  0  0
   -3.7500   -0.6369    0.0000 C   0  0  0  0  0  0  0  0  0
   -3.7500    0.1881    0.0000 N   0  0  0  0  0  0  0  0  0
   -4.4645    0.6006    0.0000 C   0  0  0  0  0  0  0  0  0
   -4.4645    1.4256    0.0000 C   0  0  0  0  0  0  0  0  0
   -3.7500    1.8381    0.0000 N   0  0  0  0  0  0  0  0  0
   -3.0355    1.4256    0.0000 C   0  0  0  0  0  0  0  0  0
   -3.0355    0.6006    0.0000 C   0  0  0  0  0  0  0  0  0
   -2.3210    0.1881    0.0000 C   0  0  0  0  0  0  0  0  0
   -3.7500    2.6631    0.0000 C   0  0  0  0  0  0  0  0  0
   -3.0355    3.0756    0.0000 C   0  0  0  0  0  0  0  0  0
   -3.0355    3.9006    0.0000 C   0  0  0  0  0  0  0  0  0
   -2.3210    4.3131    0.0000 C   0  0  0  0  0  0  0  0  0
   -1.6066    3.9006    0.0000 C   0  0  0  0  0  0  0  0  0
   -1.6066    3.0756    0.0000 C   0  0  0  0  0  0  0  0  0
   -2.3210    2.6631    0.0000 C   0  0  0  0  0  0  0  0  0
   -0.8921    4.3131    0.0000 C   0  0  0  0  0  0  0  0  0
   -0.1776    4.7256    0.0000 N   0  0  0  0  0  0  0  0  0
   -3.7500    4.3131    0.0000 C   0  0  0  0  0  0  0  0  0
   -4.4645    3.9006    0.0000 C   0  0  0  0  0  0  0  0  0
   -4.4645    3.0756    0.0000 C   0  0  0  0  0  0  0  0  0
  1  2  1  0  0  0  0
  1 13  1  0  0  0  0
  2  3  1  0  0  0  0
  3  4  1  0  0  0  0
  4  5  4  0  0  0  0
  4  9  4  0  0  0  0
  5  6  4  0  0  0  0
  5 13  1  0  0  0  0
  6  7  4  0  0  0  0
  7  8  4  0  0  0  0
  8  9  4  0  0  0  0
  8 10  1  0  0  0  0
 10 11  2  0  0  0  0
 10 12  1  0  0  0  0
 13 14  1  0  0  0  0
 14 15  1  0  0  0  0
 15 16  1  0  0  0  0
 16 17  1  0  0  0  0
 16 21  1  0  0  0  0
 17 18  1  0  0  0  0
 18 19  1  0  0  0  0
 19 20  1  0  0  0  0
 19 23  1  0  0  0  0
 20 21  1  0  0  0  0
 21 22  1  0  0  0  0
 23 24  4  0  0  0  0
 23 34  4  0  0  0  0
 24 25  4  0  0  0  0
 24 29  4  0  0  0  0
 25 26  4  0  0  0  0
 25 32  4  0  0  0  0
 26 27  4  0  0  0  0
 27 28  4  0  0  0  0
 27 30  1  0  0  0  0
 28 29  4  0  0  0  0
 30 31  3  0  0  0  0
 32 33  4  0  0  0  0
 33 34  4  0  0  0  0
M  END
>  <Name_Molregno>
395936

>  <5-HT1A>
7.59

>  <5-HT1B>
7.68

>  <5-HT1D>
9.05

>  <Serotonin transporter>
8.66

$$$$
395937
  Marvin  02231216192D 0   1.00000     0.00000     0

 33 37  0  0  1  0  0  0  0  0999 V2000
   -3.7423   -2.9963    0.0000 O   0  0  0  0  0  0  0  0  0
   -3.7423   -3.8213    0.0000 C   0  0  0  0  0  0  0  0  0
   -3.0278   -4.2338    0.0000 C   0  0  0  0  0  0  0  0  0
   -2.3134   -3.8213    0.0000 C   0  0  0  0  0  0  0  0  0
   -2.3134   -2.9963    0.0000 C   0  0  0  0  0  0  0  0  0
   -1.5989   -2.5838    0.0000 C   0  0  0  0  0  0  0  0  0
   -0.8844   -2.9963    0.0000 C   0  0  0  0  0  0  0  0  0
   -0.8844   -3.8213    0.0000 C   0  0  0  0  0  0  0  0  0
   -1.5989   -4.2338    0.0000 C   0  0  0  0  0  0  0  0  0
   -0.1700   -4.2338    0.0000 C   0  0  0  0  0  0  0  0  0
   -0.1700   -5.0588    0.0000 O   0  0  0  0  0  0  0  0  0
    0.5445   -3.8213    0.0000 N   0  0  0  0  0  0  0  0  0
   -3.0278   -2.5838    0.0000 C   0  0  0  0  0  0  0  0  0
   -3.0278   -1.7588    0.0000 C   0  0  0  0  0  0  0  0  0
   -3.7423   -1.3463    0.0000 C   0  0  0  0  0  0  0  0  0
   -3.7423   -0.5213    0.0000 N   0  0  0  0  0  0  0  0  0
   -4.4568   -0.1088    0.0000 C   0  0  0  0  0  0  0  0  0
   -4.4568    0.7162    0.0000 C   0  0  0  0  0  0  0  0  0
   -3.7423    1.1287    0.0000 N   0  0  0  0  0  0  0  0  0
   -3.0278    0.7162    0.0000 C   0  0  0  0  0  0  0  0  0
   -3.0278   -0.1088    0.0000 C   0  0  0  0  0  0  0  0  0
   -3.7423    1.9537    0.0000 C   0  0  0  0  0  0  0  0  0
   -3.0278    2.3662    0.0000 C   0  0  0  0  0  0  0  0  0
   -3.0278    3.1912    0.0000 C   0  0  0  0  0  0  0  0  0
   -2.3134    3.6037    0.0000 C   0  0  0  0  0  0  0  0  0
   -1.5989    3.1912    0.0000 C   0  0  0  0  0  0  0  0  0
   -1.5989    2.3662    0.0000 C   0  0  0  0  0  0  0  0  0
   -2.3134    1.9537    0.0000 C   0  0  0  0  0  0  0  0  0
   -0.8844    3.6037    0.0000 C   0  0  0  0  0  0  0  0  0
   -0.1700    4.0162    0.0000 N   0  0  0  0  0  0  0  0  0
   -3.7423    3.6037    0.0000 C   0  0  0  0  0  0  0  0  0
   -4.4568    3.1912    0.0000 C   0  0  0  0  0  0  0  0  0
   -4.4568    2.3662    0.0000 C   0  0  0  0  0  0  0  0  0
  1  2  1  0  0  0  0
  1 13  1  0  0  0  0
  2  3  1  0  0  0  0
  3  4  1  0  0  0  0
  4  5  4  0  0  0  0
  4  9  4  0  0  0  0
  5  6  4  0  0  0  0
  5 13  1  0  0  0  0
  6  7  4  0  0  0  0
  7  8  4  0  0  0  0
  8  9  4  0  0  0  0
  8 10  1  0  0  0  0
 10 11  2  0  0  0  0
 10 12  1  0  0  0  0
 13 14  1  0  0  0  0
 14 15  1  0  0  0  0
 15 16  1  0  0  0  0
 16 17  1  0  0  0  0
 16 21  1  0  0  0  0
 17 18  1  0  0  0  0
 18 19  1  0  0  0  0
 19 20  1  0  0  0  0
 19 22  1  0  0  0  0
 20 21  1  0  0  0  0
 22 23  4  0  0  0  0
 22 33  4  0  0  0  0
 23 24  4  0  0  0  0
 23 28  4  0  0  0  0
 24 25  4  0  0  0  0
 24 31  4  0  0  0  0
 25 26  4  0  0  0  0
 26 27  4  0  0  0  0
 26 29  1  0  0  0  0
 27 28  4  0  0  0  0
 29 30  3  0  0  0  0
 31 32  4  0  0  0  0
 32 33  4  0  0  0  0
M  END
>  <Name_Molregno>
395937

>  <5-HT1A>
7.8

>  <5-HT1B>
7.82

>  <5-HT1D>
9

>  <Serotonin transporter>
8.24

$$$$
395938
  Marvin  02231216192D 0   1.00000     0.00000     0

 32 36  0  0  1  0  0  0  0  0999 V2000
    5.4737    5.2206    0.0000 F   0  0  0  0  0  0  0  0  0
    4.9217    4.6075    0.0000 C   0  0  0  0  0  0  0  0  0
    4.1147    4.7790    0.0000 C   0  0  0  0  0  0  0  0  0
    3.5627    4.1659    0.0000 C   0  0  0  0  0  0  0  0  0
    3.8176    3.3813    0.0000 C   0  0  0  0  0  0  0  0  0
    4.6246    3.2098    0.0000 C   0  0  0  0  0  0  0  0  0
    5.1766    3.8229    0.0000 C   0  0  0  0  0  0  0  0  0
    3.2656    2.7682    0.0000 C   0  0  0  0  0  0  0  0  0
    3.5205    1.9836    0.0000 N   0  0  0  0  0  0  0  0  0
    4.3275    1.8120    0.0000 C   0  0  0  0  0  0  0  0  0
    4.5825    1.0274    0.0000 C   0  0  0  0  0  0  0  0  0
    4.0304    0.4143    0.0000 N   0  0  0  0  0  0  0  0  0
    3.2235    0.5859    0.0000 C   0  0  0  0  0  0  0  0  0
    2.9685    1.3705    0.0000 C   0  0  0  0  0  0  0  0  0
    4.2854   -0.3703    0.0000 C   0  0  0  0  0  0  0  0  0
    5.0923   -0.5418    0.0000 C   0  0  0  0  0  0  0  0  0
    5.3473   -1.3264    0.0000 C   0  0  0  0  0  0  0  0  0
    4.8624   -1.9939    0.0000 O   0  0  0  0  0  0  0  0  0
    5.3473   -2.6613    0.0000 C   0  0  0  0  0  0  0  0  0
    6.1319   -2.4064    0.0000 C   0  0  0  0  0  0  0  0  0
    6.1319   -1.5814    0.0000 C   0  0  0  0  0  0  0  0  0
    6.8464   -1.1689    0.0000 C   0  0  0  0  0  0  0  0  0
    7.5608   -1.5814    0.0000 C   0  0  0  0  0  0  0  0  0
    7.5608   -2.4064    0.0000 C   0  0  0  0  0  0  0  0  0
    6.8464   -2.8189    0.0000 C   0  0  0  0  0  0  0  0  0
    8.2753   -2.8189    0.0000 C   0  0  0  0  0  0  0  0  0
    8.9898   -2.4064    0.0000 O   0  0  0  0  0  0  0  0  0
    8.2753   -3.6439    0.0000 N   0  0  0  0  0  0  0  0  0
    5.3894    0.8559    0.0000 C   0  0  0  0  0  0  0  0  0
    2.4586    2.9397    0.0000 C   0  0  0  0  0  0  0  0  0
    2.2037    3.7243    0.0000 C   0  0  0  0  0  0  0  0  0
    2.7557    4.3374    0.0000 C   0  0  0  0  0  0  0  0  0
  1  2  1  0  0  0  0
  2  3  4  0  0  0  0
  2  7  4  0  0  0  0
  3  4  4  0  0  0  0
  4  5  4  0  0  0  0
  4 32  4  0  0  0  0
  5  6  4  0  0  0  0
  5  8  4  0  0  0  0
  6  7  4  0  0  0  0
  8  9  1  0  0  0  0
  8 30  4  0  0  0  0
  9 10  1  0  0  0  0
  9 14  1  0  0  0  0
 10 11  1  0  0  0  0
 11 12  1  0  0  0  0
 11 29  1  0  0  0  0
 12 13  1  0  0  0  0
 12 15  1  0  0  0  0
 13 14  1  0  0  0  0
 15 16  1  0  0  0  0
 16 17  1  0  0  0  0
 17 18  1  0  0  0  0
 17 21  1  0  0  0  0
 18 19  1  0  0  0  0
 19 20  1  0  0  0  0
 20 21  1  0  0  0  0
 20 25  2  0  0  0  0
 21 22  1  0  0  0  0
 22 23  1  0  0  0  0
 23 24  2  0  0  0  0
 24 25  1  0  0  0  0
 24 26  1  0  0  0  0
 26 27  2  0  0  0  0
 26 28  1  0  0  0  0
 30 31  4  0  0  0  0
 31 32  4  0  0  0  0
M  END
>  <Name_Molregno>
395938

>  <5-HT1A>
7.89

>  <5-HT1B>
6.47

>  <5-HT1D>
7.51

>  <Serotonin transporter>
8.48

$$$$
395941
  Marvin  02231216192D 0   1.00000     0.00000     0

 33 37  0  0  1  0  0  0  0  0999 V2000
   -3.7008   -2.8667    0.0000 O   0  0  0  0  0  0  0  0  0
   -3.4459   -3.6513    0.0000 C   0  0  0  0  0  0  0  0  0
   -2.6209   -3.6513    0.0000 C   0  0  0  0  0  0  0  0  0
   -2.3659   -2.8667    0.0000 C   0  0  0  0  0  0  0  0  0
   -1.5590   -2.6952    0.0000 C   0  0  0  0  0  0  0  0  0
   -1.0069   -3.3083    0.0000 C   0  0  0  0  0  0  0  0  0
   -1.2619   -4.0929    0.0000 C   0  0  0  0  0  0  0  0  0
   -2.0688   -4.2644    0.0000 C   0  0  0  0  0  0  0  0  0
   -0.7098   -4.7060    0.0000 C   0  0  0  0  0  0  0  0  0
   -0.9648   -5.4906    0.0000 O   0  0  0  0  0  0  0  0  0
    0.0971   -4.5345    0.0000 N   0  0  0  0  0  0  0  0  0
   -3.0334   -2.3818    0.0000 C   0  0  0  0  0  0  0  0  0
   -3.0334   -1.5568    0.0000 C   0  0  0  0  0  0  0  0  0
   -3.7478   -1.1443    0.0000 C   0  0  0  0  0  0  0  0  0
   -3.7478   -0.3193    0.0000 N   0  0  0  0  0  0  0  0  0
   -4.4623    0.0932    0.0000 C   0  0  0  0  0  0  0  0  0
   -4.4623    0.9182    0.0000 C   0  0  0  0  0  0  0  0  0
   -3.7478    1.3307    0.0000 N   0  0  0  0  0  0  0  0  0
   -3.0334    0.9182    0.0000 C   0  0  0  0  0  0  0  0  0
   -3.0334    0.0932    0.0000 C   0  0  0  0  0  0  0  0  0
   -2.3189   -0.3193    0.0000 C   0  0  0  0  0  0  0  0  0
   -3.7478    2.1557    0.0000 C   0  0  0  0  0  0  0  0  0
   -3.0334    2.5682    0.0000 C   0  0  0  0  0  0  0  0  0
   -3.0334    3.3932    0.0000 C   0  0  0  0  0  0  0  0  0
   -2.3189    3.8057    0.0000 C   0  0  0  0  0  0  0  0  0
   -1.6044    3.3932    0.0000 C   0  0  0  0  0  0  0  0  0
   -1.6044    2.5682    0.0000 C   0  0  0  0  0  0  0  0  0
   -2.3189    2.1557    0.0000 C   0  0  0  0  0  0  0  0  0
   -0.8899    3.8057    0.0000 C   0  0  0  0  0  0  0  0  0
   -0.1755    4.2182    0.0000 N   0  0  0  0  0  0  0  0  0
   -3.7478    3.8057    0.0000 C   0  0  0  0  0  0  0  0  0
   -4.4623    3.3932    0.0000 C   0  0  0  0  0  0  0  0  0
   -4.4623    2.5682    0.0000 C   0  0  0  0  0  0  0  0  0
  1  2  1  0  0  0  0
  1 12  1  0  0  0  0
  2  3  1  0  0  0  0
  3  4  1  0  0  0  0
  3  8  2  0  0  0  0
  4  5  1  0  0  0  0
  4 12  1  0  0  0  0
  5  6  1  0  0  0  0
  6  7  2  0  0  0  0
  7  8  1  0  0  0  0
  7  9  1  0  0  0  0
  9 10  2  0  0  0  0
  9 11  1  0  0  0  0
 12 13  1  0  0  0  0
 13 14  1  0  0  0  0
 14 15  1  0  0  0  0
 15 16  1  0  0  0  0
 15 20  1  0  0  0  0
 16 17  1  0  0  0  0
 17 18  1  0  0  0  0
 18 19  1  0  0  0  0
 18 22  1  0  0  0  0
 19 20  1  0  0  0  0
 20 21  1  0  0  0  0
 22 23  4  0  0  0  0
 22 33  4  0  0  0  0
 23 24  4  0  0  0  0
 23 28  4  0  0  0  0
 24 25  4  0  0  0  0
 24 31  4  0  0  0  0
 25 26  4  0  0  0  0
 26 27  4  0  0  0  0
 26 29  1  0  0  0  0
 27 28  4  0  0  0  0
 29 30  3  0  0  0  0
 31 32  4  0  0  0  0
 32 33  4  0  0  0  0
M  END
>  <Name_Molregno>
395941

>  <5-HT1B>
7.06

>  <5-HT1D>
8.74

>  <Serotonin transporter>
8.89

$$$$
405786
  Marvin  02231216192D 0   1.00000     0.00000     0

 16 18  0  0  1  0  0  0  0  0999 V2000
   -4.1976   -1.0327    0.0000 N   0  0  0  0  0  0  0  0  0
   -4.6825   -0.3653    0.0000 N   0  0  0  0  0  0  0  0  0
   -4.1976    0.3022    0.0000 C   0  0  0  0  0  0  0  0  0
   -3.4129    0.0472    0.0000 C   0  0  0  0  0  0  0  0  0
   -2.6985    0.4597    0.0000 C   0  0  0  0  0  0  0  0  0
   -1.9840    0.0472    0.0000 C   0  0  0  0  0  0  0  0  0
   -1.2695    0.4597    0.0000 N   0  0  0  0  0  0  0  0  0
   -0.5551    0.0472    0.0000 C   0  0  0  0  0  0  0  0  0
   -0.5551   -0.7778    0.0000 C   0  0  0  0  0  0  0  0  0
   -1.2695   -1.1903    0.0000 C   0  0  0  0  0  0  0  0  0
   -1.9840   -0.7778    0.0000 C   0  0  0  0  0  0  0  0  0
   -2.6985   -1.1903    0.0000 C   0  0  0  0  0  0  0  0  0
   -3.4129   -0.7778    0.0000 C   0  0  0  0  0  0  0  0  0
   -1.2695    1.2847    0.0000 C   0  0  0  0  0  0  0  0  0
   -0.5551    1.6972    0.0000 C   0  0  0  0  0  0  0  0  0
   -0.5551    2.5222    0.0000 C   0  0  0  0  0  0  0  0  0
  1  2  4  0  0  0  0
  1 13  4  0  0  0  0
  2  3  4  0  0  0  0
  3  4  4  0  0  0  0
  4  5  1  0  0  0  0
  4 13  4  0  0  0  0
  5  6  1  0  0  0  0
  6  7  1  0  0  0  0
  6 11  1  0  0  0  0
  7  8  1  0  0  0  0
  7 14  1  0  0  0  0
  8  9  1  0  0  0  0
  9 10  1  0  0  0  0
 10 11  1  0  0  0  0
 11 12  1  0  0  0  0
 12 13  1  0  0  0  0
 14 15  1  0  0  0  0
 15 16  1  0  0  0  0
M  STY  1   1 DAT
M  SAL   1  1   1
M  SDT   1 MRV_IMPLICIT_H                                        
M  SDD   1     0.0000    0.0000    DR    ALL  0       0  
M  SED   1 IMPL_H1
M  END
>  <Name_Molregno>
405786

>  <5-HT1A>
5.77

>  <5-HT1B>
5

>  <5-HT1D>
5

>  <5-HT2A>
5.24

>  <5-HT2C>
5.24

>  <Alpha-1A>
5

>  <Alpha-1B>
5

>  <Alpha-2A>
5

>  <Alpha-2B>
5.6

>  <Alpha-2C>
5

>  <Beta-1>
5

>  <Beta-2>
5

>  <DOPAMINE D1>
5

>  <DOPAMINE D2>
6.31

>  <DOPAMINE D3>
7.73

>  <DOPAMINE D4>
7.37

>  <DOPAMINE D5>
5

$$$$
408183
  Marvin  02231216192D 0   1.00000     0.00000     0

 31 35  0  0  0  0  0  0  0  0999 V2000
    1.8557   -2.9498    0.0000 Cl  0  0  0  0  0  0  0  0  0
    2.1913   -2.1962    0.0000 C   0  0  0  0  0  0  0  0  0
    1.7063   -1.5287    0.0000 C   0  0  0  0  0  0  0  0  0
    2.0419   -0.7751    0.0000 C   0  0  0  0  0  0  0  0  0
    2.8624   -0.6888    0.0000 C   0  0  0  0  0  0  0  0  0
    3.3473   -1.3563    0.0000 C   0  0  0  0  0  0  0  0  0
    3.0117   -2.1099    0.0000 C   0  0  0  0  0  0  0  0  0
    3.1979    0.0649    0.0000 C   0  0  0  0  0  0  0  0  0
    2.7854    0.7793    0.0000 O   0  0  0  0  0  0  0  0  0
    3.3375    1.3924    0.0000 N   0  0  0  0  0  0  0  0  0
    4.0911    1.0569    0.0000 C   0  0  0  0  0  0  0  0  0
    4.0049    0.2364    0.0000 N   0  0  0  0  0  0  0  0  0
    4.8056    1.4694    0.0000 C   0  0  0  0  0  0  0  0  0
    5.5201    1.0569    0.0000 O   0  0  0  0  0  0  0  0  0
    6.2346    1.4694    0.0000 C   0  0  0  0  0  0  0  0  0
    6.9490    1.0569    0.0000 C   0  0  0  0  0  0  0  0  0
    7.6635    1.4694    0.0000 C   0  0  0  0  0  0  0  0  0
    7.6635    2.2944    0.0000 C   0  0  0  0  0  0  0  0  0
    6.9490    2.7069    0.0000 C   0  0  0  0  0  0  0  0  0
    6.2346    2.2944    0.0000 C   0  0  0  0  0  0  0  0  0
    8.3780    2.7069    0.0000 C   0  0  0  0  0  0  0  0  0
    9.0924    2.2944    0.0000 C   0  0  0  0  0  0  0  0  0
    9.0924    1.4694    0.0000 C   0  0  0  0  0  0  0  0  0
    8.3780    1.0569    0.0000 C   0  0  0  0  0  0  0  0  0
    8.3780    0.2319    0.0000 N   0  0  0  0  0  0  0  0  0
    9.0924   -0.1806    0.0000 C   0  0  0  0  0  0  0  0  0
    9.0924   -1.0056    0.0000 C   0  0  0  0  0  0  0  0  0
    8.3780   -1.4181    0.0000 N   0  0  0  0  0  0  0  0  0
    7.6635   -1.0056    0.0000 C   0  0  0  0  0  0  0  0  0
    7.6635   -0.1806    0.0000 C   0  0  0  0  0  0  0  0  0
    8.3780   -2.2431    0.0000 C   0  0  0  0  0  0  0  0  0
  1  2  1  0  0  0  0
  2  3  4  0  0  0  0
  2  7  4  0  0  0  0
  3  4  4  0  0  0  0
  4  5  4  0  0  0  0
  5  6  4  0  0  0  0
  5  8  1  0  0  0  0
  6  7  4  0  0  0  0
  8  9  4  0  0  0  0
  8 12  4  0  0  0  0
  9 10  4  0  0  0  0
 10 11  4  0  0  0  0
 11 12  4  0  0  0  0
 11 13  1  0  0  0  0
 13 14  1  0  0  0  0
 14 15  1  0  0  0  0
 15 16  4  0  0  0  0
 15 20  4  0  0  0  0
 16 17  4  0  0  0  0
 17 18  4  0  0  0  0
 17 24  4  0  0  0  0
 18 19  4  0  0  0  0
 18 21  4  0  0  0  0
 19 20  4  0  0  0  0
 21 22  4  0  0  0  0
 22 23  4  0  0  0  0
 23 24  4  0  0  0  0
 24 25  1  0  0  0  0
 25 26  1  0  0  0  0
 25 30  1  0  0  0  0
 26 27  1  0  0  0  0
 27 28  1  0  0  0  0
 28 29  1  0  0  0  0
 28 31  1  0  0  0  0
 29 30  1  0  0  0  0
M  END
>  <Name_Molregno>
408183

>  <5-HT1B>
9

$$$$
408185
  Marvin  02231216192D 0   1.00000     0.00000     0

 32 36  0  0  1  0  0  0  0  0999 V2000
   12.3316   -0.0110    0.0000 Cl  0  0  0  0  0  0  0  0  0
   11.5112   -0.0973    0.0000 C   0  0  0  0  0  0  0  0  0
   11.1756   -0.8509    0.0000 C   0  0  0  0  0  0  0  0  0
   10.3551   -0.9372    0.0000 C   0  0  0  0  0  0  0  0  0
    9.8702   -0.2697    0.0000 C   0  0  0  0  0  0  0  0  0
   10.2058    0.4840    0.0000 C   0  0  0  0  0  0  0  0  0
   11.0262    0.5702    0.0000 C   0  0  0  0  0  0  0  0  0
    9.0497   -0.3560    0.0000 C   0  0  0  0  0  0  0  0  0
    8.6372   -1.0704    0.0000 O   0  0  0  0  0  0  0  0  0
    7.8302   -0.8989    0.0000 N   0  0  0  0  0  0  0  0  0
    7.7440   -0.0784    0.0000 C   0  0  0  0  0  0  0  0  0
    8.4977    0.2571    0.0000 N   0  0  0  0  0  0  0  0  0
    7.0295    0.3341    0.0000 C   0  0  0  0  0  0  0  0  0
    6.3151   -0.0784    0.0000 O   0  0  0  0  0  0  0  0  0
    5.6006    0.3341    0.0000 C   0  0  0  0  0  0  0  0  0
    4.8861   -0.0784    0.0000 C   0  0  0  0  0  0  0  0  0
    4.1716    0.3341    0.0000 C   0  0  0  0  0  0  0  0  0
    4.1716    1.1591    0.0000 C   0  0  0  0  0  0  0  0  0
    3.3870    1.4140    0.0000 C   0  0  0  0  0  0  0  0  0
    2.9021    0.7466    0.0000 C   0  0  0  0  0  0  0  0  0
    3.3870    0.0791    0.0000 C   0  0  0  0  0  0  0  0  0
    3.1321   -0.7055    0.0000 N   0  0  0  0  0  0  0  0  0
    3.6841   -1.3186    0.0000 C   0  0  0  0  0  0  0  0  0
    3.4292   -2.1032    0.0000 C   0  0  0  0  0  0  0  0  0
    2.6222   -2.2747    0.0000 N   0  0  0  0  0  0  0  0  0
    2.0702   -1.6616    0.0000 C   0  0  0  0  0  0  0  0  0
    2.3251   -0.8770    0.0000 C   0  0  0  0  0  0  0  0  0
    2.3673   -3.0593    0.0000 C   0  0  0  0  0  0  0  0  0
    2.9193   -3.6724    0.0000 C   0  0  0  0  0  0  0  0  0
    1.5603   -3.2309    0.0000 C   0  0  0  0  0  0  0  0  0
    4.8861    1.5716    0.0000 C   0  0  0  0  0  0  0  0  0
    5.6006    1.1591    0.0000 C   0  0  0  0  0  0  0  0  0
  1  2  1  0  0  0  0
  2  3  4  0  0  0  0
  2  7  4  0  0  0  0
  3  4  4  0  0  0  0
  4  5  4  0  0  0  0
  5  6  4  0  0  0  0
  5  8  1  0  0  0  0
  6  7  4  0  0  0  0
  8  9  4  0  0  0  0
  8 12  4  0  0  0  0
  9 10  4  0  0  0  0
 10 11  4  0  0  0  0
 11 12  4  0  0  0  0
 11 13  1  0  0  0  0
 13 14  1  0  0  0  0
 14 15  1  0  0  0  0
 15 16  4  0  0  0  0
 15 32  4  0  0  0  0
 16 17  4  0  0  0  0
 17 18  4  0  0  0  0
 17 21  1  0  0  0  0
 18 19  1  0  0  0  0
 18 31  4  0  0  0  0
 19 20  1  0  0  0  0
 20 21  1  0  0  0  0
 21 22  1  0  0  0  0
 22 23  1  0  0  0  0
 22 27  1  0  0  0  0
 23 24  1  0  0  0  0
 24 25  1  0  0  0  0
 25 26  1  0  0  0  0
 25 28  1  0  0  0  0
 26 27  1  0  0  0  0
 28 29  1  0  0  0  0
 28 30  1  0  0  0  0
 31 32  4  0  0  0  0
M  END
>  <Name_Molregno>
408185

>  <5-HT1B>
7.51

$$$$
408187
  Marvin  02231216192D 0   1.00000     0.00000     0

 36 41  0  0  1  0  0  0  0  0999 V2000
   13.3185    1.1152    0.0000 Cl  0  0  0  0  0  0  0  0  0
   12.4980    1.0289    0.0000 C   0  0  0  0  0  0  0  0  0
   12.1625    0.2752    0.0000 C   0  0  0  0  0  0  0  0  0
   11.3420    0.1890    0.0000 C   0  0  0  0  0  0  0  0  0
   10.8571    0.8564    0.0000 C   0  0  0  0  0  0  0  0  0
   11.1926    1.6101    0.0000 C   0  0  0  0  0  0  0  0  0
   12.0131    1.6964    0.0000 C   0  0  0  0  0  0  0  0  0
   10.0366    0.7702    0.0000 C   0  0  0  0  0  0  0  0  0
    9.6241    0.0557    0.0000 O   0  0  0  0  0  0  0  0  0
    8.8171    0.2273    0.0000 N   0  0  0  0  0  0  0  0  0
    8.7309    1.0477    0.0000 C   0  0  0  0  0  0  0  0  0
    9.4846    1.3833    0.0000 N   0  0  0  0  0  0  0  0  0
    8.0164    1.4602    0.0000 C   0  0  0  0  0  0  0  0  0
    7.3020    1.0477    0.0000 O   0  0  0  0  0  0  0  0  0
    6.5875    1.4602    0.0000 C   0  0  0  0  0  0  0  0  0
    5.8730    1.0477    0.0000 C   0  0  0  0  0  0  0  0  0
    5.1585    1.4602    0.0000 C   0  0  0  0  0  0  0  0  0
    5.1585    2.2852    0.0000 C   0  0  0  0  0  0  0  0  0
    4.3739    2.5402    0.0000 C   0  0  0  0  0  0  0  0  0
    3.8890    1.8727    0.0000 C   0  0  0  0  0  0  0  0  0
    4.3739    1.2053    0.0000 C   0  0  0  0  0  0  0  0  0
    4.1190    0.4207    0.0000 N   0  0  0  0  0  0  0  0  0
    4.6710   -0.1924    0.0000 C   0  0  0  0  0  0  0  0  0
    4.4161   -0.9770    0.0000 C   0  0  0  0  0  0  0  0  0
    3.6091   -1.1486    0.0000 N   0  0  0  0  0  0  0  0  0
    3.0571   -0.5355    0.0000 C   0  0  0  0  0  0  0  0  0
    3.3120    0.2492    0.0000 C   0  0  0  0  0  0  0  0  0
    3.3542   -1.9332    0.0000 C   0  0  0  0  0  0  0  0  0
    3.8391   -2.6006    0.0000 C   0  0  0  0  0  0  0  0  0
    3.3542   -3.2681    0.0000 C   0  0  0  0  0  0  0  0  0
    3.6091   -4.0527    0.0000 C   0  0  0  0  0  0  0  0  0
    2.5695   -3.0131    0.0000 C   0  0  0  0  0  0  0  0  0
    2.5695   -2.1881    0.0000 C   0  0  0  0  0  0  0  0  0
    1.9021   -3.4980    0.0000 C   0  0  0  0  0  0  0  0  0
    5.8730    2.6977    0.0000 C   0  0  0  0  0  0  0  0  0
    6.5875    2.2852    0.0000 C   0  0  0  0  0  0  0  0  0
  1  2  1  0  0  0  0
  2  3  4  0  0  0  0
  2  7  4  0  0  0  0
  3  4  4  0  0  0  0
  4  5  4  0  0  0  0
  5  6  4  0  0  0  0
  5  8  1  0  0  0  0
  6  7  4  0  0  0  0
  8  9  4  0  0  0  0
  8 12  4  0  0  0  0
  9 10  4  0  0  0  0
 10 11  4  0  0  0  0
 11 12  4  0  0  0  0
 11 13  1  0  0  0  0
 13 14  1  0  0  0  0
 14 15  1  0  0  0  0
 15 16  4  0  0  0  0
 15 36  4  0  0  0  0
 16 17  4  0  0  0  0
 17 18  4  0  0  0  0
 17 21  1  0  0  0  0
 18 19  1  0  0  0  0
 18 35  4  0  0  0  0
 19 20  1  0  0  0  0
 20 21  1  0  0  0  0
 21 22  1  0  0  0  0
 22 23  1  0  0  0  0
 22 27  1  0  0  0  0
 23 24  1  0  0  0  0
 24 25  1  0  0  0  0
 25 26  1  0  0  0  0
 25 28  1  0  0  0  0
 26 27  1  0  0  0  0
 28 29  1  0  0  0  0
 28 33  1  0  0  0  0
 29 30  1  0  0  0  0
 30 31  1  0  0  0  0
 30 32  1  0  0  0  0
 32 33  1  0  0  0  0
 32 34  1  0  0  0  0
 35 36  4  0  0  0  0
M  END
>  <Name_Molregno>
408187

>  <5-HT1B>
6.38

$$$$
408189
  Marvin  02231216192D 0   1.00000     0.00000     0

 36 41  0  0  1  0  0  0  0  0999 V2000
   13.2029    0.0436    0.0000 Cl  0  0  0  0  0  0  0  0  0
   12.3824   -0.0426    0.0000 C   0  0  0  0  0  0  0  0  0
   12.0469   -0.7963    0.0000 C   0  0  0  0  0  0  0  0  0
   11.2264   -0.8826    0.0000 C   0  0  0  0  0  0  0  0  0
   10.7415   -0.2151    0.0000 C   0  0  0  0  0  0  0  0  0
   11.0770    0.5386    0.0000 C   0  0  0  0  0  0  0  0  0
   11.8975    0.6248    0.0000 C   0  0  0  0  0  0  0  0  0
    9.9210   -0.3014    0.0000 C   0  0  0  0  0  0  0  0  0
    9.5085   -1.0158    0.0000 O   0  0  0  0  0  0  0  0  0
    8.7015   -0.8443    0.0000 N   0  0  0  0  0  0  0  0  0
    8.6153   -0.0238    0.0000 C   0  0  0  0  0  0  0  0  0
    9.3690    0.3117    0.0000 N   0  0  0  0  0  0  0  0  0
    7.9008    0.3887    0.0000 C   0  0  0  0  0  0  0  0  0
    7.1863   -0.0238    0.0000 O   0  0  0  0  0  0  0  0  0
    6.4719    0.3887    0.0000 C   0  0  0  0  0  0  0  0  0
    5.7574   -0.0238    0.0000 C   0  0  0  0  0  0  0  0  0
    5.0429    0.3887    0.0000 C   0  0  0  0  0  0  0  0  0
    5.0429    1.2137    0.0000 C   0  0  0  0  0  0  0  0  0
    4.2583    1.4686    0.0000 C   0  0  0  0  0  0  0  0  0
    3.7734    0.8012    0.0000 C   0  0  0  0  0  0  0  0  0
    4.2583    0.1337    0.0000 C   0  0  0  0  0  0  0  0  0
    4.0034   -0.6509    0.0000 N   0  0  0  0  0  0  0  0  0
    4.5554   -1.2640    0.0000 C   0  0  0  0  0  0  0  0  0
    4.3005   -2.0486    0.0000 C   0  0  0  0  0  0  0  0  0
    3.4935   -2.2201    0.0000 N   0  0  0  0  0  0  0  0  0
    2.9415   -1.6070    0.0000 C   0  0  0  0  0  0  0  0  0
    3.1964   -0.8224    0.0000 C   0  0  0  0  0  0  0  0  0
    3.2386   -3.0047    0.0000 C   0  0  0  0  0  0  0  0  0
    3.1523   -3.8252    0.0000 C   0  0  0  0  0  0  0  0  0
    2.3453   -3.9968    0.0000 C   0  0  0  0  0  0  0  0  0
    1.9328   -3.2823    0.0000 C   0  0  0  0  0  0  0  0  0
    2.4849   -2.6692    0.0000 C   0  0  0  0  0  0  0  0  0
    4.0455   -3.1763    0.0000 C   0  0  0  0  0  0  0  0  0
    4.3005   -3.9609    0.0000 O   0  0  0  0  0  0  0  0  0
    5.7574    1.6262    0.0000 C   0  0  0  0  0  0  0  0  0
    6.4719    1.2137    0.0000 C   0  0  0  0  0  0  0  0  0
  1  2  1  0  0  0  0
  2  3  4  0  0  0  0
  2  7  4  0  0  0  0
  3  4  4  0  0  0  0
  4  5  4  0  0  0  0
  5  6  4  0  0  0  0
  5  8  1  0  0  0  0
  6  7  4  0  0  0  0
  8  9  4  0  0  0  0
  8 12  4  0  0  0  0
  9 10  4  0  0  0  0
 10 11  4  0  0  0  0
 11 12  4  0  0  0  0
 11 13  1  0  0  0  0
 13 14  1  0  0  0  0
 14 15  1  0  0  0  0
 15 16  4  0  0  0  0
 15 36  4  0  0  0  0
 16 17  4  0  0  0  0
 17 18  4  0  0  0  0
 17 21  1  0  0  0  0
 18 19  1  0  0  0  0
 18 35  4  0  0  0  0
 19 20  1  0  0  0  0
 20 21  1  0  0  0  0
 21 22  1  0  0  0  0
 22 23  1  0  0  0  0
 22 27  1  0  0  0  0
 23 24  1  0  0  0  0
 24 25  1  0  0  0  0
 25 26  1  0  0  0  0
 25 28  1  0  0  0  0
 26 27  1  0  0  0  0
 28 29  1  0  0  0  0
 28 32  1  0  0  0  0
 28 33  1  0  0  0  0
 29 30  1  0  0  0  0
 30 31  1  0  0  0  0
 31 32  1  0  0  0  0
 33 34  1  0  0  0  0
 35 36  4  0  0  0  0
M  END
>  <Name_Molregno>
408189

>  <5-HT1B>
5.83

$$$$
408194
  Marvin  02231216192D 0   1.00000     0.00000     0

 34 38  0  0  1  0  0  0  0  0999 V2000
   13.6033    0.1881    0.0000 Cl  0  0  0  0  0  0  0  0  0
   12.7828    0.1019    0.0000 C   0  0  0  0  0  0  0  0  0
   12.4473   -0.6518    0.0000 C   0  0  0  0  0  0  0  0  0
   11.6268   -0.7380    0.0000 C   0  0  0  0  0  0  0  0  0
   11.1419   -0.0706    0.0000 C   0  0  0  0  0  0  0  0  0
   11.4774    0.6831    0.0000 C   0  0  0  0  0  0  0  0  0
   12.2979    0.7693    0.0000 C   0  0  0  0  0  0  0  0  0
   10.3214   -0.1568    0.0000 C   0  0  0  0  0  0  0  0  0
    9.9089   -0.8713    0.0000 O   0  0  0  0  0  0  0  0  0
    9.1019   -0.6998    0.0000 N   0  0  0  0  0  0  0  0  0
    9.0157    0.1207    0.0000 C   0  0  0  0  0  0  0  0  0
    9.7694    0.4562    0.0000 N   0  0  0  0  0  0  0  0  0
    8.3012    0.5332    0.0000 C   0  0  0  0  0  0  0  0  0
    7.5868    0.1207    0.0000 O   0  0  0  0  0  0  0  0  0
    6.8723    0.5332    0.0000 C   0  0  0  0  0  0  0  0  0
    6.1578    0.1207    0.0000 C   0  0  0  0  0  0  0  0  0
    5.4433    0.5332    0.0000 C   0  0  0  0  0  0  0  0  0
    5.4433    1.3582    0.0000 C   0  0  0  0  0  0  0  0  0
    4.6587    1.6131    0.0000 C   0  0  0  0  0  0  0  0  0
    4.1738    0.9457    0.0000 C   0  0  0  0  0  0  0  0  0
    4.6587    0.2783    0.0000 C   0  0  0  0  0  0  0  0  0
    4.4038   -0.5064    0.0000 C   0  0  0  0  0  0  0  0  0
    3.5968   -0.6779    0.0000 C   0  0  0  0  0  0  0  0  0
    3.3419   -1.4625    0.0000 C   0  0  0  0  0  0  0  0  0
    2.5349   -1.6340    0.0000 N   0  0  0  0  0  0  0  0  0
    2.2800   -2.4187    0.0000 C   0  0  0  0  0  0  0  0  0
    2.1937   -3.2391    0.0000 C   0  0  0  0  0  0  0  0  0
    1.3868   -3.4107    0.0000 C   0  0  0  0  0  0  0  0  0
    0.9743   -2.6962    0.0000 C   0  0  0  0  0  0  0  0  0
    1.5263   -2.0831    0.0000 C   0  0  0  0  0  0  0  0  0
    3.0869   -2.5902    0.0000 C   0  0  0  0  0  0  0  0  0
    3.3419   -3.3748    0.0000 O   0  0  0  0  0  0  0  0  0
    6.1578    1.7707    0.0000 C   0  0  0  0  0  0  0  0  0
    6.8723    1.3582    0.0000 C   0  0  0  0  0  0  0  0  0
  1  2  1  0  0  0  0
  2  3  4  0  0  0  0
  2  7  4  0  0  0  0
  3  4  4  0  0  0  0
  4  5  4  0  0  0  0
  5  6  4  0  0  0  0
  5  8  1  0  0  0  0
  6  7  4  0  0  0  0
  8  9  4  0  0  0  0
  8 12  4  0  0  0  0
  9 10  4  0  0  0  0
 10 11  4  0  0  0  0
 11 12  4  0  0  0  0
 11 13  1  0  0  0  0
 13 14  1  0  0  0  0
 14 15  1  0  0  0  0
 15 16  4  0  0  0  0
 15 34  4  0  0  0  0
 16 17  4  0  0  0  0
 17 18  4  0  0  0  0
 17 21  1  0  0  0  0
 18 19  1  0  0  0  0
 18 33  4  0  0  0  0
 19 20  1  0  0  0  0
 20 21  1  0  0  0  0
 21 22  1  0  0  0  0
 22 23  1  0  0  0  0
 23 24  1  0  0  0  0
 24 25  1  0  0  0  0
 25 26  1  0  0  0  0
 26 27  1  0  0  0  0
 26 30  1  0  0  0  0
 26 31  1  0  0  0  0
 27 28  1  0  0  0  0
 28 29  1  0  0  0  0
 29 30  1  0  0  0  0
 31 32  1  0  0  0  0
 33 34  4  0  0  0  0
M  END
>  <Name_Molregno>
408194

>  <5-HT1B>
6.52

$$$$
408196
  Marvin  02231216192D 0   1.00000     0.00000     0

 35 39  0  0  1  0  0  0  0  0999 V2000
    2.2590   -3.0213    0.0000 Cl  0  0  0  0  0  0  0  0  0
    2.5945   -2.2676    0.0000 C   0  0  0  0  0  0  0  0  0
    2.1096   -1.6002    0.0000 C   0  0  0  0  0  0  0  0  0
    2.4452   -0.8465    0.0000 C   0  0  0  0  0  0  0  0  0
    3.2656   -0.7603    0.0000 C   0  0  0  0  0  0  0  0  0
    3.7506   -1.4277    0.0000 C   0  0  0  0  0  0  0  0  0
    3.4150   -2.1814    0.0000 C   0  0  0  0  0  0  0  0  0
    3.6012   -0.0066    0.0000 C   0  0  0  0  0  0  0  0  0
    3.1887    0.7079    0.0000 O   0  0  0  0  0  0  0  0  0
    3.7407    1.3210    0.0000 N   0  0  0  0  0  0  0  0  0
    4.4944    0.9854    0.0000 C   0  0  0  0  0  0  0  0  0
    4.4082    0.1649    0.0000 N   0  0  0  0  0  0  0  0  0
    5.2089    1.3979    0.0000 C   0  0  0  0  0  0  0  0  0
    5.9233    0.9854    0.0000 O   0  0  0  0  0  0  0  0  0
    6.6378    1.3979    0.0000 C   0  0  0  0  0  0  0  0  0
    7.3523    0.9854    0.0000 C   0  0  0  0  0  0  0  0  0
    8.0668    1.3979    0.0000 C   0  0  0  0  0  0  0  0  0
    8.0668    2.2229    0.0000 C   0  0  0  0  0  0  0  0  0
    8.7812    2.6354    0.0000 C   0  0  0  0  0  0  0  0  0
    9.4957    2.2229    0.0000 C   0  0  0  0  0  0  0  0  0
    9.4957    1.3979    0.0000 C   0  0  0  0  0  0  0  0  0
    8.7812    0.9854    0.0000 C   0  0  0  0  0  0  0  0  0
    8.7812    0.1604    0.0000 C   0  0  0  0  0  0  0  0  0
    8.0668   -0.2521    0.0000 C   0  0  0  0  0  0  0  0  0
    8.0668   -1.0771    0.0000 C   0  0  0  0  0  0  0  0  0
    8.7812   -1.4896    0.0000 N   0  0  0  0  0  0  0  0  0
    9.4957   -1.0771    0.0000 C   0  0  0  0  0  0  0  0  0
   10.2102   -1.4896    0.0000 C   0  0  0  0  0  0  0  0  0
   10.2102   -2.3146    0.0000 C   0  0  0  0  0  0  0  0  0
    9.4957   -2.7271    0.0000 C   0  0  0  0  0  0  0  0  0
    8.7812   -2.3146    0.0000 C   0  0  0  0  0  0  0  0  0
   10.9246   -1.0771    0.0000 C   0  0  0  0  0  0  0  0  0
   10.9246   -0.2521    0.0000 O   0  0  0  0  0  0  0  0  0
    7.3523    2.6354    0.0000 C   0  0  0  0  0  0  0  0  0
    6.6378    2.2229    0.0000 C   0  0  0  0  0  0  0  0  0
  1  2  1  0  0  0  0
  2  3  4  0  0  0  0
  2  7  4  0  0  0  0
  3  4  4  0  0  0  0
  4  5  4  0  0  0  0
  5  6  4  0  0  0  0
  5  8  1  0  0  0  0
  6  7  4  0  0  0  0
  8  9  4  0  0  0  0
  8 12  4  0  0  0  0
  9 10  4  0  0  0  0
 10 11  4  0  0  0  0
 11 12  4  0  0  0  0
 11 13  1  0  0  0  0
 13 14  1  0  0  0  0
 14 15  1  0  0  0  0
 15 16  4  0  0  0  0
 15 35  4  0  0  0  0
 16 17  4  0  0  0  0
 17 18  4  0  0  0  0
 17 22  1  0  0  0  0
 18 19  1  0  0  0  0
 18 34  4  0  0  0  0
 19 20  1  0  0  0  0
 20 21  1  0  0  0  0
 21 22  1  0  0  0  0
 22 23  1  0  0  0  0
 23 24  1  0  0  0  0
 24 25  1  0  0  0  0
 25 26  1  0  0  0  0
 26 27  1  0  0  0  0
 26 31  1  0  0  0  0
 27 28  1  0  0  0  0
 28 29  1  0  0  0  0
 28 32  1  0  0  0  0
 29 30  1  0  0  0  0
 30 31  1  0  0  0  0
 32 33  1  0  0  0  0
 34 35  4  0  0  0  0
M  END
>  <Name_Molregno>
408196

>  <5-HT1B>
6

$$$$
409176
  Marvin  02231216192D 0   1.00000     0.00000     0

 33 37  0  0  0  0  0  0  0  0999 V2000
    2.7100   -2.8383    0.0000 F   0  0  0  0  0  0  0  0  0
    2.7100   -2.0133    0.0000 C   0  0  0  0  0  0  0  0  0
    1.9956   -1.6008    0.0000 C   0  0  0  0  0  0  0  0  0
    1.2811   -2.0133    0.0000 N   0  0  0  0  0  0  0  0  0
    0.5666   -1.6008    0.0000 C   0  0  0  0  0  0  0  0  0
    0.5666   -0.7758    0.0000 C   0  0  0  0  0  0  0  0  0
    1.2811   -0.3633    0.0000 C   0  0  0  0  0  0  0  0  0
    1.9956   -0.7758    0.0000 C   0  0  0  0  0  0  0  0  0
    2.7100   -0.3633    0.0000 C   0  0  0  0  0  0  0  0  0
    2.7100    0.4617    0.0000 O   0  0  0  0  0  0  0  0  0
    3.4245    0.8742    0.0000 C   0  0  0  0  0  0  0  0  0
    3.4245    1.6992    0.0000 C   0  0  0  0  0  0  0  0  0
    4.1390    2.1117    0.0000 N   0  0  0  0  0  0  0  0  0
    4.1390    2.9367    0.0000 C   0  0  0  0  0  0  0  0  0
    4.8535    3.3492    0.0000 C   0  0  0  0  0  0  0  0  0
    5.5679    2.9367    0.0000 C   0  0  0  0  0  0  0  0  0
    5.5679    2.1117    0.0000 C   0  0  0  0  0  0  0  0  0
    4.8535    1.6992    0.0000 C   0  0  0  0  0  0  0  0  0
    6.2824    3.3492    0.0000 C   0  0  0  0  0  0  0  0  0
    6.9969    2.9367    0.0000 C   0  0  0  0  0  0  0  0  0
    7.7113    3.3492    0.0000 C   0  0  0  0  0  0  0  0  0
    8.4258    2.9367    0.0000 C   0  0  0  0  0  0  0  0  0
    9.1403    3.3492    0.0000 N   0  0  0  0  0  0  0  0  0
    9.8548    2.9367    0.0000 C   0  0  0  0  0  0  0  0  0
   10.5692    3.3492    0.0000 O   0  0  0  0  0  0  0  0  0
    9.8548    2.1117    0.0000 C   0  0  0  0  0  0  0  0  0
    9.1403    1.6992    0.0000 O   0  0  0  0  0  0  0  0  0
    8.4258    2.1117    0.0000 C   0  0  0  0  0  0  0  0  0
    7.7113    1.6992    0.0000 C   0  0  0  0  0  0  0  0  0
    6.9969    2.1117    0.0000 C   0  0  0  0  0  0  0  0  0
    3.4245   -0.7758    0.0000 C   0  0  0  0  0  0  0  0  0
    3.4245   -1.6008    0.0000 C   0  0  0  0  0  0  0  0  0
   -0.1478   -2.0133    0.0000 C   0  0  0  0  0  0  0  0  0
  1  2  1  0  0  0  0
  2  3  4  0  0  0  0
  2 32  4  0  0  0  0
  3  4  4  0  0  0  0
  3  8  4  0  0  0  0
  4  5  4  0  0  0  0
  5  6  4  0  0  0  0
  5 33  1  0  0  0  0
  6  7  4  0  0  0  0
  7  8  4  0  0  0  0
  8  9  4  0  0  0  0
  9 10  1  0  0  0  0
  9 31  4  0  0  0  0
 10 11  1  0  0  0  0
 11 12  1  0  0  0  0
 12 13  1  0  0  0  0
 13 14  1  0  0  0  0
 13 18  1  0  0  0  0
 14 15  1  0  0  0  0
 15 16  1  0  0  0  0
 16 17  1  0  0  0  0
 16 19  1  0  0  0  0
 17 18  1  0  0  0  0
 19 20  1  0  0  0  0
 20 21  4  0  0  0  0
 20 30  4  0  0  0  0
 21 22  4  0  0  0  0
 22 23  1  0  0  0  0
 22 28  4  0  0  0  0
 23 24  1  0  0  0  0
 24 25  2  0  0  0  0
 24 26  1  0  0  0  0
 26 27  1  0  0  0  0
 27 28  1  0  0  0  0
 28 29  4  0  0  0  0
 29 30  4  0  0  0  0
 31 32  4  0  0  0  0
M  END
>  <Name_Molregno>
409176

>  <5-HT1A>
7.7

>  <5-HT1B>
6.1

>  <5-HT1D>
7.1

$$$$
409178
  Marvin  02231216192D 0   1.00000     0.00000     0

 33 37  0  0  0  0  0  0  0  0999 V2000
    2.7100   -2.8383    0.0000 Cl  0  0  0  0  0  0  0  0  0
    2.7100   -2.0133    0.0000 C   0  0  0  0  0  0  0  0  0
    1.9956   -1.6008    0.0000 C   0  0  0  0  0  0  0  0  0
    1.2811   -2.0133    0.0000 N   0  0  0  0  0  0  0  0  0
    0.5666   -1.6008    0.0000 C   0  0  0  0  0  0  0  0  0
    0.5666   -0.7758    0.0000 C   0  0  0  0  0  0  0  0  0
    1.2811   -0.3633    0.0000 C   0  0  0  0  0  0  0  0  0
    1.9956   -0.7758    0.0000 C   0  0  0  0  0  0  0  0  0
    2.7100   -0.3633    0.0000 C   0  0  0  0  0  0  0  0  0
    2.7100    0.4617    0.0000 O   0  0  0  0  0  0  0  0  0
    3.4245    0.8742    0.0000 C   0  0  0  0  0  0  0  0  0
    3.4245    1.6992    0.0000 C   0  0  0  0  0  0  0  0  0
    4.1390    2.1117    0.0000 N   0  0  0  0  0  0  0  0  0
    4.1390    2.9367    0.0000 C   0  0  0  0  0  0  0  0  0
    4.8535    3.3492    0.0000 C   0  0  0  0  0  0  0  0  0
    5.5679    2.9367    0.0000 C   0  0  0  0  0  0  0  0  0
    5.5679    2.1117    0.0000 C   0  0  0  0  0  0  0  0  0
    4.8535    1.6992    0.0000 C   0  0  0  0  0  0  0  0  0
    6.2824    3.3492    0.0000 C   0  0  0  0  0  0  0  0  0
    6.9969    2.9367    0.0000 C   0  0  0  0  0  0  0  0  0
    7.7113    3.3492    0.0000 C   0  0  0  0  0  0  0  0  0
    8.4258    2.9367    0.0000 C   0  0  0  0  0  0  0  0  0
    9.1403    3.3492    0.0000 N   0  0  0  0  0  0  0  0  0
    9.8548    2.9367    0.0000 C   0  0  0  0  0  0  0  0  0
   10.5692    3.3492    0.0000 O   0  0  0  0  0  0  0  0  0
    9.8548    2.1117    0.0000 C   0  0  0  0  0  0  0  0  0
    9.1403    1.6992    0.0000 O   0  0  0  0  0  0  0  0  0
    8.4258    2.1117    0.0000 C   0  0  0  0  0  0  0  0  0
    7.7113    1.6992    0.0000 C   0  0  0  0  0  0  0  0  0
    6.9969    2.1117    0.0000 C   0  0  0  0  0  0  0  0  0
    3.4245   -0.7758    0.0000 C   0  0  0  0  0  0  0  0  0
    3.4245   -1.6008    0.0000 C   0  0  0  0  0  0  0  0  0
   -0.1478   -2.0133    0.0000 C   0  0  0  0  0  0  0  0  0
  1  2  1  0  0  0  0
  2  3  4  0  0  0  0
  2 32  4  0  0  0  0
  3  4  4  0  0  0  0
  3  8  4  0  0  0  0
  4  5  4  0  0  0  0
  5  6  4  0  0  0  0
  5 33  1  0  0  0  0
  6  7  4  0  0  0  0
  7  8  4  0  0  0  0
  8  9  4  0  0  0  0
  9 10  1  0  0  0  0
  9 31  4  0  0  0  0
 10 11  1  0  0  0  0
 11 12  1  0  0  0  0
 12 13  1  0  0  0  0
 13 14  1  0  0  0  0
 13 18  1  0  0  0  0
 14 15  1  0  0  0  0
 15 16  1  0  0  0  0
 16 17  1  0  0  0  0
 16 19  1  0  0  0  0
 17 18  1  0  0  0  0
 19 20  1  0  0  0  0
 20 21  4  0  0  0  0
 20 30  4  0  0  0  0
 21 22  4  0  0  0  0
 22 23  1  0  0  0  0
 22 28  4  0  0  0  0
 23 24  1  0  0  0  0
 24 25  2  0  0  0  0
 24 26  1  0  0  0  0
 26 27  1  0  0  0  0
 27 28  1  0  0  0  0
 28 29  4  0  0  0  0
 29 30  4  0  0  0  0
 31 32  4  0  0  0  0
M  END
>  <Name_Molregno>
409178

>  <5-HT1A>
7.4

>  <5-HT1B>
6.8

>  <5-HT1D>
7.2

$$$$
409180
  Marvin  02231216192D 0   1.00000     0.00000     0

 33 37  0  0  0  0  0  0  0  0999 V2000
   -2.7497    1.2528    0.0000 F   0  0  0  0  0  0  0  0  0
   -2.0352    0.8403    0.0000 C   0  0  0  0  0  0  0  0  0
   -2.0352    0.0153    0.0000 C   0  0  0  0  0  0  0  0  0
   -1.3208   -0.3972    0.0000 C   0  0  0  0  0  0  0  0  0
   -1.3208   -1.2222    0.0000 O   0  0  0  0  0  0  0  0  0
   -2.0352   -1.6347    0.0000 C   0  0  0  0  0  0  0  0  0
   -2.0352   -2.4597    0.0000 C   0  0  0  0  0  0  0  0  0
   -2.7497   -2.8722    0.0000 N   0  0  0  0  0  0  0  0  0
   -2.7497   -3.6972    0.0000 C   0  0  0  0  0  0  0  0  0
   -3.4642   -4.1097    0.0000 C   0  0  0  0  0  0  0  0  0
   -4.1787   -3.6972    0.0000 C   0  0  0  0  0  0  0  0  0
   -4.1787   -2.8722    0.0000 C   0  0  0  0  0  0  0  0  0
   -3.4642   -2.4597    0.0000 C   0  0  0  0  0  0  0  0  0
   -4.8931   -4.1097    0.0000 C   0  0  0  0  0  0  0  0  0
   -5.6076   -3.6972    0.0000 C   0  0  0  0  0  0  0  0  0
   -6.3221   -4.1097    0.0000 C   0  0  0  0  0  0  0  0  0
   -7.0365   -3.6972    0.0000 C   0  0  0  0  0  0  0  0  0
   -7.7510   -4.1097    0.0000 N   0  0  0  0  0  0  0  0  0
   -8.4655   -3.6972    0.0000 C   0  0  0  0  0  0  0  0  0
   -9.1799   -4.1097    0.0000 O   0  0  0  0  0  0  0  0  0
   -8.4655   -2.8722    0.0000 C   0  0  0  0  0  0  0  0  0
   -7.7510   -2.4597    0.0000 O   0  0  0  0  0  0  0  0  0
   -7.0365   -2.8722    0.0000 C   0  0  0  0  0  0  0  0  0
   -6.3221   -2.4597    0.0000 C   0  0  0  0  0  0  0  0  0
   -5.6076   -2.8722    0.0000 C   0  0  0  0  0  0  0  0  0
   -0.6063    0.0153    0.0000 C   0  0  0  0  0  0  0  0  0
   -0.6063    0.8403    0.0000 C   0  0  0  0  0  0  0  0  0
    0.1082    1.2528    0.0000 N   0  0  0  0  0  0  0  0  0
    0.8226    0.8403    0.0000 C   0  0  0  0  0  0  0  0  0
    0.8226    0.0153    0.0000 C   0  0  0  0  0  0  0  0  0
    0.1082   -0.3972    0.0000 C   0  0  0  0  0  0  0  0  0
    1.5371    1.2528    0.0000 C   0  0  0  0  0  0  0  0  0
   -1.3208    1.2528    0.0000 C   0  0  0  0  0  0  0  0  0
  1  2  1  0  0  0  0
  2  3  4  0  0  0  0
  2 33  4  0  0  0  0
  3  4  4  0  0  0  0
  4  5  1  0  0  0  0
  4 26  4  0  0  0  0
  5  6  1  0  0  0  0
  6  7  1  0  0  0  0
  7  8  1  0  0  0  0
  8  9  1  0  0  0  0
  8 13  1  0  0  0  0
  9 10  1  0  0  0  0
 10 11  1  0  0  0  0
 11 12  1  0  0  0  0
 11 14  1  0  0  0  0
 12 13  1  0  0  0  0
 14 15  1  0  0  0  0
 15 16  4  0  0  0  0
 15 25  4  0  0  0  0
 16 17  4  0  0  0  0
 17 18  1  0  0  0  0
 17 23  4  0  0  0  0
 18 19  1  0  0  0  0
 19 20  2  0  0  0  0
 19 21  1  0  0  0  0
 21 22  1  0  0  0  0
 22 23  1  0  0  0  0
 23 24  4  0  0  0  0
 24 25  4  0  0  0  0
 26 27  4  0  0  0  0
 26 31  4  0  0  0  0
 27 28  4  0  0  0  0
 27 33  4  0  0  0  0
 28 29  4  0  0  0  0
 29 30  4  0  0  0  0
 29 32  1  0  0  0  0
 30 31  4  0  0  0  0
M  END
>  <Name_Molregno>
409180

>  <5-HT1A>
9.1

>  <5-HT1B>
6

>  <5-HT1D>
6.4

$$$$
409182
  Marvin  02231216192D 0   1.00000     0.00000     0

 33 37  0  0  0  0  0  0  0  0999 V2000
   -2.7497    1.2528    0.0000 Cl  0  0  0  0  0  0  0  0  0
   -2.0352    0.8403    0.0000 C   0  0  0  0  0  0  0  0  0
   -2.0352    0.0153    0.0000 C   0  0  0  0  0  0  0  0  0
   -1.3208   -0.3972    0.0000 C   0  0  0  0  0  0  0  0  0
   -1.3208   -1.2222    0.0000 O   0  0  0  0  0  0  0  0  0
   -2.0352   -1.6347    0.0000 C   0  0  0  0  0  0  0  0  0
   -2.0352   -2.4597    0.0000 C   0  0  0  0  0  0  0  0  0
   -2.7497   -2.8722    0.0000 N   0  0  0  0  0  0  0  0  0
   -2.7497   -3.6972    0.0000 C   0  0  0  0  0  0  0  0  0
   -3.4642   -4.1097    0.0000 C   0  0  0  0  0  0  0  0  0
   -4.1787   -3.6972    0.0000 C   0  0  0  0  0  0  0  0  0
   -4.1787   -2.8722    0.0000 C   0  0  0  0  0  0  0  0  0
   -3.4642   -2.4597    0.0000 C   0  0  0  0  0  0  0  0  0
   -4.8931   -4.1097    0.0000 C   0  0  0  0  0  0  0  0  0
   -5.6076   -3.6972    0.0000 C   0  0  0  0  0  0  0  0  0
   -6.3221   -4.1097    0.0000 C   0  0  0  0  0  0  0  0  0
   -7.0365   -3.6972    0.0000 C   0  0  0  0  0  0  0  0  0
   -7.7510   -4.1097    0.0000 N   0  0  0  0  0  0  0  0  0
   -8.4655   -3.6972    0.0000 C   0  0  0  0  0  0  0  0  0
   -9.1799   -4.1097    0.0000 O   0  0  0  0  0  0  0  0  0
   -8.4655   -2.8722    0.0000 C   0  0  0  0  0  0  0  0  0
   -7.7510   -2.4597    0.0000 O   0  0  0  0  0  0  0  0  0
   -7.0365   -2.8722    0.0000 C   0  0  0  0  0  0  0  0  0
   -6.3221   -2.4597    0.0000 C   0  0  0  0  0  0  0  0  0
   -5.6076   -2.8722    0.0000 C   0  0  0  0  0  0  0  0  0
   -0.6063    0.0153    0.0000 C   0  0  0  0  0  0  0  0  0
   -0.6063    0.8403    0.0000 C   0  0  0  0  0  0  0  0  0
    0.1082    1.2528    0.0000 N   0  0  0  0  0  0  0  0  0
    0.8226    0.8403    0.0000 C   0  0  0  0  0  0  0  0  0
    0.8226    0.0153    0.0000 C   0  0  0  0  0  0  0  0  0
    0.1082   -0.3972    0.0000 C   0  0  0  0  0  0  0  0  0
    1.5371    1.2528    0.0000 C   0  0  0  0  0  0  0  0  0
   -1.3208    1.2528    0.0000 C   0  0  0  0  0  0  0  0  0
  1  2  1  0  0  0  0
  2  3  4  0  0  0  0
  2 33  4  0  0  0  0
  3  4  4  0  0  0  0
  4  5  1  0  0  0  0
  4 26  4  0  0  0  0
  5  6  1  0  0  0  0
  6  7  1  0  0  0  0
  7  8  1  0  0  0  0
  8  9  1  0  0  0  0
  8 13  1  0  0  0  0
  9 10  1  0  0  0  0
 10 11  1  0  0  0  0
 11 12  1  0  0  0  0
 11 14  1  0  0  0  0
 12 13  1  0  0  0  0
 14 15  1  0  0  0  0
 15 16  4  0  0  0  0
 15 25  4  0  0  0  0
 16 17  4  0  0  0  0
 17 18  1  0  0  0  0
 17 23  4  0  0  0  0
 18 19  1  0  0  0  0
 19 20  2  0  0  0  0
 19 21  1  0  0  0  0
 21 22  1  0  0  0  0
 22 23  1  0  0  0  0
 23 24  4  0  0  0  0
 24 25  4  0  0  0  0
 26 27  4  0  0  0  0
 26 31  4  0  0  0  0
 27 28  4  0  0  0  0
 27 33  4  0  0  0  0
 28 29  4  0  0  0  0
 29 30  4  0  0  0  0
 29 32  1  0  0  0  0
 30 31  4  0  0  0  0
M  END
>  <Name_Molregno>
409182

>  <5-HT1A>
8.8

>  <5-HT1B>
5.9

>  <5-HT1D>
6.1

$$$$
409183
  Marvin  02231216192D 0   1.00000     0.00000     0

 34 38  0  0  0  0  0  0  0  0999 V2000
   -6.7988   -5.4062    0.0000 O   0  0  0  0  0  0  0  0  0
   -7.5133   -5.8187    0.0000 C   0  0  0  0  0  0  0  0  0
   -8.2277   -5.4062    0.0000 C   0  0  0  0  0  0  0  0  0
   -8.9422   -5.8187    0.0000 O   0  0  0  0  0  0  0  0  0
   -8.2277   -4.5812    0.0000 N   0  0  0  0  0  0  0  0  0
   -7.5133   -4.1687    0.0000 C   0  0  0  0  0  0  0  0  0
   -7.5133   -3.3437    0.0000 C   0  0  0  0  0  0  0  0  0
   -6.7988   -2.9312    0.0000 C   0  0  0  0  0  0  0  0  0
   -6.0843   -3.3437    0.0000 C   0  0  0  0  0  0  0  0  0
   -6.0843   -4.1687    0.0000 C   0  0  0  0  0  0  0  0  0
   -6.7988   -4.5812    0.0000 C   0  0  0  0  0  0  0  0  0
   -6.7988   -2.1062    0.0000 C   0  0  0  0  0  0  0  0  0
   -6.0843   -1.6937    0.0000 C   0  0  0  0  0  0  0  0  0
   -6.0843   -0.8687    0.0000 C   0  0  0  0  0  0  0  0  0
   -5.3699   -0.4562    0.0000 C   0  0  0  0  0  0  0  0  0
   -4.6554   -0.8687    0.0000 N   0  0  0  0  0  0  0  0  0
   -4.6554   -1.6937    0.0000 C   0  0  0  0  0  0  0  0  0
   -5.3699   -2.1062    0.0000 C   0  0  0  0  0  0  0  0  0
   -3.9409   -0.4562    0.0000 C   0  0  0  0  0  0  0  0  0
   -3.9409    0.3688    0.0000 C   0  0  0  0  0  0  0  0  0
   -3.2264    0.7813    0.0000 O   0  0  0  0  0  0  0  0  0
   -3.2264    1.6063    0.0000 C   0  0  0  0  0  0  0  0  0
   -3.9409    2.0188    0.0000 C   0  0  0  0  0  0  0  0  0
   -3.9409    2.8438    0.0000 C   0  0  0  0  0  0  0  0  0
   -3.2264    3.2563    0.0000 C   0  0  0  0  0  0  0  0  0
   -2.5120    2.8438    0.0000 C   0  0  0  0  0  0  0  0  0
   -1.7975    3.2563    0.0000 N   0  0  0  0  0  0  0  0  0
   -1.0830    2.8438    0.0000 C   0  0  0  0  0  0  0  0  0
   -1.0830    2.0188    0.0000 C   0  0  0  0  0  0  0  0  0
   -1.7975    1.6063    0.0000 C   0  0  0  0  0  0  0  0  0
   -2.5120    2.0188    0.0000 C   0  0  0  0  0  0  0  0  0
   -0.3686    3.2563    0.0000 C   0  0  0  0  0  0  0  0  0
   -4.6554    3.2563    0.0000 C   0  0  0  0  0  0  0  0  0
   -5.3699    3.6688    0.0000 N   0  0  0  0  0  0  0  0  0
  1  2  1  0  0  0  0
  1 11  1  0  0  0  0
  2  3  1  0  0  0  0
  3  4  2  0  0  0  0
  3  5  1  0  0  0  0
  5  6  1  0  0  0  0
  6  7  4  0  0  0  0
  6 11  4  0  0  0  0
  7  8  4  0  0  0  0
  8  9  4  0  0  0  0
  8 12  1  0  0  0  0
  9 10  4  0  0  0  0
 10 11  4  0  0  0  0
 12 13  1  0  0  0  0
 13 14  1  0  0  0  0
 13 18  1  0  0  0  0
 14 15  1  0  0  0  0
 15 16  1  0  0  0  0
 16 17  1  0  0  0  0
 16 19  1  0  0  0  0
 17 18  1  0  0  0  0
 19 20  1  0  0  0  0
 20 21  1  0  0  0  0
 21 22  1  0  0  0  0
 22 23  4  0  0  0  0
 22 31  4  0  0  0  0
 23 24  4  0  0  0  0
 24 25  4  0  0  0  0
 24 33  1  0  0  0  0
 25 26  4  0  0  0  0
 26 27  4  0  0  0  0
 26 31  4  0  0  0  0
 27 28  4  0  0  0  0
 28 29  4  0  0  0  0
 28 32  1  0  0  0  0
 29 30  4  0  0  0  0
 30 31  4  0  0  0  0
 33 34  3  0  0  0  0
M  END
>  <Name_Molregno>
409183

>  <5-HT1A>
7.7

>  <5-HT1B>
6

>  <5-HT1D>
6.6

$$$$
409188
  Marvin  02231216192D 0   1.00000     0.00000     0

 33 37  0  0  0  0  0  0  0  0999 V2000
   -3.0299   -0.3999    0.0000 F   0  0  0  0  0  0  0  0  0
   -3.7443   -0.8124    0.0000 C   0  0  0  0  0  0  0  0  0
   -3.7443   -1.6374    0.0000 C   0  0  0  0  0  0  0  0  0
   -4.4588   -2.0499    0.0000 C   0  0  0  0  0  0  0  0  0
   -5.1733   -1.6374    0.0000 C   0  0  0  0  0  0  0  0  0
   -5.8877   -2.0499    0.0000 N   0  0  0  0  0  0  0  0  0
   -6.6022   -1.6374    0.0000 C   0  0  0  0  0  0  0  0  0
   -6.6022   -0.8124    0.0000 C   0  0  0  0  0  0  0  0  0
   -5.8877   -0.3999    0.0000 C   0  0  0  0  0  0  0  0  0
   -5.1733   -0.8124    0.0000 C   0  0  0  0  0  0  0  0  0
   -4.4588   -0.3999    0.0000 C   0  0  0  0  0  0  0  0  0
   -4.4588    0.4251    0.0000 O   0  0  0  0  0  0  0  0  0
   -3.7443    0.8376    0.0000 C   0  0  0  0  0  0  0  0  0
   -3.7443    1.6626    0.0000 C   0  0  0  0  0  0  0  0  0
   -3.0299    2.0751    0.0000 N   0  0  0  0  0  0  0  0  0
   -3.0299    2.9001    0.0000 C   0  0  0  0  0  0  0  0  0
   -2.3154    3.3126    0.0000 C   0  0  0  0  0  0  0  0  0
   -1.6009    2.9001    0.0000 C   0  0  0  0  0  0  0  0  0
   -1.6009    2.0751    0.0000 C   0  0  0  0  0  0  0  0  0
   -2.3154    1.6626    0.0000 C   0  0  0  0  0  0  0  0  0
   -0.8864    3.3126    0.0000 C   0  0  0  0  0  0  0  0  0
   -0.1720    2.9001    0.0000 C   0  0  0  0  0  0  0  0  0
    0.5425    3.3126    0.0000 C   0  0  0  0  0  0  0  0  0
    1.2570    2.9001    0.0000 C   0  0  0  0  0  0  0  0  0
    1.9714    3.3126    0.0000 N   0  0  0  0  0  0  0  0  0
    2.6859    2.9001    0.0000 C   0  0  0  0  0  0  0  0  0
    3.4004    3.3126    0.0000 O   0  0  0  0  0  0  0  0  0
    2.6859    2.0751    0.0000 C   0  0  0  0  0  0  0  0  0
    1.9714    1.6626    0.0000 O   0  0  0  0  0  0  0  0  0
    1.2570    2.0751    0.0000 C   0  0  0  0  0  0  0  0  0
    0.5425    1.6626    0.0000 C   0  0  0  0  0  0  0  0  0
   -0.1720    2.0751    0.0000 C   0  0  0  0  0  0  0  0  0
   -7.3167   -2.0499    0.0000 C   0  0  0  0  0  0  0  0  0
  1  2  1  0  0  0  0
  2  3  4  0  0  0  0
  2 11  4  0  0  0  0
  3  4  4  0  0  0  0
  4  5  4  0  0  0  0
  5  6  4  0  0  0  0
  5 10  4  0  0  0  0
  6  7  4  0  0  0  0
  7  8  4  0  0  0  0
  7 33  1  0  0  0  0
  8  9  4  0  0  0  0
  9 10  4  0  0  0  0
 10 11  4  0  0  0  0
 11 12  1  0  0  0  0
 12 13  1  0  0  0  0
 13 14  1  0  0  0  0
 14 15  1  0  0  0  0
 15 16  1  0  0  0  0
 15 20  1  0  0  0  0
 16 17  1  0  0  0  0
 17 18  1  0  0  0  0
 18 19  1  0  0  0  0
 18 21  1  0  0  0  0
 19 20  1  0  0  0  0
 21 22  1  0  0  0  0
 22 23  4  0  0  0  0
 22 32  4  0  0  0  0
 23 24  4  0  0  0  0
 24 25  1  0  0  0  0
 24 30  4  0  0  0  0
 25 26  1  0  0  0  0
 26 27  2  0  0  0  0
 26 28  1  0  0  0  0
 28 29  1  0  0  0  0
 29 30  1  0  0  0  0
 30 31  4  0  0  0  0
 31 32  4  0  0  0  0
M  END
>  <Name_Molregno>
409188

>  <5-HT1A>
7.3

>  <5-HT1B>
7.5

>  <5-HT1D>
8.6

$$$$
409189
  Marvin  02231216192D 0   1.00000     0.00000     0

 33 37  0  0  0  0  0  0  0  0999 V2000
    2.8418   -1.8498    0.0000 F   0  0  0  0  0  0  0  0  0
    2.1273   -2.2623    0.0000 C   0  0  0  0  0  0  0  0  0
    2.1273   -3.0873    0.0000 C   0  0  0  0  0  0  0  0  0
    2.8418   -3.4998    0.0000 N   0  0  0  0  0  0  0  0  0
    2.8418   -4.3248    0.0000 C   0  0  0  0  0  0  0  0  0
    3.5562   -4.7373    0.0000 O   0  0  0  0  0  0  0  0  0
    2.1273   -4.7373    0.0000 C   0  0  0  0  0  0  0  0  0
    1.4128   -4.3248    0.0000 O   0  0  0  0  0  0  0  0  0
    1.4128   -3.4998    0.0000 C   0  0  0  0  0  0  0  0  0
    0.6984   -3.0873    0.0000 C   0  0  0  0  0  0  0  0  0
    0.6984   -2.2623    0.0000 C   0  0  0  0  0  0  0  0  0
    1.4128   -1.8498    0.0000 C   0  0  0  0  0  0  0  0  0
    1.4128   -1.0248    0.0000 C   0  0  0  0  0  0  0  0  0
    2.1273   -0.6123    0.0000 C   0  0  0  0  0  0  0  0  0
    2.1273    0.2127    0.0000 C   0  0  0  0  0  0  0  0  0
    2.8418    0.6252    0.0000 C   0  0  0  0  0  0  0  0  0
    3.5562    0.2127    0.0000 N   0  0  0  0  0  0  0  0  0
    3.5562   -0.6123    0.0000 C   0  0  0  0  0  0  0  0  0
    2.8418   -1.0248    0.0000 C   0  0  0  0  0  0  0  0  0
    4.2707    0.6252    0.0000 C   0  0  0  0  0  0  0  0  0
    4.2707    1.4502    0.0000 C   0  0  0  0  0  0  0  0  0
    4.9852    1.8627    0.0000 O   0  0  0  0  0  0  0  0  0
    4.9852    2.6877    0.0000 C   0  0  0  0  0  0  0  0  0
    5.6997    3.1002    0.0000 C   0  0  0  0  0  0  0  0  0
    5.6997    3.9252    0.0000 C   0  0  0  0  0  0  0  0  0
    6.4141    4.3377    0.0000 N   0  0  0  0  0  0  0  0  0
    7.1286    3.9252    0.0000 C   0  0  0  0  0  0  0  0  0
    7.1286    3.1002    0.0000 C   0  0  0  0  0  0  0  0  0
    6.4141    2.6877    0.0000 C   0  0  0  0  0  0  0  0  0
    7.8431    4.3377    0.0000 C   0  0  0  0  0  0  0  0  0
    4.9852    4.3377    0.0000 C   0  0  0  0  0  0  0  0  0
    4.2707    3.9252    0.0000 C   0  0  0  0  0  0  0  0  0
    4.2707    3.1002    0.0000 C   0  0  0  0  0  0  0  0  0
  1  2  1  0  0  0  0
  2  3  4  0  0  0  0
  2 12  4  0  0  0  0
  3  4  1  0  0  0  0
  3  9  4  0  0  0  0
  4  5  1  0  0  0  0
  5  6  2  0  0  0  0
  5  7  1  0  0  0  0
  7  8  1  0  0  0  0
  8  9  1  0  0  0  0
  9 10  4  0  0  0  0
 10 11  4  0  0  0  0
 11 12  4  0  0  0  0
 12 13  1  0  0  0  0
 13 14  1  0  0  0  0
 14 15  1  0  0  0  0
 14 19  1  0  0  0  0
 15 16  1  0  0  0  0
 16 17  1  0  0  0  0
 17 18  1  0  0  0  0
 17 20  1  0  0  0  0
 18 19  1  0  0  0  0
 20 21  1  0  0  0  0
 21 22  1  0  0  0  0
 22 23  1  0  0  0  0
 23 24  4  0  0  0  0
 23 33  4  0  0  0  0
 24 25  4  0  0  0  0
 24 29  4  0  0  0  0
 25 26  4  0  0  0  0
 25 31  4  0  0  0  0
 26 27  4  0  0  0  0
 27 28  4  0  0  0  0
 27 30  1  0  0  0  0
 28 29  4  0  0  0  0
 31 32  4  0  0  0  0
 32 33  4  0  0  0  0
M  END
>  <Name_Molregno>
409189

>  <5-HT1A>
8.6

>  <5-HT1B>
8.6

>  <5-HT1D>
9.1

$$$$
409190
  Marvin  02231216192D 0   1.00000     0.00000     0

 33 37  0  0  0  0  0  0  0  0999 V2000
   -4.4331   -2.0531    0.0000 F   0  0  0  0  0  0  0  0  0
   -5.1476   -2.4656    0.0000 C   0  0  0  0  0  0  0  0  0
   -5.1476   -3.2906    0.0000 C   0  0  0  0  0  0  0  0  0
   -5.8620   -3.7031    0.0000 C   0  0  0  0  0  0  0  0  0
   -5.8620   -4.5281    0.0000 O   0  0  0  0  0  0  0  0  0
   -6.5765   -4.9406    0.0000 C   0  0  0  0  0  0  0  0  0
   -7.2910   -4.5281    0.0000 C   0  0  0  0  0  0  0  0  0
   -8.0055   -4.9406    0.0000 O   0  0  0  0  0  0  0  0  0
   -7.2910   -3.7031    0.0000 N   0  0  0  0  0  0  0  0  0
   -6.5765   -3.2906    0.0000 C   0  0  0  0  0  0  0  0  0
   -6.5765   -2.4656    0.0000 C   0  0  0  0  0  0  0  0  0
   -5.8620   -2.0531    0.0000 C   0  0  0  0  0  0  0  0  0
   -5.8620   -1.2281    0.0000 C   0  0  0  0  0  0  0  0  0
   -5.1476   -0.8156    0.0000 C   0  0  0  0  0  0  0  0  0
   -5.1476    0.0094    0.0000 C   0  0  0  0  0  0  0  0  0
   -4.4331    0.4219    0.0000 C   0  0  0  0  0  0  0  0  0
   -3.7186    0.0094    0.0000 N   0  0  0  0  0  0  0  0  0
   -3.7186   -0.8156    0.0000 C   0  0  0  0  0  0  0  0  0
   -4.4331   -1.2281    0.0000 C   0  0  0  0  0  0  0  0  0
   -3.0042    0.4219    0.0000 C   0  0  0  0  0  0  0  0  0
   -3.0042    1.2469    0.0000 C   0  0  0  0  0  0  0  0  0
   -2.2897    1.6594    0.0000 O   0  0  0  0  0  0  0  0  0
   -2.2897    2.4844    0.0000 C   0  0  0  0  0  0  0  0  0
   -1.5752    2.8969    0.0000 C   0  0  0  0  0  0  0  0  0
   -1.5752    3.7219    0.0000 C   0  0  0  0  0  0  0  0  0
   -0.8607    4.1344    0.0000 N   0  0  0  0  0  0  0  0  0
   -0.1463    3.7219    0.0000 C   0  0  0  0  0  0  0  0  0
   -0.1463    2.8969    0.0000 C   0  0  0  0  0  0  0  0  0
   -0.8607    2.4844    0.0000 C   0  0  0  0  0  0  0  0  0
    0.5682    4.1344    0.0000 C   0  0  0  0  0  0  0  0  0
   -2.2897    4.1344    0.0000 C   0  0  0  0  0  0  0  0  0
   -3.0042    3.7219    0.0000 C   0  0  0  0  0  0  0  0  0
   -3.0042    2.8969    0.0000 C   0  0  0  0  0  0  0  0  0
  1  2  1  0  0  0  0
  2  3  4  0  0  0  0
  2 12  4  0  0  0  0
  3  4  4  0  0  0  0
  4  5  1  0  0  0  0
  4 10  4  0  0  0  0
  5  6  1  0  0  0  0
  6  7  1  0  0  0  0
  7  8  2  0  0  0  0
  7  9  1  0  0  0  0
  9 10  1  0  0  0  0
 10 11  4  0  0  0  0
 11 12  4  0  0  0  0
 12 13  1  0  0  0  0
 13 14  1  0  0  0  0
 14 15  1  0  0  0  0
 14 19  1  0  0  0  0
 15 16  1  0  0  0  0
 16 17  1  0  0  0  0
 17 18  1  0  0  0  0
 17 20  1  0  0  0  0
 18 19  1  0  0  0  0
 20 21  1  0  0  0  0
 21 22  1  0  0  0  0
 22 23  1  0  0  0  0
 23 24  4  0  0  0  0
 23 33  4  0  0  0  0
 24 25  4  0  0  0  0
 24 29  4  0  0  0  0
 25 26  4  0  0  0  0
 25 31  4  0  0  0  0
 26 27  4  0  0  0  0
 27 28  4  0  0  0  0
 27 30  1  0  0  0  0
 28 29  4  0  0  0  0
 31 32  4  0  0  0  0
 32 33  4  0  0  0  0
M  END
>  <Name_Molregno>
409190

>  <5-HT1A>
9.3

>  <5-HT1B>
7.7

>  <5-HT1D>
8.5

$$$$
409192
  Marvin  02231216192D 0   1.00000     0.00000     0

 33 37  0  0  0  0  0  0  0  0999 V2000
   -6.7769   -4.8064    0.0000 F   0  0  0  0  0  0  0  0  0
   -6.0624   -4.3939    0.0000 C   0  0  0  0  0  0  0  0  0
   -6.0624   -3.5689    0.0000 C   0  0  0  0  0  0  0  0  0
   -5.3479   -3.1564    0.0000 C   0  0  0  0  0  0  0  0  0
   -4.6334   -3.5689    0.0000 C   0  0  0  0  0  0  0  0  0
   -4.6334   -4.3939    0.0000 C   0  0  0  0  0  0  0  0  0
   -3.9190   -4.8064    0.0000 N   0  0  0  0  0  0  0  0  0
   -3.9190   -5.6314    0.0000 C   0  0  0  0  0  0  0  0  0
   -3.2045   -6.0439    0.0000 O   0  0  0  0  0  0  0  0  0
   -4.6334   -6.0439    0.0000 C   0  0  0  0  0  0  0  0  0
   -5.3479   -5.6314    0.0000 O   0  0  0  0  0  0  0  0  0
   -5.3479   -4.8064    0.0000 C   0  0  0  0  0  0  0  0  0
   -5.3479   -2.3314    0.0000 C   0  0  0  0  0  0  0  0  0
   -4.6334   -1.9189    0.0000 C   0  0  0  0  0  0  0  0  0
   -4.6334   -1.0939    0.0000 C   0  0  0  0  0  0  0  0  0
   -3.9190   -0.6814    0.0000 C   0  0  0  0  0  0  0  0  0
   -3.2045   -1.0939    0.0000 N   0  0  0  0  0  0  0  0  0
   -3.2045   -1.9189    0.0000 C   0  0  0  0  0  0  0  0  0
   -3.9190   -2.3314    0.0000 C   0  0  0  0  0  0  0  0  0
   -2.4900   -0.6814    0.0000 C   0  0  0  0  0  0  0  0  0
   -2.4900    0.1436    0.0000 C   0  0  0  0  0  0  0  0  0
   -1.7756    0.5561    0.0000 O   0  0  0  0  0  0  0  0  0
   -1.7756    1.3811    0.0000 C   0  0  0  0  0  0  0  0  0
   -1.0611    1.7936    0.0000 C   0  0  0  0  0  0  0  0  0
   -1.0611    2.6186    0.0000 C   0  0  0  0  0  0  0  0  0
   -0.3466    3.0311    0.0000 N   0  0  0  0  0  0  0  0  0
    0.3678    2.6186    0.0000 C   0  0  0  0  0  0  0  0  0
    0.3678    1.7936    0.0000 C   0  0  0  0  0  0  0  0  0
   -0.3466    1.3811    0.0000 C   0  0  0  0  0  0  0  0  0
    1.0823    3.0311    0.0000 C   0  0  0  0  0  0  0  0  0
   -1.7756    3.0311    0.0000 C   0  0  0  0  0  0  0  0  0
   -2.4900    2.6186    0.0000 C   0  0  0  0  0  0  0  0  0
   -2.4900    1.7936    0.0000 C   0  0  0  0  0  0  0  0  0
  1  2  1  0  0  0  0
  2  3  4  0  0  0  0
  2 12  4  0  0  0  0
  3  4  4  0  0  0  0
  4  5  4  0  0  0  0
  4 13  1  0  0  0  0
  5  6  4  0  0  0  0
  6  7  1  0  0  0  0
  6 12  4  0  0  0  0
  7  8  1  0  0  0  0
  8  9  2  0  0  0  0
  8 10  1  0  0  0  0
 10 11  1  0  0  0  0
 11 12  1  0  0  0  0
 13 14  1  0  0  0  0
 14 15  1  0  0  0  0
 14 19  1  0  0  0  0
 15 16  1  0  0  0  0
 16 17  1  0  0  0  0
 17 18  1  0  0  0  0
 17 20  1  0  0  0  0
 18 19  1  0  0  0  0
 20 21  1  0  0  0  0
 21 22  1  0  0  0  0
 22 23  1  0  0  0  0
 23 24  4  0  0  0  0
 23 33  4  0  0  0  0
 24 25  4  0  0  0  0
 24 29  4  0  0  0  0
 25 26  4  0  0  0  0
 25 31  4  0  0  0  0
 26 27  4  0  0  0  0
 27 28  4  0  0  0  0
 27 30  1  0  0  0  0
 28 29  4  0  0  0  0
 31 32  4  0  0  0  0
 32 33  4  0  0  0  0
M  END
>  <Name_Molregno>
409192

>  <5-HT1A>
8.3

>  <5-HT1B>
9.1

>  <5-HT1D>
9.4

$$$$
409193
  Marvin  02231216192D 0   1.00000     0.00000     0

 34 38  0  0  0  0  0  0  0  0999 V2000
   -4.5528   -1.8767    0.0000 F   0  0  0  0  0  0  0  0  0
   -5.2673   -2.2892    0.0000 C   0  0  0  0  0  0  0  0  0
   -5.2673   -3.1142    0.0000 C   0  0  0  0  0  0  0  0  0
   -4.5528   -3.5267    0.0000 N   0  0  0  0  0  0  0  0  0
   -4.5528   -4.3517    0.0000 C   0  0  0  0  0  0  0  0  0
   -3.8384   -4.7642    0.0000 O   0  0  0  0  0  0  0  0  0
   -5.2673   -4.7642    0.0000 C   0  0  0  0  0  0  0  0  0
   -5.9818   -4.3517    0.0000 O   0  0  0  0  0  0  0  0  0
   -5.9818   -3.5267    0.0000 C   0  0  0  0  0  0  0  0  0
   -6.6962   -3.1142    0.0000 C   0  0  0  0  0  0  0  0  0
   -6.6962   -2.2892    0.0000 C   0  0  0  0  0  0  0  0  0
   -5.9818   -1.8767    0.0000 C   0  0  0  0  0  0  0  0  0
   -5.9818   -1.0517    0.0000 C   0  0  0  0  0  0  0  0  0
   -5.2673   -0.6392    0.0000 C   0  0  0  0  0  0  0  0  0
   -5.2673    0.1858    0.0000 C   0  0  0  0  0  0  0  0  0
   -4.5528    0.5983    0.0000 C   0  0  0  0  0  0  0  0  0
   -3.8384    0.1858    0.0000 N   0  0  0  0  0  0  0  0  0
   -3.8384   -0.6392    0.0000 C   0  0  0  0  0  0  0  0  0
   -4.5528   -1.0517    0.0000 C   0  0  0  0  0  0  0  0  0
   -3.1239    0.5983    0.0000 C   0  0  0  0  0  0  0  0  0
   -3.1239    1.4233    0.0000 C   0  0  0  0  0  0  0  0  0
   -2.4094    1.8358    0.0000 O   0  0  0  0  0  0  0  0  0
   -2.4094    2.6608    0.0000 C   0  0  0  0  0  0  0  0  0
   -3.1239    3.0733    0.0000 C   0  0  0  0  0  0  0  0  0
   -3.1239    3.8983    0.0000 C   0  0  0  0  0  0  0  0  0
   -3.8384    4.3108    0.0000 F   0  0  0  0  0  0  0  0  0
   -2.4094    4.3108    0.0000 C   0  0  0  0  0  0  0  0  0
   -1.6949    3.8983    0.0000 C   0  0  0  0  0  0  0  0  0
   -0.9805    4.3108    0.0000 N   0  0  0  0  0  0  0  0  0
   -0.2660    3.8983    0.0000 C   0  0  0  0  0  0  0  0  0
   -0.2660    3.0733    0.0000 C   0  0  0  0  0  0  0  0  0
   -0.9805    2.6608    0.0000 C   0  0  0  0  0  0  0  0  0
   -1.6949    3.0733    0.0000 C   0  0  0  0  0  0  0  0  0
    0.4485    4.3108    0.0000 C   0  0  0  0  0  0  0  0  0
  1  2  1  0  0  0  0
  2  3  4  0  0  0  0
  2 12  4  0  0  0  0
  3  4  1  0  0  0  0
  3  9  4  0  0  0  0
  4  5  1  0  0  0  0
  5  6  2  0  0  0  0
  5  7  1  0  0  0  0
  7  8  1  0  0  0  0
  8  9  1  0  0  0  0
  9 10  4  0  0  0  0
 10 11  4  0  0  0  0
 11 12  4  0  0  0  0
 12 13  1  0  0  0  0
 13 14  1  0  0  0  0
 14 15  1  0  0  0  0
 14 19  1  0  0  0  0
 15 16  1  0  0  0  0
 16 17  1  0  0  0  0
 17 18  1  0  0  0  0
 17 20  1  0  0  0  0
 18 19  1  0  0  0  0
 20 21  1  0  0  0  0
 21 22  1  0  0  0  0
 22 23  1  0  0  0  0
 23 24  4  0  0  0  0
 23 33  4  0  0  0  0
 24 25  4  0  0  0  0
 25 26  1  0  0  0  0
 25 27  4  0  0  0  0
 27 28  4  0  0  0  0
 28 29  4  0  0  0  0
 28 33  4  0  0  0  0
 29 30  4  0  0  0  0
 30 31  4  0  0  0  0
 30 34  1  0  0  0  0
 31 32  4  0  0  0  0
 32 33  4  0  0  0  0
M  END
>  <Name_Molregno>
409193

>  <5-HT1A>
8.8

>  <5-HT1B>
6.4

>  <5-HT1D>
7

>  <5-HT2A>
5.7

>  <5-HT2C>
5.6

>  <5-HT6>
5

>  <5-HT7>
6.9

>  <DOPAMINE D2>
5.9

>  <DOPAMINE D3>
6.1

$$$$
409194
  Marvin  02231216192D 0   1.00000     0.00000     0

 34 38  0  0  0  0  0  0  0  0999 V2000
   -2.9576    0.9914    0.0000 Cl  0  0  0  0  0  0  0  0  0
   -2.2431    0.5789    0.0000 C   0  0  0  0  0  0  0  0  0
   -2.2431   -0.2461    0.0000 C   0  0  0  0  0  0  0  0  0
   -1.5287   -0.6586    0.0000 C   0  0  0  0  0  0  0  0  0
   -1.5287   -1.4836    0.0000 O   0  0  0  0  0  0  0  0  0
   -2.2431   -1.8961    0.0000 C   0  0  0  0  0  0  0  0  0
   -2.2431   -2.7211    0.0000 C   0  0  0  0  0  0  0  0  0
   -2.9576   -3.1336    0.0000 N   0  0  0  0  0  0  0  0  0
   -2.9576   -3.9586    0.0000 C   0  0  0  0  0  0  0  0  0
   -3.6721   -4.3711    0.0000 C   0  0  0  0  0  0  0  0  0
   -4.3866   -3.9586    0.0000 C   0  0  0  0  0  0  0  0  0
   -4.3866   -3.1336    0.0000 C   0  0  0  0  0  0  0  0  0
   -3.6721   -2.7211    0.0000 C   0  0  0  0  0  0  0  0  0
   -5.1010   -4.3711    0.0000 C   0  0  0  0  0  0  0  0  0
   -5.8155   -3.9586    0.0000 C   0  0  0  0  0  0  0  0  0
   -6.5300   -4.3711    0.0000 C   0  0  0  0  0  0  0  0  0
   -7.2444   -3.9586    0.0000 C   0  0  0  0  0  0  0  0  0
   -7.2444   -3.1336    0.0000 C   0  0  0  0  0  0  0  0  0
   -7.9589   -2.7211    0.0000 O   0  0  0  0  0  0  0  0  0
   -7.9589   -1.8961    0.0000 C   0  0  0  0  0  0  0  0  0
   -7.2444   -1.4836    0.0000 C   0  0  0  0  0  0  0  0  0
   -7.2444   -0.6586    0.0000 O   0  0  0  0  0  0  0  0  0
   -6.5300   -1.8961    0.0000 N   0  0  0  0  0  0  0  0  0
   -6.5300   -2.7211    0.0000 C   0  0  0  0  0  0  0  0  0
   -5.8155   -3.1336    0.0000 C   0  0  0  0  0  0  0  0  0
   -5.1010   -2.7211    0.0000 F   0  0  0  0  0  0  0  0  0
   -0.8142   -0.2461    0.0000 C   0  0  0  0  0  0  0  0  0
   -0.8142    0.5789    0.0000 C   0  0  0  0  0  0  0  0  0
   -0.0997    0.9914    0.0000 N   0  0  0  0  0  0  0  0  0
    0.6147    0.5789    0.0000 C   0  0  0  0  0  0  0  0  0
    0.6147   -0.2461    0.0000 C   0  0  0  0  0  0  0  0  0
   -0.0997   -0.6586    0.0000 C   0  0  0  0  0  0  0  0  0
    1.3292    0.9914    0.0000 C   0  0  0  0  0  0  0  0  0
   -1.5287    0.9914    0.0000 C   0  0  0  0  0  0  0  0  0
  1  2  1  0  0  0  0
  2  3  4  0  0  0  0
  2 34  4  0  0  0  0
  3  4  4  0  0  0  0
  4  5  1  0  0  0  0
  4 27  4  0  0  0  0
  5  6  1  0  0  0  0
  6  7  1  0  0  0  0
  7  8  1  0  0  0  0
  8  9  1  0  0  0  0
  8 13  1  0  0  0  0
  9 10  1  0  0  0  0
 10 11  1  0  0  0  0
 11 12  1  0  0  0  0
 11 14  1  0  0  0  0
 12 13  1  0  0  0  0
 14 15  1  0  0  0  0
 15 16  4  0  0  0  0
 15 25  4  0  0  0  0
 16 17  4  0  0  0  0
 17 18  4  0  0  0  0
 18 19  1  0  0  0  0
 18 24  4  0  0  0  0
 19 20  1  0  0  0  0
 20 21  1  0  0  0  0
 21 22  2  0  0  0  0
 21 23  1  0  0  0  0
 23 24  1  0  0  0  0
 24 25  4  0  0  0  0
 25 26  1  0  0  0  0
 27 28  4  0  0  0  0
 27 32  4  0  0  0  0
 28 29  4  0  0  0  0
 28 34  4  0  0  0  0
 29 30  4  0  0  0  0
 30 31  4  0  0  0  0
 30 33  1  0  0  0  0
 31 32  4  0  0  0  0
M  END
>  <Name_Molregno>
409194

>  <5-HT1A>
8.6

>  <5-HT1B>
5.8

>  <5-HT1D>
6.2

>  <5-HT2A>
5.4

>  <5-HT2C>
5.4

>  <5-HT6>
5

>  <5-HT7>
6.9

>  <DOPAMINE D2>
5.9

>  <DOPAMINE D3>
6

$$$$
409196
  Marvin  02231216192D 0   1.00000     0.00000     0

 34 38  0  0  0  0  0  0  0  0999 V2000
   -4.5009   -2.0892    0.0000 F   0  0  0  0  0  0  0  0  0
   -5.2153   -2.5017    0.0000 C   0  0  0  0  0  0  0  0  0
   -5.2153   -3.3267    0.0000 C   0  0  0  0  0  0  0  0  0
   -5.9298   -3.7392    0.0000 C   0  0  0  0  0  0  0  0  0
   -5.9298   -4.5642    0.0000 O   0  0  0  0  0  0  0  0  0
   -6.6443   -4.9767    0.0000 C   0  0  0  0  0  0  0  0  0
   -7.3588   -4.5642    0.0000 C   0  0  0  0  0  0  0  0  0
   -8.0732   -4.9767    0.0000 O   0  0  0  0  0  0  0  0  0
   -7.3588   -3.7392    0.0000 N   0  0  0  0  0  0  0  0  0
   -6.6443   -3.3267    0.0000 C   0  0  0  0  0  0  0  0  0
   -6.6443   -2.5017    0.0000 C   0  0  0  0  0  0  0  0  0
   -5.9298   -2.0892    0.0000 C   0  0  0  0  0  0  0  0  0
   -5.9298   -1.2642    0.0000 C   0  0  0  0  0  0  0  0  0
   -5.2153   -0.8517    0.0000 C   0  0  0  0  0  0  0  0  0
   -5.2153   -0.0267    0.0000 C   0  0  0  0  0  0  0  0  0
   -4.5009    0.3858    0.0000 C   0  0  0  0  0  0  0  0  0
   -3.7864   -0.0267    0.0000 N   0  0  0  0  0  0  0  0  0
   -3.7864   -0.8517    0.0000 C   0  0  0  0  0  0  0  0  0
   -4.5009   -1.2642    0.0000 C   0  0  0  0  0  0  0  0  0
   -3.0719    0.3858    0.0000 C   0  0  0  0  0  0  0  0  0
   -3.0719    1.2108    0.0000 C   0  0  0  0  0  0  0  0  0
   -2.3575    1.6233    0.0000 O   0  0  0  0  0  0  0  0  0
   -2.3575    2.4483    0.0000 C   0  0  0  0  0  0  0  0  0
   -3.0719    2.8608    0.0000 C   0  0  0  0  0  0  0  0  0
   -3.0719    3.6858    0.0000 C   0  0  0  0  0  0  0  0  0
   -3.7864    4.0983    0.0000 F   0  0  0  0  0  0  0  0  0
   -2.3575    4.0983    0.0000 C   0  0  0  0  0  0  0  0  0
   -1.6430    3.6858    0.0000 C   0  0  0  0  0  0  0  0  0
   -0.9285    4.0983    0.0000 N   0  0  0  0  0  0  0  0  0
   -0.2141    3.6858    0.0000 C   0  0  0  0  0  0  0  0  0
   -0.2141    2.8608    0.0000 C   0  0  0  0  0  0  0  0  0
   -0.9285    2.4483    0.0000 C   0  0  0  0  0  0  0  0  0
   -1.6430    2.8608    0.0000 C   0  0  0  0  0  0  0  0  0
    0.5004    4.0983    0.0000 C   0  0  0  0  0  0  0  0  0
  1  2  1  0  0  0  0
  2  3  4  0  0  0  0
  2 12  4  0  0  0  0
  3  4  4  0  0  0  0
  4  5  1  0  0  0  0
  4 10  4  0  0  0  0
  5  6  1  0  0  0  0
  6  7  1  0  0  0  0
  7  8  2  0  0  0  0
  7  9  1  0  0  0  0
  9 10  1  0  0  0  0
 10 11  4  0  0  0  0
 11 12  4  0  0  0  0
 12 13  1  0  0  0  0
 13 14  1  0  0  0  0
 14 15  1  0  0  0  0
 14 19  1  0  0  0  0
 15 16  1  0  0  0  0
 16 17  1  0  0  0  0
 17 18  1  0  0  0  0
 17 20  1  0  0  0  0
 18 19  1  0  0  0  0
 20 21  1  0  0  0  0
 21 22  1  0  0  0  0
 22 23  1  0  0  0  0
 23 24  4  0  0  0  0
 23 33  4  0  0  0  0
 24 25  4  0  0  0  0
 25 26  1  0  0  0  0
 25 27  4  0  0  0  0
 27 28  4  0  0  0  0
 28 29  4  0  0  0  0
 28 33  4  0  0  0  0
 29 30  4  0  0  0  0
 30 31  4  0  0  0  0
 30 34  1  0  0  0  0
 31 32  4  0  0  0  0
 32 33  4  0  0  0  0
M  END
>  <Name_Molregno>
409196

>  <5-HT1A>
9.4

>  <5-HT1B>
6

>  <5-HT1D>
6.6

>  <5-HT2A>
5.7

>  <5-HT2C>
5.9

>  <5-HT6>
6

>  <5-HT7>
7.4

>  <DOPAMINE D2>
5.7

>  <DOPAMINE D3>
6.3

$$$$
409197
  Marvin  02231216192D 0   1.00000     0.00000     0

 34 38  0  0  0  0  0  0  0  0999 V2000
   -2.6497    1.0445    0.0000 Cl  0  0  0  0  0  0  0  0  0
   -1.9352    0.6320    0.0000 C   0  0  0  0  0  0  0  0  0
   -1.9352   -0.1930    0.0000 C   0  0  0  0  0  0  0  0  0
   -1.2208   -0.6055    0.0000 C   0  0  0  0  0  0  0  0  0
   -1.2208   -1.4305    0.0000 O   0  0  0  0  0  0  0  0  0
   -1.9352   -1.8430    0.0000 C   0  0  0  0  0  0  0  0  0
   -1.9352   -2.6680    0.0000 C   0  0  0  0  0  0  0  0  0
   -2.6497   -3.0805    0.0000 N   0  0  0  0  0  0  0  0  0
   -2.6497   -3.9055    0.0000 C   0  0  0  0  0  0  0  0  0
   -3.3642   -4.3180    0.0000 C   0  0  0  0  0  0  0  0  0
   -4.0786   -3.9055    0.0000 C   0  0  0  0  0  0  0  0  0
   -4.0786   -3.0805    0.0000 C   0  0  0  0  0  0  0  0  0
   -3.3642   -2.6680    0.0000 C   0  0  0  0  0  0  0  0  0
   -4.7931   -4.3180    0.0000 C   0  0  0  0  0  0  0  0  0
   -5.5076   -3.9055    0.0000 C   0  0  0  0  0  0  0  0  0
   -6.2220   -4.3180    0.0000 C   0  0  0  0  0  0  0  0  0
   -6.9365   -3.9055    0.0000 C   0  0  0  0  0  0  0  0  0
   -7.6510   -4.3180    0.0000 N   0  0  0  0  0  0  0  0  0
   -8.3655   -3.9055    0.0000 C   0  0  0  0  0  0  0  0  0
   -9.0799   -4.3180    0.0000 O   0  0  0  0  0  0  0  0  0
   -8.3655   -3.0805    0.0000 C   0  0  0  0  0  0  0  0  0
   -7.6510   -2.6680    0.0000 O   0  0  0  0  0  0  0  0  0
   -6.9365   -3.0805    0.0000 C   0  0  0  0  0  0  0  0  0
   -6.2220   -2.6680    0.0000 C   0  0  0  0  0  0  0  0  0
   -5.5076   -3.0805    0.0000 C   0  0  0  0  0  0  0  0  0
   -4.7931   -2.6680    0.0000 F   0  0  0  0  0  0  0  0  0
   -0.5063   -0.1930    0.0000 C   0  0  0  0  0  0  0  0  0
   -0.5063    0.6320    0.0000 C   0  0  0  0  0  0  0  0  0
    0.2082    1.0445    0.0000 N   0  0  0  0  0  0  0  0  0
    0.9227    0.6320    0.0000 C   0  0  0  0  0  0  0  0  0
    0.9227   -0.1930    0.0000 C   0  0  0  0  0  0  0  0  0
    0.2082   -0.6055    0.0000 C   0  0  0  0  0  0  0  0  0
    1.6371    1.0445    0.0000 C   0  0  0  0  0  0  0  0  0
   -1.2208    1.0445    0.0000 C   0  0  0  0  0  0  0  0  0
  1  2  1  0  0  0  0
  2  3  4  0  0  0  0
  2 34  4  0  0  0  0
  3  4  4  0  0  0  0
  4  5  1  0  0  0  0
  4 27  4  0  0  0  0
  5  6  1  0  0  0  0
  6  7  1  0  0  0  0
  7  8  1  0  0  0  0
  8  9  1  0  0  0  0
  8 13  1  0  0  0  0
  9 10  1  0  0  0  0
 10 11  1  0  0  0  0
 11 12  1  0  0  0  0
 11 14  1  0  0  0  0
 12 13  1  0  0  0  0
 14 15  1  0  0  0  0
 15 16  4  0  0  0  0
 15 25  4  0  0  0  0
 16 17  4  0  0  0  0
 17 18  1  0  0  0  0
 17 23  4  0  0  0  0
 18 19  1  0  0  0  0
 19 20  2  0  0  0  0
 19 21  1  0  0  0  0
 21 22  1  0  0  0  0
 22 23  1  0  0  0  0
 23 24  4  0  0  0  0
 24 25  4  0  0  0  0
 25 26  1  0  0  0  0
 27 28  4  0  0  0  0
 27 32  4  0  0  0  0
 28 29  4  0  0  0  0
 28 34  4  0  0  0  0
 29 30  4  0  0  0  0
 30 31  4  0  0  0  0
 30 33  1  0  0  0  0
 31 32  4  0  0  0  0
M  END
>  <Name_Molregno>
409197

>  <5-HT1A>
8.6

>  <5-HT1B>
5.7

>  <5-HT1D>
6.1

>  <5-HT2A>
5

>  <5-HT2C>
5.3

>  <5-HT6>
5.1

>  <5-HT7>
7.4

>  <DOPAMINE D2>
5.5

>  <DOPAMINE D3>
5.7

$$$$
409198
  Marvin  02231216192D 0   1.00000     0.00000     0

 34 38  0  0  0  0  0  0  0  0999 V2000
   -6.8888   -4.9862    0.0000 F   0  0  0  0  0  0  0  0  0
   -6.1744   -4.5737    0.0000 C   0  0  0  0  0  0  0  0  0
   -6.1744   -3.7487    0.0000 C   0  0  0  0  0  0  0  0  0
   -5.4599   -3.3362    0.0000 C   0  0  0  0  0  0  0  0  0
   -4.7454   -3.7487    0.0000 C   0  0  0  0  0  0  0  0  0
   -4.7454   -4.5737    0.0000 C   0  0  0  0  0  0  0  0  0
   -4.0309   -4.9862    0.0000 N   0  0  0  0  0  0  0  0  0
   -4.0309   -5.8112    0.0000 C   0  0  0  0  0  0  0  0  0
   -3.3165   -6.2237    0.0000 O   0  0  0  0  0  0  0  0  0
   -4.7454   -6.2237    0.0000 C   0  0  0  0  0  0  0  0  0
   -5.4599   -5.8112    0.0000 O   0  0  0  0  0  0  0  0  0
   -5.4599   -4.9862    0.0000 C   0  0  0  0  0  0  0  0  0
   -5.4599   -2.5112    0.0000 C   0  0  0  0  0  0  0  0  0
   -4.7454   -2.0987    0.0000 C   0  0  0  0  0  0  0  0  0
   -4.7454   -1.2737    0.0000 C   0  0  0  0  0  0  0  0  0
   -4.0309   -0.8612    0.0000 C   0  0  0  0  0  0  0  0  0
   -3.3165   -1.2737    0.0000 N   0  0  0  0  0  0  0  0  0
   -3.3165   -2.0987    0.0000 C   0  0  0  0  0  0  0  0  0
   -4.0309   -2.5112    0.0000 C   0  0  0  0  0  0  0  0  0
   -2.6020   -0.8612    0.0000 C   0  0  0  0  0  0  0  0  0
   -2.6020   -0.0362    0.0000 C   0  0  0  0  0  0  0  0  0
   -1.8875    0.3763    0.0000 O   0  0  0  0  0  0  0  0  0
   -1.8875    1.2013    0.0000 C   0  0  0  0  0  0  0  0  0
   -2.6020    1.6138    0.0000 C   0  0  0  0  0  0  0  0  0
   -2.6020    2.4388    0.0000 C   0  0  0  0  0  0  0  0  0
   -3.3165    2.8513    0.0000 F   0  0  0  0  0  0  0  0  0
   -1.8875    2.8513    0.0000 C   0  0  0  0  0  0  0  0  0
   -1.1731    2.4388    0.0000 C   0  0  0  0  0  0  0  0  0
   -0.4586    2.8513    0.0000 N   0  0  0  0  0  0  0  0  0
    0.2559    2.4388    0.0000 C   0  0  0  0  0  0  0  0  0
    0.2559    1.6138    0.0000 C   0  0  0  0  0  0  0  0  0
   -0.4586    1.2013    0.0000 C   0  0  0  0  0  0  0  0  0
   -1.1731    1.6138    0.0000 C   0  0  0  0  0  0  0  0  0
    0.9703    2.8513    0.0000 C   0  0  0  0  0  0  0  0  0
  1  2  1  0  0  0  0
  2  3  4  0  0  0  0
  2 12  4  0  0  0  0
  3  4  4  0  0  0  0
  4  5  4  0  0  0  0
  4 13  1  0  0  0  0
  5  6  4  0  0  0  0
  6  7  1  0  0  0  0
  6 12  4  0  0  0  0
  7  8  1  0  0  0  0
  8  9  2  0  0  0  0
  8 10  1  0  0  0  0
 10 11  1  0  0  0  0
 11 12  1  0  0  0  0
 13 14  1  0  0  0  0
 14 15  1  0  0  0  0
 14 19  1  0  0  0  0
 15 16  1  0  0  0  0
 16 17  1  0  0  0  0
 17 18  1  0  0  0  0
 17 20  1  0  0  0  0
 18 19  1  0  0  0  0
 20 21  1  0  0  0  0
 21 22  1  0  0  0  0
 22 23  1  0  0  0  0
 23 24  4  0  0  0  0
 23 33  4  0  0  0  0
 24 25  4  0  0  0  0
 25 26  1  0  0  0  0
 25 27  4  0  0  0  0
 27 28  4  0  0  0  0
 28 29  4  0  0  0  0
 28 33  4  0  0  0  0
 29 30  4  0  0  0  0
 30 31  4  0  0  0  0
 30 34  1  0  0  0  0
 31 32  4  0  0  0  0
 32 33  4  0  0  0  0
M  END
>  <Name_Molregno>
409198

>  <5-HT1A>
8.4

>  <5-HT1B>
6.5

>  <5-HT1D>
7.1

>  <5-HT2A>
5

>  <5-HT2C>
5

>  <5-HT6>
5.2

>  <5-HT7>
7.1

>  <DOPAMINE D2>
5

>  <DOPAMINE D3>
5.4

$$$$
409200
  Marvin  02231216192D 0   1.00000     0.00000     0

 34 38  0  0  0  0  0  0  0  0999 V2000
   -2.8865    0.9720    0.0000 Cl  0  0  0  0  0  0  0  0  0
   -2.1721    0.5595    0.0000 C   0  0  0  0  0  0  0  0  0
   -2.1721   -0.2655    0.0000 C   0  0  0  0  0  0  0  0  0
   -1.4576   -0.6780    0.0000 C   0  0  0  0  0  0  0  0  0
   -1.4576   -1.5030    0.0000 O   0  0  0  0  0  0  0  0  0
   -2.1721   -1.9155    0.0000 C   0  0  0  0  0  0  0  0  0
   -2.1721   -2.7405    0.0000 C   0  0  0  0  0  0  0  0  0
   -2.8865   -3.1530    0.0000 N   0  0  0  0  0  0  0  0  0
   -2.8865   -3.9780    0.0000 C   0  0  0  0  0  0  0  0  0
   -3.6010   -4.3905    0.0000 C   0  0  0  0  0  0  0  0  0
   -4.3155   -3.9780    0.0000 C   0  0  0  0  0  0  0  0  0
   -4.3155   -3.1530    0.0000 C   0  0  0  0  0  0  0  0  0
   -3.6010   -2.7405    0.0000 C   0  0  0  0  0  0  0  0  0
   -5.0299   -4.3905    0.0000 C   0  0  0  0  0  0  0  0  0
   -5.7444   -3.9780    0.0000 C   0  0  0  0  0  0  0  0  0
   -6.4589   -4.3905    0.0000 C   0  0  0  0  0  0  0  0  0
   -7.1733   -3.9780    0.0000 C   0  0  0  0  0  0  0  0  0
   -7.8878   -4.3905    0.0000 F   0  0  0  0  0  0  0  0  0
   -7.1733   -3.1530    0.0000 C   0  0  0  0  0  0  0  0  0
   -7.8878   -2.7405    0.0000 O   0  0  0  0  0  0  0  0  0
   -7.8878   -1.9155    0.0000 C   0  0  0  0  0  0  0  0  0
   -7.1733   -1.5030    0.0000 C   0  0  0  0  0  0  0  0  0
   -7.1733   -0.6780    0.0000 O   0  0  0  0  0  0  0  0  0
   -6.4589   -1.9155    0.0000 N   0  0  0  0  0  0  0  0  0
   -6.4589   -2.7405    0.0000 C   0  0  0  0  0  0  0  0  0
   -5.7444   -3.1530    0.0000 C   0  0  0  0  0  0  0  0  0
   -0.7431   -0.2655    0.0000 C   0  0  0  0  0  0  0  0  0
   -0.7431    0.5595    0.0000 C   0  0  0  0  0  0  0  0  0
   -0.0286    0.9720    0.0000 N   0  0  0  0  0  0  0  0  0
    0.6858    0.5595    0.0000 C   0  0  0  0  0  0  0  0  0
    0.6858   -0.2655    0.0000 C   0  0  0  0  0  0  0  0  0
   -0.0286   -0.6780    0.0000 C   0  0  0  0  0  0  0  0  0
    1.4003    0.9720    0.0000 C   0  0  0  0  0  0  0  0  0
   -1.4576    0.9720    0.0000 C   0  0  0  0  0  0  0  0  0
  1  2  1  0  0  0  0
  2  3  4  0  0  0  0
  2 34  4  0  0  0  0
  3  4  4  0  0  0  0
  4  5  1  0  0  0  0
  4 27  4  0  0  0  0
  5  6  1  0  0  0  0
  6  7  1  0  0  0  0
  7  8  1  0  0  0  0
  8  9  1  0  0  0  0
  8 13  1  0  0  0  0
  9 10  1  0  0  0  0
 10 11  1  0  0  0  0
 11 12  1  0  0  0  0
 11 14  1  0  0  0  0
 12 13  1  0  0  0  0
 14 15  1  0  0  0  0
 15 16  4  0  0  0  0
 15 26  4  0  0  0  0
 16 17  4  0  0  0  0
 17 18  1  0  0  0  0
 17 19  4  0  0  0  0
 19 20  1  0  0  0  0
 19 25  4  0  0  0  0
 20 21  1  0  0  0  0
 21 22  1  0  0  0  0
 22 23  2  0  0  0  0
 22 24  1  0  0  0  0
 24 25  1  0  0  0  0
 25 26  4  0  0  0  0
 27 28  4  0  0  0  0
 27 32  4  0  0  0  0
 28 29  4  0  0  0  0
 28 34  4  0  0  0  0
 29 30  4  0  0  0  0
 30 31  4  0  0  0  0
 30 33  1  0  0  0  0
 31 32  4  0  0  0  0
M  END
>  <Name_Molregno>
409200

>  <5-HT1A>
8

>  <5-HT1B>
6.2

>  <5-HT1D>
6.2

>  <5-HT2A>
5.5

>  <5-HT2C>
5.6

>  <5-HT6>
5

>  <5-HT7>
7.1

>  <DOPAMINE D2>
5.6

>  <DOPAMINE D3>
5.9

$$$$
415458
  Marvin  02231216192D 0   1.00000     0.00000     0

 33 37  0  0  0  0  0  0  0  0999 V2000
   -6.3350   -4.9020    0.0000 O   0  0  0  0  0  0  0  0  0
   -7.0495   -5.3145    0.0000 C   0  0  0  0  0  0  0  0  0
   -7.7639   -4.9020    0.0000 C   0  0  0  0  0  0  0  0  0
   -8.4784   -5.3145    0.0000 O   0  0  0  0  0  0  0  0  0
   -7.7639   -4.0770    0.0000 N   0  0  0  0  0  0  0  0  0
   -7.0495   -3.6645    0.0000 C   0  0  0  0  0  0  0  0  0
   -7.0495   -2.8395    0.0000 C   0  0  0  0  0  0  0  0  0
   -6.3350   -2.4270    0.0000 C   0  0  0  0  0  0  0  0  0
   -5.6205   -2.8395    0.0000 C   0  0  0  0  0  0  0  0  0
   -5.6205   -3.6645    0.0000 C   0  0  0  0  0  0  0  0  0
   -6.3350   -4.0770    0.0000 C   0  0  0  0  0  0  0  0  0
   -6.3350   -1.6020    0.0000 C   0  0  0  0  0  0  0  0  0
   -5.6205   -1.1895    0.0000 C   0  0  0  0  0  0  0  0  0
   -5.6205   -0.3645    0.0000 C   0  0  0  0  0  0  0  0  0
   -4.9061    0.0480    0.0000 C   0  0  0  0  0  0  0  0  0
   -4.1916   -0.3645    0.0000 N   0  0  0  0  0  0  0  0  0
   -4.1916   -1.1895    0.0000 C   0  0  0  0  0  0  0  0  0
   -4.9061   -1.6020    0.0000 C   0  0  0  0  0  0  0  0  0
   -3.4771    0.0480    0.0000 C   0  0  0  0  0  0  0  0  0
   -3.4771    0.8730    0.0000 C   0  0  0  0  0  0  0  0  0
   -2.7627    1.2855    0.0000 O   0  0  0  0  0  0  0  0  0
   -2.7627    2.1105    0.0000 C   0  0  0  0  0  0  0  0  0
   -2.0482    2.5230    0.0000 C   0  0  0  0  0  0  0  0  0
   -2.0482    3.3480    0.0000 C   0  0  0  0  0  0  0  0  0
   -1.3337    3.7605    0.0000 N   0  0  0  0  0  0  0  0  0
   -0.6192    3.3480    0.0000 C   0  0  0  0  0  0  0  0  0
   -0.6192    2.5230    0.0000 C   0  0  0  0  0  0  0  0  0
   -1.3337    2.1105    0.0000 C   0  0  0  0  0  0  0  0  0
    0.0952    3.7605    0.0000 C   0  0  0  0  0  0  0  0  0
   -2.7627    3.7605    0.0000 C   0  0  0  0  0  0  0  0  0
   -3.4771    3.3480    0.0000 C   0  0  0  0  0  0  0  0  0
   -3.4771    2.5230    0.0000 C   0  0  0  0  0  0  0  0  0
   -8.4784   -3.6645    0.0000 C   0  0  0  0  0  0  0  0  0
  1  2  1  0  0  0  0
  1 11  1  0  0  0  0
  2  3  1  0  0  0  0
  3  4  2  0  0  0  0
  3  5  1  0  0  0  0
  5  6  1  0  0  0  0
  5 33  1  0  0  0  0
  6  7  4  0  0  0  0
  6 11  4  0  0  0  0
  7  8  4  0  0  0  0
  8  9  4  0  0  0  0
  8 12  1  0  0  0  0
  9 10  4  0  0  0  0
 10 11  4  0  0  0  0
 12 13  1  0  0  0  0
 13 14  1  0  0  0  0
 13 18  1  0  0  0  0
 14 15  1  0  0  0  0
 15 16  1  0  0  0  0
 16 17  1  0  0  0  0
 16 19  1  0  0  0  0
 17 18  1  0  0  0  0
 19 20  1  0  0  0  0
 20 21  1  0  0  0  0
 21 22  1  0  0  0  0
 22 23  4  0  0  0  0
 22 32  4  0  0  0  0
 23 24  4  0  0  0  0
 23 28  4  0  0  0  0
 24 25  4  0  0  0  0
 24 30  4  0  0  0  0
 25 26  4  0  0  0  0
 26 27  4  0  0  0  0
 26 29  1  0  0  0  0
 27 28  4  0  0  0  0
 30 31  4  0  0  0  0
 31 32  4  0  0  0  0
M  END
>  <Name_Molregno>
415458

>  <5-HT1A>
8.8

>  <5-HT1B>
8.2

>  <5-HT1D>
8.6

$$$$
415459
  Marvin  02231216192D 0   1.00000     0.00000     0

 34 38  0  0  0  0  0  0  0  0999 V2000
   -6.0658   -4.9013    0.0000 O   0  0  0  0  0  0  0  0  0
   -6.7802   -5.3138    0.0000 C   0  0  0  0  0  0  0  0  0
   -7.4947   -4.9013    0.0000 C   0  0  0  0  0  0  0  0  0
   -8.2092   -5.3138    0.0000 O   0  0  0  0  0  0  0  0  0
   -7.4947   -4.0763    0.0000 N   0  0  0  0  0  0  0  0  0
   -6.7802   -3.6638    0.0000 C   0  0  0  0  0  0  0  0  0
   -6.7802   -2.8388    0.0000 C   0  0  0  0  0  0  0  0  0
   -6.0658   -2.4263    0.0000 C   0  0  0  0  0  0  0  0  0
   -5.3513   -2.8388    0.0000 C   0  0  0  0  0  0  0  0  0
   -5.3513   -3.6638    0.0000 C   0  0  0  0  0  0  0  0  0
   -6.0658   -4.0763    0.0000 C   0  0  0  0  0  0  0  0  0
   -6.0658   -1.6013    0.0000 C   0  0  0  0  0  0  0  0  0
   -5.3513   -1.1888    0.0000 C   0  0  0  0  0  0  0  0  0
   -5.3513   -0.3638    0.0000 C   0  0  0  0  0  0  0  0  0
   -4.6368    0.0487    0.0000 C   0  0  0  0  0  0  0  0  0
   -3.9223   -0.3638    0.0000 N   0  0  0  0  0  0  0  0  0
   -3.9223   -1.1888    0.0000 C   0  0  0  0  0  0  0  0  0
   -4.6368   -1.6013    0.0000 C   0  0  0  0  0  0  0  0  0
   -3.2079    0.0487    0.0000 C   0  0  0  0  0  0  0  0  0
   -3.2079    0.8737    0.0000 C   0  0  0  0  0  0  0  0  0
   -2.4934    1.2862    0.0000 O   0  0  0  0  0  0  0  0  0
   -2.4934    2.1112    0.0000 C   0  0  0  0  0  0  0  0  0
   -1.7789    2.5237    0.0000 C   0  0  0  0  0  0  0  0  0
   -1.7789    3.3487    0.0000 C   0  0  0  0  0  0  0  0  0
   -1.0645    3.7612    0.0000 N   0  0  0  0  0  0  0  0  0
   -0.3500    3.3487    0.0000 C   0  0  0  0  0  0  0  0  0
   -0.3500    2.5237    0.0000 C   0  0  0  0  0  0  0  0  0
   -1.0645    2.1112    0.0000 C   0  0  0  0  0  0  0  0  0
    0.3645    3.7612    0.0000 C   0  0  0  0  0  0  0  0  0
   -2.4934    3.7612    0.0000 C   0  0  0  0  0  0  0  0  0
   -3.2079    3.3487    0.0000 C   0  0  0  0  0  0  0  0  0
   -3.2079    2.5237    0.0000 C   0  0  0  0  0  0  0  0  0
   -8.2092   -3.6638    0.0000 C   0  0  0  0  0  0  0  0  0
   -8.2092   -2.8388    0.0000 C   0  0  0  0  0  0  0  0  0
  1  2  1  0  0  0  0
  1 11  1  0  0  0  0
  2  3  1  0  0  0  0
  3  4  2  0  0  0  0
  3  5  1  0  0  0  0
  5  6  1  0  0  0  0
  5 33  1  0  0  0  0
  6  7  4  0  0  0  0
  6 11  4  0  0  0  0
  7  8  4  0  0  0  0
  8  9  4  0  0  0  0
  8 12  1  0  0  0  0
  9 10  4  0  0  0  0
 10 11  4  0  0  0  0
 12 13  1  0  0  0  0
 13 14  1  0  0  0  0
 13 18  1  0  0  0  0
 14 15  1  0  0  0  0
 15 16  1  0  0  0  0
 16 17  1  0  0  0  0
 16 19  1  0  0  0  0
 17 18  1  0  0  0  0
 19 20  1  0  0  0  0
 20 21  1  0  0  0  0
 21 22  1  0  0  0  0
 22 23  4  0  0  0  0
 22 32  4  0  0  0  0
 23 24  4  0  0  0  0
 23 28  4  0  0  0  0
 24 25  4  0  0  0  0
 24 30  4  0  0  0  0
 25 26  4  0  0  0  0
 26 27  4  0  0  0  0
 26 29  1  0  0  0  0
 27 28  4  0  0  0  0
 30 31  4  0  0  0  0
 31 32  4  0  0  0  0
 33 34  1  0  0  0  0
M  END
>  <Name_Molregno>
415459

>  <5-HT1A>
9.05

>  <5-HT1B>
8.4

>  <5-HT1D>
8.8

$$$$
415460
  Marvin  02231216192D 0   1.00000     0.00000     0

 35 39  0  0  0  0  0  0  0  0999 V2000
   -5.8221   -4.9201    0.0000 O   0  0  0  0  0  0  0  0  0
   -6.5366   -5.3326    0.0000 C   0  0  0  0  0  0  0  0  0
   -7.2510   -4.9201    0.0000 C   0  0  0  0  0  0  0  0  0
   -7.9655   -5.3326    0.0000 O   0  0  0  0  0  0  0  0  0
   -7.2510   -4.0951    0.0000 N   0  0  0  0  0  0  0  0  0
   -6.5366   -3.6826    0.0000 C   0  0  0  0  0  0  0  0  0
   -6.5366   -2.8576    0.0000 C   0  0  0  0  0  0  0  0  0
   -5.8221   -2.4451    0.0000 C   0  0  0  0  0  0  0  0  0
   -5.1076   -2.8576    0.0000 C   0  0  0  0  0  0  0  0  0
   -5.1076   -3.6826    0.0000 C   0  0  0  0  0  0  0  0  0
   -5.8221   -4.0951    0.0000 C   0  0  0  0  0  0  0  0  0
   -5.8221   -1.6201    0.0000 C   0  0  0  0  0  0  0  0  0
   -5.1076   -1.2076    0.0000 C   0  0  0  0  0  0  0  0  0
   -5.1076   -0.3826    0.0000 C   0  0  0  0  0  0  0  0  0
   -4.3932    0.0299    0.0000 C   0  0  0  0  0  0  0  0  0
   -3.6787   -0.3826    0.0000 N   0  0  0  0  0  0  0  0  0
   -3.6787   -1.2076    0.0000 C   0  0  0  0  0  0  0  0  0
   -4.3932   -1.6201    0.0000 C   0  0  0  0  0  0  0  0  0
   -2.9642    0.0299    0.0000 C   0  0  0  0  0  0  0  0  0
   -2.9642    0.8549    0.0000 C   0  0  0  0  0  0  0  0  0
   -2.2498    1.2674    0.0000 O   0  0  0  0  0  0  0  0  0
   -2.2498    2.0924    0.0000 C   0  0  0  0  0  0  0  0  0
   -1.5353    2.5049    0.0000 C   0  0  0  0  0  0  0  0  0
   -1.5353    3.3299    0.0000 C   0  0  0  0  0  0  0  0  0
   -0.8208    3.7424    0.0000 N   0  0  0  0  0  0  0  0  0
   -0.1063    3.3299    0.0000 C   0  0  0  0  0  0  0  0  0
   -0.1063    2.5049    0.0000 C   0  0  0  0  0  0  0  0  0
   -0.8208    2.0924    0.0000 C   0  0  0  0  0  0  0  0  0
    0.6081    3.7424    0.0000 C   0  0  0  0  0  0  0  0  0
   -2.2498    3.7424    0.0000 C   0  0  0  0  0  0  0  0  0
   -2.9642    3.3299    0.0000 C   0  0  0  0  0  0  0  0  0
   -2.9642    2.5049    0.0000 C   0  0  0  0  0  0  0  0  0
   -7.9655   -3.6826    0.0000 C   0  0  0  0  0  0  0  0  0
   -7.9655   -2.8576    0.0000 C   0  0  0  0  0  0  0  0  0
   -8.6800   -4.0951    0.0000 C   0  0  0  0  0  0  0  0  0
  1  2  1  0  0  0  0
  1 11  1  0  0  0  0
  2  3  1  0  0  0  0
  3  4  2  0  0  0  0
  3  5  1  0  0  0  0
  5  6  1  0  0  0  0
  5 33  1  0  0  0  0
  6  7  4  0  0  0  0
  6 11  4  0  0  0  0
  7  8  4  0  0  0  0
  8  9  4  0  0  0  0
  8 12  1  0  0  0  0
  9 10  4  0  0  0  0
 10 11  4  0  0  0  0
 12 13  1  0  0  0  0
 13 14  1  0  0  0  0
 13 18  1  0  0  0  0
 14 15  1  0  0  0  0
 15 16  1  0  0  0  0
 16 17  1  0  0  0  0
 16 19  1  0  0  0  0
 17 18  1  0  0  0  0
 19 20  1  0  0  0  0
 20 21  1  0  0  0  0
 21 22  1  0  0  0  0
 22 23  4  0  0  0  0
 22 32  4  0  0  0  0
 23 24  4  0  0  0  0
 23 28  4  0  0  0  0
 24 25  4  0  0  0  0
 24 30  4  0  0  0  0
 25 26  4  0  0  0  0
 26 27  4  0  0  0  0
 26 29  1  0  0  0  0
 27 28  4  0  0  0  0
 30 31  4  0  0  0  0
 31 32  4  0  0  0  0
 33 34  1  0  0  0  0
 33 35  1  0  0  0  0
M  END
>  <Name_Molregno>
415460

>  <5-HT1A>
8.75

>  <5-HT1B>
7.4

>  <5-HT1D>
8.4

$$$$
415461
  Marvin  02231216192D 0   1.00000     0.00000     0

 32 36  0  0  0  0  0  0  0  0999 V2000
   -6.5979   -4.9561    0.0000 O   0  0  0  0  0  0  0  0  0
   -7.3124   -5.3686    0.0000 C   0  0  0  0  0  0  0  0  0
   -8.0268   -4.9561    0.0000 C   0  0  0  0  0  0  0  0  0
   -8.7413   -5.3686    0.0000 O   0  0  0  0  0  0  0  0  0
   -8.0268   -4.1311    0.0000 N   0  0  0  0  0  0  0  0  0
   -7.3124   -3.7186    0.0000 C   0  0  0  0  0  0  0  0  0
   -7.3124   -2.8936    0.0000 C   0  0  0  0  0  0  0  0  0
   -6.5979   -2.4811    0.0000 C   0  0  0  0  0  0  0  0  0
   -5.8834   -2.8936    0.0000 C   0  0  0  0  0  0  0  0  0
   -5.8834   -3.7186    0.0000 C   0  0  0  0  0  0  0  0  0
   -6.5979   -4.1311    0.0000 C   0  0  0  0  0  0  0  0  0
   -6.5979   -1.6561    0.0000 C   0  0  0  0  0  0  0  0  0
   -5.8834   -1.2436    0.0000 N   0  0  0  0  0  0  0  0  0
   -5.8834   -0.4186    0.0000 C   0  0  0  0  0  0  0  0  0
   -5.1690   -0.0061    0.0000 C   0  0  0  0  0  0  0  0  0
   -4.4545   -0.4186    0.0000 N   0  0  0  0  0  0  0  0  0
   -4.4545   -1.2436    0.0000 C   0  0  0  0  0  0  0  0  0
   -5.1690   -1.6561    0.0000 C   0  0  0  0  0  0  0  0  0
   -3.7400   -0.0061    0.0000 C   0  0  0  0  0  0  0  0  0
   -3.7400    0.8189    0.0000 C   0  0  0  0  0  0  0  0  0
   -3.0255    1.2314    0.0000 O   0  0  0  0  0  0  0  0  0
   -3.0255    2.0564    0.0000 C   0  0  0  0  0  0  0  0  0
   -2.3111    2.4689    0.0000 C   0  0  0  0  0  0  0  0  0
   -2.3111    3.2939    0.0000 C   0  0  0  0  0  0  0  0  0
   -1.5966    3.7064    0.0000 N   0  0  0  0  0  0  0  0  0
   -0.8821    3.2939    0.0000 C   0  0  0  0  0  0  0  0  0
   -0.8821    2.4689    0.0000 C   0  0  0  0  0  0  0  0  0
   -1.5966    2.0564    0.0000 C   0  0  0  0  0  0  0  0  0
   -0.1677    3.7064    0.0000 C   0  0  0  0  0  0  0  0  0
   -3.0255    3.7064    0.0000 C   0  0  0  0  0  0  0  0  0
   -3.7400    3.2939    0.0000 C   0  0  0  0  0  0  0  0  0
   -3.7400    2.4689    0.0000 C   0  0  0  0  0  0  0  0  0
  1  2  1  0  0  0  0
  1 11  1  0  0  0  0
  2  3  1  0  0  0  0
  3  4  2  0  0  0  0
  3  5  1  0  0  0  0
  5  6  1  0  0  0  0
  6  7  4  0  0  0  0
  6 11  4  0  0  0  0
  7  8  4  0  0  0  0
  8  9  4  0  0  0  0
  8 12  1  0  0  0  0
  9 10  4  0  0  0  0
 10 11  4  0  0  0  0
 12 13  1  0  0  0  0
 13 14  1  0  0  0  0
 13 18  1  0  0  0  0
 14 15  1  0  0  0  0
 15 16  1  0  0  0  0
 16 17  1  0  0  0  0
 16 19  1  0  0  0  0
 17 18  1  0  0  0  0
 19 20  1  0  0  0  0
 20 21  1  0  0  0  0
 21 22  1  0  0  0  0
 22 23  4  0  0  0  0
 22 32  4  0  0  0  0
 23 24  4  0  0  0  0
 23 28  4  0  0  0  0
 24 25  4  0  0  0  0
 24 30  4  0  0  0  0
 25 26  4  0  0  0  0
 26 27  4  0  0  0  0
 26 29  1  0  0  0  0
 27 28  4  0  0  0  0
 30 31  4  0  0  0  0
 31 32  4  0  0  0  0
M  END
>  <Name_Molregno>
415461

>  <5-HT1A>
8

>  <5-HT1B>
7

>  <5-HT1D>
8

$$$$
415462
  Marvin  02231216192D 0   1.00000     0.00000     0

 33 37  0  0  0  0  0  0  0  0999 V2000
   -6.3350   -4.9020    0.0000 O   0  0  0  0  0  0  0  0  0
   -7.0495   -5.3145    0.0000 C   0  0  0  0  0  0  0  0  0
   -7.7639   -4.9020    0.0000 C   0  0  0  0  0  0  0  0  0
   -8.4784   -5.3145    0.0000 O   0  0  0  0  0  0  0  0  0
   -7.7639   -4.0770    0.0000 N   0  0  0  0  0  0  0  0  0
   -7.0495   -3.6645    0.0000 C   0  0  0  0  0  0  0  0  0
   -7.0495   -2.8395    0.0000 C   0  0  0  0  0  0  0  0  0
   -6.3350   -2.4270    0.0000 C   0  0  0  0  0  0  0  0  0
   -5.6205   -2.8395    0.0000 C   0  0  0  0  0  0  0  0  0
   -5.6205   -3.6645    0.0000 C   0  0  0  0  0  0  0  0  0
   -6.3350   -4.0770    0.0000 C   0  0  0  0  0  0  0  0  0
   -6.3350   -1.6020    0.0000 C   0  0  0  0  0  0  0  0  0
   -5.6205   -1.1895    0.0000 N   0  0  0  0  0  0  0  0  0
   -5.6205   -0.3645    0.0000 C   0  0  0  0  0  0  0  0  0
   -4.9061    0.0480    0.0000 C   0  0  0  0  0  0  0  0  0
   -4.1916   -0.3645    0.0000 N   0  0  0  0  0  0  0  0  0
   -4.1916   -1.1895    0.0000 C   0  0  0  0  0  0  0  0  0
   -4.9061   -1.6020    0.0000 C   0  0  0  0  0  0  0  0  0
   -3.4771    0.0480    0.0000 C   0  0  0  0  0  0  0  0  0
   -3.4771    0.8730    0.0000 C   0  0  0  0  0  0  0  0  0
   -2.7627    1.2855    0.0000 O   0  0  0  0  0  0  0  0  0
   -2.7627    2.1105    0.0000 C   0  0  0  0  0  0  0  0  0
   -2.0482    2.5230    0.0000 C   0  0  0  0  0  0  0  0  0
   -2.0482    3.3480    0.0000 C   0  0  0  0  0  0  0  0  0
   -1.3337    3.7605    0.0000 N   0  0  0  0  0  0  0  0  0
   -0.6192    3.3480    0.0000 C   0  0  0  0  0  0  0  0  0
   -0.6192    2.5230    0.0000 C   0  0  0  0  0  0  0  0  0
   -1.3337    2.1105    0.0000 C   0  0  0  0  0  0  0  0  0
    0.0952    3.7605    0.0000 C   0  0  0  0  0  0  0  0  0
   -2.7627    3.7605    0.0000 C   0  0  0  0  0  0  0  0  0
   -3.4771    3.3480    0.0000 C   0  0  0  0  0  0  0  0  0
   -3.4771    2.5230    0.0000 C   0  0  0  0  0  0  0  0  0
   -8.4784   -3.6645    0.0000 C   0  0  0  0  0  0  0  0  0
  1  2  1  0  0  0  0
  1 11  1  0  0  0  0
  2  3  1  0  0  0  0
  3  4  2  0  0  0  0
  3  5  1  0  0  0  0
  5  6  1  0  0  0  0
  5 33  1  0  0  0  0
  6  7  4  0  0  0  0
  6 11  4  0  0  0  0
  7  8  4  0  0  0  0
  8  9  4  0  0  0  0
  8 12  1  0  0  0  0
  9 10  4  0  0  0  0
 10 11  4  0  0  0  0
 12 13  1  0  0  0  0
 13 14  1  0  0  0  0
 13 18  1  0  0  0  0
 14 15  1  0  0  0  0
 15 16  1  0  0  0  0
 16 17  1  0  0  0  0
 16 19  1  0  0  0  0
 17 18  1  0  0  0  0
 19 20  1  0  0  0  0
 20 21  1  0  0  0  0
 21 22  1  0  0  0  0
 22 23  4  0  0  0  0
 22 32  4  0  0  0  0
 23 24  4  0  0  0  0
 23 28  4  0  0  0  0
 24 25  4  0  0  0  0
 24 30  4  0  0  0  0
 25 26  4  0  0  0  0
 26 27  4  0  0  0  0
 26 29  1  0  0  0  0
 27 28  4  0  0  0  0
 30 31  4  0  0  0  0
 31 32  4  0  0  0  0
M  END
>  <Name_Molregno>
415462

>  <5-HT1A>
8.4

>  <5-HT1B>
8.1

>  <5-HT1D>
9.3

$$$$
415463
  Marvin  02231216192D 0   1.00000     0.00000     0

 34 38  0  0  0  0  0  0  0  0999 V2000
   -6.0658   -4.9013    0.0000 O   0  0  0  0  0  0  0  0  0
   -6.7802   -5.3138    0.0000 C   0  0  0  0  0  0  0  0  0
   -7.4947   -4.9013    0.0000 C   0  0  0  0  0  0  0  0  0
   -8.2092   -5.3138    0.0000 O   0  0  0  0  0  0  0  0  0
   -7.4947   -4.0763    0.0000 N   0  0  0  0  0  0  0  0  0
   -6.7802   -3.6638    0.0000 C   0  0  0  0  0  0  0  0  0
   -6.7802   -2.8388    0.0000 C   0  0  0  0  0  0  0  0  0
   -6.0658   -2.4263    0.0000 C   0  0  0  0  0  0  0  0  0
   -5.3513   -2.8388    0.0000 C   0  0  0  0  0  0  0  0  0
   -5.3513   -3.6638    0.0000 C   0  0  0  0  0  0  0  0  0
   -6.0658   -4.0763    0.0000 C   0  0  0  0  0  0  0  0  0
   -6.0658   -1.6013    0.0000 C   0  0  0  0  0  0  0  0  0
   -5.3513   -1.1888    0.0000 N   0  0  0  0  0  0  0  0  0
   -5.3513   -0.3638    0.0000 C   0  0  0  0  0  0  0  0  0
   -4.6368    0.0487    0.0000 C   0  0  0  0  0  0  0  0  0
   -3.9223   -0.3638    0.0000 N   0  0  0  0  0  0  0  0  0
   -3.9223   -1.1888    0.0000 C   0  0  0  0  0  0  0  0  0
   -4.6368   -1.6013    0.0000 C   0  0  0  0  0  0  0  0  0
   -3.2079    0.0487    0.0000 C   0  0  0  0  0  0  0  0  0
   -3.2079    0.8737    0.0000 C   0  0  0  0  0  0  0  0  0
   -2.4934    1.2862    0.0000 O   0  0  0  0  0  0  0  0  0
   -2.4934    2.1112    0.0000 C   0  0  0  0  0  0  0  0  0
   -1.7789    2.5237    0.0000 C   0  0  0  0  0  0  0  0  0
   -1.7789    3.3487    0.0000 C   0  0  0  0  0  0  0  0  0
   -1.0645    3.7612    0.0000 N   0  0  0  0  0  0  0  0  0
   -0.3500    3.3487    0.0000 C   0  0  0  0  0  0  0  0  0
   -0.3500    2.5237    0.0000 C   0  0  0  0  0  0  0  0  0
   -1.0645    2.1112    0.0000 C   0  0  0  0  0  0  0  0  0
    0.3645    3.7612    0.0000 C   0  0  0  0  0  0  0  0  0
   -2.4934    3.7612    0.0000 C   0  0  0  0  0  0  0  0  0
   -3.2079    3.3487    0.0000 C   0  0  0  0  0  0  0  0  0
   -3.2079    2.5237    0.0000 C   0  0  0  0  0  0  0  0  0
   -8.2092   -3.6638    0.0000 C   0  0  0  0  0  0  0  0  0
   -8.2092   -2.8388    0.0000 C   0  0  0  0  0  0  0  0  0
  1  2  1  0  0  0  0
  1 11  1  0  0  0  0
  2  3  1  0  0  0  0
  3  4  2  0  0  0  0
  3  5  1  0  0  0  0
  5  6  1  0  0  0  0
  5 33  1  0  0  0  0
  6  7  4  0  0  0  0
  6 11  4  0  0  0  0
  7  8  4  0  0  0  0
  8  9  4  0  0  0  0
  8 12  1  0  0  0  0
  9 10  4  0  0  0  0
 10 11  4  0  0  0  0
 12 13  1  0  0  0  0
 13 14  1  0  0  0  0
 13 18  1  0  0  0  0
 14 15  1  0  0  0  0
 15 16  1  0  0  0  0
 16 17  1  0  0  0  0
 16 19  1  0  0  0  0
 17 18  1  0  0  0  0
 19 20  1  0  0  0  0
 20 21  1  0  0  0  0
 21 22  1  0  0  0  0
 22 23  4  0  0  0  0
 22 32  4  0  0  0  0
 23 24  4  0  0  0  0
 23 28  4  0  0  0  0
 24 25  4  0  0  0  0
 24 30  4  0  0  0  0
 25 26  4  0  0  0  0
 26 27  4  0  0  0  0
 26 29  1  0  0  0  0
 27 28  4  0  0  0  0
 30 31  4  0  0  0  0
 31 32  4  0  0  0  0
 33 34  1  0  0  0  0
M  END
>  <Name_Molregno>
415463

>  <5-HT1A>
8.15

>  <5-HT1B>
7.6

>  <5-HT1D>
9

$$$$
415464
  Marvin  02231216192D 0   1.00000     0.00000     0

 35 39  0  0  0  0  0  0  0  0999 V2000
   -1.0717   -1.0373    0.0000 O   0  0  0  0  0  0  0  0  0
   -0.3572   -1.4498    0.0000 C   0  0  0  0  0  0  0  0  0
   -0.3572   -2.2748    0.0000 C   0  0  0  0  0  0  0  0  0
    0.3573   -2.6873    0.0000 O   0  0  0  0  0  0  0  0  0
   -1.0717   -2.6873    0.0000 N   0  0  0  0  0  0  0  0  0
   -1.7861   -2.2748    0.0000 C   0  0  0  0  0  0  0  0  0
   -2.5006   -2.6873    0.0000 C   0  0  0  0  0  0  0  0  0
   -3.2151   -2.2748    0.0000 C   0  0  0  0  0  0  0  0  0
   -3.2151   -1.4498    0.0000 C   0  0  0  0  0  0  0  0  0
   -2.5006   -1.0373    0.0000 C   0  0  0  0  0  0  0  0  0
   -1.7861   -1.4498    0.0000 C   0  0  0  0  0  0  0  0  0
   -3.9295   -2.6873    0.0000 C   0  0  0  0  0  0  0  0  0
   -4.6440   -2.2748    0.0000 N   0  0  0  0  0  0  0  0  0
   -5.3585   -2.6873    0.0000 C   0  0  0  0  0  0  0  0  0
   -6.0730   -2.2748    0.0000 C   0  0  0  0  0  0  0  0  0
   -6.0730   -1.4498    0.0000 N   0  0  0  0  0  0  0  0  0
   -5.3585   -1.0373    0.0000 C   0  0  0  0  0  0  0  0  0
   -4.6440   -1.4498    0.0000 C   0  0  0  0  0  0  0  0  0
   -6.7874   -1.0373    0.0000 C   0  0  0  0  0  0  0  0  0
   -6.7874   -0.2123    0.0000 C   0  0  0  0  0  0  0  0  0
   -7.5019    0.2002    0.0000 O   0  0  0  0  0  0  0  0  0
   -7.5019    1.0252    0.0000 C   0  0  0  0  0  0  0  0  0
   -6.7874    1.4377    0.0000 C   0  0  0  0  0  0  0  0  0
   -6.7874    2.2627    0.0000 C   0  0  0  0  0  0  0  0  0
   -6.0730    2.6752    0.0000 N   0  0  0  0  0  0  0  0  0
   -5.3585    2.2627    0.0000 C   0  0  0  0  0  0  0  0  0
   -5.3585    1.4377    0.0000 C   0  0  0  0  0  0  0  0  0
   -6.0730    1.0252    0.0000 C   0  0  0  0  0  0  0  0  0
   -4.6440    2.6752    0.0000 C   0  0  0  0  0  0  0  0  0
   -7.5019    2.6752    0.0000 C   0  0  0  0  0  0  0  0  0
   -8.2164    2.2627    0.0000 C   0  0  0  0  0  0  0  0  0
   -8.2164    1.4377    0.0000 C   0  0  0  0  0  0  0  0  0
   -1.0717   -3.5123    0.0000 C   0  0  0  0  0  0  0  0  0
   -0.3572   -3.9248    0.0000 C   0  0  0  0  0  0  0  0  0
    0.3573   -3.5123    0.0000 C   0  0  0  0  0  0  0  0  0
  1  2  1  0  0  0  0
  1 11  1  0  0  0  0
  2  3  1  0  0  0  0
  3  4  2  0  0  0  0
  3  5  1  0  0  0  0
  5  6  1  0  0  0  0
  5 33  1  0  0  0  0
  6  7  4  0  0  0  0
  6 11  4  0  0  0  0
  7  8  4  0  0  0  0
  8  9  4  0  0  0  0
  8 12  1  0  0  0  0
  9 10  4  0  0  0  0
 10 11  4  0  0  0  0
 12 13  1  0  0  0  0
 13 14  1  0  0  0  0
 13 18  1  0  0  0  0
 14 15  1  0  0  0  0
 15 16  1  0  0  0  0
 16 17  1  0  0  0  0
 16 19  1  0  0  0  0
 17 18  1  0  0  0  0
 19 20  1  0  0  0  0
 20 21  1  0  0  0  0
 21 22  1  0  0  0  0
 22 23  4  0  0  0  0
 22 32  4  0  0  0  0
 23 24  4  0  0  0  0
 23 28  4  0  0  0  0
 24 25  4  0  0  0  0
 24 30  4  0  0  0  0
 25 26  4  0  0  0  0
 26 27  4  0  0  0  0
 26 29  1  0  0  0  0
 27 28  4  0  0  0  0
 30 31  4  0  0  0  0
 31 32  4  0  0  0  0
 33 34  1  0  0  0  0
 34 35  1  0  0  0  0
M  END
>  <Name_Molregno>
415464

>  <5-HT1A>
8.6

>  <5-HT1B>
7.5

>  <5-HT1D>
8.7

$$$$
415466
  Marvin  02231216192D 0   1.00000     0.00000     0

 36 40  0  0  0  0  0  0  0  0999 V2000
   -1.0159   -1.0057    0.0000 O   0  0  0  0  0  0  0  0  0
   -0.3015   -1.4182    0.0000 C   0  0  0  0  0  0  0  0  0
   -0.3015   -2.2432    0.0000 C   0  0  0  0  0  0  0  0  0
    0.4130   -2.6557    0.0000 O   0  0  0  0  0  0  0  0  0
   -1.0159   -2.6557    0.0000 N   0  0  0  0  0  0  0  0  0
   -1.7304   -2.2432    0.0000 C   0  0  0  0  0  0  0  0  0
   -2.4449   -2.6557    0.0000 C   0  0  0  0  0  0  0  0  0
   -3.1593   -2.2432    0.0000 C   0  0  0  0  0  0  0  0  0
   -3.1593   -1.4182    0.0000 C   0  0  0  0  0  0  0  0  0
   -2.4449   -1.0057    0.0000 C   0  0  0  0  0  0  0  0  0
   -1.7304   -1.4182    0.0000 C   0  0  0  0  0  0  0  0  0
   -3.8738   -2.6557    0.0000 C   0  0  0  0  0  0  0  0  0
   -4.5883   -2.2432    0.0000 N   0  0  0  0  0  0  0  0  0
   -5.3028   -2.6557    0.0000 C   0  0  0  0  0  0  0  0  0
   -6.0172   -2.2432    0.0000 C   0  0  0  0  0  0  0  0  0
   -6.0172   -1.4182    0.0000 N   0  0  0  0  0  0  0  0  0
   -5.3028   -1.0057    0.0000 C   0  0  0  0  0  0  0  0  0
   -4.5883   -1.4182    0.0000 C   0  0  0  0  0  0  0  0  0
   -6.7317   -1.0057    0.0000 C   0  0  0  0  0  0  0  0  0
   -6.7317   -0.1807    0.0000 C   0  0  0  0  0  0  0  0  0
   -7.4462    0.2318    0.0000 O   0  0  0  0  0  0  0  0  0
   -7.4462    1.0568    0.0000 C   0  0  0  0  0  0  0  0  0
   -6.7317    1.4693    0.0000 C   0  0  0  0  0  0  0  0  0
   -6.7317    2.2943    0.0000 C   0  0  0  0  0  0  0  0  0
   -6.0172    2.7068    0.0000 N   0  0  0  0  0  0  0  0  0
   -5.3028    2.2943    0.0000 C   0  0  0  0  0  0  0  0  0
   -5.3028    1.4693    0.0000 C   0  0  0  0  0  0  0  0  0
   -6.0172    1.0568    0.0000 C   0  0  0  0  0  0  0  0  0
   -4.5883    2.7068    0.0000 C   0  0  0  0  0  0  0  0  0
   -7.4462    2.7068    0.0000 C   0  0  0  0  0  0  0  0  0
   -8.1606    2.2943    0.0000 C   0  0  0  0  0  0  0  0  0
   -8.1606    1.4693    0.0000 C   0  0  0  0  0  0  0  0  0
   -1.0159   -3.4807    0.0000 C   0  0  0  0  0  0  0  0  0
   -0.3015   -3.8932    0.0000 C   0  0  0  0  0  0  0  0  0
   -0.3015   -4.7182    0.0000 C   0  0  0  0  0  0  0  0  0
    0.4130   -5.1307    0.0000 C   0  0  0  0  0  0  0  0  0
  1  2  1  0  0  0  0
  1 11  1  0  0  0  0
  2  3  1  0  0  0  0
  3  4  2  0  0  0  0
  3  5  1  0  0  0  0
  5  6  1  0  0  0  0
  5 33  1  0  0  0  0
  6  7  4  0  0  0  0
  6 11  4  0  0  0  0
  7  8  4  0  0  0  0
  8  9  4  0  0  0  0
  8 12  1  0  0  0  0
  9 10  4  0  0  0  0
 10 11  4  0  0  0  0
 12 13  1  0  0  0  0
 13 14  1  0  0  0  0
 13 18  1  0  0  0  0
 14 15  1  0  0  0  0
 15 16  1  0  0  0  0
 16 17  1  0  0  0  0
 16 19  1  0  0  0  0
 17 18  1  0  0  0  0
 19 20  1  0  0  0  0
 20 21  1  0  0  0  0
 21 22  1  0  0  0  0
 22 23  4  0  0  0  0
 22 32  4  0  0  0  0
 23 24  4  0  0  0  0
 23 28  4  0  0  0  0
 24 25  4  0  0  0  0
 24 30  4  0  0  0  0
 25 26  4  0  0  0  0
 26 27  4  0  0  0  0
 26 29  1  0  0  0  0
 27 28  4  0  0  0  0
 30 31  4  0  0  0  0
 31 32  4  0  0  0  0
 33 34  1  0  0  0  0
 34 35  1  0  0  0  0
 35 36  1  0  0  0  0
M  END
>  <Name_Molregno>
415466

>  <5-HT1A>
8.9

>  <5-HT1B>
7.5

>  <5-HT1D>
8.5

$$$$
415467
  Marvin  02231216192D 0   1.00000     0.00000     0

 36 40  0  0  0  0  0  0  0  0999 V2000
   -1.0172   -1.0022    0.0000 O   0  0  0  0  0  0  0  0  0
   -0.3027   -1.4147    0.0000 C   0  0  0  0  0  0  0  0  0
   -0.3027   -2.2397    0.0000 C   0  0  0  0  0  0  0  0  0
    0.4117   -2.6522    0.0000 O   0  0  0  0  0  0  0  0  0
   -1.0172   -2.6522    0.0000 N   0  0  0  0  0  0  0  0  0
   -1.7317   -2.2397    0.0000 C   0  0  0  0  0  0  0  0  0
   -2.4462   -2.6522    0.0000 C   0  0  0  0  0  0  0  0  0
   -3.1606   -2.2397    0.0000 C   0  0  0  0  0  0  0  0  0
   -3.1606   -1.4147    0.0000 C   0  0  0  0  0  0  0  0  0
   -2.4462   -1.0022    0.0000 C   0  0  0  0  0  0  0  0  0
   -1.7317   -1.4147    0.0000 C   0  0  0  0  0  0  0  0  0
   -3.8751   -2.6522    0.0000 C   0  0  0  0  0  0  0  0  0
   -4.5896   -2.2397    0.0000 N   0  0  0  0  0  0  0  0  0
   -5.3040   -2.6522    0.0000 C   0  0  0  0  0  0  0  0  0
   -6.0185   -2.2397    0.0000 C   0  0  0  0  0  0  0  0  0
   -6.0185   -1.4147    0.0000 N   0  0  0  0  0  0  0  0  0
   -5.3040   -1.0022    0.0000 C   0  0  0  0  0  0  0  0  0
   -4.5896   -1.4147    0.0000 C   0  0  0  0  0  0  0  0  0
   -6.7330   -1.0022    0.0000 C   0  0  0  0  0  0  0  0  0
   -6.7330   -0.1772    0.0000 C   0  0  0  0  0  0  0  0  0
   -7.4474    0.2353    0.0000 O   0  0  0  0  0  0  0  0  0
   -7.4474    1.0603    0.0000 C   0  0  0  0  0  0  0  0  0
   -6.7330    1.4728    0.0000 C   0  0  0  0  0  0  0  0  0
   -6.7330    2.2978    0.0000 C   0  0  0  0  0  0  0  0  0
   -6.0185    2.7103    0.0000 N   0  0  0  0  0  0  0  0  0
   -5.3040    2.2978    0.0000 C   0  0  0  0  0  0  0  0  0
   -5.3040    1.4728    0.0000 C   0  0  0  0  0  0  0  0  0
   -6.0185    1.0603    0.0000 C   0  0  0  0  0  0  0  0  0
   -4.5896    2.7103    0.0000 C   0  0  0  0  0  0  0  0  0
   -7.4474    2.7103    0.0000 C   0  0  0  0  0  0  0  0  0
   -8.1619    2.2978    0.0000 C   0  0  0  0  0  0  0  0  0
   -8.1619    1.4728    0.0000 C   0  0  0  0  0  0  0  0  0
   -1.0172   -3.4772    0.0000 C   0  0  0  0  0  0  0  0  0
   -0.3027   -3.8897    0.0000 C   0  0  0  0  0  0  0  0  0
    0.4117   -3.4772    0.0000 C   0  0  0  0  0  0  0  0  0
   -0.3027   -4.7147    0.0000 C   0  0  0  0  0  0  0  0  0
  1  2  1  0  0  0  0
  1 11  1  0  0  0  0
  2  3  1  0  0  0  0
  3  4  2  0  0  0  0
  3  5  1  0  0  0  0
  5  6  1  0  0  0  0
  5 33  1  0  0  0  0
  6  7  4  0  0  0  0
  6 11  4  0  0  0  0
  7  8  4  0  0  0  0
  8  9  4  0  0  0  0
  8 12  1  0  0  0  0
  9 10  4  0  0  0  0
 10 11  4  0  0  0  0
 12 13  1  0  0  0  0
 13 14  1  0  0  0  0
 13 18  1  0  0  0  0
 14 15  1  0  0  0  0
 15 16  1  0  0  0  0
 16 17  1  0  0  0  0
 16 19  1  0  0  0  0
 17 18  1  0  0  0  0
 19 20  1  0  0  0  0
 20 21  1  0  0  0  0
 21 22  1  0  0  0  0
 22 23  4  0  0  0  0
 22 32  4  0  0  0  0
 23 24  4  0  0  0  0
 23 28  4  0  0  0  0
 24 25  4  0  0  0  0
 24 30  4  0  0  0  0
 25 26  4  0  0  0  0
 26 27  4  0  0  0  0
 26 29  1  0  0  0  0
 27 28  4  0  0  0  0
 30 31  4  0  0  0  0
 31 32  4  0  0  0  0
 33 34  1  0  0  0  0
 34 35  1  0  0  0  0
 34 36  1  0  0  0  0
M  END
>  <Name_Molregno>
415467

>  <5-HT1A>
8.7

>  <5-HT1B>
7.5

>  <5-HT1D>
8.6

$$$$
415468
  Marvin  02231216192D 0   1.00000     0.00000     0

 39 44  0  0  0  0  0  0  0  0999 V2000
   -0.9495    1.0984    0.0000 O   0  0  0  0  0  0  0  0  0
   -0.2350    0.6859    0.0000 C   0  0  0  0  0  0  0  0  0
   -0.2350   -0.1391    0.0000 C   0  0  0  0  0  0  0  0  0
    0.4795   -0.5516    0.0000 O   0  0  0  0  0  0  0  0  0
   -0.9495   -0.5516    0.0000 N   0  0  0  0  0  0  0  0  0
   -1.6639   -0.1391    0.0000 C   0  0  0  0  0  0  0  0  0
   -2.3784   -0.5516    0.0000 C   0  0  0  0  0  0  0  0  0
   -3.0929   -0.1391    0.0000 C   0  0  0  0  0  0  0  0  0
   -3.0929    0.6859    0.0000 C   0  0  0  0  0  0  0  0  0
   -2.3784    1.0984    0.0000 C   0  0  0  0  0  0  0  0  0
   -1.6639    0.6859    0.0000 C   0  0  0  0  0  0  0  0  0
   -3.8073   -0.5516    0.0000 C   0  0  0  0  0  0  0  0  0
   -4.5218   -0.1391    0.0000 N   0  0  0  0  0  0  0  0  0
   -5.2363   -0.5516    0.0000 C   0  0  0  0  0  0  0  0  0
   -5.9508   -0.1391    0.0000 C   0  0  0  0  0  0  0  0  0
   -5.9508    0.6859    0.0000 N   0  0  0  0  0  0  0  0  0
   -5.2363    1.0984    0.0000 C   0  0  0  0  0  0  0  0  0
   -4.5218    0.6859    0.0000 C   0  0  0  0  0  0  0  0  0
   -6.6652    1.0984    0.0000 C   0  0  0  0  0  0  0  0  0
   -6.6652    1.9234    0.0000 C   0  0  0  0  0  0  0  0  0
   -7.3797    2.3359    0.0000 O   0  0  0  0  0  0  0  0  0
   -7.3797    3.1609    0.0000 C   0  0  0  0  0  0  0  0  0
   -6.6652    3.5734    0.0000 C   0  0  0  0  0  0  0  0  0
   -6.6652    4.3984    0.0000 C   0  0  0  0  0  0  0  0  0
   -5.9508    4.8109    0.0000 N   0  0  0  0  0  0  0  0  0
   -5.2363    4.3984    0.0000 C   0  0  0  0  0  0  0  0  0
   -5.2363    3.5734    0.0000 C   0  0  0  0  0  0  0  0  0
   -5.9508    3.1609    0.0000 C   0  0  0  0  0  0  0  0  0
   -4.5218    4.8109    0.0000 C   0  0  0  0  0  0  0  0  0
   -7.3797    4.8109    0.0000 C   0  0  0  0  0  0  0  0  0
   -8.0942    4.3984    0.0000 C   0  0  0  0  0  0  0  0  0
   -8.0942    3.5734    0.0000 C   0  0  0  0  0  0  0  0  0
   -0.9495   -1.3766    0.0000 C   0  0  0  0  0  0  0  0  0
   -0.2350   -1.7891    0.0000 C   0  0  0  0  0  0  0  0  0
    0.4795   -1.3766    0.0000 C   0  0  0  0  0  0  0  0  0
    1.1940   -1.7891    0.0000 C   0  0  0  0  0  0  0  0  0
    1.1940   -2.6141    0.0000 C   0  0  0  0  0  0  0  0  0
    0.4795   -3.0266    0.0000 C   0  0  0  0  0  0  0  0  0
   -0.2350   -2.6141    0.0000 C   0  0  0  0  0  0  0  0  0
  1  2  1  0  0  0  0
  1 11  1  0  0  0  0
  2  3  1  0  0  0  0
  3  4  2  0  0  0  0
  3  5  1  0  0  0  0
  5  6  1  0  0  0  0
  5 33  1  0  0  0  0
  6  7  4  0  0  0  0
  6 11  4  0  0  0  0
  7  8  4  0  0  0  0
  8  9  4  0  0  0  0
  8 12  1  0  0  0  0
  9 10  4  0  0  0  0
 10 11  4  0  0  0  0
 12 13  1  0  0  0  0
 13 14  1  0  0  0  0
 13 18  1  0  0  0  0
 14 15  1  0  0  0  0
 15 16  1  0  0  0  0
 16 17  1  0  0  0  0
 16 19  1  0  0  0  0
 17 18  1  0  0  0  0
 19 20  1  0  0  0  0
 20 21  1  0  0  0  0
 21 22  1  0  0  0  0
 22 23  4  0  0  0  0
 22 32  4  0  0  0  0
 23 24  4  0  0  0  0
 23 28  4  0  0  0  0
 24 25  4  0  0  0  0
 24 30  4  0  0  0  0
 25 26  4  0  0  0  0
 26 27  4  0  0  0  0
 26 29  1  0  0  0  0
 27 28  4  0  0  0  0
 30 31  4  0  0  0  0
 31 32  4  0  0  0  0
 33 34  1  0  0  0  0
 34 35  4  0  0  0  0
 34 39  4  0  0  0  0
 35 36  4  0  0  0  0
 36 37  4  0  0  0  0
 37 38  4  0  0  0  0
 38 39  4  0  0  0  0
M  END
>  <Name_Molregno>
415468

>  <5-HT1A>
8.4

>  <5-HT1B>
7.2

>  <5-HT1D>
8.2

$$$$
415472
  Marvin  02231216192D 0   1.00000     0.00000     0

 40 45  0  0  0  0  0  0  0  0999 V2000
    5.2294    3.2218    0.0000 O   0  0  0  0  0  0  0  0  0
    5.9439    2.8093    0.0000 C   0  0  0  0  0  0  0  0  0
    5.9439    1.9843    0.0000 C   0  0  0  0  0  0  0  0  0
    6.6583    1.5718    0.0000 O   0  0  0  0  0  0  0  0  0
    5.2294    1.5718    0.0000 N   0  0  0  0  0  0  0  0  0
    4.5149    1.9843    0.0000 C   0  0  0  0  0  0  0  0  0
    3.8004    1.5718    0.0000 C   0  0  0  0  0  0  0  0  0
    3.0860    1.9843    0.0000 C   0  0  0  0  0  0  0  0  0
    3.0860    2.8093    0.0000 C   0  0  0  0  0  0  0  0  0
    3.8004    3.2218    0.0000 C   0  0  0  0  0  0  0  0  0
    4.5149    2.8093    0.0000 C   0  0  0  0  0  0  0  0  0
    2.3715    1.5718    0.0000 C   0  0  0  0  0  0  0  0  0
    1.6570    1.9843    0.0000 N   0  0  0  0  0  0  0  0  0
    0.9426    1.5718    0.0000 C   0  0  0  0  0  0  0  0  0
    0.2281    1.9843    0.0000 C   0  0  0  0  0  0  0  0  0
    0.2281    2.8093    0.0000 N   0  0  0  0  0  0  0  0  0
    0.9426    3.2218    0.0000 C   0  0  0  0  0  0  0  0  0
    1.6570    2.8093    0.0000 C   0  0  0  0  0  0  0  0  0
   -0.4864    3.2218    0.0000 C   0  0  0  0  0  0  0  0  0
   -0.4864    4.0468    0.0000 C   0  0  0  0  0  0  0  0  0
   -1.2009    4.4593    0.0000 O   0  0  0  0  0  0  0  0  0
   -1.2009    5.2843    0.0000 C   0  0  0  0  0  0  0  0  0
   -0.4864    5.6968    0.0000 C   0  0  0  0  0  0  0  0  0
   -0.4864    6.5218    0.0000 C   0  0  0  0  0  0  0  0  0
    0.2281    6.9343    0.0000 N   0  0  0  0  0  0  0  0  0
    0.9426    6.5218    0.0000 C   0  0  0  0  0  0  0  0  0
    0.9426    5.6968    0.0000 C   0  0  0  0  0  0  0  0  0
    0.2281    5.2843    0.0000 C   0  0  0  0  0  0  0  0  0
    1.6570    6.9343    0.0000 C   0  0  0  0  0  0  0  0  0
   -1.2009    6.9343    0.0000 C   0  0  0  0  0  0  0  0  0
   -1.9153    6.5218    0.0000 C   0  0  0  0  0  0  0  0  0
   -1.9153    5.6968    0.0000 C   0  0  0  0  0  0  0  0  0
    5.2294    0.7468    0.0000 C   0  0  0  0  0  0  0  0  0
    5.9439    0.3343    0.0000 C   0  0  0  0  0  0  0  0  0
    5.9439   -0.4907    0.0000 C   0  0  0  0  0  0  0  0  0
    6.6583   -0.9032    0.0000 C   0  0  0  0  0  0  0  0  0
    6.6583   -1.7282    0.0000 C   0  0  0  0  0  0  0  0  0
    5.9439   -2.1407    0.0000 C   0  0  0  0  0  0  0  0  0
    5.2294   -1.7282    0.0000 C   0  0  0  0  0  0  0  0  0
    5.2294   -0.9032    0.0000 C   0  0  0  0  0  0  0  0  0
  1  2  1  0  0  0  0
  1 11  1  0  0  0  0
  2  3  1  0  0  0  0
  3  4  2  0  0  0  0
  3  5  1  0  0  0  0
  5  6  1  0  0  0  0
  5 33  1  0  0  0  0
  6  7  4  0  0  0  0
  6 11  4  0  0  0  0
  7  8  4  0  0  0  0
  8  9  4  0  0  0  0
  8 12  1  0  0  0  0
  9 10  4  0  0  0  0
 10 11  4  0  0  0  0
 12 13  1  0  0  0  0
 13 14  1  0  0  0  0
 13 18  1  0  0  0  0
 14 15  1  0  0  0  0
 15 16  1  0  0  0  0
 16 17  1  0  0  0  0
 16 19  1  0  0  0  0
 17 18  1  0  0  0  0
 19 20  1  0  0  0  0
 20 21  1  0  0  0  0
 21 22  1  0  0  0  0
 22 23  4  0  0  0  0
 22 32  4  0  0  0  0
 23 24  4  0  0  0  0
 23 28  4  0  0  0  0
 24 25  4  0  0  0  0
 24 30  4  0  0  0  0
 25 26  4  0  0  0  0
 26 27  4  0  0  0  0
 26 29  1  0  0  0  0
 27 28  4  0  0  0  0
 30 31  4  0  0  0  0
 31 32  4  0  0  0  0
 33 34  1  0  0  0  0
 34 35  1  0  0  0  0
 35 36  4  0  0  0  0
 35 40  4  0  0  0  0
 36 37  4  0  0  0  0
 37 38  4  0  0  0  0
 38 39  4  0  0  0  0
 39 40  4  0  0  0  0
M  END
>  <Name_Molregno>
415472

>  <5-HT1A>
8.2

>  <5-HT1B>
7.6

>  <5-HT1D>
8.7

$$$$
415511
  Marvin  02231216192D 0   1.00000     0.00000     0

 34 38  0  0  0  0  0  0  0  0999 V2000
   -6.6448   -4.7640    0.0000 F   0  0  0  0  0  0  0  0  0
   -5.9304   -4.3515    0.0000 C   0  0  0  0  0  0  0  0  0
   -5.9304   -3.5265    0.0000 C   0  0  0  0  0  0  0  0  0
   -5.2159   -3.1140    0.0000 C   0  0  0  0  0  0  0  0  0
   -4.5014   -3.5265    0.0000 C   0  0  0  0  0  0  0  0  0
   -4.5014   -4.3515    0.0000 C   0  0  0  0  0  0  0  0  0
   -3.7869   -4.7640    0.0000 N   0  0  0  0  0  0  0  0  0
   -3.0725   -4.3515    0.0000 C   0  0  0  0  0  0  0  0  0
   -3.7869   -5.5890    0.0000 C   0  0  0  0  0  0  0  0  0
   -3.0725   -6.0015    0.0000 O   0  0  0  0  0  0  0  0  0
   -4.5014   -6.0015    0.0000 C   0  0  0  0  0  0  0  0  0
   -5.2159   -5.5890    0.0000 O   0  0  0  0  0  0  0  0  0
   -5.2159   -4.7640    0.0000 C   0  0  0  0  0  0  0  0  0
   -5.2159   -2.2890    0.0000 C   0  0  0  0  0  0  0  0  0
   -4.5014   -1.8765    0.0000 N   0  0  0  0  0  0  0  0  0
   -4.5014   -1.0515    0.0000 C   0  0  0  0  0  0  0  0  0
   -3.7869   -0.6390    0.0000 C   0  0  0  0  0  0  0  0  0
   -3.0725   -1.0515    0.0000 N   0  0  0  0  0  0  0  0  0
   -3.0725   -1.8765    0.0000 C   0  0  0  0  0  0  0  0  0
   -3.7869   -2.2890    0.0000 C   0  0  0  0  0  0  0  0  0
   -2.3580   -0.6390    0.0000 C   0  0  0  0  0  0  0  0  0
   -2.3580    0.1860    0.0000 C   0  0  0  0  0  0  0  0  0
   -1.6435    0.5985    0.0000 O   0  0  0  0  0  0  0  0  0
   -1.6435    1.4235    0.0000 C   0  0  0  0  0  0  0  0  0
   -0.9291    1.8360    0.0000 C   0  0  0  0  0  0  0  0  0
   -0.9291    2.6610    0.0000 C   0  0  0  0  0  0  0  0  0
   -0.2146    3.0735    0.0000 N   0  0  0  0  0  0  0  0  0
    0.4999    2.6610    0.0000 C   0  0  0  0  0  0  0  0  0
    0.4999    1.8360    0.0000 C   0  0  0  0  0  0  0  0  0
   -0.2146    1.4235    0.0000 C   0  0  0  0  0  0  0  0  0
    1.2144    3.0735    0.0000 C   0  0  0  0  0  0  0  0  0
   -1.6435    3.0735    0.0000 C   0  0  0  0  0  0  0  0  0
   -2.3580    2.6610    0.0000 C   0  0  0  0  0  0  0  0  0
   -2.3580    1.8360    0.0000 C   0  0  0  0  0  0  0  0  0
  1  2  1  0  0  0  0
  2  3  4  0  0  0  0
  2 13  4  0  0  0  0
  3  4  4  0  0  0  0
  4  5  4  0  0  0  0
  4 14  1  0  0  0  0
  5  6  4  0  0  0  0
  6  7  1  0  0  0  0
  6 13  4  0  0  0  0
  7  8  1  0  0  0  0
  7  9  1  0  0  0  0
  9 10  2  0  0  0  0
  9 11  1  0  0  0  0
 11 12  1  0  0  0  0
 12 13  1  0  0  0  0
 14 15  1  0  0  0  0
 15 16  1  0  0  0  0
 15 20  1  0  0  0  0
 16 17  1  0  0  0  0
 17 18  1  0  0  0  0
 18 19  1  0  0  0  0
 18 21  1  0  0  0  0
 19 20  1  0  0  0  0
 21 22  1  0  0  0  0
 22 23  1  0  0  0  0
 23 24  1  0  0  0  0
 24 25  4  0  0  0  0
 24 34  4  0  0  0  0
 25 26  4  0  0  0  0
 25 30  4  0  0  0  0
 26 27  4  0  0  0  0
 26 32  4  0  0  0  0
 27 28  4  0  0  0  0
 28 29  4  0  0  0  0
 28 31  1  0  0  0  0
 29 30  4  0  0  0  0
 32 33  4  0  0  0  0
 33 34  4  0  0  0  0
M  END
>  <Name_Molregno>
415511

>  <5-HT1A>
8.1

>  <5-HT1B>
9.7

>  <5-HT1D>
9.4

$$$$
415512
  Marvin  02231216192D 0   1.00000     0.00000     0

 34 38  0  0  0  0  0  0  0  0999 V2000
    2.7020   -1.7967    0.0000 F   0  0  0  0  0  0  0  0  0
    1.9875   -2.2092    0.0000 C   0  0  0  0  0  0  0  0  0
    1.9875   -3.0342    0.0000 C   0  0  0  0  0  0  0  0  0
    2.7020   -3.4467    0.0000 N   0  0  0  0  0  0  0  0  0
    3.4165   -3.0342    0.0000 C   0  0  0  0  0  0  0  0  0
    2.7020   -4.2717    0.0000 C   0  0  0  0  0  0  0  0  0
    3.4165   -4.6842    0.0000 O   0  0  0  0  0  0  0  0  0
    1.9875   -4.6842    0.0000 C   0  0  0  0  0  0  0  0  0
    1.2731   -4.2717    0.0000 O   0  0  0  0  0  0  0  0  0
    1.2731   -3.4467    0.0000 C   0  0  0  0  0  0  0  0  0
    0.5586   -3.0342    0.0000 C   0  0  0  0  0  0  0  0  0
    0.5586   -2.2092    0.0000 C   0  0  0  0  0  0  0  0  0
    1.2731   -1.7967    0.0000 C   0  0  0  0  0  0  0  0  0
    1.2731   -0.9717    0.0000 C   0  0  0  0  0  0  0  0  0
    1.9875   -0.5592    0.0000 N   0  0  0  0  0  0  0  0  0
    1.9875    0.2658    0.0000 C   0  0  0  0  0  0  0  0  0
    2.7020    0.6783    0.0000 C   0  0  0  0  0  0  0  0  0
    3.4165    0.2658    0.0000 N   0  0  0  0  0  0  0  0  0
    3.4165   -0.5592    0.0000 C   0  0  0  0  0  0  0  0  0
    2.7020   -0.9717    0.0000 C   0  0  0  0  0  0  0  0  0
    4.1309    0.6783    0.0000 C   0  0  0  0  0  0  0  0  0
    4.1309    1.5033    0.0000 C   0  0  0  0  0  0  0  0  0
    4.8454    1.9158    0.0000 O   0  0  0  0  0  0  0  0  0
    4.8454    2.7408    0.0000 C   0  0  0  0  0  0  0  0  0
    5.5599    3.1533    0.0000 C   0  0  0  0  0  0  0  0  0
    5.5599    3.9783    0.0000 C   0  0  0  0  0  0  0  0  0
    6.2743    4.3908    0.0000 N   0  0  0  0  0  0  0  0  0
    6.9888    3.9783    0.0000 C   0  0  0  0  0  0  0  0  0
    6.9888    3.1533    0.0000 C   0  0  0  0  0  0  0  0  0
    6.2743    2.7408    0.0000 C   0  0  0  0  0  0  0  0  0
    7.7033    4.3908    0.0000 C   0  0  0  0  0  0  0  0  0
    4.8454    4.3908    0.0000 C   0  0  0  0  0  0  0  0  0
    4.1309    3.9783    0.0000 C   0  0  0  0  0  0  0  0  0
    4.1309    3.1533    0.0000 C   0  0  0  0  0  0  0  0  0
  1  2  1  0  0  0  0
  2  3  4  0  0  0  0
  2 13  4  0  0  0  0
  3  4  1  0  0  0  0
  3 10  4  0  0  0  0
  4  5  1  0  0  0  0
  4  6  1  0  0  0  0
  6  7  2  0  0  0  0
  6  8  1  0  0  0  0
  8  9  1  0  0  0  0
  9 10  1  0  0  0  0
 10 11  4  0  0  0  0
 11 12  4  0  0  0  0
 12 13  4  0  0  0  0
 13 14  1  0  0  0  0
 14 15  1  0  0  0  0
 15 16  1  0  0  0  0
 15 20  1  0  0  0  0
 16 17  1  0  0  0  0
 17 18  1  0  0  0  0
 18 19  1  0  0  0  0
 18 21  1  0  0  0  0
 19 20  1  0  0  0  0
 21 22  1  0  0  0  0
 22 23  1  0  0  0  0
 23 24  1  0  0  0  0
 24 25  4  0  0  0  0
 24 34  4  0  0  0  0
 25 26  4  0  0  0  0
 25 30  4  0  0  0  0
 26 27  4  0  0  0  0
 26 32  4  0  0  0  0
 27 28  4  0  0  0  0
 28 29  4  0  0  0  0
 28 31  1  0  0  0  0
 29 30  4  0  0  0  0
 32 33  4  0  0  0  0
 33 34  4  0  0  0  0
M  END
>  <Name_Molregno>
415512

>  <5-HT1A>
8.5

>  <5-HT1B>
8.8

>  <5-HT1D>
9.3

$$$$
415513
  Marvin  02231216192D 0   1.00000     0.00000     0

 35 39  0  0  0  0  0  0  0  0999 V2000
   -5.7519   -2.7845    0.0000 F   0  0  0  0  0  0  0  0  0
   -5.7519   -1.9595    0.0000 C   0  0  0  0  0  0  0  0  0
   -6.4664   -1.5470    0.0000 C   0  0  0  0  0  0  0  0  0
   -7.1809   -1.9595    0.0000 N   0  0  0  0  0  0  0  0  0
   -7.1809   -2.7845    0.0000 C   0  0  0  0  0  0  0  0  0
   -7.8953   -3.1970    0.0000 C   0  0  0  0  0  0  0  0  0
   -7.8953   -1.5470    0.0000 C   0  0  0  0  0  0  0  0  0
   -8.6098   -1.9595    0.0000 O   0  0  0  0  0  0  0  0  0
   -7.8953   -0.7220    0.0000 C   0  0  0  0  0  0  0  0  0
   -7.1809   -0.3095    0.0000 O   0  0  0  0  0  0  0  0  0
   -6.4664   -0.7220    0.0000 C   0  0  0  0  0  0  0  0  0
   -5.7519   -0.3095    0.0000 C   0  0  0  0  0  0  0  0  0
   -5.0375   -0.7220    0.0000 C   0  0  0  0  0  0  0  0  0
   -5.0375   -1.5470    0.0000 C   0  0  0  0  0  0  0  0  0
   -4.3230   -1.9595    0.0000 C   0  0  0  0  0  0  0  0  0
   -3.6085   -1.5470    0.0000 N   0  0  0  0  0  0  0  0  0
   -3.6085   -0.7220    0.0000 C   0  0  0  0  0  0  0  0  0
   -2.8940   -0.3095    0.0000 C   0  0  0  0  0  0  0  0  0
   -2.1796   -0.7220    0.0000 N   0  0  0  0  0  0  0  0  0
   -2.1796   -1.5470    0.0000 C   0  0  0  0  0  0  0  0  0
   -2.8940   -1.9595    0.0000 C   0  0  0  0  0  0  0  0  0
   -1.4651   -0.3095    0.0000 C   0  0  0  0  0  0  0  0  0
   -1.4651    0.5155    0.0000 C   0  0  0  0  0  0  0  0  0
   -0.7506    0.9280    0.0000 O   0  0  0  0  0  0  0  0  0
   -0.7506    1.7530    0.0000 C   0  0  0  0  0  0  0  0  0
   -0.0362    2.1655    0.0000 C   0  0  0  0  0  0  0  0  0
   -0.0362    2.9905    0.0000 C   0  0  0  0  0  0  0  0  0
    0.6783    3.4030    0.0000 N   0  0  0  0  0  0  0  0  0
    1.3928    2.9905    0.0000 C   0  0  0  0  0  0  0  0  0
    1.3928    2.1655    0.0000 C   0  0  0  0  0  0  0  0  0
    0.6783    1.7530    0.0000 C   0  0  0  0  0  0  0  0  0
    2.1073    3.4030    0.0000 C   0  0  0  0  0  0  0  0  0
   -0.7506    3.4030    0.0000 C   0  0  0  0  0  0  0  0  0
   -1.4651    2.9905    0.0000 C   0  0  0  0  0  0  0  0  0
   -1.4651    2.1655    0.0000 C   0  0  0  0  0  0  0  0  0
  1  2  1  0  0  0  0
  2  3  4  0  0  0  0
  2 14  4  0  0  0  0
  3  4  1  0  0  0  0
  3 11  4  0  0  0  0
  4  5  1  0  0  0  0
  4  7  1  0  0  0  0
  5  6  1  0  0  0  0
  7  8  2  0  0  0  0
  7  9  1  0  0  0  0
  9 10  1  0  0  0  0
 10 11  1  0  0  0  0
 11 12  4  0  0  0  0
 12 13  4  0  0  0  0
 13 14  4  0  0  0  0
 14 15  1  0  0  0  0
 15 16  1  0  0  0  0
 16 17  1  0  0  0  0
 16 21  1  0  0  0  0
 17 18  1  0  0  0  0
 18 19  1  0  0  0  0
 19 20  1  0  0  0  0
 19 22  1  0  0  0  0
 20 21  1  0  0  0  0
 22 23  1  0  0  0  0
 23 24  1  0  0  0  0
 24 25  1  0  0  0  0
 25 26  4  0  0  0  0
 25 35  4  0  0  0  0
 26 27  4  0  0  0  0
 26 31  4  0  0  0  0
 27 28  4  0  0  0  0
 27 33  4  0  0  0  0
 28 29  4  0  0  0  0
 29 30  4  0  0  0  0
 29 32  1  0  0  0  0
 30 31  4  0  0  0  0
 33 34  4  0  0  0  0
 34 35  4  0  0  0  0
M  END
>  <Name_Molregno>
415513

>  <5-HT1A>
8.6

>  <5-HT1B>
8.8

>  <5-HT1D>
8.9

$$$$
437622
  Marvin  02231216192D 0   1.00000     0.00000     0

 29 31  0  0  1  0  0  0  0  0999 V2000
    4.6273    6.8992    0.0000 F   0  0  0  0  0  0  0  0  0
    4.6273    6.0742    0.0000 C   0  0  0  0  0  0  0  0  0
    5.3417    5.6617    0.0000 C   0  0  0  0  0  0  0  0  0
    5.3417    4.8367    0.0000 C   0  0  0  0  0  0  0  0  0
    4.6273    4.4242    0.0000 C   0  0  0  0  0  0  0  0  0
    3.9128    4.8367    0.0000 C   0  0  0  0  0  0  0  0  0
    3.9128    5.6617    0.0000 C   0  0  0  0  0  0  0  0  0
    4.6273    3.5992    0.0000 C   0  0  0  0  0  0  0  0  0
    5.3417    3.1867    0.0000 C   0  0  0  0  0  0  0  0  0
    5.3417    2.3617    0.0000 N   0  0  0  0  0  0  0  0  0
    6.0562    1.9492    0.0000 C   0  0  0  0  0  0  0  0  0
    6.0562    1.1242    0.0000 C   0  0  0  0  0  0  0  0  0
    5.3417    0.7117    0.0000 C   0  0  0  0  0  0  0  0  0
    4.6273    1.1242    0.0000 C   0  0  0  0  0  0  0  0  0
    4.6273    1.9492    0.0000 C   0  0  0  0  0  0  0  0  0
    5.3417   -0.1133    0.0000 C   0  0  0  0  0  0  0  0  0
    4.6273   -0.5258    0.0000 O   0  0  0  0  0  0  0  0  0
    6.0562   -0.5258    0.0000 C   0  0  0  0  0  0  0  0  0
    6.7707   -0.1133    0.0000 C   0  0  0  0  0  0  0  0  0
    7.4851   -0.5258    0.0000 C   0  0  0  0  0  0  0  0  0
    7.4851   -1.3508    0.0000 C   0  0  0  0  0  0  0  0  0
    6.7707   -1.7633    0.0000 C   0  0  0  0  0  0  0  0  0
    6.7707   -2.5883    0.0000 O   0  0  0  0  0  0  0  0  0
    7.4851   -3.0008    0.0000 C   0  0  0  0  0  0  0  0  0
    7.4851   -3.8258    0.0000 C   0  0  0  0  0  0  0  0  0
    8.1996   -4.2383    0.0000 F   0  0  0  0  0  0  0  0  0
    6.0562   -1.3508    0.0000 C   0  0  0  0  0  0  0  0  0
    5.3417   -1.7633    0.0000 O   0  0  0  0  0  0  0  0  0
    5.3417   -2.5883    0.0000 C   0  0  0  0  0  0  0  0  0
  1  2  1  0  0  0  0
  2  3  4  0  0  0  0
  2  7  4  0  0  0  0
  3  4  4  0  0  0  0
  4  5  4  0  0  0  0
  5  6  4  0  0  0  0
  5  8  1  0  0  0  0
  6  7  4  0  0  0  0
  8  9  1  0  0  0  0
  9 10  1  0  0  0  0
 10 11  1  0  0  0  0
 10 15  1  0  0  0  0
 11 12  1  0  0  0  0
 12 13  1  0  0  0  0
 13 14  1  0  0  0  0
 13 16  1  0  0  0  0
 14 15  1  0  0  0  0
 16 17  1  0  0  0  0
 16 18  1  0  0  0  0
 18 19  4  0  0  0  0
 18 27  4  0  0  0  0
 19 20  4  0  0  0  0
 20 21  4  0  0  0  0
 21 22  4  0  0  0  0
 22 23  1  0  0  0  0
 22 27  4  0  0  0  0
 23 24  1  0  0  0  0
 24 25  1  0  0  0  0
 25 26  1  0  0  0  0
 27 28  1  0  0  0  0
 28 29  1  0  0  0  0
M  END
>  <Name_Molregno>
437622

>  <5-HT1A>
5

>  <5-HT1B>
5.89

>  <5-HT1D>
6.06

>  <5-HT1E>
5

>  <5-HT2C>
7.22

>  <5-HT3>
5

>  <5-HT5>
5.09

>  <5-HT6>
5.41

>  <5-HT7>
7.09

>  <Alpha-1A>
6.47

>  <Alpha-1B>
6.4

>  <Alpha-2A>
5

>  <Alpha-2C>
6.83

>  <DOPAMINE D1>
5.74

>  <DOPAMINE D2>
5.29

>  <DOPAMINE D4>
6.31

>  <DOPAMINE D5>
5.13

>  <Dopamine transporter>
5

>  <HISTAMINE H1>
6.36

>  <HISTAMINE H2>
5.56

>  <HISTAMINE H3>
5

>  <Serotonin transporter>
5.55

$$$$
448838
  Marvin  02231216192D 0   1.00000     0.00000     0

 35 39  0  0  0  0  0  0  0  0999 V2000
   -1.4572   -7.8444    0.0000 F   0  0  0  0  0  0  0  0  0
   -1.0447   -7.1300    0.0000 C   0  0  0  0  0  0  0  0  0
   -0.3302   -7.5425    0.0000 F   0  0  0  0  0  0  0  0  0
   -1.7591   -6.7175    0.0000 F   0  0  0  0  0  0  0  0  0
   -0.6322   -6.4155    0.0000 C   0  0  0  0  0  0  0  0  0
    0.1883   -6.3293    0.0000 N   0  0  0  0  0  0  0  0  0
    0.3598   -5.5223    0.0000 C   0  0  0  0  0  0  0  0  0
   -0.3546   -5.1098    0.0000 C   0  0  0  0  0  0  0  0  0
   -0.9677   -5.6618    0.0000 N   0  0  0  0  0  0  0  0  0
   -0.3546   -4.2848    0.0000 C   0  0  0  0  0  0  0  0  0
   -1.0691   -3.8723    0.0000 N   0  0  0  0  0  0  0  0  0
   -1.7836   -4.2848    0.0000 C   0  0  0  0  0  0  0  0  0
   -2.4980   -3.8723    0.0000 C   0  0  0  0  0  0  0  0  0
   -2.4980   -3.0473    0.0000 N   0  0  0  0  0  0  0  0  0
   -1.7836   -2.6348    0.0000 C   0  0  0  0  0  0  0  0  0
   -1.0691   -3.0473    0.0000 C   0  0  0  0  0  0  0  0  0
   -3.2125   -2.6348    0.0000 C   0  0  0  0  0  0  0  0  0
   -3.2125   -1.8098    0.0000 C   0  0  0  0  0  0  0  0  0
   -3.9270   -1.3973    0.0000 O   0  0  0  0  0  0  0  0  0
   -3.9270   -0.5723    0.0000 C   0  0  0  0  0  0  0  0  0
   -4.6415   -0.1598    0.0000 C   0  0  0  0  0  0  0  0  0
   -5.4261   -0.4147    0.0000 N   0  0  0  0  0  0  0  0  0
   -5.9110    0.2527    0.0000 C   0  0  0  0  0  0  0  0  0
   -5.4261    0.9202    0.0000 N   0  0  0  0  0  0  0  0  0
   -4.6415    0.6652    0.0000 C   0  0  0  0  0  0  0  0  0
   -3.9270    1.0777    0.0000 C   0  0  0  0  0  0  0  0  0
   -3.2125    0.6652    0.0000 C   0  0  0  0  0  0  0  0  0
   -3.2125   -0.1598    0.0000 C   0  0  0  0  0  0  0  0  0
   -6.7360    0.2527    0.0000 C   0  0  0  0  0  0  0  0  0
   -7.5610    0.2527    0.0000 F   0  0  0  0  0  0  0  0  0
   -6.7360    1.0777    0.0000 F   0  0  0  0  0  0  0  0  0
   -6.7360   -0.5723    0.0000 F   0  0  0  0  0  0  0  0  0
    0.3598   -3.8723    0.0000 C   0  0  0  0  0  0  0  0  0
    1.0743   -4.2848    0.0000 C   0  0  0  0  0  0  0  0  0
    1.0743   -5.1098    0.0000 C   0  0  0  0  0  0  0  0  0
  1  2  1  0  0  0  0
  2  3  1  0  0  0  0
  2  4  1  0  0  0  0
  2  5  1  0  0  0  0
  5  6  4  0  0  0  0
  5  9  4  0  0  0  0
  6  7  4  0  0  0  0
  7  8  4  0  0  0  0
  7 35  4  0  0  0  0
  8  9  4  0  0  0  0
  8 10  4  0  0  0  0
 10 11  1  0  0  0  0
 10 33  4  0  0  0  0
 11 12  1  0  0  0  0
 11 16  1  0  0  0  0
 12 13  1  0  0  0  0
 13 14  1  0  0  0  0
 14 15  1  0  0  0  0
 14 17  1  0  0  0  0
 15 16  1  0  0  0  0
 17 18  1  0  0  0  0
 18 19  1  0  0  0  0
 19 20  1  0  0  0  0
 20 21  4  0  0  0  0
 20 28  4  0  0  0  0
 21 22  4  0  0  0  0
 21 25  4  0  0  0  0
 22 23  4  0  0  0  0
 23 24  4  0  0  0  0
 23 29  1  0  0  0  0
 24 25  4  0  0  0  0
 25 26  4  0  0  0  0
 26 27  4  0  0  0  0
 27 28  4  0  0  0  0
 29 30  1  0  0  0  0
 29 31  1  0  0  0  0
 29 32  1  0  0  0  0
 33 34  4  0  0  0  0
 34 35  4  0  0  0  0
M  STY  2   1 DAT   2 DAT
M  SAL   1  1   6
M  SDT   1 MRV_IMPLICIT_H                                        
M  SDD   1     0.0000    0.0000    DR    ALL  0       0  
M  SED   1 IMPL_H1
M  SAL   2  1  22
M  SDT   2 MRV_IMPLICIT_H                                        
M  SDD   2     0.0000    0.0000    DR    ALL  0       0  
M  SED   2 IMPL_H1
M  END
>  <Name_Molregno>
448838

>  <5-HT1A>
7.72

>  <5-HT1B>
7.22

>  <5-HT1D>
9.26

$$$$
485851
  Marvin  02231216192D 0   1.00000     0.00000     0

 33 36  0  0  0  0  0  0  0  0999 V2000
    2.0282   -3.7847    0.0000 S   0  0  0  0  0  0  0  0  0
    2.0282   -4.6097    0.0000 O   0  0  0  0  0  0  0  0  0
    2.8532   -3.7847    0.0000 O   0  0  0  0  0  0  0  0  0
    2.0282   -2.9597    0.0000 N   0  0  0  0  0  0  0  0  0
    1.3138   -2.5472    0.0000 C   0  0  0  0  0  0  0  0  0
    2.7427   -2.5472    0.0000 C   0  0  0  0  0  0  0  0  0
    2.7427   -1.7222    0.0000 C   0  0  0  0  0  0  0  0  0
    3.4572   -1.3097    0.0000 C   0  0  0  0  0  0  0  0  0
    4.1717   -1.7222    0.0000 C   0  0  0  0  0  0  0  0  0
    4.1717   -2.5472    0.0000 C   0  0  0  0  0  0  0  0  0
    3.4572   -2.9597    0.0000 C   0  0  0  0  0  0  0  0  0
    3.4572   -0.4847    0.0000 C   0  0  0  0  0  0  0  0  0
    4.1717   -0.0722    0.0000 C   0  0  0  0  0  0  0  0  0
    4.1717    0.7528    0.0000 C   0  0  0  0  0  0  0  0  0
    4.8861    1.1653    0.0000 C   0  0  0  0  0  0  0  0  0
    5.6006    0.7528    0.0000 N   0  0  0  0  0  0  0  0  0
    5.6006   -0.0722    0.0000 C   0  0  0  0  0  0  0  0  0
    4.8861   -0.4847    0.0000 C   0  0  0  0  0  0  0  0  0
    6.3151    1.1653    0.0000 C   0  0  0  0  0  0  0  0  0
    6.3151    1.9903    0.0000 C   0  0  0  0  0  0  0  0  0
    7.0295    2.4028    0.0000 O   0  0  0  0  0  0  0  0  0
    7.0295    3.2278    0.0000 C   0  0  0  0  0  0  0  0  0
    7.7440    3.6403    0.0000 C   0  0  0  0  0  0  0  0  0
    7.7440    4.4653    0.0000 C   0  0  0  0  0  0  0  0  0
    8.4585    4.8778    0.0000 N   0  0  0  0  0  0  0  0  0
    9.1730    4.4653    0.0000 C   0  0  0  0  0  0  0  0  0
    9.1730    3.6403    0.0000 C   0  0  0  0  0  0  0  0  0
    8.4585    3.2278    0.0000 C   0  0  0  0  0  0  0  0  0
    9.8874    4.8778    0.0000 C   0  0  0  0  0  0  0  0  0
    7.0295    4.8778    0.0000 C   0  0  0  0  0  0  0  0  0
    6.3151    4.4653    0.0000 C   0  0  0  0  0  0  0  0  0
    6.3151    3.6403    0.0000 C   0  0  0  0  0  0  0  0  0
    1.2032   -3.7847    0.0000 C   0  0  0  0  0  0  0  0  0
  1  2  2  0  0  0  0
  1  3  2  0  0  0  0
  1  4  1  0  0  0  0
  1 33  1  0  0  0  0
  4  5  1  0  0  0  0
  4  6  1  0  0  0  0
  6  7  4  0  0  0  0
  6 11  4  0  0  0  0
  7  8  4  0  0  0  0
  8  9  4  0  0  0  0
  8 12  1  0  0  0  0
  9 10  4  0  0  0  0
 10 11  4  0  0  0  0
 12 13  1  0  0  0  0
 13 14  1  0  0  0  0
 13 18  1  0  0  0  0
 14 15  1  0  0  0  0
 15 16  1  0  0  0  0
 16 17  1  0  0  0  0
 16 19  1  0  0  0  0
 17 18  1  0  0  0  0
 19 20  1  0  0  0  0
 20 21  1  0  0  0  0
 21 22  1  0  0  0  0
 22 23  4  0  0  0  0
 22 32  4  0  0  0  0
 23 24  4  0  0  0  0
 23 28  4  0  0  0  0
 24 25  4  0  0  0  0
 24 30  4  0  0  0  0
 25 26  4  0  0  0  0
 26 27  4  0  0  0  0
 26 29  1  0  0  0  0
 27 28  4  0  0  0  0
 30 31  4  0  0  0  0
 31 32  4  0  0  0  0
M  END
>  <Name_Molregno>
485851

>  <5-HT1A>
7.9

>  <5-HT1B>
7.9

>  <5-HT1D>
8.8

$$$$
485852
  Marvin  02231216192D 0   1.00000     0.00000     0

 34 37  0  0  0  0  0  0  0  0999 V2000
    8.3824   -3.1627    0.0000 S   0  0  0  0  0  0  0  0  0
    7.5574   -3.1627    0.0000 O   0  0  0  0  0  0  0  0  0
    9.2074   -3.1627    0.0000 O   0  0  0  0  0  0  0  0  0
    8.3824   -2.3377    0.0000 N   0  0  0  0  0  0  0  0  0
    7.6679   -1.9252    0.0000 C   0  0  0  0  0  0  0  0  0
    6.9534   -2.3377    0.0000 C   0  0  0  0  0  0  0  0  0
    6.2389   -1.9252    0.0000 C   0  0  0  0  0  0  0  0  0
    6.2389   -1.1002    0.0000 C   0  0  0  0  0  0  0  0  0
    6.9534   -0.6877    0.0000 C   0  0  0  0  0  0  0  0  0
    7.6679   -1.1002    0.0000 C   0  0  0  0  0  0  0  0  0
    5.5245   -2.3377    0.0000 C   0  0  0  0  0  0  0  0  0
    4.8100   -1.9252    0.0000 C   0  0  0  0  0  0  0  0  0
    4.0955   -2.3377    0.0000 C   0  0  0  0  0  0  0  0  0
    3.3811   -1.9252    0.0000 C   0  0  0  0  0  0  0  0  0
    3.3811   -1.1002    0.0000 N   0  0  0  0  0  0  0  0  0
    4.0955   -0.6877    0.0000 C   0  0  0  0  0  0  0  0  0
    4.8100   -1.1002    0.0000 C   0  0  0  0  0  0  0  0  0
    2.6666   -0.6877    0.0000 C   0  0  0  0  0  0  0  0  0
    2.6666    0.1373    0.0000 C   0  0  0  0  0  0  0  0  0
    1.9521    0.5498    0.0000 O   0  0  0  0  0  0  0  0  0
    1.9521    1.3748    0.0000 C   0  0  0  0  0  0  0  0  0
    2.6666    1.7873    0.0000 C   0  0  0  0  0  0  0  0  0
    2.6666    2.6123    0.0000 C   0  0  0  0  0  0  0  0  0
    3.3811    3.0248    0.0000 N   0  0  0  0  0  0  0  0  0
    4.0955    2.6123    0.0000 C   0  0  0  0  0  0  0  0  0
    4.0955    1.7873    0.0000 C   0  0  0  0  0  0  0  0  0
    3.3811    1.3748    0.0000 C   0  0  0  0  0  0  0  0  0
    4.8100    3.0248    0.0000 C   0  0  0  0  0  0  0  0  0
    1.9521    3.0248    0.0000 C   0  0  0  0  0  0  0  0  0
    1.2376    2.6123    0.0000 C   0  0  0  0  0  0  0  0  0
    1.2376    1.7873    0.0000 C   0  0  0  0  0  0  0  0  0
    8.3824   -3.9877    0.0000 C   0  0  0  0  0  0  0  0  0
    9.0968   -4.4002    0.0000 C   0  0  0  0  0  0  0  0  0
    7.6679   -4.4002    0.0000 C   0  0  0  0  0  0  0  0  0
  1  2  2  0  0  0  0
  1  3  2  0  0  0  0
  1  4  1  0  0  0  0
  1 32  1  0  0  0  0
  4  5  1  0  0  0  0
  5  6  4  0  0  0  0
  5 10  4  0  0  0  0
  6  7  4  0  0  0  0
  7  8  4  0  0  0  0
  7 11  1  0  0  0  0
  8  9  4  0  0  0  0
  9 10  4  0  0  0  0
 11 12  1  0  0  0  0
 12 13  1  0  0  0  0
 12 17  1  0  0  0  0
 13 14  1  0  0  0  0
 14 15  1  0  0  0  0
 15 16  1  0  0  0  0
 15 18  1  0  0  0  0
 16 17  1  0  0  0  0
 18 19  1  0  0  0  0
 19 20  1  0  0  0  0
 20 21  1  0  0  0  0
 21 22  4  0  0  0  0
 21 31  4  0  0  0  0
 22 23  4  0  0  0  0
 22 27  4  0  0  0  0
 23 24  4  0  0  0  0
 23 29  4  0  0  0  0
 24 25  4  0  0  0  0
 25 26  4  0  0  0  0
 25 28  1  0  0  0  0
 26 27  4  0  0  0  0
 29 30  4  0  0  0  0
 30 31  4  0  0  0  0
 32 33  1  0  0  0  0
 32 34  1  0  0  0  0
M  END
>  <Name_Molregno>
485852

>  <5-HT1A>
8.6

>  <5-HT1B>
8.9

>  <5-HT1D>
9.4

$$$$
485853
  Marvin  02231216192D 0   1.00000     0.00000     0

 34 38  0  0  0  0  0  0  0  0999 V2000
   -8.8078   -3.6971    0.0000 S   0  0  0  0  0  0  0  0  0
   -8.3953   -2.9826    0.0000 O   0  0  0  0  0  0  0  0  0
   -9.4752   -3.2122    0.0000 O   0  0  0  0  0  0  0  0  0
   -8.0541   -4.0326    0.0000 N   0  0  0  0  0  0  0  0  0
   -8.1403   -4.8531    0.0000 C   0  0  0  0  0  0  0  0  0
   -8.9473   -5.0247    0.0000 C   0  0  0  0  0  0  0  0  0
   -9.3598   -4.3102    0.0000 C   0  0  0  0  0  0  0  0  0
   -7.3396   -3.6201    0.0000 C   0  0  0  0  0  0  0  0  0
   -7.3396   -2.7951    0.0000 C   0  0  0  0  0  0  0  0  0
   -6.6252   -2.3826    0.0000 C   0  0  0  0  0  0  0  0  0
   -5.9107   -2.7951    0.0000 C   0  0  0  0  0  0  0  0  0
   -5.9107   -3.6201    0.0000 C   0  0  0  0  0  0  0  0  0
   -6.6252   -4.0326    0.0000 C   0  0  0  0  0  0  0  0  0
   -6.6252   -1.5576    0.0000 C   0  0  0  0  0  0  0  0  0
   -5.9107   -1.1451    0.0000 C   0  0  0  0  0  0  0  0  0
   -5.9107   -0.3201    0.0000 C   0  0  0  0  0  0  0  0  0
   -5.1962    0.0924    0.0000 C   0  0  0  0  0  0  0  0  0
   -4.4818   -0.3201    0.0000 N   0  0  0  0  0  0  0  0  0
   -4.4818   -1.1451    0.0000 C   0  0  0  0  0  0  0  0  0
   -5.1962   -1.5576    0.0000 C   0  0  0  0  0  0  0  0  0
   -3.7673    0.0924    0.0000 C   0  0  0  0  0  0  0  0  0
   -3.7673    0.9174    0.0000 C   0  0  0  0  0  0  0  0  0
   -3.0528    1.3299    0.0000 O   0  0  0  0  0  0  0  0  0
   -3.0528    2.1549    0.0000 C   0  0  0  0  0  0  0  0  0
   -2.3383    2.5674    0.0000 C   0  0  0  0  0  0  0  0  0
   -2.3383    3.3924    0.0000 C   0  0  0  0  0  0  0  0  0
   -1.6239    3.8049    0.0000 N   0  0  0  0  0  0  0  0  0
   -0.9094    3.3924    0.0000 C   0  0  0  0  0  0  0  0  0
   -0.9094    2.5674    0.0000 C   0  0  0  0  0  0  0  0  0
   -1.6239    2.1549    0.0000 C   0  0  0  0  0  0  0  0  0
   -0.1949    3.8049    0.0000 C   0  0  0  0  0  0  0  0  0
   -3.0528    3.8049    0.0000 C   0  0  0  0  0  0  0  0  0
   -3.7673    3.3924    0.0000 C   0  0  0  0  0  0  0  0  0
   -3.7673    2.5674    0.0000 C   0  0  0  0  0  0  0  0  0
  1  2  2  0  0  0  0
  1  3  2  0  0  0  0
  1  4  1  0  0  0  0
  1  7  1  0  0  0  0
  4  5  1  0  0  0  0
  4  8  1  0  0  0  0
  5  6  1  0  0  0  0
  6  7  1  0  0  0  0
  8  9  4  0  0  0  0
  8 13  4  0  0  0  0
  9 10  4  0  0  0  0
 10 11  4  0  0  0  0
 10 14  1  0  0  0  0
 11 12  4  0  0  0  0
 12 13  4  0  0  0  0
 14 15  1  0  0  0  0
 15 16  1  0  0  0  0
 15 20  1  0  0  0  0
 16 17  1  0  0  0  0
 17 18  1  0  0  0  0
 18 19  1  0  0  0  0
 18 21  1  0  0  0  0
 19 20  1  0  0  0  0
 21 22  1  0  0  0  0
 22 23  1  0  0  0  0
 23 24  1  0  0  0  0
 24 25  4  0  0  0  0
 24 34  4  0  0  0  0
 25 26  4  0  0  0  0
 25 30  4  0  0  0  0
 26 27  4  0  0  0  0
 26 32  4  0  0  0  0
 27 28  4  0  0  0  0
 28 29  4  0  0  0  0
 28 31  1  0  0  0  0
 29 30  4  0  0  0  0
 32 33  4  0  0  0  0
 33 34  4  0  0  0  0
M  END
>  <Name_Molregno>
485853

>  <5-HT1A>
8.1

>  <5-HT1B>
7.9

>  <5-HT1D>
8.8

>  <5-HT1E>
5

>  <5-HT2A>
5.2

>  <5-HT2C>
5.4

>  <5-HT5>
5.8

>  <5-HT6>
5.8

>  <5-HT7>
7.8

>  <Alpha-1B>
6.8

>  <Beta-2>
5.8

>  <DOPAMINE D2>
6.3

>  <Serotonin transporter>
6.4

$$$$
485854
  Marvin  02231216192D 0   1.00000     0.00000     0

 34 37  0  0  0  0  0  0  0  0999 V2000
   -7.9571   -3.4250    0.0000 S   0  0  0  0  0  0  0  0  0
   -7.9571   -4.2500    0.0000 O   0  0  0  0  0  0  0  0  0
   -7.1321   -3.4250    0.0000 O   0  0  0  0  0  0  0  0  0
   -7.9571   -2.6000    0.0000 N   0  0  0  0  0  0  0  0  0
   -7.2426   -2.1875    0.0000 C   0  0  0  0  0  0  0  0  0
   -7.2426   -1.3625    0.0000 C   0  0  0  0  0  0  0  0  0
   -6.5282   -0.9500    0.0000 C   0  0  0  0  0  0  0  0  0
   -5.8137   -1.3625    0.0000 C   0  0  0  0  0  0  0  0  0
   -5.8137   -2.1875    0.0000 C   0  0  0  0  0  0  0  0  0
   -6.5282   -2.6000    0.0000 C   0  0  0  0  0  0  0  0  0
   -6.5282   -3.4250    0.0000 O   0  0  0  0  0  0  0  0  0
   -5.8137   -3.8375    0.0000 C   0  0  0  0  0  0  0  0  0
   -6.5282   -0.1250    0.0000 C   0  0  0  0  0  0  0  0  0
   -5.8137    0.2875    0.0000 C   0  0  0  0  0  0  0  0  0
   -5.8137    1.1125    0.0000 C   0  0  0  0  0  0  0  0  0
   -5.0992    1.5250    0.0000 C   0  0  0  0  0  0  0  0  0
   -4.3848    1.1125    0.0000 N   0  0  0  0  0  0  0  0  0
   -4.3848    0.2875    0.0000 C   0  0  0  0  0  0  0  0  0
   -5.0992   -0.1250    0.0000 C   0  0  0  0  0  0  0  0  0
   -3.6703    1.5250    0.0000 C   0  0  0  0  0  0  0  0  0
   -3.6703    2.3500    0.0000 C   0  0  0  0  0  0  0  0  0
   -2.9558    2.7625    0.0000 O   0  0  0  0  0  0  0  0  0
   -2.9558    3.5875    0.0000 C   0  0  0  0  0  0  0  0  0
   -2.2414    4.0000    0.0000 C   0  0  0  0  0  0  0  0  0
   -2.2414    4.8250    0.0000 C   0  0  0  0  0  0  0  0  0
   -1.5269    5.2375    0.0000 N   0  0  0  0  0  0  0  0  0
   -0.8124    4.8250    0.0000 C   0  0  0  0  0  0  0  0  0
   -0.8124    4.0000    0.0000 C   0  0  0  0  0  0  0  0  0
   -1.5269    3.5875    0.0000 C   0  0  0  0  0  0  0  0  0
   -0.0979    5.2375    0.0000 C   0  0  0  0  0  0  0  0  0
   -2.9558    5.2375    0.0000 C   0  0  0  0  0  0  0  0  0
   -3.6703    4.8250    0.0000 C   0  0  0  0  0  0  0  0  0
   -3.6703    4.0000    0.0000 C   0  0  0  0  0  0  0  0  0
   -8.7821   -3.4250    0.0000 C   0  0  0  0  0  0  0  0  0
  1  2  2  0  0  0  0
  1  3  2  0  0  0  0
  1  4  1  0  0  0  0
  1 34  1  0  0  0  0
  4  5  1  0  0  0  0
  5  6  4  0  0  0  0
  5 10  4  0  0  0  0
  6  7  4  0  0  0  0
  7  8  4  0  0  0  0
  7 13  1  0  0  0  0
  8  9  4  0  0  0  0
  9 10  4  0  0  0  0
 10 11  1  0  0  0  0
 11 12  1  0  0  0  0
 13 14  1  0  0  0  0
 14 15  1  0  0  0  0
 14 19  1  0  0  0  0
 15 16  1  0  0  0  0
 16 17  1  0  0  0  0
 17 18  1  0  0  0  0
 17 20  1  0  0  0  0
 18 19  1  0  0  0  0
 20 21  1  0  0  0  0
 21 22  1  0  0  0  0
 22 23  1  0  0  0  0
 23 24  4  0  0  0  0
 23 33  4  0  0  0  0
 24 25  4  0  0  0  0
 24 29  4  0  0  0  0
 25 26  4  0  0  0  0
 25 31  4  0  0  0  0
 26 27  4  0  0  0  0
 27 28  4  0  0  0  0
 27 30  1  0  0  0  0
 28 29  4  0  0  0  0
 31 32  4  0  0  0  0
 32 33  4  0  0  0  0
M  END
>  <Name_Molregno>
485854

>  <5-HT1A>
6.9

>  <5-HT1B>
7.4

>  <5-HT1D>
8.2

$$$$
486671
  Marvin  02231216192D 0   1.00000     0.00000     0

 27 30  0  0  0  0  0  0  0  0999 V2000
    2.7715    0.1239    0.0000 O   0  0  0  0  0  0  0  0  0
    2.0570   -0.2886    0.0000 C   0  0  0  0  0  0  0  0  0
    2.0570   -1.1136    0.0000 C   0  0  0  0  0  0  0  0  0
    1.3425   -1.5261    0.0000 N   0  0  0  0  0  0  0  0  0
    1.3425   -2.3511    0.0000 C   0  0  0  0  0  0  0  0  0
    0.6281   -2.7636    0.0000 C   0  0  0  0  0  0  0  0  0
   -0.0864   -2.3511    0.0000 N   0  0  0  0  0  0  0  0  0
   -0.0864   -1.5261    0.0000 C   0  0  0  0  0  0  0  0  0
    0.6281   -1.1136    0.0000 C   0  0  0  0  0  0  0  0  0
   -0.8009   -2.7636    0.0000 C   0  0  0  0  0  0  0  0  0
   -1.5154   -2.3511    0.0000 C   0  0  0  0  0  0  0  0  0
   -2.2298   -2.7636    0.0000 C   0  0  0  0  0  0  0  0  0
   -2.9443   -2.3511    0.0000 C   0  0  0  0  0  0  0  0  0
   -2.9443   -1.5261    0.0000 C   0  0  0  0  0  0  0  0  0
   -2.2298   -1.1136    0.0000 C   0  0  0  0  0  0  0  0  0
   -1.5154   -1.5261    0.0000 C   0  0  0  0  0  0  0  0  0
    2.7715    0.9489    0.0000 C   0  0  0  0  0  0  0  0  0
    3.4859    1.3614    0.0000 C   0  0  0  0  0  0  0  0  0
    3.4859    2.1864    0.0000 C   0  0  0  0  0  0  0  0  0
    4.2004    2.5989    0.0000 N   0  0  0  0  0  0  0  0  0
    4.9149    2.1864    0.0000 C   0  0  0  0  0  0  0  0  0
    4.9149    1.3614    0.0000 C   0  0  0  0  0  0  0  0  0
    4.2004    0.9489    0.0000 C   0  0  0  0  0  0  0  0  0
    5.6294    2.5989    0.0000 C   0  0  0  0  0  0  0  0  0
    2.7715    2.5989    0.0000 C   0  0  0  0  0  0  0  0  0
    2.0570    2.1864    0.0000 C   0  0  0  0  0  0  0  0  0
    2.0570    1.3614    0.0000 C   0  0  0  0  0  0  0  0  0
  1  2  1  0  0  0  0
  1 17  1  0  0  0  0
  2  3  1  0  0  0  0
  3  4  1  0  0  0  0
  4  5  1  0  0  0  0
  4  9  1  0  0  0  0
  5  6  1  0  0  0  0
  6  7  1  0  0  0  0
  7  8  1  0  0  0  0
  7 10  1  0  0  0  0
  8  9  1  0  0  0  0
 10 11  1  0  0  0  0
 11 12  4  0  0  0  0
 11 16  4  0  0  0  0
 12 13  4  0  0  0  0
 13 14  4  0  0  0  0
 14 15  4  0  0  0  0
 15 16  4  0  0  0  0
 17 18  4  0  0  0  0
 17 27  4  0  0  0  0
 18 19  4  0  0  0  0
 18 23  4  0  0  0  0
 19 20  4  0  0  0  0
 19 25  4  0  0  0  0
 20 21  4  0  0  0  0
 21 22  4  0  0  0  0
 21 24  1  0  0  0  0
 22 23  4  0  0  0  0
 25 26  4  0  0  0  0
 26 27  4  0  0  0  0
M  END
>  <Name_Molregno>
486671

>  <5-HT1A>
7.15

>  <5-HT1B>
6.6

>  <5-HT1D>
9

$$$$
486672
  Marvin  02231216192D 0   1.00000     0.00000     0

 31 34  0  0  0  0  0  0  0  0999 V2000
    4.2737    0.0857    0.0000 O   0  0  0  0  0  0  0  0  0
    3.5592   -0.3268    0.0000 C   0  0  0  0  0  0  0  0  0
    3.5592   -1.1518    0.0000 C   0  0  0  0  0  0  0  0  0
    2.8447   -1.5643    0.0000 N   0  0  0  0  0  0  0  0  0
    2.8447   -2.3893    0.0000 C   0  0  0  0  0  0  0  0  0
    2.1303   -2.8018    0.0000 C   0  0  0  0  0  0  0  0  0
    1.4158   -2.3893    0.0000 N   0  0  0  0  0  0  0  0  0
    1.4158   -1.5643    0.0000 C   0  0  0  0  0  0  0  0  0
    2.1303   -1.1518    0.0000 C   0  0  0  0  0  0  0  0  0
    0.7013   -2.8018    0.0000 C   0  0  0  0  0  0  0  0  0
   -0.0132   -2.3893    0.0000 C   0  0  0  0  0  0  0  0  0
   -0.7276   -2.8018    0.0000 C   0  0  0  0  0  0  0  0  0
   -1.4421   -2.3893    0.0000 C   0  0  0  0  0  0  0  0  0
   -2.1566   -2.8018    0.0000 N   0  0  0  0  0  0  0  0  0
   -2.8710   -2.3893    0.0000 C   0  0  0  0  0  0  0  0  0
   -3.5855   -2.8018    0.0000 O   0  0  0  0  0  0  0  0  0
   -2.8710   -1.5643    0.0000 C   0  0  0  0  0  0  0  0  0
   -1.4421   -1.5643    0.0000 C   0  0  0  0  0  0  0  0  0
   -0.7276   -1.1518    0.0000 C   0  0  0  0  0  0  0  0  0
   -0.0132   -1.5643    0.0000 C   0  0  0  0  0  0  0  0  0
    4.2737    0.9107    0.0000 C   0  0  0  0  0  0  0  0  0
    4.9881    1.3232    0.0000 C   0  0  0  0  0  0  0  0  0
    4.9881    2.1482    0.0000 C   0  0  0  0  0  0  0  0  0
    5.7026    2.5607    0.0000 N   0  0  0  0  0  0  0  0  0
    6.4171    2.1482    0.0000 C   0  0  0  0  0  0  0  0  0
    6.4171    1.3232    0.0000 C   0  0  0  0  0  0  0  0  0
    5.7026    0.9107    0.0000 C   0  0  0  0  0  0  0  0  0
    7.1316    2.5607    0.0000 C   0  0  0  0  0  0  0  0  0
    4.2737    2.5607    0.0000 C   0  0  0  0  0  0  0  0  0
    3.5592    2.1482    0.0000 C   0  0  0  0  0  0  0  0  0
    3.5592    1.3232    0.0000 C   0  0  0  0  0  0  0  0  0
  1  2  1  0  0  0  0
  1 21  1  0  0  0  0
  2  3  1  0  0  0  0
  3  4  1  0  0  0  0
  4  5  1  0  0  0  0
  4  9  1  0  0  0  0
  5  6  1  0  0  0  0
  6  7  1  0  0  0  0
  7  8  1  0  0  0  0
  7 10  1  0  0  0  0
  8  9  1  0  0  0  0
 10 11  1  0  0  0  0
 11 12  4  0  0  0  0
 11 20  4  0  0  0  0
 12 13  4  0  0  0  0
 13 14  1  0  0  0  0
 13 18  4  0  0  0  0
 14 15  1  0  0  0  0
 15 16  2  0  0  0  0
 15 17  1  0  0  0  0
 18 19  4  0  0  0  0
 19 20  4  0  0  0  0
 21 22  4  0  0  0  0
 21 31  4  0  0  0  0
 22 23  4  0  0  0  0
 22 27  4  0  0  0  0
 23 24  4  0  0  0  0
 23 29  4  0  0  0  0
 24 25  4  0  0  0  0
 25 26  4  0  0  0  0
 25 28  1  0  0  0  0
 26 27  4  0  0  0  0
 29 30  4  0  0  0  0
 30 31  4  0  0  0  0
M  END
>  <Name_Molregno>
486672

>  <5-HT1A>
7.7

>  <5-HT1B>
7.7

>  <5-HT1D>
9.3

$$$$
486738
  Marvin  02231216192D 0   1.00000     0.00000     0

 29 32  0  0  0  0  0  0  0  0999 V2000
    3.4756    0.8612    0.0000 O   0  0  0  0  0  0  0  0  0
    2.7612    0.4487    0.0000 C   0  0  0  0  0  0  0  0  0
    2.7612   -0.3763    0.0000 C   0  0  0  0  0  0  0  0  0
    2.0467   -0.7888    0.0000 N   0  0  0  0  0  0  0  0  0
    2.0467   -1.6138    0.0000 C   0  0  0  0  0  0  0  0  0
    1.3322   -2.0263    0.0000 C   0  0  0  0  0  0  0  0  0
    0.6178   -1.6138    0.0000 N   0  0  0  0  0  0  0  0  0
    0.6178   -0.7888    0.0000 C   0  0  0  0  0  0  0  0  0
    1.3322   -0.3763    0.0000 C   0  0  0  0  0  0  0  0  0
   -0.0967   -2.0263    0.0000 C   0  0  0  0  0  0  0  0  0
   -0.8112   -1.6138    0.0000 C   0  0  0  0  0  0  0  0  0
   -1.5257   -2.0263    0.0000 C   0  0  0  0  0  0  0  0  0
   -2.2401   -1.6138    0.0000 C   0  0  0  0  0  0  0  0  0
   -2.2401   -0.7888    0.0000 C   0  0  0  0  0  0  0  0  0
   -2.9546   -0.3763    0.0000 O   0  0  0  0  0  0  0  0  0
   -2.9546    0.4487    0.0000 C   0  0  0  0  0  0  0  0  0
   -1.5257   -0.3763    0.0000 C   0  0  0  0  0  0  0  0  0
   -0.8112   -0.7888    0.0000 C   0  0  0  0  0  0  0  0  0
    3.4756    1.6862    0.0000 C   0  0  0  0  0  0  0  0  0
    4.1901    2.0987    0.0000 C   0  0  0  0  0  0  0  0  0
    4.1901    2.9237    0.0000 C   0  0  0  0  0  0  0  0  0
    4.9046    3.3362    0.0000 N   0  0  0  0  0  0  0  0  0
    5.6191    2.9237    0.0000 C   0  0  0  0  0  0  0  0  0
    5.6191    2.0987    0.0000 C   0  0  0  0  0  0  0  0  0
    4.9046    1.6862    0.0000 C   0  0  0  0  0  0  0  0  0
    6.3335    3.3362    0.0000 C   0  0  0  0  0  0  0  0  0
    3.4756    3.3362    0.0000 C   0  0  0  0  0  0  0  0  0
    2.7612    2.9237    0.0000 C   0  0  0  0  0  0  0  0  0
    2.7612    2.0987    0.0000 C   0  0  0  0  0  0  0  0  0
  1  2  1  0  0  0  0
  1 19  1  0  0  0  0
  2  3  1  0  0  0  0
  3  4  1  0  0  0  0
  4  5  1  0  0  0  0
  4  9  1  0  0  0  0
  5  6  1  0  0  0  0
  6  7  1  0  0  0  0
  7  8  1  0  0  0  0
  7 10  1  0  0  0  0
  8  9  1  0  0  0  0
 10 11  1  0  0  0  0
 11 12  4  0  0  0  0
 11 18  4  0  0  0  0
 12 13  4  0  0  0  0
 13 14  4  0  0  0  0
 14 15  1  0  0  0  0
 14 17  4  0  0  0  0
 15 16  1  0  0  0  0
 17 18  4  0  0  0  0
 19 20  4  0  0  0  0
 19 29  4  0  0  0  0
 20 21  4  0  0  0  0
 20 25  4  0  0  0  0
 21 22  4  0  0  0  0
 21 27  4  0  0  0  0
 22 23  4  0  0  0  0
 23 24  4  0  0  0  0
 23 26  1  0  0  0  0
 24 25  4  0  0  0  0
 27 28  4  0  0  0  0
 28 29  4  0  0  0  0
M  END
>  <Name_Molregno>
486738

>  <5-HT1A>
7.8

>  <5-HT1B>
6.3

>  <5-HT1D>
7.9

$$$$
486739
  Marvin  02231216192D 0   1.00000     0.00000     0

 29 32  0  0  0  0  0  0  0  0999 V2000
    3.5321    0.9543    0.0000 O   0  0  0  0  0  0  0  0  0
    2.8176    0.5418    0.0000 C   0  0  0  0  0  0  0  0  0
    2.8176   -0.2832    0.0000 C   0  0  0  0  0  0  0  0  0
    2.1031   -0.6957    0.0000 N   0  0  0  0  0  0  0  0  0
    2.1031   -1.5207    0.0000 C   0  0  0  0  0  0  0  0  0
    1.3886   -1.9332    0.0000 C   0  0  0  0  0  0  0  0  0
    0.6742   -1.5207    0.0000 N   0  0  0  0  0  0  0  0  0
    0.6742   -0.6957    0.0000 C   0  0  0  0  0  0  0  0  0
    1.3886   -0.2832    0.0000 C   0  0  0  0  0  0  0  0  0
   -0.0403   -1.9332    0.0000 C   0  0  0  0  0  0  0  0  0
   -0.7548   -1.5207    0.0000 C   0  0  0  0  0  0  0  0  0
   -1.4692   -1.9332    0.0000 C   0  0  0  0  0  0  0  0  0
   -2.1837   -1.5207    0.0000 C   0  0  0  0  0  0  0  0  0
   -2.8982   -1.9332    0.0000 O   0  0  0  0  0  0  0  0  0
   -3.6127   -1.5207    0.0000 C   0  0  0  0  0  0  0  0  0
   -2.1837   -0.6957    0.0000 C   0  0  0  0  0  0  0  0  0
   -1.4692   -0.2832    0.0000 C   0  0  0  0  0  0  0  0  0
   -0.7548   -0.6957    0.0000 C   0  0  0  0  0  0  0  0  0
    3.5321    1.7793    0.0000 C   0  0  0  0  0  0  0  0  0
    4.2465    2.1918    0.0000 C   0  0  0  0  0  0  0  0  0
    4.2465    3.0168    0.0000 C   0  0  0  0  0  0  0  0  0
    4.9610    3.4293    0.0000 N   0  0  0  0  0  0  0  0  0
    5.6755    3.0168    0.0000 C   0  0  0  0  0  0  0  0  0
    5.6755    2.1918    0.0000 C   0  0  0  0  0  0  0  0  0
    4.9610    1.7793    0.0000 C   0  0  0  0  0  0  0  0  0
    6.3899    3.4293    0.0000 C   0  0  0  0  0  0  0  0  0
    3.5321    3.4293    0.0000 C   0  0  0  0  0  0  0  0  0
    2.8176    3.0168    0.0000 C   0  0  0  0  0  0  0  0  0
    2.8176    2.1918    0.0000 C   0  0  0  0  0  0  0  0  0
  1  2  1  0  0  0  0
  1 19  1  0  0  0  0
  2  3  1  0  0  0  0
  3  4  1  0  0  0  0
  4  5  1  0  0  0  0
  4  9  1  0  0  0  0
  5  6  1  0  0  0  0
  6  7  1  0  0  0  0
  7  8  1  0  0  0  0
  7 10  1  0  0  0  0
  8  9  1  0  0  0  0
 10 11  1  0  0  0  0
 11 12  4  0  0  0  0
 11 18  4  0  0  0  0
 12 13  4  0  0  0  0
 13 14  1  0  0  0  0
 13 16  4  0  0  0  0
 14 15  1  0  0  0  0
 16 17  4  0  0  0  0
 17 18  4  0  0  0  0
 19 20  4  0  0  0  0
 19 29  4  0  0  0  0
 20 21  4  0  0  0  0
 20 25  4  0  0  0  0
 21 22  4  0  0  0  0
 21 27  4  0  0  0  0
 22 23  4  0  0  0  0
 23 24  4  0  0  0  0
 23 26  1  0  0  0  0
 24 25  4  0  0  0  0
 27 28  4  0  0  0  0
 28 29  4  0  0  0  0
M  END
>  <Name_Molregno>
486739

>  <5-HT1A>
7.9

>  <5-HT1B>
6.8

>  <5-HT1D>
8.6

$$$$
486740
  Marvin  02231216192D 0   1.00000     0.00000     0

 31 34  0  0  0  0  0  0  0  0999 V2000
    4.1833    0.8419    0.0000 O   0  0  0  0  0  0  0  0  0
    3.4689    0.4294    0.0000 C   0  0  0  0  0  0  0  0  0
    3.4689   -0.3956    0.0000 C   0  0  0  0  0  0  0  0  0
    2.7544   -0.8081    0.0000 N   0  0  0  0  0  0  0  0  0
    2.7544   -1.6331    0.0000 C   0  0  0  0  0  0  0  0  0
    2.0399   -2.0456    0.0000 C   0  0  0  0  0  0  0  0  0
    1.3254   -1.6331    0.0000 N   0  0  0  0  0  0  0  0  0
    1.3254   -0.8081    0.0000 C   0  0  0  0  0  0  0  0  0
    2.0399   -0.3956    0.0000 C   0  0  0  0  0  0  0  0  0
    0.6110   -2.0456    0.0000 C   0  0  0  0  0  0  0  0  0
   -0.1035   -1.6331    0.0000 C   0  0  0  0  0  0  0  0  0
   -0.8180   -2.0456    0.0000 C   0  0  0  0  0  0  0  0  0
   -1.5324   -1.6331    0.0000 C   0  0  0  0  0  0  0  0  0
   -1.5324   -0.8081    0.0000 C   0  0  0  0  0  0  0  0  0
   -2.2469   -0.3956    0.0000 N   0  0  0  0  0  0  0  0  0
   -2.2469    0.4294    0.0000 C   0  0  0  0  0  0  0  0  0
   -2.9614    0.8419    0.0000 O   0  0  0  0  0  0  0  0  0
   -1.5324    0.8419    0.0000 C   0  0  0  0  0  0  0  0  0
   -0.8180   -0.3956    0.0000 C   0  0  0  0  0  0  0  0  0
   -0.1035   -0.8081    0.0000 C   0  0  0  0  0  0  0  0  0
    4.1833    1.6669    0.0000 C   0  0  0  0  0  0  0  0  0
    4.8978    2.0794    0.0000 C   0  0  0  0  0  0  0  0  0
    4.8978    2.9044    0.0000 C   0  0  0  0  0  0  0  0  0
    5.6123    3.3169    0.0000 N   0  0  0  0  0  0  0  0  0
    6.3267    2.9044    0.0000 C   0  0  0  0  0  0  0  0  0
    6.3267    2.0794    0.0000 C   0  0  0  0  0  0  0  0  0
    5.6123    1.6669    0.0000 C   0  0  0  0  0  0  0  0  0
    7.0412    3.3169    0.0000 C   0  0  0  0  0  0  0  0  0
    4.1833    3.3169    0.0000 C   0  0  0  0  0  0  0  0  0
    3.4689    2.9044    0.0000 C   0  0  0  0  0  0  0  0  0
    3.4689    2.0794    0.0000 C   0  0  0  0  0  0  0  0  0
  1  2  1  0  0  0  0
  1 21  1  0  0  0  0
  2  3  1  0  0  0  0
  3  4  1  0  0  0  0
  4  5  1  0  0  0  0
  4  9  1  0  0  0  0
  5  6  1  0  0  0  0
  6  7  1  0  0  0  0
  7  8  1  0  0  0  0
  7 10  1  0  0  0  0
  8  9  1  0  0  0  0
 10 11  1  0  0  0  0
 11 12  4  0  0  0  0
 11 20  4  0  0  0  0
 12 13  4  0  0  0  0
 13 14  4  0  0  0  0
 14 15  1  0  0  0  0
 14 19  4  0  0  0  0
 15 16  1  0  0  0  0
 16 17  2  0  0  0  0
 16 18  1  0  0  0  0
 19 20  4  0  0  0  0
 21 22  4  0  0  0  0
 21 31  4  0  0  0  0
 22 23  4  0  0  0  0
 22 27  4  0  0  0  0
 23 24  4  0  0  0  0
 23 29  4  0  0  0  0
 24 25  4  0  0  0  0
 25 26  4  0  0  0  0
 25 28  1  0  0  0  0
 26 27  4  0  0  0  0
 29 30  4  0  0  0  0
 30 31  4  0  0  0  0
M  END
>  <Name_Molregno>
486740

>  <5-HT1A>
6.8

>  <5-HT1B>
5.9

>  <5-HT1D>
6.7

$$$$
486741
  Marvin  02231216192D 0   1.00000     0.00000     0

 31 34  0  0  0  0  0  0  0  0999 V2000
    1.1744    1.6612    0.0000 O   0  0  0  0  0  0  0  0  0
    0.4600    1.2487    0.0000 C   0  0  0  0  0  0  0  0  0
    0.4600    0.4237    0.0000 C   0  0  0  0  0  0  0  0  0
    1.1744    0.0112    0.0000 N   0  0  0  0  0  0  0  0  0
    1.8889    0.4237    0.0000 C   0  0  0  0  0  0  0  0  0
    2.6034    0.0112    0.0000 C   0  0  0  0  0  0  0  0  0
    2.6034   -0.8138    0.0000 N   0  0  0  0  0  0  0  0  0
    1.8889   -1.2263    0.0000 C   0  0  0  0  0  0  0  0  0
    1.1744   -0.8138    0.0000 C   0  0  0  0  0  0  0  0  0
    3.3178   -1.2263    0.0000 C   0  0  0  0  0  0  0  0  0
    3.3178   -2.0513    0.0000 C   0  0  0  0  0  0  0  0  0
    4.0323   -2.4638    0.0000 C   0  0  0  0  0  0  0  0  0
    4.0323   -3.2888    0.0000 C   0  0  0  0  0  0  0  0  0
    3.3178   -3.7013    0.0000 C   0  0  0  0  0  0  0  0  0
    2.6034   -3.2888    0.0000 C   0  0  0  0  0  0  0  0  0
    2.6034   -2.4638    0.0000 C   0  0  0  0  0  0  0  0  0
    1.8889   -2.0513    0.0000 N   0  0  0  0  0  0  0  0  0
    1.1744   -2.4638    0.0000 C   0  0  0  0  0  0  0  0  0
    0.4600   -2.0513    0.0000 O   0  0  0  0  0  0  0  0  0
    1.1744   -3.2888    0.0000 C   0  0  0  0  0  0  0  0  0
    1.1744    2.4862    0.0000 C   0  0  0  0  0  0  0  0  0
    1.8889    2.8987    0.0000 C   0  0  0  0  0  0  0  0  0
    1.8889    3.7237    0.0000 C   0  0  0  0  0  0  0  0  0
    2.6034    4.1362    0.0000 N   0  0  0  0  0  0  0  0  0
    3.3178    3.7237    0.0000 C   0  0  0  0  0  0  0  0  0
    3.3178    2.8987    0.0000 C   0  0  0  0  0  0  0  0  0
    2.6034    2.4862    0.0000 C   0  0  0  0  0  0  0  0  0
    4.0323    4.1362    0.0000 C   0  0  0  0  0  0  0  0  0
    1.1744    4.1362    0.0000 C   0  0  0  0  0  0  0  0  0
    0.4600    3.7237    0.0000 C   0  0  0  0  0  0  0  0  0
    0.4600    2.8987    0.0000 C   0  0  0  0  0  0  0  0  0
  1  2  1  0  0  0  0
  1 21  1  0  0  0  0
  2  3  1  0  0  0  0
  3  4  1  0  0  0  0
  4  5  1  0  0  0  0
  4  9  1  0  0  0  0
  5  6  1  0  0  0  0
  6  7  1  0  0  0  0
  7  8  1  0  0  0  0
  7 10  1  0  0  0  0
  8  9  1  0  0  0  0
 10 11  1  0  0  0  0
 11 12  4  0  0  0  0
 11 16  4  0  0  0  0
 12 13  4  0  0  0  0
 13 14  4  0  0  0  0
 14 15  4  0  0  0  0
 15 16  4  0  0  0  0
 16 17  1  0  0  0  0
 17 18  1  0  0  0  0
 18 19  2  0  0  0  0
 18 20  1  0  0  0  0
 21 22  4  0  0  0  0
 21 31  4  0  0  0  0
 22 23  4  0  0  0  0
 22 27  4  0  0  0  0
 23 24  4  0  0  0  0
 23 29  4  0  0  0  0
 24 25  4  0  0  0  0
 25 26  4  0  0  0  0
 25 28  1  0  0  0  0
 26 27  4  0  0  0  0
 29 30  4  0  0  0  0
 30 31  4  0  0  0  0
M  END
>  <Name_Molregno>
486741

>  <5-HT1A>
5.9

>  <5-HT1B>
5.8

>  <5-HT1D>
8.3

$$$$
486801
  Marvin  02231216192D 0   1.00000     0.00000     0

 32 35  0  0  0  0  0  0  0  0999 V2000
    4.5588    0.1249    0.0000 O   0  0  0  0  0  0  0  0  0
    3.8443   -0.2876    0.0000 C   0  0  0  0  0  0  0  0  0
    3.8443   -1.1126    0.0000 C   0  0  0  0  0  0  0  0  0
    3.1298   -1.5251    0.0000 N   0  0  0  0  0  0  0  0  0
    3.1298   -2.3501    0.0000 C   0  0  0  0  0  0  0  0  0
    2.4154   -2.7626    0.0000 C   0  0  0  0  0  0  0  0  0
    1.7009   -2.3501    0.0000 N   0  0  0  0  0  0  0  0  0
    1.7009   -1.5251    0.0000 C   0  0  0  0  0  0  0  0  0
    2.4154   -1.1126    0.0000 C   0  0  0  0  0  0  0  0  0
    0.9864   -2.7626    0.0000 C   0  0  0  0  0  0  0  0  0
    0.2720   -2.3501    0.0000 C   0  0  0  0  0  0  0  0  0
   -0.4425   -2.7626    0.0000 C   0  0  0  0  0  0  0  0  0
   -1.1570   -2.3501    0.0000 C   0  0  0  0  0  0  0  0  0
   -1.8715   -2.7626    0.0000 N   0  0  0  0  0  0  0  0  0
   -2.5859   -2.3501    0.0000 C   0  0  0  0  0  0  0  0  0
   -3.3004   -2.7626    0.0000 O   0  0  0  0  0  0  0  0  0
   -2.5859   -1.5251    0.0000 C   0  0  0  0  0  0  0  0  0
   -1.8715   -3.5876    0.0000 C   0  0  0  0  0  0  0  0  0
   -1.1570   -1.5251    0.0000 C   0  0  0  0  0  0  0  0  0
   -0.4425   -1.1126    0.0000 C   0  0  0  0  0  0  0  0  0
    0.2720   -1.5251    0.0000 C   0  0  0  0  0  0  0  0  0
    4.5588    0.9499    0.0000 C   0  0  0  0  0  0  0  0  0
    5.2733    1.3624    0.0000 C   0  0  0  0  0  0  0  0  0
    5.2733    2.1874    0.0000 C   0  0  0  0  0  0  0  0  0
    5.9877    2.5999    0.0000 N   0  0  0  0  0  0  0  0  0
    6.7022    2.1874    0.0000 C   0  0  0  0  0  0  0  0  0
    6.7022    1.3624    0.0000 C   0  0  0  0  0  0  0  0  0
    5.9877    0.9499    0.0000 C   0  0  0  0  0  0  0  0  0
    7.4167    2.5999    0.0000 C   0  0  0  0  0  0  0  0  0
    4.5588    2.5999    0.0000 C   0  0  0  0  0  0  0  0  0
    3.8443    2.1874    0.0000 C   0  0  0  0  0  0  0  0  0
    3.8443    1.3624    0.0000 C   0  0  0  0  0  0  0  0  0
  1  2  1  0  0  0  0
  1 22  1  0  0  0  0
  2  3  1  0  0  0  0
  3  4  1  0  0  0  0
  4  5  1  0  0  0  0
  4  9  1  0  0  0  0
  5  6  1  0  0  0  0
  6  7  1  0  0  0  0
  7  8  1  0  0  0  0
  7 10  1  0  0  0  0
  8  9  1  0  0  0  0
 10 11  1  0  0  0  0
 11 12  4  0  0  0  0
 11 21  4  0  0  0  0
 12 13  4  0  0  0  0
 13 14  1  0  0  0  0
 13 19  4  0  0  0  0
 14 15  1  0  0  0  0
 14 18  1  0  0  0  0
 15 16  2  0  0  0  0
 15 17  1  0  0  0  0
 19 20  4  0  0  0  0
 20 21  4  0  0  0  0
 22 23  4  0  0  0  0
 22 32  4  0  0  0  0
 23 24  4  0  0  0  0
 23 28  4  0  0  0  0
 24 25  4  0  0  0  0
 24 30  4  0  0  0  0
 25 26  4  0  0  0  0
 26 27  4  0  0  0  0
 26 29  1  0  0  0  0
 27 28  4  0  0  0  0
 30 31  4  0  0  0  0
 31 32  4  0  0  0  0
M  END
>  <Name_Molregno>
486801

>  <5-HT1A>
6.6

>  <5-HT1B>
7.3

>  <5-HT1D>
9.5

$$$$
486802
  Marvin  02231216192D 0   1.00000     0.00000     0

 31 34  0  0  0  0  0  0  0  0999 V2000
    4.2737    0.0857    0.0000 O   0  0  0  0  0  0  0  0  0
    3.5592   -0.3268    0.0000 C   0  0  0  0  0  0  0  0  0
    3.5592   -1.1518    0.0000 C   0  0  0  0  0  0  0  0  0
    2.8447   -1.5643    0.0000 N   0  0  0  0  0  0  0  0  0
    2.8447   -2.3893    0.0000 C   0  0  0  0  0  0  0  0  0
    2.1303   -2.8018    0.0000 C   0  0  0  0  0  0  0  0  0
    1.4158   -2.3893    0.0000 C   0  0  0  0  0  0  0  0  0
    1.4158   -1.5643    0.0000 C   0  0  0  0  0  0  0  0  0
    2.1303   -1.1518    0.0000 C   0  0  0  0  0  0  0  0  0
    0.7013   -2.8018    0.0000 C   0  0  0  0  0  0  0  0  0
   -0.0132   -2.3893    0.0000 C   0  0  0  0  0  0  0  0  0
   -0.7276   -2.8018    0.0000 C   0  0  0  0  0  0  0  0  0
   -1.4421   -2.3893    0.0000 C   0  0  0  0  0  0  0  0  0
   -2.1566   -2.8018    0.0000 N   0  0  0  0  0  0  0  0  0
   -2.8710   -2.3893    0.0000 C   0  0  0  0  0  0  0  0  0
   -3.5855   -2.8018    0.0000 O   0  0  0  0  0  0  0  0  0
   -2.8710   -1.5643    0.0000 C   0  0  0  0  0  0  0  0  0
   -1.4421   -1.5643    0.0000 C   0  0  0  0  0  0  0  0  0
   -0.7276   -1.1518    0.0000 C   0  0  0  0  0  0  0  0  0
   -0.0132   -1.5643    0.0000 C   0  0  0  0  0  0  0  0  0
    4.2737    0.9107    0.0000 C   0  0  0  0  0  0  0  0  0
    4.9881    1.3232    0.0000 C   0  0  0  0  0  0  0  0  0
    4.9881    2.1482    0.0000 C   0  0  0  0  0  0  0  0  0
    5.7026    2.5607    0.0000 N   0  0  0  0  0  0  0  0  0
    6.4171    2.1482    0.0000 C   0  0  0  0  0  0  0  0  0
    6.4171    1.3232    0.0000 C   0  0  0  0  0  0  0  0  0
    5.7026    0.9107    0.0000 C   0  0  0  0  0  0  0  0  0
    7.1316    2.5607    0.0000 C   0  0  0  0  0  0  0  0  0
    4.2737    2.5607    0.0000 C   0  0  0  0  0  0  0  0  0
    3.5592    2.1482    0.0000 C   0  0  0  0  0  0  0  0  0
    3.5592    1.3232    0.0000 C   0  0  0  0  0  0  0  0  0
  1  2  1  0  0  0  0
  1 21  1  0  0  0  0
  2  3  1  0  0  0  0
  3  4  1  0  0  0  0
  4  5  1  0  0  0  0
  4  9  1  0  0  0  0
  5  6  1  0  0  0  0
  6  7  1  0  0  0  0
  7  8  1  0  0  0  0
  7 10  1  0  0  0  0
  8  9  1  0  0  0  0
 10 11  1  0  0  0  0
 11 12  4  0  0  0  0
 11 20  4  0  0  0  0
 12 13  4  0  0  0  0
 13 14  1  0  0  0  0
 13 18  4  0  0  0  0
 14 15  1  0  0  0  0
 15 16  2  0  0  0  0
 15 17  1  0  0  0  0
 18 19  4  0  0  0  0
 19 20  4  0  0  0  0
 21 22  4  0  0  0  0
 21 31  4  0  0  0  0
 22 23  4  0  0  0  0
 22 27  4  0  0  0  0
 23 24  4  0  0  0  0
 23 29  4  0  0  0  0
 24 25  4  0  0  0  0
 25 26  4  0  0  0  0
 25 28  1  0  0  0  0
 26 27  4  0  0  0  0
 29 30  4  0  0  0  0
 30 31  4  0  0  0  0
M  END
>  <Name_Molregno>
486802

>  <5-HT1A>
7.6

>  <5-HT1B>
7.7

>  <5-HT1D>
9.3

$$$$
486869
  Marvin  02231216192D 0   1.00000     0.00000     0

 32 35  0  0  0  0  0  0  0  0999 V2000
    4.6636    1.3953    0.0000 O   0  0  0  0  0  0  0  0  0
    3.9491    0.9828    0.0000 C   0  0  0  0  0  0  0  0  0
    3.9491    0.1578    0.0000 C   0  0  0  0  0  0  0  0  0
    3.2347   -0.2547    0.0000 N   0  0  0  0  0  0  0  0  0
    3.2347   -1.0797    0.0000 C   0  0  0  0  0  0  0  0  0
    2.5202   -1.4922    0.0000 C   0  0  0  0  0  0  0  0  0
    1.8057   -1.0797    0.0000 C   0  0  0  0  0  0  0  0  0
    1.8057   -0.2547    0.0000 C   0  0  0  0  0  0  0  0  0
    2.5202    0.1578    0.0000 C   0  0  0  0  0  0  0  0  0
    1.0913   -1.4922    0.0000 C   0  0  0  0  0  0  0  0  0
    0.3768   -1.0797    0.0000 C   0  0  0  0  0  0  0  0  0
   -0.3377   -1.4922    0.0000 C   0  0  0  0  0  0  0  0  0
   -1.0522   -1.0797    0.0000 C   0  0  0  0  0  0  0  0  0
   -1.7666   -1.4922    0.0000 N   0  0  0  0  0  0  0  0  0
   -2.4811   -1.0797    0.0000 C   0  0  0  0  0  0  0  0  0
   -2.4811   -0.2547    0.0000 O   0  0  0  0  0  0  0  0  0
   -3.1956   -1.4922    0.0000 C   0  0  0  0  0  0  0  0  0
   -3.9100   -1.0797    0.0000 C   0  0  0  0  0  0  0  0  0
   -1.0522   -0.2547    0.0000 C   0  0  0  0  0  0  0  0  0
   -0.3377    0.1578    0.0000 C   0  0  0  0  0  0  0  0  0
    0.3768   -0.2547    0.0000 C   0  0  0  0  0  0  0  0  0
    4.6636    2.2203    0.0000 C   0  0  0  0  0  0  0  0  0
    5.3781    2.6328    0.0000 C   0  0  0  0  0  0  0  0  0
    5.3781    3.4578    0.0000 C   0  0  0  0  0  0  0  0  0
    6.0926    3.8703    0.0000 N   0  0  0  0  0  0  0  0  0
    6.8070    3.4578    0.0000 C   0  0  0  0  0  0  0  0  0
    6.8070    2.6328    0.0000 C   0  0  0  0  0  0  0  0  0
    6.0926    2.2203    0.0000 C   0  0  0  0  0  0  0  0  0
    7.5215    3.8703    0.0000 C   0  0  0  0  0  0  0  0  0
    4.6636    3.8703    0.0000 C   0  0  0  0  0  0  0  0  0
    3.9491    3.4578    0.0000 C   0  0  0  0  0  0  0  0  0
    3.9491    2.6328    0.0000 C   0  0  0  0  0  0  0  0  0
  1  2  1  0  0  0  0
  1 22  1  0  0  0  0
  2  3  1  0  0  0  0
  3  4  1  0  0  0  0
  4  5  1  0  0  0  0
  4  9  1  0  0  0  0
  5  6  1  0  0  0  0
  6  7  1  0  0  0  0
  7  8  1  0  0  0  0
  7 10  1  0  0  0  0
  8  9  1  0  0  0  0
 10 11  1  0  0  0  0
 11 12  4  0  0  0  0
 11 21  4  0  0  0  0
 12 13  4  0  0  0  0
 13 14  1  0  0  0  0
 13 19  4  0  0  0  0
 14 15  1  0  0  0  0
 15 16  2  0  0  0  0
 15 17  1  0  0  0  0
 17 18  1  0  0  0  0
 19 20  4  0  0  0  0
 20 21  4  0  0  0  0
 22 23  4  0  0  0  0
 22 32  4  0  0  0  0
 23 24  4  0  0  0  0
 23 28  4  0  0  0  0
 24 25  4  0  0  0  0
 24 30  4  0  0  0  0
 25 26  4  0  0  0  0
 26 27  4  0  0  0  0
 26 29  1  0  0  0  0
 27 28  4  0  0  0  0
 30 31  4  0  0  0  0
 31 32  4  0  0  0  0
M  END
>  <Name_Molregno>
486869

>  <5-HT1A>
7.6

>  <5-HT1B>
7.8

>  <5-HT1D>
9.2

$$$$
486870
  Marvin  02231216192D 0   1.00000     0.00000     0

 33 36  0  0  0  0  0  0  0  0999 V2000
    5.0174    1.2753    0.0000 O   0  0  0  0  0  0  0  0  0
    4.3030    0.8628    0.0000 C   0  0  0  0  0  0  0  0  0
    4.3030    0.0378    0.0000 C   0  0  0  0  0  0  0  0  0
    3.5885   -0.3747    0.0000 N   0  0  0  0  0  0  0  0  0
    3.5885   -1.1997    0.0000 C   0  0  0  0  0  0  0  0  0
    2.8740   -1.6122    0.0000 C   0  0  0  0  0  0  0  0  0
    2.1596   -1.1997    0.0000 C   0  0  0  0  0  0  0  0  0
    2.1596   -0.3747    0.0000 C   0  0  0  0  0  0  0  0  0
    2.8740    0.0378    0.0000 C   0  0  0  0  0  0  0  0  0
    1.4451   -1.6122    0.0000 C   0  0  0  0  0  0  0  0  0
    0.7306   -1.1997    0.0000 C   0  0  0  0  0  0  0  0  0
    0.0162   -1.6122    0.0000 C   0  0  0  0  0  0  0  0  0
   -0.6983   -1.1997    0.0000 C   0  0  0  0  0  0  0  0  0
   -1.4128   -1.6122    0.0000 N   0  0  0  0  0  0  0  0  0
   -2.1273   -1.1997    0.0000 C   0  0  0  0  0  0  0  0  0
   -2.1273   -0.3747    0.0000 O   0  0  0  0  0  0  0  0  0
   -2.8417   -1.6122    0.0000 C   0  0  0  0  0  0  0  0  0
   -3.5562   -1.1997    0.0000 C   0  0  0  0  0  0  0  0  0
   -2.8417   -2.4372    0.0000 C   0  0  0  0  0  0  0  0  0
   -0.6983   -0.3747    0.0000 C   0  0  0  0  0  0  0  0  0
    0.0162    0.0378    0.0000 C   0  0  0  0  0  0  0  0  0
    0.7306   -0.3747    0.0000 C   0  0  0  0  0  0  0  0  0
    5.0174    2.1003    0.0000 C   0  0  0  0  0  0  0  0  0
    5.7319    2.5128    0.0000 C   0  0  0  0  0  0  0  0  0
    5.7319    3.3378    0.0000 C   0  0  0  0  0  0  0  0  0
    6.4464    3.7503    0.0000 N   0  0  0  0  0  0  0  0  0
    7.1609    3.3378    0.0000 C   0  0  0  0  0  0  0  0  0
    7.1609    2.5128    0.0000 C   0  0  0  0  0  0  0  0  0
    6.4464    2.1003    0.0000 C   0  0  0  0  0  0  0  0  0
    7.8753    3.7503    0.0000 C   0  0  0  0  0  0  0  0  0
    5.0174    3.7503    0.0000 C   0  0  0  0  0  0  0  0  0
    4.3030    3.3378    0.0000 C   0  0  0  0  0  0  0  0  0
    4.3030    2.5128    0.0000 C   0  0  0  0  0  0  0  0  0
  1  2  1  0  0  0  0
  1 23  1  0  0  0  0
  2  3  1  0  0  0  0
  3  4  1  0  0  0  0
  4  5  1  0  0  0  0
  4  9  1  0  0  0  0
  5  6  1  0  0  0  0
  6  7  1  0  0  0  0
  7  8  1  0  0  0  0
  7 10  1  0  0  0  0
  8  9  1  0  0  0  0
 10 11  1  0  0  0  0
 11 12  4  0  0  0  0
 11 22  4  0  0  0  0
 12 13  4  0  0  0  0
 13 14  1  0  0  0  0
 13 20  4  0  0  0  0
 14 15  1  0  0  0  0
 15 16  2  0  0  0  0
 15 17  1  0  0  0  0
 17 18  1  0  0  0  0
 17 19  1  0  0  0  0
 20 21  4  0  0  0  0
 21 22  4  0  0  0  0
 23 24  4  0  0  0  0
 23 33  4  0  0  0  0
 24 25  4  0  0  0  0
 24 29  4  0  0  0  0
 25 26  4  0  0  0  0
 25 31  4  0  0  0  0
 26 27  4  0  0  0  0
 27 28  4  0  0  0  0
 27 30  1  0  0  0  0
 28 29  4  0  0  0  0
 31 32  4  0  0  0  0
 32 33  4  0  0  0  0
M  END
>  <Name_Molregno>
486870

>  <5-HT1A>
8.2

>  <5-HT1B>
7.3

>  <5-HT1D>
8.9

$$$$
486871
  Marvin  02231216192D 0   1.00000     0.00000     0

 32 35  0  0  0  0  0  0  0  0999 V2000
    4.5588    0.1249    0.0000 O   0  0  0  0  0  0  0  0  0
    3.8443   -0.2876    0.0000 C   0  0  0  0  0  0  0  0  0
    3.8443   -1.1126    0.0000 C   0  0  0  0  0  0  0  0  0
    3.1298   -1.5251    0.0000 N   0  0  0  0  0  0  0  0  0
    3.1298   -2.3501    0.0000 C   0  0  0  0  0  0  0  0  0
    2.4154   -2.7626    0.0000 C   0  0  0  0  0  0  0  0  0
    1.7009   -2.3501    0.0000 C   0  0  0  0  0  0  0  0  0
    1.7009   -1.5251    0.0000 C   0  0  0  0  0  0  0  0  0
    2.4154   -1.1126    0.0000 C   0  0  0  0  0  0  0  0  0
    0.9864   -2.7626    0.0000 C   0  0  0  0  0  0  0  0  0
    0.2720   -2.3501    0.0000 C   0  0  0  0  0  0  0  0  0
   -0.4425   -2.7626    0.0000 C   0  0  0  0  0  0  0  0  0
   -1.1570   -2.3501    0.0000 C   0  0  0  0  0  0  0  0  0
   -1.8715   -2.7626    0.0000 N   0  0  0  0  0  0  0  0  0
   -2.5859   -2.3501    0.0000 C   0  0  0  0  0  0  0  0  0
   -3.3004   -2.7626    0.0000 O   0  0  0  0  0  0  0  0  0
   -2.5859   -1.5251    0.0000 C   0  0  0  0  0  0  0  0  0
   -1.8715   -3.5876    0.0000 C   0  0  0  0  0  0  0  0  0
   -1.1570   -1.5251    0.0000 C   0  0  0  0  0  0  0  0  0
   -0.4425   -1.1126    0.0000 C   0  0  0  0  0  0  0  0  0
    0.2720   -1.5251    0.0000 C   0  0  0  0  0  0  0  0  0
    4.5588    0.9499    0.0000 C   0  0  0  0  0  0  0  0  0
    5.2733    1.3624    0.0000 C   0  0  0  0  0  0  0  0  0
    5.2733    2.1874    0.0000 C   0  0  0  0  0  0  0  0  0
    5.9877    2.5999    0.0000 N   0  0  0  0  0  0  0  0  0
    6.7022    2.1874    0.0000 C   0  0  0  0  0  0  0  0  0
    6.7022    1.3624    0.0000 C   0  0  0  0  0  0  0  0  0
    5.9877    0.9499    0.0000 C   0  0  0  0  0  0  0  0  0
    7.4167    2.5999    0.0000 C   0  0  0  0  0  0  0  0  0
    4.5588    2.5999    0.0000 C   0  0  0  0  0  0  0  0  0
    3.8443    2.1874    0.0000 C   0  0  0  0  0  0  0  0  0
    3.8443    1.3624    0.0000 C   0  0  0  0  0  0  0  0  0
  1  2  1  0  0  0  0
  1 22  1  0  0  0  0
  2  3  1  0  0  0  0
  3  4  1  0  0  0  0
  4  5  1  0  0  0  0
  4  9  1  0  0  0  0
  5  6  1  0  0  0  0
  6  7  1  0  0  0  0
  7  8  1  0  0  0  0
  7 10  1  0  0  0  0
  8  9  1  0  0  0  0
 10 11  1  0  0  0  0
 11 12  4  0  0  0  0
 11 21  4  0  0  0  0
 12 13  4  0  0  0  0
 13 14  1  0  0  0  0
 13 19  4  0  0  0  0
 14 15  1  0  0  0  0
 14 18  1  0  0  0  0
 15 16  2  0  0  0  0
 15 17  1  0  0  0  0
 19 20  4  0  0  0  0
 20 21  4  0  0  0  0
 22 23  4  0  0  0  0
 22 32  4  0  0  0  0
 23 24  4  0  0  0  0
 23 28  4  0  0  0  0
 24 25  4  0  0  0  0
 24 30  4  0  0  0  0
 25 26  4  0  0  0  0
 26 27  4  0  0  0  0
 26 29  1  0  0  0  0
 27 28  4  0  0  0  0
 30 31  4  0  0  0  0
 31 32  4  0  0  0  0
M  END
>  <Name_Molregno>
486871

>  <5-HT1A>
7.6

>  <5-HT1B>
7.4

>  <5-HT1D>
8.9

$$$$
486872
  Marvin  02231216192D 0   1.00000     0.00000     0

 33 36  0  0  0  0  0  0  0  0999 V2000
    4.8852    0.3912    0.0000 O   0  0  0  0  0  0  0  0  0
    4.1708   -0.0213    0.0000 C   0  0  0  0  0  0  0  0  0
    4.1708   -0.8463    0.0000 C   0  0  0  0  0  0  0  0  0
    3.4563   -1.2588    0.0000 N   0  0  0  0  0  0  0  0  0
    3.4563   -2.0838    0.0000 C   0  0  0  0  0  0  0  0  0
    2.7418   -2.4963    0.0000 C   0  0  0  0  0  0  0  0  0
    2.0273   -2.0838    0.0000 C   0  0  0  0  0  0  0  0  0
    2.0273   -1.2588    0.0000 C   0  0  0  0  0  0  0  0  0
    2.7418   -0.8463    0.0000 C   0  0  0  0  0  0  0  0  0
    1.3129   -2.4962    0.0000 C   0  0  0  0  0  0  0  0  0
    0.5984   -2.0837    0.0000 C   0  0  0  0  0  0  0  0  0
   -0.1161   -2.4962    0.0000 C   0  0  0  0  0  0  0  0  0
   -0.8305   -2.0837    0.0000 C   0  0  0  0  0  0  0  0  0
   -1.5450   -2.4962    0.0000 N   0  0  0  0  0  0  0  0  0
   -2.2595   -2.0837    0.0000 C   0  0  0  0  0  0  0  0  0
   -2.9740   -2.4962    0.0000 O   0  0  0  0  0  0  0  0  0
   -2.2595   -1.2587    0.0000 C   0  0  0  0  0  0  0  0  0
   -1.5450   -3.3212    0.0000 C   0  0  0  0  0  0  0  0  0
   -2.2595   -3.7337    0.0000 C   0  0  0  0  0  0  0  0  0
   -0.8305   -1.2587    0.0000 C   0  0  0  0  0  0  0  0  0
   -0.1161   -0.8462    0.0000 C   0  0  0  0  0  0  0  0  0
    0.5984   -1.2587    0.0000 C   0  0  0  0  0  0  0  0  0
    4.8852    1.2162    0.0000 C   0  0  0  0  0  0  0  0  0
    5.5997    1.6287    0.0000 C   0  0  0  0  0  0  0  0  0
    5.5997    2.4537    0.0000 C   0  0  0  0  0  0  0  0  0
    6.3142    2.8662    0.0000 N   0  0  0  0  0  0  0  0  0
    7.0286    2.4537    0.0000 C   0  0  0  0  0  0  0  0  0
    7.0286    1.6287    0.0000 C   0  0  0  0  0  0  0  0  0
    6.3142    1.2162    0.0000 C   0  0  0  0  0  0  0  0  0
    7.7431    2.8662    0.0000 C   0  0  0  0  0  0  0  0  0
    4.8852    2.8662    0.0000 C   0  0  0  0  0  0  0  0  0
    4.1708    2.4537    0.0000 C   0  0  0  0  0  0  0  0  0
    4.1708    1.6287    0.0000 C   0  0  0  0  0  0  0  0  0
  1  2  1  0  0  0  0
  1 23  1  0  0  0  0
  2  3  1  0  0  0  0
  3  4  1  0  0  0  0
  4  5  1  0  0  0  0
  4  9  1  0  0  0  0
  5  6  1  0  0  0  0
  6  7  1  0  0  0  0
  7  8  1  0  0  0  0
  7 10  1  0  0  0  0
  8  9  1  0  0  0  0
 10 11  1  0  0  0  0
 11 12  4  0  0  0  0
 11 22  4  0  0  0  0
 12 13  4  0  0  0  0
 13 14  1  0  0  0  0
 13 20  4  0  0  0  0
 14 15  1  0  0  0  0
 14 18  1  0  0  0  0
 15 16  2  0  0  0  0
 15 17  1  0  0  0  0
 18 19  1  0  0  0  0
 20 21  4  0  0  0  0
 21 22  4  0  0  0  0
 23 24  4  0  0  0  0
 23 33  4  0  0  0  0
 24 25  4  0  0  0  0
 24 29  4  0  0  0  0
 25 26  4  0  0  0  0
 25 31  4  0  0  0  0
 26 27  4  0  0  0  0
 27 28  4  0  0  0  0
 27 30  1  0  0  0  0
 28 29  4  0  0  0  0
 31 32  4  0  0  0  0
 32 33  4  0  0  0  0
M  END
>  <Name_Molregno>
486872

>  <5-HT1A>
8.3

>  <5-HT1B>
7

>  <5-HT1D>
8.8

$$$$
486942
  Marvin  02231216192D 0   1.00000     0.00000     0

 33 37  0  0  0  0  0  0  0  0999 V2000
    4.9042    0.2041    0.0000 O   0  0  0  0  0  0  0  0  0
    4.1898   -0.2084    0.0000 C   0  0  0  0  0  0  0  0  0
    4.1898   -1.0334    0.0000 C   0  0  0  0  0  0  0  0  0
    3.4753   -1.4459    0.0000 N   0  0  0  0  0  0  0  0  0
    3.4753   -2.2709    0.0000 C   0  0  0  0  0  0  0  0  0
    2.7608   -2.6834    0.0000 C   0  0  0  0  0  0  0  0  0
    2.0464   -2.2709    0.0000 C   0  0  0  0  0  0  0  0  0
    2.0464   -1.4459    0.0000 C   0  0  0  0  0  0  0  0  0
    2.7608   -1.0334    0.0000 C   0  0  0  0  0  0  0  0  0
    1.3319   -2.6834    0.0000 C   0  0  0  0  0  0  0  0  0
    0.6174   -2.2709    0.0000 C   0  0  0  0  0  0  0  0  0
   -0.0971   -2.6834    0.0000 C   0  0  0  0  0  0  0  0  0
   -0.8115   -2.2709    0.0000 C   0  0  0  0  0  0  0  0  0
   -1.5260   -2.6834    0.0000 N   0  0  0  0  0  0  0  0  0
   -1.6122   -3.5038    0.0000 C   0  0  0  0  0  0  0  0  0
   -2.4192   -3.6754    0.0000 C   0  0  0  0  0  0  0  0  0
   -2.8317   -2.9609    0.0000 C   0  0  0  0  0  0  0  0  0
   -2.2797   -2.3478    0.0000 C   0  0  0  0  0  0  0  0  0
   -2.4512   -1.5408    0.0000 O   0  0  0  0  0  0  0  0  0
   -0.8115   -1.4459    0.0000 C   0  0  0  0  0  0  0  0  0
   -0.0971   -1.0334    0.0000 C   0  0  0  0  0  0  0  0  0
    0.6174   -1.4459    0.0000 C   0  0  0  0  0  0  0  0  0
    4.9042    1.0291    0.0000 C   0  0  0  0  0  0  0  0  0
    5.6187    1.4416    0.0000 C   0  0  0  0  0  0  0  0  0
    5.6187    2.2666    0.0000 C   0  0  0  0  0  0  0  0  0
    6.3332    2.6791    0.0000 N   0  0  0  0  0  0  0  0  0
    7.0477    2.2666    0.0000 C   0  0  0  0  0  0  0  0  0
    7.0477    1.4416    0.0000 C   0  0  0  0  0  0  0  0  0
    6.3332    1.0291    0.0000 C   0  0  0  0  0  0  0  0  0
    7.7621    2.6791    0.0000 C   0  0  0  0  0  0  0  0  0
    4.9042    2.6791    0.0000 C   0  0  0  0  0  0  0  0  0
    4.1898    2.2666    0.0000 C   0  0  0  0  0  0  0  0  0
    4.1898    1.4416    0.0000 C   0  0  0  0  0  0  0  0  0
  1  2  1  0  0  0  0
  1 23  1  0  0  0  0
  2  3  1  0  0  0  0
  3  4  1  0  0  0  0
  4  5  1  0  0  0  0
  4  9  1  0  0  0  0
  5  6  1  0  0  0  0
  6  7  1  0  0  0  0
  7  8  1  0  0  0  0
  7 10  1  0  0  0  0
  8  9  1  0  0  0  0
 10 11  1  0  0  0  0
 11 12  4  0  0  0  0
 11 22  4  0  0  0  0
 12 13  4  0  0  0  0
 13 14  1  0  0  0  0
 13 20  4  0  0  0  0
 14 15  1  0  0  0  0
 14 18  1  0  0  0  0
 15 16  1  0  0  0  0
 16 17  1  0  0  0  0
 17 18  1  0  0  0  0
 18 19  2  0  0  0  0
 20 21  4  0  0  0  0
 21 22  4  0  0  0  0
 23 24  4  0  0  0  0
 23 33  4  0  0  0  0
 24 25  4  0  0  0  0
 24 29  4  0  0  0  0
 25 26  4  0  0  0  0
 25 31  4  0  0  0  0
 26 27  4  0  0  0  0
 27 28  4  0  0  0  0
 27 30  1  0  0  0  0
 28 29  4  0  0  0  0
 31 32  4  0  0  0  0
 32 33  4  0  0  0  0
M  END
>  <Name_Molregno>
486942

>  <5-HT1A>
8.2

>  <5-HT1B>
7.7

>  <5-HT1D>
8.7

$$$$
486943
  Marvin  02231216192D 0   1.00000     0.00000     0

 34 37  0  0  0  0  0  0  0  0999 V2000
    5.4310    1.6450    0.0000 O   0  0  0  0  0  0  0  0  0
    4.7165    1.2325    0.0000 C   0  0  0  0  0  0  0  0  0
    4.7165    0.4075    0.0000 C   0  0  0  0  0  0  0  0  0
    4.0020   -0.0050    0.0000 N   0  0  0  0  0  0  0  0  0
    4.0020   -0.8300    0.0000 C   0  0  0  0  0  0  0  0  0
    3.2876   -1.2425    0.0000 C   0  0  0  0  0  0  0  0  0
    2.5731   -0.8300    0.0000 C   0  0  0  0  0  0  0  0  0
    2.5731   -0.0050    0.0000 C   0  0  0  0  0  0  0  0  0
    3.2876    0.4075    0.0000 C   0  0  0  0  0  0  0  0  0
    1.8586   -1.2425    0.0000 C   0  0  0  0  0  0  0  0  0
    1.1442   -0.8300    0.0000 C   0  0  0  0  0  0  0  0  0
    0.4297   -1.2425    0.0000 C   0  0  0  0  0  0  0  0  0
   -0.2848   -0.8300    0.0000 C   0  0  0  0  0  0  0  0  0
   -0.9993   -1.2425    0.0000 N   0  0  0  0  0  0  0  0  0
   -1.7137   -0.8300    0.0000 C   0  0  0  0  0  0  0  0  0
   -1.7137   -0.0050    0.0000 O   0  0  0  0  0  0  0  0  0
   -2.4282   -1.2425    0.0000 C   0  0  0  0  0  0  0  0  0
   -3.1427   -0.8300    0.0000 N   0  0  0  0  0  0  0  0  0
   -3.8571   -1.2425    0.0000 C   0  0  0  0  0  0  0  0  0
   -3.1427   -0.0050    0.0000 C   0  0  0  0  0  0  0  0  0
   -0.2848   -0.0050    0.0000 C   0  0  0  0  0  0  0  0  0
    0.4297    0.4075    0.0000 C   0  0  0  0  0  0  0  0  0
    1.1442   -0.0050    0.0000 C   0  0  0  0  0  0  0  0  0
    5.4310    2.4700    0.0000 C   0  0  0  0  0  0  0  0  0
    6.1455    2.8825    0.0000 C   0  0  0  0  0  0  0  0  0
    6.1455    3.7075    0.0000 C   0  0  0  0  0  0  0  0  0
    6.8599    4.1200    0.0000 N   0  0  0  0  0  0  0  0  0
    7.5744    3.7075    0.0000 C   0  0  0  0  0  0  0  0  0
    7.5744    2.8825    0.0000 C   0  0  0  0  0  0  0  0  0
    6.8599    2.4700    0.0000 C   0  0  0  0  0  0  0  0  0
    8.2889    4.1200    0.0000 C   0  0  0  0  0  0  0  0  0
    5.4310    4.1200    0.0000 C   0  0  0  0  0  0  0  0  0
    4.7165    3.7075    0.0000 C   0  0  0  0  0  0  0  0  0
    4.7165    2.8825    0.0000 C   0  0  0  0  0  0  0  0  0
  1  2  1  0  0  0  0
  1 24  1  0  0  0  0
  2  3  1  0  0  0  0
  3  4  1  0  0  0  0
  4  5  1  0  0  0  0
  4  9  1  0  0  0  0
  5  6  1  0  0  0  0
  6  7  1  0  0  0  0
  7  8  1  0  0  0  0
  7 10  1  0  0  0  0
  8  9  1  0  0  0  0
 10 11  1  0  0  0  0
 11 12  4  0  0  0  0
 11 23  4  0  0  0  0
 12 13  4  0  0  0  0
 13 14  1  0  0  0  0
 13 21  4  0  0  0  0
 14 15  1  0  0  0  0
 15 16  2  0  0  0  0
 15 17  1  0  0  0  0
 17 18  1  0  0  0  0
 18 19  1  0  0  0  0
 18 20  1  0  0  0  0
 21 22  4  0  0  0  0
 22 23  4  0  0  0  0
 24 25  4  0  0  0  0
 24 34  4  0  0  0  0
 25 26  4  0  0  0  0
 25 30  4  0  0  0  0
 26 27  4  0  0  0  0
 26 32  4  0  0  0  0
 27 28  4  0  0  0  0
 28 29  4  0  0  0  0
 28 31  1  0  0  0  0
 29 30  4  0  0  0  0
 32 33  4  0  0  0  0
 33 34  4  0  0  0  0
M  END
>  <Name_Molregno>
486943

>  <5-HT1A>
7.8

>  <5-HT1B>
8.2

>  <5-HT1D>
9

$$$$
486944
  Marvin  02231216192D 0   1.00000     0.00000     0

 33 36  0  0  0  0  0  0  0  0999 V2000
    5.0902    0.3714    0.0000 O   0  0  0  0  0  0  0  0  0
    4.3757   -0.0411    0.0000 C   0  0  0  0  0  0  0  0  0
    4.3757   -0.8661    0.0000 C   0  0  0  0  0  0  0  0  0
    3.6612   -1.2786    0.0000 N   0  0  0  0  0  0  0  0  0
    3.6612   -2.1036    0.0000 C   0  0  0  0  0  0  0  0  0
    2.9468   -2.5161    0.0000 C   0  0  0  0  0  0  0  0  0
    2.2323   -2.1036    0.0000 C   0  0  0  0  0  0  0  0  0
    2.2323   -1.2786    0.0000 C   0  0  0  0  0  0  0  0  0
    2.9468   -0.8661    0.0000 C   0  0  0  0  0  0  0  0  0
    1.5178   -2.5161    0.0000 C   0  0  0  0  0  0  0  0  0
    0.8034   -2.1036    0.0000 C   0  0  0  0  0  0  0  0  0
    0.0889   -2.5161    0.0000 C   0  0  0  0  0  0  0  0  0
   -0.6256   -2.1036    0.0000 C   0  0  0  0  0  0  0  0  0
   -1.3401   -2.5161    0.0000 N   0  0  0  0  0  0  0  0  0
   -2.0545   -2.1036    0.0000 C   0  0  0  0  0  0  0  0  0
   -2.0545   -1.2786    0.0000 O   0  0  0  0  0  0  0  0  0
   -2.7690   -2.5161    0.0000 N   0  0  0  0  0  0  0  0  0
   -3.4835   -2.1036    0.0000 C   0  0  0  0  0  0  0  0  0
   -4.1979   -2.5161    0.0000 C   0  0  0  0  0  0  0  0  0
   -0.6256   -1.2786    0.0000 C   0  0  0  0  0  0  0  0  0
    0.0889   -0.8661    0.0000 C   0  0  0  0  0  0  0  0  0
    0.8034   -1.2786    0.0000 C   0  0  0  0  0  0  0  0  0
    5.0902    1.1964    0.0000 C   0  0  0  0  0  0  0  0  0
    5.8047    1.6089    0.0000 C   0  0  0  0  0  0  0  0  0
    5.8047    2.4339    0.0000 C   0  0  0  0  0  0  0  0  0
    6.5191    2.8464    0.0000 N   0  0  0  0  0  0  0  0  0
    7.2336    2.4339    0.0000 C   0  0  0  0  0  0  0  0  0
    7.2336    1.6089    0.0000 C   0  0  0  0  0  0  0  0  0
    6.5191    1.1964    0.0000 C   0  0  0  0  0  0  0  0  0
    7.9481    2.8464    0.0000 C   0  0  0  0  0  0  0  0  0
    5.0902    2.8464    0.0000 C   0  0  0  0  0  0  0  0  0
    4.3757    2.4339    0.0000 C   0  0  0  0  0  0  0  0  0
    4.3757    1.6089    0.0000 C   0  0  0  0  0  0  0  0  0
  1  2  1  0  0  0  0
  1 23  1  0  0  0  0
  2  3  1  0  0  0  0
  3  4  1  0  0  0  0
  4  5  1  0  0  0  0
  4  9  1  0  0  0  0
  5  6  1  0  0  0  0
  6  7  1  0  0  0  0
  7  8  1  0  0  0  0
  7 10  1  0  0  0  0
  8  9  1  0  0  0  0
 10 11  1  0  0  0  0
 11 12  4  0  0  0  0
 11 22  4  0  0  0  0
 12 13  4  0  0  0  0
 13 14  1  0  0  0  0
 13 20  4  0  0  0  0
 14 15  1  0  0  0  0
 15 16  2  0  0  0  0
 15 17  1  0  0  0  0
 17 18  1  0  0  0  0
 18 19  1  0  0  0  0
 20 21  4  0  0  0  0
 21 22  4  0  0  0  0
 23 24  4  0  0  0  0
 23 33  4  0  0  0  0
 24 25  4  0  0  0  0
 24 29  4  0  0  0  0
 25 26  4  0  0  0  0
 25 31  4  0  0  0  0
 26 27  4  0  0  0  0
 27 28  4  0  0  0  0
 27 30  1  0  0  0  0
 28 29  4  0  0  0  0
 31 32  4  0  0  0  0
 32 33  4  0  0  0  0
M  END
>  <Name_Molregno>
486944

>  <5-HT1A>
7.5

>  <5-HT1B>
7.6

>  <5-HT1D>
9.6

$$$$
486945
  Marvin  02231216192D 0   1.00000     0.00000     0

 32 35  0  0  0  0  0  0  0  0999 V2000
    2.0504   -5.0180    0.0000 S   0  0  0  0  0  0  0  0  0
    2.0504   -5.8430    0.0000 O   0  0  0  0  0  0  0  0  0
    2.8754   -5.0180    0.0000 O   0  0  0  0  0  0  0  0  0
    2.0504   -4.1930    0.0000 N   0  0  0  0  0  0  0  0  0
    2.7649   -3.7805    0.0000 C   0  0  0  0  0  0  0  0  0
    2.7649   -2.9555    0.0000 C   0  0  0  0  0  0  0  0  0
    3.4793   -2.5430    0.0000 C   0  0  0  0  0  0  0  0  0
    4.1938   -2.9555    0.0000 C   0  0  0  0  0  0  0  0  0
    4.1938   -3.7805    0.0000 C   0  0  0  0  0  0  0  0  0
    3.4793   -4.1930    0.0000 C   0  0  0  0  0  0  0  0  0
    3.4793   -1.7180    0.0000 C   0  0  0  0  0  0  0  0  0
    4.1938   -1.3055    0.0000 C   0  0  0  0  0  0  0  0  0
    4.1938   -0.4805    0.0000 C   0  0  0  0  0  0  0  0  0
    4.9083   -0.0680    0.0000 C   0  0  0  0  0  0  0  0  0
    5.6228   -0.4805    0.0000 N   0  0  0  0  0  0  0  0  0
    5.6228   -1.3055    0.0000 C   0  0  0  0  0  0  0  0  0
    4.9083   -1.7180    0.0000 C   0  0  0  0  0  0  0  0  0
    6.3372   -0.0680    0.0000 C   0  0  0  0  0  0  0  0  0
    6.3372    0.7570    0.0000 C   0  0  0  0  0  0  0  0  0
    7.0517    1.1695    0.0000 O   0  0  0  0  0  0  0  0  0
    7.0517    1.9945    0.0000 C   0  0  0  0  0  0  0  0  0
    7.7662    2.4070    0.0000 C   0  0  0  0  0  0  0  0  0
    7.7662    3.2320    0.0000 C   0  0  0  0  0  0  0  0  0
    8.4806    3.6445    0.0000 N   0  0  0  0  0  0  0  0  0
    9.1951    3.2320    0.0000 C   0  0  0  0  0  0  0  0  0
    9.1951    2.4070    0.0000 C   0  0  0  0  0  0  0  0  0
    8.4806    1.9945    0.0000 C   0  0  0  0  0  0  0  0  0
    9.9096    3.6445    0.0000 C   0  0  0  0  0  0  0  0  0
    7.0517    3.6445    0.0000 C   0  0  0  0  0  0  0  0  0
    6.3372    3.2320    0.0000 C   0  0  0  0  0  0  0  0  0
    6.3372    2.4070    0.0000 C   0  0  0  0  0  0  0  0  0
    1.2254   -5.0180    0.0000 C   0  0  0  0  0  0  0  0  0
  1  2  2  0  0  0  0
  1  3  2  0  0  0  0
  1  4  1  0  0  0  0
  1 32  1  0  0  0  0
  4  5  1  0  0  0  0
  5  6  4  0  0  0  0
  5 10  4  0  0  0  0
  6  7  4  0  0  0  0
  7  8  4  0  0  0  0
  7 11  1  0  0  0  0
  8  9  4  0  0  0  0
  9 10  4  0  0  0  0
 11 12  1  0  0  0  0
 12 13  1  0  0  0  0
 12 17  1  0  0  0  0
 13 14  1  0  0  0  0
 14 15  1  0  0  0  0
 15 16  1  0  0  0  0
 15 18  1  0  0  0  0
 16 17  1  0  0  0  0
 18 19  1  0  0  0  0
 19 20  1  0  0  0  0
 20 21  1  0  0  0  0
 21 22  4  0  0  0  0
 21 31  4  0  0  0  0
 22 23  4  0  0  0  0
 22 27  4  0  0  0  0
 23 24  4  0  0  0  0
 23 29  4  0  0  0  0
 24 25  4  0  0  0  0
 25 26  4  0  0  0  0
 25 28  1  0  0  0  0
 26 27  4  0  0  0  0
 29 30  4  0  0  0  0
 30 31  4  0  0  0  0
M  END
>  <Name_Molregno>
486945

>  <5-HT1A>
8.6

>  <5-HT1B>
8.7

>  <5-HT1D>
9.3

>  <5-HT1E>
5.6

>  <5-HT2A>
5.6

>  <5-HT2C>
6

>  <5-HT5>
5.9

>  <5-HT6>
5

>  <5-HT7>
7.7

>  <Alpha-1B>
6.7

>  <Beta-2>
6.3

>  <DOPAMINE D2>
7.2

>  <Serotonin transporter>
5.8

$$$$
492943
  Marvin  02231216192D 0   1.00000     0.00000     0

 31 35  0  0  0  0  0  0  0  0999 V2000
   -4.3867    1.0093    0.0000 F   0  0  0  0  0  0  0  0  0
   -3.6723    0.5968    0.0000 C   0  0  0  0  0  0  0  0  0
   -3.6723   -0.2282    0.0000 C   0  0  0  0  0  0  0  0  0
   -2.9578   -0.6407    0.0000 C   0  0  0  0  0  0  0  0  0
   -2.9578   -1.4657    0.0000 N   0  0  0  0  0  0  0  0  0
   -2.2433   -1.8782    0.0000 C   0  0  0  0  0  0  0  0  0
   -2.2433   -2.7032    0.0000 C   0  0  0  0  0  0  0  0  0
   -2.9578   -3.1157    0.0000 N   0  0  0  0  0  0  0  0  0
   -3.6723   -2.7032    0.0000 C   0  0  0  0  0  0  0  0  0
   -3.6723   -1.8782    0.0000 C   0  0  0  0  0  0  0  0  0
   -2.9578   -3.9407    0.0000 C   0  0  0  0  0  0  0  0  0
   -3.6723   -4.3532    0.0000 C   0  0  0  0  0  0  0  0  0
   -3.6723   -5.1782    0.0000 C   0  0  0  0  0  0  0  0  0
   -2.9578   -5.5907    0.0000 C   0  0  0  0  0  0  0  0  0
   -2.9578   -6.4157    0.0000 C   0  0  0  0  0  0  0  0  0
   -2.2433   -6.8282    0.0000 N   0  0  0  0  0  0  0  0  0
   -2.2433   -7.6532    0.0000 C   0  0  0  0  0  0  0  0  0
   -1.5288   -8.0657    0.0000 O   0  0  0  0  0  0  0  0  0
   -2.9578   -8.0657    0.0000 C   0  0  0  0  0  0  0  0  0
   -3.6723   -7.6532    0.0000 O   0  0  0  0  0  0  0  0  0
   -3.6723   -6.8282    0.0000 C   0  0  0  0  0  0  0  0  0
   -4.3867   -6.4157    0.0000 C   0  0  0  0  0  0  0  0  0
   -4.3867   -5.5907    0.0000 C   0  0  0  0  0  0  0  0  0
   -2.2433   -0.2282    0.0000 C   0  0  0  0  0  0  0  0  0
   -2.2433    0.5968    0.0000 C   0  0  0  0  0  0  0  0  0
   -1.5288    1.0093    0.0000 N   0  0  0  0  0  0  0  0  0
   -0.8144    0.5968    0.0000 C   0  0  0  0  0  0  0  0  0
   -0.8144   -0.2282    0.0000 C   0  0  0  0  0  0  0  0  0
   -1.5288   -0.6407    0.0000 C   0  0  0  0  0  0  0  0  0
   -0.0999    1.0093    0.0000 C   0  0  0  0  0  0  0  0  0
   -2.9578    1.0093    0.0000 C   0  0  0  0  0  0  0  0  0
  1  2  1  0  0  0  0
  2  3  4  0  0  0  0
  2 31  4  0  0  0  0
  3  4  4  0  0  0  0
  4  5  1  0  0  0  0
  4 24  4  0  0  0  0
  5  6  1  0  0  0  0
  5 10  1  0  0  0  0
  6  7  1  0  0  0  0
  7  8  1  0  0  0  0
  8  9  1  0  0  0  0
  8 11  1  0  0  0  0
  9 10  1  0  0  0  0
 11 12  1  0  0  0  0
 12 13  1  0  0  0  0
 13 14  4  0  0  0  0
 13 23  4  0  0  0  0
 14 15  4  0  0  0  0
 15 16  1  0  0  0  0
 15 21  4  0  0  0  0
 16 17  1  0  0  0  0
 17 18  2  0  0  0  0
 17 19  1  0  0  0  0
 19 20  1  0  0  0  0
 20 21  1  0  0  0  0
 21 22  4  0  0  0  0
 22 23  4  0  0  0  0
 24 25  4  0  0  0  0
 24 29  4  0  0  0  0
 25 26  4  0  0  0  0
 25 31  4  0  0  0  0
 26 27  4  0  0  0  0
 27 28  4  0  0  0  0
 27 30  1  0  0  0  0
 28 29  4  0  0  0  0
M  END
>  <Name_Molregno>
492943

>  <5-HT1A>
8.6

>  <5-HT1B>
8.6

>  <5-HT1D>
9.7

>  <Serotonin transporter>
9.1

$$$$
492944
  Marvin  02231216192D 0   1.00000     0.00000     0

 31 35  0  0  0  0  0  0  0  0999 V2000
   -4.3867    1.0093    0.0000 Cl  0  0  0  0  0  0  0  0  0
   -3.6723    0.5968    0.0000 C   0  0  0  0  0  0  0  0  0
   -3.6723   -0.2282    0.0000 C   0  0  0  0  0  0  0  0  0
   -2.9578   -0.6407    0.0000 C   0  0  0  0  0  0  0  0  0
   -2.9578   -1.4657    0.0000 N   0  0  0  0  0  0  0  0  0
   -2.2433   -1.8782    0.0000 C   0  0  0  0  0  0  0  0  0
   -2.2433   -2.7032    0.0000 C   0  0  0  0  0  0  0  0  0
   -2.9578   -3.1157    0.0000 N   0  0  0  0  0  0  0  0  0
   -3.6723   -2.7032    0.0000 C   0  0  0  0  0  0  0  0  0
   -3.6723   -1.8782    0.0000 C   0  0  0  0  0  0  0  0  0
   -2.9578   -3.9407    0.0000 C   0  0  0  0  0  0  0  0  0
   -3.6723   -4.3532    0.0000 C   0  0  0  0  0  0  0  0  0
   -3.6723   -5.1782    0.0000 C   0  0  0  0  0  0  0  0  0
   -2.9578   -5.5907    0.0000 C   0  0  0  0  0  0  0  0  0
   -2.9578   -6.4157    0.0000 C   0  0  0  0  0  0  0  0  0
   -2.2433   -6.8282    0.0000 N   0  0  0  0  0  0  0  0  0
   -2.2433   -7.6532    0.0000 C   0  0  0  0  0  0  0  0  0
   -1.5288   -8.0657    0.0000 O   0  0  0  0  0  0  0  0  0
   -2.9578   -8.0657    0.0000 C   0  0  0  0  0  0  0  0  0
   -3.6723   -7.6532    0.0000 O   0  0  0  0  0  0  0  0  0
   -3.6723   -6.8282    0.0000 C   0  0  0  0  0  0  0  0  0
   -4.3867   -6.4157    0.0000 C   0  0  0  0  0  0  0  0  0
   -4.3867   -5.5907    0.0000 C   0  0  0  0  0  0  0  0  0
   -2.2433   -0.2282    0.0000 C   0  0  0  0  0  0  0  0  0
   -2.2433    0.5968    0.0000 C   0  0  0  0  0  0  0  0  0
   -1.5288    1.0093    0.0000 N   0  0  0  0  0  0  0  0  0
   -0.8144    0.5968    0.0000 C   0  0  0  0  0  0  0  0  0
   -0.8144   -0.2282    0.0000 C   0  0  0  0  0  0  0  0  0
   -1.5288   -0.6407    0.0000 C   0  0  0  0  0  0  0  0  0
   -0.0999    1.0093    0.0000 C   0  0  0  0  0  0  0  0  0
   -2.9578    1.0093    0.0000 C   0  0  0  0  0  0  0  0  0
  1  2  1  0  0  0  0
  2  3  4  0  0  0  0
  2 31  4  0  0  0  0
  3  4  4  0  0  0  0
  4  5  1  0  0  0  0
  4 24  4  0  0  0  0
  5  6  1  0  0  0  0
  5 10  1  0  0  0  0
  6  7  1  0  0  0  0
  7  8  1  0  0  0  0
  8  9  1  0  0  0  0
  8 11  1  0  0  0  0
  9 10  1  0  0  0  0
 11 12  1  0  0  0  0
 12 13  1  0  0  0  0
 13 14  4  0  0  0  0
 13 23  4  0  0  0  0
 14 15  4  0  0  0  0
 15 16  1  0  0  0  0
 15 21  4  0  0  0  0
 16 17  1  0  0  0  0
 17 18  2  0  0  0  0
 17 19  1  0  0  0  0
 19 20  1  0  0  0  0
 20 21  1  0  0  0  0
 21 22  4  0  0  0  0
 22 23  4  0  0  0  0
 24 25  4  0  0  0  0
 24 29  4  0  0  0  0
 25 26  4  0  0  0  0
 25 31  4  0  0  0  0
 26 27  4  0  0  0  0
 27 28  4  0  0  0  0
 27 30  1  0  0  0  0
 28 29  4  0  0  0  0
M  END
>  <Name_Molregno>
492944

>  <5-HT1A>
9.5

>  <5-HT1B>
9.3

>  <5-HT1D>
9.8

>  <Serotonin transporter>
9.1

$$$$
492945
  Marvin  02231216192D 0   1.00000     0.00000     0

 31 35  0  0  0  0  0  0  0  0999 V2000
   -4.2014   -4.1357    0.0000 O   0  0  0  0  0  0  0  0  0
   -4.9159   -4.5482    0.0000 C   0  0  0  0  0  0  0  0  0
   -5.6304   -4.1357    0.0000 C   0  0  0  0  0  0  0  0  0
   -6.3448   -4.5482    0.0000 O   0  0  0  0  0  0  0  0  0
   -5.6304   -3.3107    0.0000 N   0  0  0  0  0  0  0  0  0
   -4.9159   -2.8982    0.0000 C   0  0  0  0  0  0  0  0  0
   -4.9159   -2.0732    0.0000 C   0  0  0  0  0  0  0  0  0
   -4.2014   -1.6607    0.0000 C   0  0  0  0  0  0  0  0  0
   -3.4870   -2.0732    0.0000 C   0  0  0  0  0  0  0  0  0
   -3.4870   -2.8982    0.0000 C   0  0  0  0  0  0  0  0  0
   -4.2014   -3.3107    0.0000 C   0  0  0  0  0  0  0  0  0
   -4.2014   -0.8357    0.0000 C   0  0  0  0  0  0  0  0  0
   -4.9159   -0.4232    0.0000 C   0  0  0  0  0  0  0  0  0
   -4.9159    0.4018    0.0000 N   0  0  0  0  0  0  0  0  0
   -5.6304    0.8143    0.0000 C   0  0  0  0  0  0  0  0  0
   -5.6304    1.6393    0.0000 C   0  0  0  0  0  0  0  0  0
   -4.9159    2.0518    0.0000 N   0  0  0  0  0  0  0  0  0
   -4.2014    1.6393    0.0000 C   0  0  0  0  0  0  0  0  0
   -4.2014    0.8143    0.0000 C   0  0  0  0  0  0  0  0  0
   -4.9159    2.8768    0.0000 C   0  0  0  0  0  0  0  0  0
   -5.6304    3.2893    0.0000 C   0  0  0  0  0  0  0  0  0
   -5.6304    4.1143    0.0000 C   0  0  0  0  0  0  0  0  0
   -4.9159    4.5268    0.0000 C   0  0  0  0  0  0  0  0  0
   -4.2014    4.1143    0.0000 C   0  0  0  0  0  0  0  0  0
   -3.4870    4.5268    0.0000 N   0  0  0  0  0  0  0  0  0
   -2.7725    4.1143    0.0000 C   0  0  0  0  0  0  0  0  0
   -2.7725    3.2893    0.0000 C   0  0  0  0  0  0  0  0  0
   -3.4870    2.8768    0.0000 C   0  0  0  0  0  0  0  0  0
   -4.2014    3.2893    0.0000 C   0  0  0  0  0  0  0  0  0
   -2.0580    4.5268    0.0000 C   0  0  0  0  0  0  0  0  0
   -6.3448    4.5268    0.0000 C   0  0  0  0  0  0  0  0  0
  1  2  1  0  0  0  0
  1 11  1  0  0  0  0
  2  3  1  0  0  0  0
  3  4  2  0  0  0  0
  3  5  1  0  0  0  0
  5  6  1  0  0  0  0
  6  7  4  0  0  0  0
  6 11  4  0  0  0  0
  7  8  4  0  0  0  0
  8  9  4  0  0  0  0
  8 12  1  0  0  0  0
  9 10  4  0  0  0  0
 10 11  4  0  0  0  0
 12 13  1  0  0  0  0
 13 14  1  0  0  0  0
 14 15  1  0  0  0  0
 14 19  1  0  0  0  0
 15 16  1  0  0  0  0
 16 17  1  0  0  0  0
 17 18  1  0  0  0  0
 17 20  1  0  0  0  0
 18 19  1  0  0  0  0
 20 21  4  0  0  0  0
 20 29  4  0  0  0  0
 21 22  4  0  0  0  0
 22 23  4  0  0  0  0
 22 31  1  0  0  0  0
 23 24  4  0  0  0  0
 24 25  4  0  0  0  0
 24 29  4  0  0  0  0
 25 26  4  0  0  0  0
 26 27  4  0  0  0  0
 26 30  1  0  0  0  0
 27 28  4  0  0  0  0
 28 29  4  0  0  0  0
M  END
>  <Name_Molregno>
492945

>  <5-HT1A>
9.9

>  <5-HT1B>
9.2

>  <5-HT1D>
9.4

>  <Serotonin transporter>
7.8

$$$$
492946
  Marvin  02231216192D 0   1.00000     0.00000     0

 35 40  0  0  0  0  0  0  0  0999 V2000
   -5.2541   -4.1412    0.0000 O   0  0  0  0  0  0  0  0  0
   -5.9686   -4.5537    0.0000 C   0  0  0  0  0  0  0  0  0
   -6.6830   -4.1412    0.0000 C   0  0  0  0  0  0  0  0  0
   -7.3975   -4.5537    0.0000 O   0  0  0  0  0  0  0  0  0
   -6.6830   -3.3162    0.0000 N   0  0  0  0  0  0  0  0  0
   -5.9686   -2.9037    0.0000 C   0  0  0  0  0  0  0  0  0
   -5.9686   -2.0787    0.0000 C   0  0  0  0  0  0  0  0  0
   -5.2541   -1.6662    0.0000 C   0  0  0  0  0  0  0  0  0
   -4.5396   -2.0787    0.0000 C   0  0  0  0  0  0  0  0  0
   -4.5396   -2.9037    0.0000 C   0  0  0  0  0  0  0  0  0
   -5.2541   -3.3162    0.0000 C   0  0  0  0  0  0  0  0  0
   -5.2541   -0.8412    0.0000 C   0  0  0  0  0  0  0  0  0
   -5.9686   -0.4287    0.0000 C   0  0  0  0  0  0  0  0  0
   -5.9686    0.3963    0.0000 N   0  0  0  0  0  0  0  0  0
   -6.6830    0.8088    0.0000 C   0  0  0  0  0  0  0  0  0
   -6.6830    1.6338    0.0000 C   0  0  0  0  0  0  0  0  0
   -5.9686    2.0463    0.0000 N   0  0  0  0  0  0  0  0  0
   -5.2541    1.6338    0.0000 C   0  0  0  0  0  0  0  0  0
   -5.2541    0.8088    0.0000 C   0  0  0  0  0  0  0  0  0
   -5.9686    2.8713    0.0000 C   0  0  0  0  0  0  0  0  0
   -5.2541    3.2838    0.0000 C   0  0  0  0  0  0  0  0  0
   -5.2541    4.1088    0.0000 C   0  0  0  0  0  0  0  0  0
   -4.5396    4.5213    0.0000 N   0  0  0  0  0  0  0  0  0
   -3.8251    4.1088    0.0000 C   0  0  0  0  0  0  0  0  0
   -3.8251    3.2838    0.0000 C   0  0  0  0  0  0  0  0  0
   -4.5396    2.8713    0.0000 C   0  0  0  0  0  0  0  0  0
   -3.1107    4.5213    0.0000 C   0  0  0  0  0  0  0  0  0
   -3.1107    5.3463    0.0000 C   0  0  0  0  0  0  0  0  0
   -2.3962    5.7588    0.0000 C   0  0  0  0  0  0  0  0  0
   -1.6817    5.3463    0.0000 C   0  0  0  0  0  0  0  0  0
   -1.6817    4.5213    0.0000 C   0  0  0  0  0  0  0  0  0
   -2.3962    4.1088    0.0000 C   0  0  0  0  0  0  0  0  0
   -5.9686    4.5213    0.0000 C   0  0  0  0  0  0  0  0  0
   -6.6830    4.1088    0.0000 C   0  0  0  0  0  0  0  0  0
   -6.6830    3.2838    0.0000 C   0  0  0  0  0  0  0  0  0
  1  2  1  0  0  0  0
  1 11  1  0  0  0  0
  2  3  1  0  0  0  0
  3  4  2  0  0  0  0
  3  5  1  0  0  0  0
  5  6  1  0  0  0  0
  6  7  4  0  0  0  0
  6 11  4  0  0  0  0
  7  8  4  0  0  0  0
  8  9  4  0  0  0  0
  8 12  1  0  0  0  0
  9 10  4  0  0  0  0
 10 11  4  0  0  0  0
 12 13  1  0  0  0  0
 13 14  1  0  0  0  0
 14 15  1  0  0  0  0
 14 19  1  0  0  0  0
 15 16  1  0  0  0  0
 16 17  1  0  0  0  0
 17 18  1  0  0  0  0
 17 20  1  0  0  0  0
 18 19  1  0  0  0  0
 20 21  4  0  0  0  0
 20 35  4  0  0  0  0
 21 22  4  0  0  0  0
 21 26  4  0  0  0  0
 22 23  4  0  0  0  0
 22 33  4  0  0  0  0
 23 24  4  0  0  0  0
 24 25  4  0  0  0  0
 24 27  1  0  0  0  0
 25 26  4  0  0  0  0
 27 28  4  0  0  0  0
 27 32  4  0  0  0  0
 28 29  4  0  0  0  0
 29 30  4  0  0  0  0
 30 31  4  0  0  0  0
 31 32  4  0  0  0  0
 33 34  4  0  0  0  0
 34 35  4  0  0  0  0
M  END
>  <Name_Molregno>
492946

>  <5-HT1A>
9.2

>  <5-HT1B>
9.5

>  <5-HT1D>
7.9

>  <Serotonin transporter>
9.8

$$$$
493040
  Marvin  02231216192D 0   1.00000     0.00000     0

 29 33  0  0  0  0  0  0  0  0999 V2000
   -5.1415    4.8686    0.0000 O   0  0  0  0  0  0  0  0  0
   -4.4271    5.2811    0.0000 C   0  0  0  0  0  0  0  0  0
   -3.7126    4.8686    0.0000 C   0  0  0  0  0  0  0  0  0
   -2.9981    5.2811    0.0000 O   0  0  0  0  0  0  0  0  0
   -3.7126    4.0436    0.0000 N   0  0  0  0  0  0  0  0  0
   -4.4271    3.6311    0.0000 C   0  0  0  0  0  0  0  0  0
   -4.4271    2.8061    0.0000 C   0  0  0  0  0  0  0  0  0
   -5.1415    2.3936    0.0000 C   0  0  0  0  0  0  0  0  0
   -5.8560    2.8061    0.0000 C   0  0  0  0  0  0  0  0  0
   -5.8560    3.6311    0.0000 C   0  0  0  0  0  0  0  0  0
   -5.1415    4.0436    0.0000 C   0  0  0  0  0  0  0  0  0
   -5.1415    1.5686    0.0000 C   0  0  0  0  0  0  0  0  0
   -4.4271    1.1561    0.0000 C   0  0  0  0  0  0  0  0  0
   -4.4271    0.3311    0.0000 N   0  0  0  0  0  0  0  0  0
   -3.7126   -0.0814    0.0000 C   0  0  0  0  0  0  0  0  0
   -3.7126   -0.9064    0.0000 C   0  0  0  0  0  0  0  0  0
   -4.4271   -1.3189    0.0000 N   0  0  0  0  0  0  0  0  0
   -5.1415   -0.9064    0.0000 C   0  0  0  0  0  0  0  0  0
   -5.1415   -0.0814    0.0000 C   0  0  0  0  0  0  0  0  0
   -4.4271   -2.1439    0.0000 C   0  0  0  0  0  0  0  0  0
   -5.1415   -2.5564    0.0000 N   0  0  0  0  0  0  0  0  0
   -5.1415   -3.3814    0.0000 C   0  0  0  0  0  0  0  0  0
   -4.4271   -3.7939    0.0000 C   0  0  0  0  0  0  0  0  0
   -3.7126   -3.3814    0.0000 C   0  0  0  0  0  0  0  0  0
   -3.7126   -2.5564    0.0000 C   0  0  0  0  0  0  0  0  0
   -2.9981   -2.1439    0.0000 C   0  0  0  0  0  0  0  0  0
   -2.2837   -2.5564    0.0000 C   0  0  0  0  0  0  0  0  0
   -2.2837   -3.3814    0.0000 C   0  0  0  0  0  0  0  0  0
   -2.9981   -3.7939    0.0000 C   0  0  0  0  0  0  0  0  0
  1  2  1  0  0  0  0
  1 11  1  0  0  0  0
  2  3  1  0  0  0  0
  3  4  2  0  0  0  0
  3  5  1  0  0  0  0
  5  6  1  0  0  0  0
  6  7  4  0  0  0  0
  6 11  4  0  0  0  0
  7  8  4  0  0  0  0
  8  9  4  0  0  0  0
  8 12  1  0  0  0  0
  9 10  4  0  0  0  0
 10 11  4  0  0  0  0
 12 13  1  0  0  0  0
 13 14  1  0  0  0  0
 14 15  1  0  0  0  0
 14 19  1  0  0  0  0
 15 16  1  0  0  0  0
 16 17  1  0  0  0  0
 17 18  1  0  0  0  0
 17 20  1  0  0  0  0
 18 19  1  0  0  0  0
 20 21  4  0  0  0  0
 20 25  4  0  0  0  0
 21 22  4  0  0  0  0
 22 23  4  0  0  0  0
 23 24  4  0  0  0  0
 24 25  4  0  0  0  0
 24 29  4  0  0  0  0
 25 26  4  0  0  0  0
 26 27  4  0  0  0  0
 27 28  4  0  0  0  0
 28 29  4  0  0  0  0
M  END
>  <Name_Molregno>
493040

>  <5-HT1A>
7

>  <5-HT1B>
9.1

>  <5-HT1D>
9.6

>  <Serotonin transporter>
9.1

$$$$
493041
  Marvin  02231216192D 0   1.00000     0.00000     0

 29 33  0  0  0  0  0  0  0  0999 V2000
   -5.1415    4.8686    0.0000 O   0  0  0  0  0  0  0  0  0
   -4.4271    5.2811    0.0000 C   0  0  0  0  0  0  0  0  0
   -3.7126    4.8686    0.0000 C   0  0  0  0  0  0  0  0  0
   -2.9981    5.2811    0.0000 O   0  0  0  0  0  0  0  0  0
   -3.7126    4.0436    0.0000 N   0  0  0  0  0  0  0  0  0
   -4.4271    3.6311    0.0000 C   0  0  0  0  0  0  0  0  0
   -4.4271    2.8061    0.0000 C   0  0  0  0  0  0  0  0  0
   -5.1415    2.3936    0.0000 C   0  0  0  0  0  0  0  0  0
   -5.8560    2.8061    0.0000 C   0  0  0  0  0  0  0  0  0
   -5.8560    3.6311    0.0000 C   0  0  0  0  0  0  0  0  0
   -5.1415    4.0436    0.0000 C   0  0  0  0  0  0  0  0  0
   -5.1415    1.5686    0.0000 C   0  0  0  0  0  0  0  0  0
   -4.4271    1.1561    0.0000 C   0  0  0  0  0  0  0  0  0
   -4.4271    0.3311    0.0000 N   0  0  0  0  0  0  0  0  0
   -3.7126   -0.0814    0.0000 C   0  0  0  0  0  0  0  0  0
   -3.7126   -0.9064    0.0000 C   0  0  0  0  0  0  0  0  0
   -4.4271   -1.3189    0.0000 N   0  0  0  0  0  0  0  0  0
   -5.1415   -0.9064    0.0000 C   0  0  0  0  0  0  0  0  0
   -5.1415   -0.0814    0.0000 C   0  0  0  0  0  0  0  0  0
   -4.4271   -2.1439    0.0000 C   0  0  0  0  0  0  0  0  0
   -3.7126   -2.5564    0.0000 C   0  0  0  0  0  0  0  0  0
   -2.9981   -2.1439    0.0000 N   0  0  0  0  0  0  0  0  0
   -2.2837   -2.5564    0.0000 C   0  0  0  0  0  0  0  0  0
   -2.2837   -3.3814    0.0000 C   0  0  0  0  0  0  0  0  0
   -2.9981   -3.7939    0.0000 C   0  0  0  0  0  0  0  0  0
   -3.7126   -3.3814    0.0000 C   0  0  0  0  0  0  0  0  0
   -4.4271   -3.7939    0.0000 C   0  0  0  0  0  0  0  0  0
   -5.1415   -3.3814    0.0000 C   0  0  0  0  0  0  0  0  0
   -5.1415   -2.5564    0.0000 C   0  0  0  0  0  0  0  0  0
  1  2  1  0  0  0  0
  1 11  1  0  0  0  0
  2  3  1  0  0  0  0
  3  4  2  0  0  0  0
  3  5  1  0  0  0  0
  5  6  1  0  0  0  0
  6  7  4  0  0  0  0
  6 11  4  0  0  0  0
  7  8  4  0  0  0  0
  8  9  4  0  0  0  0
  8 12  1  0  0  0  0
  9 10  4  0  0  0  0
 10 11  4  0  0  0  0
 12 13  1  0  0  0  0
 13 14  1  0  0  0  0
 14 15  1  0  0  0  0
 14 19  1  0  0  0  0
 15 16  1  0  0  0  0
 16 17  1  0  0  0  0
 17 18  1  0  0  0  0
 17 20  1  0  0  0  0
 18 19  1  0  0  0  0
 20 21  4  0  0  0  0
 20 29  4  0  0  0  0
 21 22  4  0  0  0  0
 21 26  4  0  0  0  0
 22 23  4  0  0  0  0
 23 24  4  0  0  0  0
 24 25  4  0  0  0  0
 25 26  4  0  0  0  0
 26 27  4  0  0  0  0
 27 28  4  0  0  0  0
 28 29  4  0  0  0  0
M  END
>  <Name_Molregno>
493041

>  <5-HT1A>
8.8

>  <5-HT1B>
7.5

>  <5-HT1D>
9.6

>  <Serotonin transporter>
8

$$$$
493042
  Marvin  02231216192D 0   1.00000     0.00000     0

 30 34  0  0  0  0  0  0  0  0999 V2000
   -4.1372   -4.0076    0.0000 O   0  0  0  0  0  0  0  0  0
   -4.8517   -4.4201    0.0000 C   0  0  0  0  0  0  0  0  0
   -5.5661   -4.0076    0.0000 C   0  0  0  0  0  0  0  0  0
   -6.2806   -4.4201    0.0000 O   0  0  0  0  0  0  0  0  0
   -5.5661   -3.1826    0.0000 N   0  0  0  0  0  0  0  0  0
   -4.8517   -2.7701    0.0000 C   0  0  0  0  0  0  0  0  0
   -4.8517   -1.9451    0.0000 C   0  0  0  0  0  0  0  0  0
   -4.1372   -1.5326    0.0000 C   0  0  0  0  0  0  0  0  0
   -3.4227   -1.9451    0.0000 C   0  0  0  0  0  0  0  0  0
   -3.4227   -2.7701    0.0000 C   0  0  0  0  0  0  0  0  0
   -4.1372   -3.1826    0.0000 C   0  0  0  0  0  0  0  0  0
   -4.1372   -0.7076    0.0000 C   0  0  0  0  0  0  0  0  0
   -4.8517   -0.2951    0.0000 C   0  0  0  0  0  0  0  0  0
   -4.8517    0.5299    0.0000 N   0  0  0  0  0  0  0  0  0
   -5.5661    0.9424    0.0000 C   0  0  0  0  0  0  0  0  0
   -5.5661    1.7674    0.0000 C   0  0  0  0  0  0  0  0  0
   -4.8517    2.1799    0.0000 N   0  0  0  0  0  0  0  0  0
   -4.1372    1.7674    0.0000 C   0  0  0  0  0  0  0  0  0
   -4.1372    0.9424    0.0000 C   0  0  0  0  0  0  0  0  0
   -4.8517    3.0049    0.0000 C   0  0  0  0  0  0  0  0  0
   -4.1372    3.4174    0.0000 C   0  0  0  0  0  0  0  0  0
   -4.1372    4.2424    0.0000 C   0  0  0  0  0  0  0  0  0
   -3.4227    4.6549    0.0000 N   0  0  0  0  0  0  0  0  0
   -2.7083    4.2424    0.0000 C   0  0  0  0  0  0  0  0  0
   -2.7083    3.4174    0.0000 N   0  0  0  0  0  0  0  0  0
   -3.4227    3.0049    0.0000 C   0  0  0  0  0  0  0  0  0
   -1.9938    4.6549    0.0000 C   0  0  0  0  0  0  0  0  0
   -4.8517    4.6549    0.0000 C   0  0  0  0  0  0  0  0  0
   -5.5661    4.2424    0.0000 C   0  0  0  0  0  0  0  0  0
   -5.5661    3.4174    0.0000 C   0  0  0  0  0  0  0  0  0
  1  2  1  0  0  0  0
  1 11  1  0  0  0  0
  2  3  1  0  0  0  0
  3  4  2  0  0  0  0
  3  5  1  0  0  0  0
  5  6  1  0  0  0  0
  6  7  4  0  0  0  0
  6 11  4  0  0  0  0
  7  8  4  0  0  0  0
  8  9  4  0  0  0  0
  8 12  1  0  0  0  0
  9 10  4  0  0  0  0
 10 11  4  0  0  0  0
 12 13  1  0  0  0  0
 13 14  1  0  0  0  0
 14 15  1  0  0  0  0
 14 19  1  0  0  0  0
 15 16  1  0  0  0  0
 16 17  1  0  0  0  0
 17 18  1  0  0  0  0
 17 20  1  0  0  0  0
 18 19  1  0  0  0  0
 20 21  4  0  0  0  0
 20 30  4  0  0  0  0
 21 22  4  0  0  0  0
 21 26  4  0  0  0  0
 22 23  4  0  0  0  0
 22 28  4  0  0  0  0
 23 24  4  0  0  0  0
 24 25  4  0  0  0  0
 24 27  1  0  0  0  0
 25 26  4  0  0  0  0
 28 29  4  0  0  0  0
 29 30  4  0  0  0  0
M  END
>  <Name_Molregno>
493042

>  <5-HT1A>
9.4

>  <5-HT1B>
9.2

>  <5-HT1D>
9.5

>  <Serotonin transporter>
8.7

$$$$
493093
  Marvin  02231216192D 0   1.00000     0.00000     0

 30 34  0  0  0  0  0  0  0  0999 V2000
   -4.1372   -4.0076    0.0000 O   0  0  0  0  0  0  0  0  0
   -4.8517   -4.4201    0.0000 C   0  0  0  0  0  0  0  0  0
   -5.5661   -4.0076    0.0000 C   0  0  0  0  0  0  0  0  0
   -6.2806   -4.4201    0.0000 O   0  0  0  0  0  0  0  0  0
   -5.5661   -3.1826    0.0000 N   0  0  0  0  0  0  0  0  0
   -4.8517   -2.7701    0.0000 C   0  0  0  0  0  0  0  0  0
   -4.8517   -1.9451    0.0000 C   0  0  0  0  0  0  0  0  0
   -4.1372   -1.5326    0.0000 C   0  0  0  0  0  0  0  0  0
   -3.4227   -1.9451    0.0000 C   0  0  0  0  0  0  0  0  0
   -3.4227   -2.7701    0.0000 C   0  0  0  0  0  0  0  0  0
   -4.1372   -3.1826    0.0000 C   0  0  0  0  0  0  0  0  0
   -4.1372   -0.7076    0.0000 C   0  0  0  0  0  0  0  0  0
   -4.8517   -0.2951    0.0000 C   0  0  0  0  0  0  0  0  0
   -4.8517    0.5299    0.0000 N   0  0  0  0  0  0  0  0  0
   -5.5661    0.9424    0.0000 C   0  0  0  0  0  0  0  0  0
   -5.5661    1.7674    0.0000 C   0  0  0  0  0  0  0  0  0
   -4.8517    2.1799    0.0000 N   0  0  0  0  0  0  0  0  0
   -4.1372    1.7674    0.0000 C   0  0  0  0  0  0  0  0  0
   -4.1372    0.9424    0.0000 C   0  0  0  0  0  0  0  0  0
   -4.8517    3.0049    0.0000 C   0  0  0  0  0  0  0  0  0
   -4.1372    3.4174    0.0000 C   0  0  0  0  0  0  0  0  0
   -4.1372    4.2424    0.0000 C   0  0  0  0  0  0  0  0  0
   -3.4227    4.6549    0.0000 N   0  0  0  0  0  0  0  0  0
   -2.7083    4.2424    0.0000 C   0  0  0  0  0  0  0  0  0
   -2.7083    3.4174    0.0000 C   0  0  0  0  0  0  0  0  0
   -3.4227    3.0049    0.0000 C   0  0  0  0  0  0  0  0  0
   -1.9938    4.6549    0.0000 C   0  0  0  0  0  0  0  0  0
   -4.8517    4.6549    0.0000 C   0  0  0  0  0  0  0  0  0
   -5.5661    4.2424    0.0000 C   0  0  0  0  0  0  0  0  0
   -5.5661    3.4174    0.0000 C   0  0  0  0  0  0  0  0  0
  1  2  1  0  0  0  0
  1 11  1  0  0  0  0
  2  3  1  0  0  0  0
  3  4  2  0  0  0  0
  3  5  1  0  0  0  0
  5  6  1  0  0  0  0
  6  7  4  0  0  0  0
  6 11  4  0  0  0  0
  7  8  4  0  0  0  0
  8  9  4  0  0  0  0
  8 12  1  0  0  0  0
  9 10  4  0  0  0  0
 10 11  4  0  0  0  0
 12 13  1  0  0  0  0
 13 14  1  0  0  0  0
 14 15  1  0  0  0  0
 14 19  1  0  0  0  0
 15 16  1  0  0  0  0
 16 17  1  0  0  0  0
 17 18  1  0  0  0  0
 17 20  1  0  0  0  0
 18 19  1  0  0  0  0
 20 21  4  0  0  0  0
 20 30  4  0  0  0  0
 21 22  4  0  0  0  0
 21 26  4  0  0  0  0
 22 23  4  0  0  0  0
 22 28  4  0  0  0  0
 23 24  4  0  0  0  0
 24 25  4  0  0  0  0
 24 27  1  0  0  0  0
 25 26  4  0  0  0  0
 28 29  4  0  0  0  0
 29 30  4  0  0  0  0
M  END
>  <Name_Molregno>
493093

>  <5-HT1A>
9.8

>  <5-HT1B>
8.53

>  <5-HT1D>
9.75

>  <Serotonin transporter>
8.85

$$$$
493094
  Marvin  02231216192D 0   1.00000     0.00000     0

 31 35  0  0  0  0  0  0  0  0999 V2000
   -3.9736   -3.9914    0.0000 O   0  0  0  0  0  0  0  0  0
   -4.6880   -4.4039    0.0000 C   0  0  0  0  0  0  0  0  0
   -5.4025   -3.9914    0.0000 C   0  0  0  0  0  0  0  0  0
   -6.1170   -4.4039    0.0000 O   0  0  0  0  0  0  0  0  0
   -5.4025   -3.1664    0.0000 N   0  0  0  0  0  0  0  0  0
   -4.6880   -2.7539    0.0000 C   0  0  0  0  0  0  0  0  0
   -4.6880   -1.9289    0.0000 C   0  0  0  0  0  0  0  0  0
   -3.9736   -1.5164    0.0000 C   0  0  0  0  0  0  0  0  0
   -3.2591   -1.9289    0.0000 C   0  0  0  0  0  0  0  0  0
   -3.2591   -2.7539    0.0000 C   0  0  0  0  0  0  0  0  0
   -3.9736   -3.1664    0.0000 C   0  0  0  0  0  0  0  0  0
   -3.9736   -0.6914    0.0000 C   0  0  0  0  0  0  0  0  0
   -4.6880   -0.2789    0.0000 C   0  0  0  0  0  0  0  0  0
   -4.6880    0.5461    0.0000 N   0  0  0  0  0  0  0  0  0
   -5.4025    0.9586    0.0000 C   0  0  0  0  0  0  0  0  0
   -5.4025    1.7836    0.0000 C   0  0  0  0  0  0  0  0  0
   -4.6880    2.1961    0.0000 N   0  0  0  0  0  0  0  0  0
   -3.9736    1.7836    0.0000 C   0  0  0  0  0  0  0  0  0
   -3.9736    0.9586    0.0000 C   0  0  0  0  0  0  0  0  0
   -4.6880    3.0211    0.0000 C   0  0  0  0  0  0  0  0  0
   -3.9736    3.4336    0.0000 C   0  0  0  0  0  0  0  0  0
   -3.9736    4.2586    0.0000 C   0  0  0  0  0  0  0  0  0
   -3.2591    4.6711    0.0000 N   0  0  0  0  0  0  0  0  0
   -2.5446    4.2586    0.0000 C   0  0  0  0  0  0  0  0  0
   -2.5446    3.4336    0.0000 C   0  0  0  0  0  0  0  0  0
   -3.2591    3.0211    0.0000 C   0  0  0  0  0  0  0  0  0
   -1.8301    4.6711    0.0000 C   0  0  0  0  0  0  0  0  0
   -4.6880    4.6711    0.0000 C   0  0  0  0  0  0  0  0  0
   -5.4025    4.2586    0.0000 C   0  0  0  0  0  0  0  0  0
   -5.4025    3.4336    0.0000 C   0  0  0  0  0  0  0  0  0
   -6.1170   -2.7539    0.0000 C   0  0  0  0  0  0  0  0  0
  1  2  1  0  0  0  0
  1 11  1  0  0  0  0
  2  3  1  0  0  0  0
  3  4  2  0  0  0  0
  3  5  1  0  0  0  0
  5  6  1  0  0  0  0
  5 31  1  0  0  0  0
  6  7  4  0  0  0  0
  6 11  4  0  0  0  0
  7  8  4  0  0  0  0
  8  9  4  0  0  0  0
  8 12  1  0  0  0  0
  9 10  4  0  0  0  0
 10 11  4  0  0  0  0
 12 13  1  0  0  0  0
 13 14  1  0  0  0  0
 14 15  1  0  0  0  0
 14 19  1  0  0  0  0
 15 16  1  0  0  0  0
 16 17  1  0  0  0  0
 17 18  1  0  0  0  0
 17 20  1  0  0  0  0
 18 19  1  0  0  0  0
 20 21  4  0  0  0  0
 20 30  4  0  0  0  0
 21 22  4  0  0  0  0
 21 26  4  0  0  0  0
 22 23  4  0  0  0  0
 22 28  4  0  0  0  0
 23 24  4  0  0  0  0
 24 25  4  0  0  0  0
 24 27  1  0  0  0  0
 25 26  4  0  0  0  0
 28 29  4  0  0  0  0
 29 30  4  0  0  0  0
M  END
>  <Name_Molregno>
493094

>  <5-HT1A>
9.75

>  <5-HT1B>
9

>  <5-HT1D>
9.75

>  <Serotonin transporter>
7.7

$$$$
493095
  Marvin  02231216192D 0   1.00000     0.00000     0

 32 36  0  0  0  0  0  0  0  0999 V2000
   -3.8036   -3.9791    0.0000 O   0  0  0  0  0  0  0  0  0
   -4.5180   -4.3916    0.0000 C   0  0  0  0  0  0  0  0  0
   -5.2325   -3.9791    0.0000 C   0  0  0  0  0  0  0  0  0
   -5.9470   -4.3916    0.0000 O   0  0  0  0  0  0  0  0  0
   -5.2325   -3.1541    0.0000 N   0  0  0  0  0  0  0  0  0
   -4.5180   -2.7416    0.0000 C   0  0  0  0  0  0  0  0  0
   -4.5180   -1.9166    0.0000 C   0  0  0  0  0  0  0  0  0
   -3.8036   -1.5041    0.0000 C   0  0  0  0  0  0  0  0  0
   -3.0891   -1.9166    0.0000 C   0  0  0  0  0  0  0  0  0
   -3.0891   -2.7416    0.0000 C   0  0  0  0  0  0  0  0  0
   -3.8036   -3.1541    0.0000 C   0  0  0  0  0  0  0  0  0
   -3.8036   -0.6791    0.0000 C   0  0  0  0  0  0  0  0  0
   -4.5180   -0.2666    0.0000 C   0  0  0  0  0  0  0  0  0
   -4.5180    0.5584    0.0000 N   0  0  0  0  0  0  0  0  0
   -5.2325    0.9709    0.0000 C   0  0  0  0  0  0  0  0  0
   -5.2325    1.7959    0.0000 C   0  0  0  0  0  0  0  0  0
   -4.5180    2.2084    0.0000 N   0  0  0  0  0  0  0  0  0
   -3.8036    1.7959    0.0000 C   0  0  0  0  0  0  0  0  0
   -3.8036    0.9709    0.0000 C   0  0  0  0  0  0  0  0  0
   -4.5180    3.0334    0.0000 C   0  0  0  0  0  0  0  0  0
   -3.8036    3.4459    0.0000 C   0  0  0  0  0  0  0  0  0
   -3.8036    4.2709    0.0000 C   0  0  0  0  0  0  0  0  0
   -3.0891    4.6834    0.0000 N   0  0  0  0  0  0  0  0  0
   -2.3746    4.2709    0.0000 C   0  0  0  0  0  0  0  0  0
   -2.3746    3.4459    0.0000 C   0  0  0  0  0  0  0  0  0
   -3.0891    3.0334    0.0000 C   0  0  0  0  0  0  0  0  0
   -1.6601    4.6834    0.0000 C   0  0  0  0  0  0  0  0  0
   -4.5180    4.6834    0.0000 C   0  0  0  0  0  0  0  0  0
   -5.2325    4.2709    0.0000 C   0  0  0  0  0  0  0  0  0
   -5.2325    3.4459    0.0000 C   0  0  0  0  0  0  0  0  0
   -5.9470   -2.7416    0.0000 C   0  0  0  0  0  0  0  0  0
   -5.9470   -1.9166    0.0000 C   0  0  0  0  0  0  0  0  0
  1  2  1  0  0  0  0
  1 11  1  0  0  0  0
  2  3  1  0  0  0  0
  3  4  2  0  0  0  0
  3  5  1  0  0  0  0
  5  6  1  0  0  0  0
  5 31  1  0  0  0  0
  6  7  4  0  0  0  0
  6 11  4  0  0  0  0
  7  8  4  0  0  0  0
  8  9  4  0  0  0  0
  8 12  1  0  0  0  0
  9 10  4  0  0  0  0
 10 11  4  0  0  0  0
 12 13  1  0  0  0  0
 13 14  1  0  0  0  0
 14 15  1  0  0  0  0
 14 19  1  0  0  0  0
 15 16  1  0  0  0  0
 16 17  1  0  0  0  0
 17 18  1  0  0  0  0
 17 20  1  0  0  0  0
 18 19  1  0  0  0  0
 20 21  4  0  0  0  0
 20 30  4  0  0  0  0
 21 22  4  0  0  0  0
 21 26  4  0  0  0  0
 22 23  4  0  0  0  0
 22 28  4  0  0  0  0
 23 24  4  0  0  0  0
 24 25  4  0  0  0  0
 24 27  1  0  0  0  0
 25 26  4  0  0  0  0
 28 29  4  0  0  0  0
 29 30  4  0  0  0  0
 31 32  1  0  0  0  0
M  END
>  <Name_Molregno>
493095

>  <5-HT1A>
9.3

>  <5-HT1B>
9.1

>  <5-HT1D>
9.4

>  <Serotonin transporter>
7.1

$$$$
493096
  Marvin  02231216192D 0   1.00000     0.00000     0

 31 35  0  0  0  0  0  0  0  0999 V2000
   -4.9717   -4.4129    0.0000 F   0  0  0  0  0  0  0  0  0
   -4.2572   -4.0004    0.0000 C   0  0  0  0  0  0  0  0  0
   -4.2572   -3.1754    0.0000 C   0  0  0  0  0  0  0  0  0
   -3.5427   -2.7629    0.0000 C   0  0  0  0  0  0  0  0  0
   -2.8283   -3.1754    0.0000 C   0  0  0  0  0  0  0  0  0
   -2.8283   -4.0004    0.0000 C   0  0  0  0  0  0  0  0  0
   -2.1138   -4.4129    0.0000 N   0  0  0  0  0  0  0  0  0
   -2.1138   -5.2379    0.0000 C   0  0  0  0  0  0  0  0  0
   -1.3993   -5.6504    0.0000 O   0  0  0  0  0  0  0  0  0
   -2.8283   -5.6504    0.0000 C   0  0  0  0  0  0  0  0  0
   -3.5427   -5.2379    0.0000 O   0  0  0  0  0  0  0  0  0
   -3.5427   -4.4129    0.0000 C   0  0  0  0  0  0  0  0  0
   -3.5427   -1.9379    0.0000 C   0  0  0  0  0  0  0  0  0
   -4.2572   -1.5254    0.0000 C   0  0  0  0  0  0  0  0  0
   -4.2572   -0.7004    0.0000 N   0  0  0  0  0  0  0  0  0
   -4.9717   -0.2879    0.0000 C   0  0  0  0  0  0  0  0  0
   -4.9717    0.5371    0.0000 C   0  0  0  0  0  0  0  0  0
   -4.2572    0.9496    0.0000 N   0  0  0  0  0  0  0  0  0
   -3.5427    0.5371    0.0000 C   0  0  0  0  0  0  0  0  0
   -3.5427   -0.2879    0.0000 C   0  0  0  0  0  0  0  0  0
   -4.2572    1.7746    0.0000 C   0  0  0  0  0  0  0  0  0
   -3.5427    2.1871    0.0000 C   0  0  0  0  0  0  0  0  0
   -3.5427    3.0121    0.0000 C   0  0  0  0  0  0  0  0  0
   -2.8283    3.4246    0.0000 N   0  0  0  0  0  0  0  0  0
   -2.1138    3.0121    0.0000 C   0  0  0  0  0  0  0  0  0
   -2.1138    2.1871    0.0000 C   0  0  0  0  0  0  0  0  0
   -2.8283    1.7746    0.0000 C   0  0  0  0  0  0  0  0  0
   -1.3993    3.4246    0.0000 C   0  0  0  0  0  0  0  0  0
   -4.2572    3.4246    0.0000 C   0  0  0  0  0  0  0  0  0
   -4.9717    3.0121    0.0000 C   0  0  0  0  0  0  0  0  0
   -4.9717    2.1871    0.0000 C   0  0  0  0  0  0  0  0  0
  1  2  1  0  0  0  0
  2  3  4  0  0  0  0
  2 12  4  0  0  0  0
  3  4  4  0  0  0  0
  4  5  4  0  0  0  0
  4 13  1  0  0  0  0
  5  6  4  0  0  0  0
  6  7  1  0  0  0  0
  6 12  4  0  0  0  0
  7  8  1  0  0  0  0
  8  9  2  0  0  0  0
  8 10  1  0  0  0  0
 10 11  1  0  0  0  0
 11 12  1  0  0  0  0
 13 14  1  0  0  0  0
 14 15  1  0  0  0  0
 15 16  1  0  0  0  0
 15 20  1  0  0  0  0
 16 17  1  0  0  0  0
 17 18  1  0  0  0  0
 18 19  1  0  0  0  0
 18 21  1  0  0  0  0
 19 20  1  0  0  0  0
 21 22  4  0  0  0  0
 21 31  4  0  0  0  0
 22 23  4  0  0  0  0
 22 27  4  0  0  0  0
 23 24  4  0  0  0  0
 23 29  4  0  0  0  0
 24 25  4  0  0  0  0
 25 26  4  0  0  0  0
 25 28  1  0  0  0  0
 26 27  4  0  0  0  0
 29 30  4  0  0  0  0
 30 31  4  0  0  0  0
M  END
>  <Name_Molregno>
493096

>  <5-HT1A>
8.9

>  <5-HT1B>
9

>  <5-HT1D>
9.7

>  <Serotonin transporter>
8.9

$$$$
493097
  Marvin  02231216192D 0   1.00000     0.00000     0

 29 33  0  0  0  0  0  0  0  0999 V2000
   -3.3996   -3.9458    0.0000 O   0  0  0  0  0  0  0  0  0
   -4.1140   -4.3583    0.0000 C   0  0  0  0  0  0  0  0  0
   -4.8285   -3.9458    0.0000 C   0  0  0  0  0  0  0  0  0
   -5.5430   -4.3583    0.0000 O   0  0  0  0  0  0  0  0  0
   -4.8285   -3.1208    0.0000 N   0  0  0  0  0  0  0  0  0
   -4.1140   -2.7083    0.0000 C   0  0  0  0  0  0  0  0  0
   -4.1140   -1.8833    0.0000 C   0  0  0  0  0  0  0  0  0
   -3.3996   -1.4708    0.0000 C   0  0  0  0  0  0  0  0  0
   -2.6851   -1.8833    0.0000 C   0  0  0  0  0  0  0  0  0
   -2.6851   -2.7083    0.0000 C   0  0  0  0  0  0  0  0  0
   -3.3996   -3.1208    0.0000 C   0  0  0  0  0  0  0  0  0
   -3.3996   -0.6458    0.0000 C   0  0  0  0  0  0  0  0  0
   -4.1140   -0.2333    0.0000 C   0  0  0  0  0  0  0  0  0
   -4.1140    0.5917    0.0000 N   0  0  0  0  0  0  0  0  0
   -4.8285    1.0042    0.0000 C   0  0  0  0  0  0  0  0  0
   -4.8285    1.8292    0.0000 C   0  0  0  0  0  0  0  0  0
   -4.1140    2.2417    0.0000 N   0  0  0  0  0  0  0  0  0
   -3.3996    1.8292    0.0000 C   0  0  0  0  0  0  0  0  0
   -3.3996    1.0042    0.0000 C   0  0  0  0  0  0  0  0  0
   -4.1140    3.0667    0.0000 C   0  0  0  0  0  0  0  0  0
   -4.8285    3.4792    0.0000 C   0  0  0  0  0  0  0  0  0
   -5.6131    3.2242    0.0000 C   0  0  0  0  0  0  0  0  0
   -6.0980    3.8917    0.0000 C   0  0  0  0  0  0  0  0  0
   -5.6131    4.5591    0.0000 N   0  0  0  0  0  0  0  0  0
   -4.8285    4.3042    0.0000 C   0  0  0  0  0  0  0  0  0
   -4.1140    4.7167    0.0000 C   0  0  0  0  0  0  0  0  0
   -3.3996    4.3042    0.0000 C   0  0  0  0  0  0  0  0  0
   -3.3996    3.4792    0.0000 C   0  0  0  0  0  0  0  0  0
   -6.9230    3.8917    0.0000 C   0  0  0  0  0  0  0  0  0
  1  2  1  0  0  0  0
  1 11  1  0  0  0  0
  2  3  1  0  0  0  0
  3  4  2  0  0  0  0
  3  5  1  0  0  0  0
  5  6  1  0  0  0  0
  6  7  4  0  0  0  0
  6 11  4  0  0  0  0
  7  8  4  0  0  0  0
  8  9  4  0  0  0  0
  8 12  1  0  0  0  0
  9 10  4  0  0  0  0
 10 11  4  0  0  0  0
 12 13  1  0  0  0  0
 13 14  1  0  0  0  0
 14 15  1  0  0  0  0
 14 19  1  0  0  0  0
 15 16  1  0  0  0  0
 16 17  1  0  0  0  0
 17 18  1  0  0  0  0
 17 20  1  0  0  0  0
 18 19  1  0  0  0  0
 20 21  4  0  0  0  0
 20 28  4  0  0  0  0
 21 22  4  0  0  0  0
 21 25  4  0  0  0  0
 22 23  4  0  0  0  0
 23 24  4  0  0  0  0
 23 29  1  0  0  0  0
 24 25  4  0  0  0  0
 25 26  4  0  0  0  0
 26 27  4  0  0  0  0
 27 28  4  0  0  0  0
M  STY  1   1 DAT
M  SAL   1  1  24
M  SDT   1 MRV_IMPLICIT_H                                        
M  SDD   1     0.0000    0.0000    DR    ALL  0       0  
M  SED   1 IMPL_H1
M  END
>  <Name_Molregno>
493097

>  <5-HT1A>
8.5

>  <5-HT1B>
9.4

>  <5-HT1D>
9.7

>  <Serotonin transporter>
8.2

$$$$
493098
  Marvin  02231216192D 0   1.00000     0.00000     0

 30 34  0  0  0  0  0  0  0  0999 V2000
   -0.0811   -0.1808    0.0000 O   0  0  0  0  0  0  0  0  0
    0.0904    0.6262    0.0000 C   0  0  0  0  0  0  0  0  0
   -0.6241    1.0387    0.0000 C   0  0  0  0  0  0  0  0  0
   -1.2372    0.4867    0.0000 C   0  0  0  0  0  0  0  0  0
   -0.9016   -0.2670    0.0000 C   0  0  0  0  0  0  0  0  0
   -0.9103   -1.0920    0.0000 C   0  0  0  0  0  0  0  0  0
   -1.6117   -0.6870    0.0000 C   0  0  0  0  0  0  0  0  0
   -0.6241    1.8637    0.0000 C   0  0  0  0  0  0  0  0  0
    0.0904    2.2762    0.0000 C   0  0  0  0  0  0  0  0  0
    0.8049    1.8637    0.0000 C   0  0  0  0  0  0  0  0  0
    0.8049    1.0387    0.0000 C   0  0  0  0  0  0  0  0  0
    1.5193    0.6262    0.0000 N   0  0  0  0  0  0  0  0  0
    2.2338    1.0387    0.0000 C   0  0  0  0  0  0  0  0  0
    2.9483    0.6262    0.0000 C   0  0  0  0  0  0  0  0  0
    2.9483   -0.1988    0.0000 N   0  0  0  0  0  0  0  0  0
    2.2338   -0.6113    0.0000 C   0  0  0  0  0  0  0  0  0
    1.5193   -0.1988    0.0000 C   0  0  0  0  0  0  0  0  0
    3.6627   -0.6113    0.0000 C   0  0  0  0  0  0  0  0  0
    4.3772   -0.1988    0.0000 C   0  0  0  0  0  0  0  0  0
    5.0917   -0.6113    0.0000 C   0  0  0  0  0  0  0  0  0
    5.8061   -0.1988    0.0000 C   0  0  0  0  0  0  0  0  0
    6.5206   -0.6113    0.0000 C   0  0  0  0  0  0  0  0  0
    7.2351   -0.1988    0.0000 N   0  0  0  0  0  0  0  0  0
    7.9496   -0.6113    0.0000 C   0  0  0  0  0  0  0  0  0
    8.6640   -0.1988    0.0000 O   0  0  0  0  0  0  0  0  0
    7.9496   -1.4363    0.0000 C   0  0  0  0  0  0  0  0  0
    7.2351   -1.8488    0.0000 O   0  0  0  0  0  0  0  0  0
    6.5206   -1.4363    0.0000 C   0  0  0  0  0  0  0  0  0
    5.8061   -1.8488    0.0000 C   0  0  0  0  0  0  0  0  0
    5.0917   -1.4363    0.0000 C   0  0  0  0  0  0  0  0  0
  1  2  1  0  0  0  0
  1  5  1  0  0  0  0
  2  3  4  0  0  0  0
  2 11  4  0  0  0  0
  3  4  1  0  0  0  0
  3  8  4  0  0  0  0
  4  5  1  0  0  0  0
  5  6  1  0  0  0  0
  5  7  1  0  0  0  0
  8  9  4  0  0  0  0
  9 10  4  0  0  0  0
 10 11  4  0  0  0  0
 11 12  1  0  0  0  0
 12 13  1  0  0  0  0
 12 17  1  0  0  0  0
 13 14  1  0  0  0  0
 14 15  1  0  0  0  0
 15 16  1  0  0  0  0
 15 18  1  0  0  0  0
 16 17  1  0  0  0  0
 18 19  1  0  0  0  0
 19 20  1  0  0  0  0
 20 21  4  0  0  0  0
 20 30  4  0  0  0  0
 21 22  4  0  0  0  0
 22 23  1  0  0  0  0
 22 28  4  0  0  0  0
 23 24  1  0  0  0  0
 24 25  2  0  0  0  0
 24 26  1  0  0  0  0
 26 27  1  0  0  0  0
 27 28  1  0  0  0  0
 28 29  4  0  0  0  0
 29 30  4  0  0  0  0
M  END
>  <Name_Molregno>
493098

>  <5-HT1A>
9.3

>  <5-HT1B>
9.2

>  <5-HT1D>
9.8

>  <Serotonin transporter>
8.6

$$$$
493968
  Marvin  02231216192D 0   1.00000     0.00000     0

 31 35  0  0  0  0  0  0  0  0999 V2000
   -1.1517   -2.9537    0.0000 F   0  0  0  0  0  0  0  0  0
   -1.8661   -3.3662    0.0000 C   0  0  0  0  0  0  0  0  0
   -1.8661   -4.1912    0.0000 C   0  0  0  0  0  0  0  0  0
   -2.5806   -4.6037    0.0000 C   0  0  0  0  0  0  0  0  0
   -2.5806   -5.4287    0.0000 O   0  0  0  0  0  0  0  0  0
   -3.2951   -5.8412    0.0000 C   0  0  0  0  0  0  0  0  0
   -4.0096   -5.4287    0.0000 C   0  0  0  0  0  0  0  0  0
   -4.7240   -5.8412    0.0000 O   0  0  0  0  0  0  0  0  0
   -4.0096   -4.6037    0.0000 N   0  0  0  0  0  0  0  0  0
   -3.2951   -4.1912    0.0000 C   0  0  0  0  0  0  0  0  0
   -3.2951   -3.3662    0.0000 C   0  0  0  0  0  0  0  0  0
   -2.5806   -2.9537    0.0000 C   0  0  0  0  0  0  0  0  0
   -2.5806   -2.1287    0.0000 C   0  0  0  0  0  0  0  0  0
   -3.2951   -1.7162    0.0000 C   0  0  0  0  0  0  0  0  0
   -3.2951   -0.8912    0.0000 N   0  0  0  0  0  0  0  0  0
   -4.0096   -0.4787    0.0000 C   0  0  0  0  0  0  0  0  0
   -4.0096    0.3463    0.0000 C   0  0  0  0  0  0  0  0  0
   -3.2951    0.7588    0.0000 N   0  0  0  0  0  0  0  0  0
   -2.5806    0.3463    0.0000 C   0  0  0  0  0  0  0  0  0
   -2.5806   -0.4787    0.0000 C   0  0  0  0  0  0  0  0  0
   -3.2951    1.5838    0.0000 C   0  0  0  0  0  0  0  0  0
   -2.5806    1.9963    0.0000 C   0  0  0  0  0  0  0  0  0
   -2.5806    2.8213    0.0000 C   0  0  0  0  0  0  0  0  0
   -1.8661    3.2338    0.0000 N   0  0  0  0  0  0  0  0  0
   -1.1517    2.8213    0.0000 C   0  0  0  0  0  0  0  0  0
   -1.1517    1.9963    0.0000 C   0  0  0  0  0  0  0  0  0
   -1.8661    1.5838    0.0000 C   0  0  0  0  0  0  0  0  0
   -0.4372    3.2338    0.0000 C   0  0  0  0  0  0  0  0  0
   -3.2951    3.2338    0.0000 C   0  0  0  0  0  0  0  0  0
   -4.0096    2.8213    0.0000 C   0  0  0  0  0  0  0  0  0
   -4.0096    1.9963    0.0000 C   0  0  0  0  0  0  0  0  0
  1  2  1  0  0  0  0
  2  3  4  0  0  0  0
  2 12  4  0  0  0  0
  3  4  4  0  0  0  0
  4  5  1  0  0  0  0
  4 10  4  0  0  0  0
  5  6  1  0  0  0  0
  6  7  1  0  0  0  0
  7  8  2  0  0  0  0
  7  9  1  0  0  0  0
  9 10  1  0  0  0  0
 10 11  4  0  0  0  0
 11 12  4  0  0  0  0
 12 13  1  0  0  0  0
 13 14  1  0  0  0  0
 14 15  1  0  0  0  0
 15 16  1  0  0  0  0
 15 20  1  0  0  0  0
 16 17  1  0  0  0  0
 17 18  1  0  0  0  0
 18 19  1  0  0  0  0
 18 21  1  0  0  0  0
 19 20  1  0  0  0  0
 21 22  4  0  0  0  0
 21 31  4  0  0  0  0
 22 23  4  0  0  0  0
 22 27  4  0  0  0  0
 23 24  4  0  0  0  0
 23 29  4  0  0  0  0
 24 25  4  0  0  0  0
 25 26  4  0  0  0  0
 25 28  1  0  0  0  0
 26 27  4  0  0  0  0
 29 30  4  0  0  0  0
 30 31  4  0  0  0  0
M  END
>  <Name_Molregno>
493968

>  <5-HT1A>
9.6

>  <5-HT1B>
8.8

>  <5-HT1D>
9.6

>  <Serotonin transporter>
9.1

$$$$
493969
  Marvin  02231216192D 0   1.00000     0.00000     0

 31 35  0  0  0  0  0  0  0  0999 V2000
   -1.3349   -2.6603    0.0000 F   0  0  0  0  0  0  0  0  0
   -2.0494   -3.0728    0.0000 C   0  0  0  0  0  0  0  0  0
   -2.0494   -3.8978    0.0000 C   0  0  0  0  0  0  0  0  0
   -1.3349   -4.3103    0.0000 N   0  0  0  0  0  0  0  0  0
   -1.3349   -5.1353    0.0000 C   0  0  0  0  0  0  0  0  0
   -0.6205   -5.5478    0.0000 O   0  0  0  0  0  0  0  0  0
   -2.0494   -5.5478    0.0000 C   0  0  0  0  0  0  0  0  0
   -2.7639   -5.1353    0.0000 O   0  0  0  0  0  0  0  0  0
   -2.7639   -4.3103    0.0000 C   0  0  0  0  0  0  0  0  0
   -3.4784   -3.8978    0.0000 C   0  0  0  0  0  0  0  0  0
   -3.4784   -3.0728    0.0000 C   0  0  0  0  0  0  0  0  0
   -2.7639   -2.6603    0.0000 C   0  0  0  0  0  0  0  0  0
   -2.7639   -1.8353    0.0000 C   0  0  0  0  0  0  0  0  0
   -3.4784   -1.4228    0.0000 C   0  0  0  0  0  0  0  0  0
   -3.4784   -0.5978    0.0000 N   0  0  0  0  0  0  0  0  0
   -4.1928   -0.1853    0.0000 C   0  0  0  0  0  0  0  0  0
   -4.1928    0.6397    0.0000 C   0  0  0  0  0  0  0  0  0
   -3.4784    1.0522    0.0000 N   0  0  0  0  0  0  0  0  0
   -2.7639    0.6397    0.0000 C   0  0  0  0  0  0  0  0  0
   -2.7639   -0.1853    0.0000 C   0  0  0  0  0  0  0  0  0
   -3.4784    1.8772    0.0000 C   0  0  0  0  0  0  0  0  0
   -2.7639    2.2897    0.0000 C   0  0  0  0  0  0  0  0  0
   -2.7639    3.1147    0.0000 C   0  0  0  0  0  0  0  0  0
   -2.0494    3.5272    0.0000 N   0  0  0  0  0  0  0  0  0
   -1.3349    3.1147    0.0000 C   0  0  0  0  0  0  0  0  0
   -1.3349    2.2897    0.0000 C   0  0  0  0  0  0  0  0  0
   -2.0494    1.8772    0.0000 C   0  0  0  0  0  0  0  0  0
   -0.6205    3.5272    0.0000 C   0  0  0  0  0  0  0  0  0
   -3.4784    3.5272    0.0000 C   0  0  0  0  0  0  0  0  0
   -4.1928    3.1147    0.0000 C   0  0  0  0  0  0  0  0  0
   -4.1928    2.2897    0.0000 C   0  0  0  0  0  0  0  0  0
  1  2  1  0  0  0  0
  2  3  4  0  0  0  0
  2 12  4  0  0  0  0
  3  4  1  0  0  0  0
  3  9  4  0  0  0  0
  4  5  1  0  0  0  0
  5  6  2  0  0  0  0
  5  7  1  0  0  0  0
  7  8  1  0  0  0  0
  8  9  1  0  0  0  0
  9 10  4  0  0  0  0
 10 11  4  0  0  0  0
 11 12  4  0  0  0  0
 12 13  1  0  0  0  0
 13 14  1  0  0  0  0
 14 15  1  0  0  0  0
 15 16  1  0  0  0  0
 15 20  1  0  0  0  0
 16 17  1  0  0  0  0
 17 18  1  0  0  0  0
 18 19  1  0  0  0  0
 18 21  1  0  0  0  0
 19 20  1  0  0  0  0
 21 22  4  0  0  0  0
 21 31  4  0  0  0  0
 22 23  4  0  0  0  0
 22 27  4  0  0  0  0
 23 24  4  0  0  0  0
 23 29  4  0  0  0  0
 24 25  4  0  0  0  0
 25 26  4  0  0  0  0
 25 28  1  0  0  0  0
 26 27  4  0  0  0  0
 29 30  4  0  0  0  0
 30 31  4  0  0  0  0
M  END
>  <Name_Molregno>
493969

>  <5-HT1A>
9.6

>  <5-HT1B>
9.4

>  <5-HT1D>
9.4

>  <Serotonin transporter>
8.3

$$$$
493970
  Marvin  02231216192D 0   1.00000     0.00000     0

 31 35  0  0  1  0  0  0  0  0999 V2000
   -4.1659   -4.4827    0.0000 O   0  0  0  0  0  0  0  0  0
   -4.8803   -4.8952    0.0000 C   0  0  0  0  0  0  0  0  0
   -5.5948   -4.4827    0.0000 C   0  0  0  0  0  0  0  0  0
   -6.3093   -4.8952    0.0000 O   0  0  0  0  0  0  0  0  0
   -5.5948   -3.6577    0.0000 N   0  0  0  0  0  0  0  0  0
   -4.8803   -3.2452    0.0000 C   0  0  0  0  0  0  0  0  0
   -4.8803   -2.4202    0.0000 C   0  0  0  0  0  0  0  0  0
   -4.1659   -2.0077    0.0000 C   0  0  0  0  0  0  0  0  0
   -3.4514   -2.4202    0.0000 C   0  0  0  0  0  0  0  0  0
   -3.4514   -3.2452    0.0000 C   0  0  0  0  0  0  0  0  0
   -4.1659   -3.6577    0.0000 C   0  0  0  0  0  0  0  0  0
   -4.1659   -1.1827    0.0000 C   0  0  0  0  0  0  0  0  0
   -4.8803   -0.7702    0.0000 C   0  0  0  0  0  0  0  0  0
   -4.8803    0.0548    0.0000 N   0  0  0  0  0  0  0  0  0
   -5.5948    0.4673    0.0000 C   0  0  0  0  0  0  0  0  0
   -5.5948    1.2923    0.0000 C   0  0  0  0  0  0  0  0  0
   -4.8803    1.7048    0.0000 N   0  0  0  0  0  0  0  0  0
   -4.1659    1.2923    0.0000 C   0  0  0  0  0  0  0  0  0
   -4.1659    0.4673    0.0000 C   0  0  0  0  0  0  0  0  0
   -3.4514    0.0548    0.0000 C   0  0  0  0  0  0  0  0  0
   -4.8803    2.5298    0.0000 C   0  0  0  0  0  0  0  0  0
   -4.1659    2.9423    0.0000 C   0  0  0  0  0  0  0  0  0
   -4.1659    3.7673    0.0000 C   0  0  0  0  0  0  0  0  0
   -3.4514    4.1798    0.0000 N   0  0  0  0  0  0  0  0  0
   -2.7369    3.7673    0.0000 C   0  0  0  0  0  0  0  0  0
   -2.7369    2.9423    0.0000 C   0  0  0  0  0  0  0  0  0
   -3.4514    2.5298    0.0000 C   0  0  0  0  0  0  0  0  0
   -2.0224    4.1798    0.0000 C   0  0  0  0  0  0  0  0  0
   -4.8803    4.1798    0.0000 C   0  0  0  0  0  0  0  0  0
   -5.5948    3.7673    0.0000 C   0  0  0  0  0  0  0  0  0
   -5.5948    2.9423    0.0000 C   0  0  0  0  0  0  0  0  0
  1  2  1  0  0  0  0
  1 11  1  0  0  0  0
  2  3  1  0  0  0  0
  3  4  2  0  0  0  0
  3  5  1  0  0  0  0
  5  6  1  0  0  0  0
  6  7  4  0  0  0  0
  6 11  4  0  0  0  0
  7  8  4  0  0  0  0
  8  9  4  0  0  0  0
  8 12  1  0  0  0  0
  9 10  4  0  0  0  0
 10 11  4  0  0  0  0
 12 13  1  0  0  0  0
 13 14  1  0  0  0  0
 14 15  1  0  0  0  0
 14 19  1  0  0  0  0
 15 16  1  0  0  0  0
 16 17  1  0  0  0  0
 17 18  1  0  0  0  0
 17 21  1  0  0  0  0
 18 19  1  0  0  0  0
 19 20  1  0  0  0  0
 21 22  4  0  0  0  0
 21 31  4  0  0  0  0
 22 23  4  0  0  0  0
 22 27  4  0  0  0  0
 23 24  4  0  0  0  0
 23 29  4  0  0  0  0
 24 25  4  0  0  0  0
 25 26  4  0  0  0  0
 25 28  1  0  0  0  0
 26 27  4  0  0  0  0
 29 30  4  0  0  0  0
 30 31  4  0  0  0  0
M  END
>  <Name_Molregno>
493970

>  <5-HT1A>
8.65

>  <5-HT1B>
8.5

>  <5-HT1D>
9.05

>  <Serotonin transporter>
9.25

$$$$
494025
  Marvin  02231216192D 0   1.00000     0.00000     0

 31 35  0  0  1  0  0  0  0  0999 V2000
   -4.1255   -4.0727    0.0000 O   0  0  0  0  0  0  0  0  0
   -4.8400   -4.4852    0.0000 C   0  0  0  0  0  0  0  0  0
   -5.5545   -4.0727    0.0000 C   0  0  0  0  0  0  0  0  0
   -6.2689   -4.4852    0.0000 O   0  0  0  0  0  0  0  0  0
   -5.5545   -3.2477    0.0000 N   0  0  0  0  0  0  0  0  0
   -4.8400   -2.8352    0.0000 C   0  0  0  0  0  0  0  0  0
   -4.8400   -2.0102    0.0000 C   0  0  0  0  0  0  0  0  0
   -4.1255   -1.5977    0.0000 C   0  0  0  0  0  0  0  0  0
   -3.4111   -2.0102    0.0000 C   0  0  0  0  0  0  0  0  0
   -3.4111   -2.8352    0.0000 C   0  0  0  0  0  0  0  0  0
   -4.1255   -3.2477    0.0000 C   0  0  0  0  0  0  0  0  0
   -4.1255   -0.7727    0.0000 C   0  0  0  0  0  0  0  0  0
   -4.8400   -0.3602    0.0000 C   0  0  0  0  0  0  0  0  0
   -4.8400    0.4648    0.0000 N   0  0  0  0  0  0  0  0  0
   -5.5545    0.8773    0.0000 C   0  0  0  0  0  0  0  0  0
   -5.5545    1.7023    0.0000 C   0  0  0  0  0  0  0  0  0
   -4.8400    2.1148    0.0000 N   0  0  0  0  0  0  0  0  0
   -4.1255    1.7023    0.0000 C   0  0  0  0  0  0  0  0  0
   -4.1255    0.8773    0.0000 C   0  0  0  0  0  0  0  0  0
   -4.8400    2.9398    0.0000 C   0  0  0  0  0  0  0  0  0
   -4.1255    3.3523    0.0000 C   0  0  0  0  0  0  0  0  0
   -4.1255    4.1773    0.0000 C   0  0  0  0  0  0  0  0  0
   -3.4111    4.5898    0.0000 N   0  0  0  0  0  0  0  0  0
   -2.6966    4.1773    0.0000 C   0  0  0  0  0  0  0  0  0
   -2.6966    3.3523    0.0000 C   0  0  0  0  0  0  0  0  0
   -3.4111    2.9398    0.0000 C   0  0  0  0  0  0  0  0  0
   -1.9821    4.5898    0.0000 C   0  0  0  0  0  0  0  0  0
   -4.8400    4.5898    0.0000 C   0  0  0  0  0  0  0  0  0
   -5.5545    4.1773    0.0000 C   0  0  0  0  0  0  0  0  0
   -5.5545    3.3523    0.0000 C   0  0  0  0  0  0  0  0  0
   -6.2689    2.1148    0.0000 C   0  0  0  0  0  0  0  0  0
  1  2  1  0  0  0  0
  1 11  1  0  0  0  0
  2  3  1  0  0  0  0
  3  4  2  0  0  0  0
  3  5  1  0  0  0  0
  5  6  1  0  0  0  0
  6  7  4  0  0  0  0
  6 11  4  0  0  0  0
  7  8  4  0  0  0  0
  8  9  4  0  0  0  0
  8 12  1  0  0  0  0
  9 10  4  0  0  0  0
 10 11  4  0  0  0  0
 12 13  1  0  0  0  0
 13 14  1  0  0  0  0
 14 15  1  0  0  0  0
 14 19  1  0  0  0  0
 15 16  1  0  0  0  0
 16 17  1  0  0  0  0
 16 31  1  0  0  0  0
 17 18  1  0  0  0  0
 17 20  1  0  0  0  0
 18 19  1  0  0  0  0
 20 21  4  0  0  0  0
 20 30  4  0  0  0  0
 21 22  4  0  0  0  0
 21 26  4  0  0  0  0
 22 23  4  0  0  0  0
 22 28  4  0  0  0  0
 23 24  4  0  0  0  0
 24 25  4  0  0  0  0
 24 27  1  0  0  0  0
 25 26  4  0  0  0  0
 28 29  4  0  0  0  0
 29 30  4  0  0  0  0
M  END
>  <Name_Molregno>
494025

>  <5-HT1A>
9.1

>  <5-HT1B>
8.7

>  <5-HT1D>
9.5

>  <Serotonin transporter>
8

$$$$
494026
  Marvin  02231216192D 0   1.00000     0.00000     0

 31 36  0  0  1  0  0  0  0  0999 V2000
   -0.1640   -1.0547    0.0000 O   0  0  0  0  0  0  0  0  0
    0.2064   -1.7919    0.0000 C   0  0  0  0  0  0  0  0  0
   -0.2468   -2.4813    0.0000 C   0  0  0  0  0  0  0  0  0
    0.1236   -3.2184    0.0000 O   0  0  0  0  0  0  0  0  0
   -1.0705   -2.4334    0.0000 N   0  0  0  0  0  0  0  0  0
   -1.4409   -1.6963    0.0000 C   0  0  0  0  0  0  0  0  0
   -2.2645   -1.6484    0.0000 C   0  0  0  0  0  0  0  0  0
   -2.6349   -0.9113    0.0000 C   0  0  0  0  0  0  0  0  0
   -2.1816   -0.2219    0.0000 C   0  0  0  0  0  0  0  0  0
   -1.3580   -0.2697    0.0000 C   0  0  0  0  0  0  0  0  0
   -0.9876   -1.0069    0.0000 C   0  0  0  0  0  0  0  0  0
   -3.4585   -0.8635    0.0000 C   0  0  0  0  0  0  0  0  0
   -3.8289   -0.1263    0.0000 C   0  0  0  0  0  0  0  0  0
   -4.6525   -0.0785    0.0000 N   0  0  0  0  0  0  0  0  0
   -5.4657    0.2255    0.0000 C   0  0  0  0  0  0  0  0  0
   -6.6404   -0.7664    0.0000 C   0  0  0  0  0  0  0  0  0
   -6.1507   -0.0951    0.0000 C   0  0  0  0  0  0  0  0  0
   -6.3497    0.8048    0.0000 N   0  0  0  0  0  0  0  0  0
   -5.6903    1.0131    0.0000 C   0  0  0  0  0  0  0  0  0
   -7.0641    1.2173    0.0000 C   0  0  0  0  0  0  0  0  0
   -7.0641    2.0423    0.0000 C   0  0  0  0  0  0  0  0  0
   -7.7786    2.4548    0.0000 C   0  0  0  0  0  0  0  0  0
   -7.7786    3.2798    0.0000 N   0  0  0  0  0  0  0  0  0
   -7.0641    3.6923    0.0000 C   0  0  0  0  0  0  0  0  0
   -6.3497    3.2798    0.0000 C   0  0  0  0  0  0  0  0  0
   -6.3497    2.4548    0.0000 C   0  0  0  0  0  0  0  0  0
   -7.0641    4.5173    0.0000 C   0  0  0  0  0  0  0  0  0
   -8.4931    2.0423    0.0000 C   0  0  0  0  0  0  0  0  0
   -8.4931    1.2173    0.0000 C   0  0  0  0  0  0  0  0  0
   -7.7786    0.8048    0.0000 C   0  0  0  0  0  0  0  0  0
   -5.3853   -0.2591    0.0000 C   0  0  0  0  0  0  0  0  0
  1  2  1  0  0  0  0
  1 11  1  0  0  0  0
  2  3  1  0  0  0  0
  3  4  2  0  0  0  0
  3  5  1  0  0  0  0
  5  6  1  0  0  0  0
  6  7  4  0  0  0  0
  6 11  4  0  0  0  0
  7  8  4  0  0  0  0
  8  9  4  0  0  0  0
  8 12  1  0  0  0  0
  9 10  4  0  0  0  0
 10 11  4  0  0  0  0
 12 13  1  0  0  0  0
 13 14  1  0  0  0  0
 14 15  1  0  0  0  0
 14 31  1  0  0  0  0
 15 16  1  0  0  0  0
 15 19  1  0  0  0  0
 16 17  1  0  0  0  0
 17 18  1  0  0  0  0
 17 31  1  0  0  0  0
 18 19  1  0  0  0  0
 18 20  1  0  0  0  0
 20 21  4  0  0  0  0
 20 30  4  0  0  0  0
 21 22  4  0  0  0  0
 21 26  4  0  0  0  0
 22 23  4  0  0  0  0
 22 28  4  0  0  0  0
 23 24  4  0  0  0  0
 24 25  4  0  0  0  0
 24 27  1  0  0  0  0
 25 26  4  0  0  0  0
 28 29  4  0  0  0  0
 29 30  4  0  0  0  0
M  END
>  <Name_Molregno>
494026

>  <5-HT1A>
6.9

>  <5-HT1B>
9.1

>  <5-HT1D>
7.6

>  <Serotonin transporter>
8.4

$$$$
494027
  Marvin  02231216192D 0   1.00000     0.00000     0

 31 35  0  0  0  0  0  0  0  0999 V2000
    0.4026    2.3146    0.0000 F   0  0  0  0  0  0  0  0  0
    1.1170    1.9021    0.0000 C   0  0  0  0  0  0  0  0  0
    1.8315    2.3146    0.0000 C   0  0  0  0  0  0  0  0  0
    1.8315    3.1396    0.0000 N   0  0  0  0  0  0  0  0  0
    2.5460    3.5521    0.0000 C   0  0  0  0  0  0  0  0  0
    3.2604    3.1396    0.0000 C   0  0  0  0  0  0  0  0  0
    3.2604    2.3146    0.0000 C   0  0  0  0  0  0  0  0  0
    2.5460    1.9021    0.0000 C   0  0  0  0  0  0  0  0  0
    2.5460    1.0771    0.0000 C   0  0  0  0  0  0  0  0  0
    3.2604    0.6646    0.0000 N   0  0  0  0  0  0  0  0  0
    3.9749    1.0771    0.0000 C   0  0  0  0  0  0  0  0  0
    4.6894    0.6646    0.0000 C   0  0  0  0  0  0  0  0  0
    4.6894   -0.1604    0.0000 N   0  0  0  0  0  0  0  0  0
    3.9749   -0.5729    0.0000 C   0  0  0  0  0  0  0  0  0
    3.2604   -0.1604    0.0000 C   0  0  0  0  0  0  0  0  0
    5.4038   -0.5729    0.0000 C   0  0  0  0  0  0  0  0  0
    5.4038   -1.3979    0.0000 C   0  0  0  0  0  0  0  0  0
    6.1183   -1.8104    0.0000 C   0  0  0  0  0  0  0  0  0
    6.8328   -1.3979    0.0000 C   0  0  0  0  0  0  0  0  0
    7.5473   -1.8104    0.0000 C   0  0  0  0  0  0  0  0  0
    8.2617   -1.3979    0.0000 N   0  0  0  0  0  0  0  0  0
    8.9762   -1.8104    0.0000 C   0  0  0  0  0  0  0  0  0
    9.6907   -1.3979    0.0000 O   0  0  0  0  0  0  0  0  0
    8.9762   -2.6354    0.0000 C   0  0  0  0  0  0  0  0  0
    8.2617   -3.0479    0.0000 O   0  0  0  0  0  0  0  0  0
    7.5473   -2.6354    0.0000 C   0  0  0  0  0  0  0  0  0
    6.8328   -3.0479    0.0000 C   0  0  0  0  0  0  0  0  0
    6.1183   -2.6354    0.0000 C   0  0  0  0  0  0  0  0  0
    1.8315    0.6646    0.0000 C   0  0  0  0  0  0  0  0  0
    1.1170    1.0771    0.0000 C   0  0  0  0  0  0  0  0  0
    2.5460    4.3771    0.0000 C   0  0  0  0  0  0  0  0  0
  1  2  1  0  0  0  0
  2  3  4  0  0  0  0
  2 30  4  0  0  0  0
  3  4  4  0  0  0  0
  3  8  4  0  0  0  0
  4  5  4  0  0  0  0
  5  6  4  0  0  0  0
  5 31  1  0  0  0  0
  6  7  4  0  0  0  0
  7  8  4  0  0  0  0
  8  9  4  0  0  0  0
  9 10  1  0  0  0  0
  9 29  4  0  0  0  0
 10 11  1  0  0  0  0
 10 15  1  0  0  0  0
 11 12  1  0  0  0  0
 12 13  1  0  0  0  0
 13 14  1  0  0  0  0
 13 16  1  0  0  0  0
 14 15  1  0  0  0  0
 16 17  1  0  0  0  0
 17 18  1  0  0  0  0
 18 19  4  0  0  0  0
 18 28  4  0  0  0  0
 19 20  4  0  0  0  0
 20 21  1  0  0  0  0
 20 26  4  0  0  0  0
 21 22  1  0  0  0  0
 22 23  2  0  0  0  0
 22 24  1  0  0  0  0
 24 25  1  0  0  0  0
 25 26  1  0  0  0  0
 26 27  4  0  0  0  0
 27 28  4  0  0  0  0
 29 30  4  0  0  0  0
M  END
>  <Name_Molregno>
494027

>  <5-HT1A>
9.6

>  <5-HT1B>
6.9

>  <5-HT1D>
9.5

>  <Serotonin transporter>
8.4

$$$$
494028
  Marvin  02231216192D 0   1.00000     0.00000     0

 31 35  0  0  0  0  0  0  0  0999 V2000
    0.4026    2.3146    0.0000 Cl  0  0  0  0  0  0  0  0  0
    1.1170    1.9021    0.0000 C   0  0  0  0  0  0  0  0  0
    1.8315    2.3146    0.0000 C   0  0  0  0  0  0  0  0  0
    1.8315    3.1396    0.0000 N   0  0  0  0  0  0  0  0  0
    2.5460    3.5521    0.0000 C   0  0  0  0  0  0  0  0  0
    3.2604    3.1396    0.0000 C   0  0  0  0  0  0  0  0  0
    3.2604    2.3146    0.0000 C   0  0  0  0  0  0  0  0  0
    2.5460    1.9021    0.0000 C   0  0  0  0  0  0  0  0  0
    2.5460    1.0771    0.0000 C   0  0  0  0  0  0  0  0  0
    3.2604    0.6646    0.0000 N   0  0  0  0  0  0  0  0  0
    3.9749    1.0771    0.0000 C   0  0  0  0  0  0  0  0  0
    4.6894    0.6646    0.0000 C   0  0  0  0  0  0  0  0  0
    4.6894   -0.1604    0.0000 N   0  0  0  0  0  0  0  0  0
    3.9749   -0.5729    0.0000 C   0  0  0  0  0  0  0  0  0
    3.2604   -0.1604    0.0000 C   0  0  0  0  0  0  0  0  0
    5.4038   -0.5729    0.0000 C   0  0  0  0  0  0  0  0  0
    5.4038   -1.3979    0.0000 C   0  0  0  0  0  0  0  0  0
    6.1183   -1.8104    0.0000 C   0  0  0  0  0  0  0  0  0
    6.8328   -1.3979    0.0000 C   0  0  0  0  0  0  0  0  0
    7.5473   -1.8104    0.0000 C   0  0  0  0  0  0  0  0  0
    8.2617   -1.3979    0.0000 N   0  0  0  0  0  0  0  0  0
    8.9762   -1.8104    0.0000 C   0  0  0  0  0  0  0  0  0
    9.6907   -1.3979    0.0000 O   0  0  0  0  0  0  0  0  0
    8.9762   -2.6354    0.0000 C   0  0  0  0  0  0  0  0  0
    8.2617   -3.0479    0.0000 O   0  0  0  0  0  0  0  0  0
    7.5473   -2.6354    0.0000 C   0  0  0  0  0  0  0  0  0
    6.8328   -3.0479    0.0000 C   0  0  0  0  0  0  0  0  0
    6.1183   -2.6354    0.0000 C   0  0  0  0  0  0  0  0  0
    1.8315    0.6646    0.0000 C   0  0  0  0  0  0  0  0  0
    1.1170    1.0771    0.0000 C   0  0  0  0  0  0  0  0  0
    2.5460    4.3771    0.0000 C   0  0  0  0  0  0  0  0  0
  1  2  1  0  0  0  0
  2  3  4  0  0  0  0
  2 30  4  0  0  0  0
  3  4  4  0  0  0  0
  3  8  4  0  0  0  0
  4  5  4  0  0  0  0
  5  6  4  0  0  0  0
  5 31  1  0  0  0  0
  6  7  4  0  0  0  0
  7  8  4  0  0  0  0
  8  9  4  0  0  0  0
  9 10  1  0  0  0  0
  9 29  4  0  0  0  0
 10 11  1  0  0  0  0
 10 15  1  0  0  0  0
 11 12  1  0  0  0  0
 12 13  1  0  0  0  0
 13 14  1  0  0  0  0
 13 16  1  0  0  0  0
 14 15  1  0  0  0  0
 16 17  1  0  0  0  0
 17 18  1  0  0  0  0
 18 19  4  0  0  0  0
 18 28  4  0  0  0  0
 19 20  4  0  0  0  0
 20 21  1  0  0  0  0
 20 26  4  0  0  0  0
 21 22  1  0  0  0  0
 22 23  2  0  0  0  0
 22 24  1  0  0  0  0
 24 25  1  0  0  0  0
 25 26  1  0  0  0  0
 26 27  4  0  0  0  0
 27 28  4  0  0  0  0
 29 30  4  0  0  0  0
M  END
>  <Name_Molregno>
494028

>  <5-HT1A>
8.4

>  <5-HT1B>
9.3

>  <5-HT1D>
9.7

>  <Serotonin transporter>
8.8

$$$$
495378
  Marvin  02231216192D 0   1.00000     0.00000     0

 35 39  0  0  1  0  0  0  0  0999 V2000
    5.6005    0.3871    0.0000 O   0  0  0  0  0  0  0  0  0
    4.8860   -0.0254    0.0000 C   0  0  0  0  0  0  0  0  0
    4.8860   -0.8504    0.0000 C   0  0  0  0  0  0  0  0  0
    4.1716   -1.2629    0.0000 N   0  0  0  0  0  0  0  0  0
    4.1716   -2.0879    0.0000 C   0  0  0  0  0  0  0  0  0
    3.4571   -2.5004    0.0000 C   0  0  0  0  0  0  0  0  0
    2.7426   -2.0879    0.0000 C   0  0  0  0  0  0  0  0  0
    2.7426   -1.2629    0.0000 C   0  0  0  0  0  0  0  0  0
    3.4571   -0.8504    0.0000 C   0  0  0  0  0  0  0  0  0
    2.0282   -2.5004    0.0000 C   0  0  0  0  0  0  0  0  0
    1.3137   -2.0879    0.0000 C   0  0  0  0  0  0  0  0  0
    0.5992   -2.5004    0.0000 C   0  0  0  0  0  0  0  0  0
   -0.1153   -2.0879    0.0000 C   0  0  0  0  0  0  0  0  0
   -0.8297   -2.5004    0.0000 N   0  0  0  0  0  0  0  0  0
   -0.8297   -3.3254    0.0000 C   0  0  0  0  0  0  0  0  0
   -1.5442   -3.7379    0.0000 C   0  0  0  0  0  0  0  0  0
   -2.2587   -3.3254    0.0000 N   0  0  0  0  0  0  0  0  0
   -2.2587   -2.5004    0.0000 C   0  0  0  0  0  0  0  0  0
   -1.5442   -2.0879    0.0000 C   0  0  0  0  0  0  0  0  0
   -2.9731   -2.0879    0.0000 C   0  0  0  0  0  0  0  0  0
   -1.5442   -4.5629    0.0000 C   0  0  0  0  0  0  0  0  0
   -0.1153   -1.2629    0.0000 C   0  0  0  0  0  0  0  0  0
    0.5992   -0.8504    0.0000 C   0  0  0  0  0  0  0  0  0
    1.3137   -1.2629    0.0000 C   0  0  0  0  0  0  0  0  0
    5.6005    1.2121    0.0000 C   0  0  0  0  0  0  0  0  0
    6.3150    1.6246    0.0000 C   0  0  0  0  0  0  0  0  0
    6.3150    2.4496    0.0000 C   0  0  0  0  0  0  0  0  0
    7.0294    2.8621    0.0000 N   0  0  0  0  0  0  0  0  0
    7.7439    2.4496    0.0000 C   0  0  0  0  0  0  0  0  0
    7.7439    1.6246    0.0000 C   0  0  0  0  0  0  0  0  0
    7.0294    1.2121    0.0000 C   0  0  0  0  0  0  0  0  0
    8.4584    2.8621    0.0000 C   0  0  0  0  0  0  0  0  0
    5.6005    2.8621    0.0000 C   0  0  0  0  0  0  0  0  0
    4.8860    2.4496    0.0000 C   0  0  0  0  0  0  0  0  0
    4.8860    1.6246    0.0000 C   0  0  0  0  0  0  0  0  0
  1  2  1  0  0  0  0
  1 25  1  0  0  0  0
  2  3  1  0  0  0  0
  3  4  1  0  0  0  0
  4  5  1  0  0  0  0
  4  9  1  0  0  0  0
  5  6  1  0  0  0  0
  6  7  1  0  0  0  0
  7  8  1  0  0  0  0
  7 10  1  0  0  0  0
  8  9  1  0  0  0  0
 10 11  1  0  0  0  0
 11 12  4  0  0  0  0
 11 24  4  0  0  0  0
 12 13  4  0  0  0  0
 13 14  1  0  0  0  0
 13 22  4  0  0  0  0
 14 15  1  0  0  0  0
 14 19  1  0  0  0  0
 15 16  1  0  0  0  0
 16 17  1  0  0  0  0
 16 21  1  0  0  0  0
 17 18  1  0  0  0  0
 18 19  1  0  0  0  0
 18 20  1  0  0  0  0
 22 23  4  0  0  0  0
 23 24  4  0  0  0  0
 25 26  4  0  0  0  0
 25 35  4  0  0  0  0
 26 27  4  0  0  0  0
 26 31  4  0  0  0  0
 27 28  4  0  0  0  0
 27 33  4  0  0  0  0
 28 29  4  0  0  0  0
 29 30  4  0  0  0  0
 29 32  1  0  0  0  0
 30 31  4  0  0  0  0
 33 34  4  0  0  0  0
 34 35  4  0  0  0  0
M  END
>  <Name_Molregno>
495378

>  <5-HT1A>
8.7

>  <5-HT1B>
8.4

>  <5-HT1D>
9.1

$$$$
495379
  Marvin  02231216192D 0   1.00000     0.00000     0

 34 38  0  0  1  0  0  0  0  0999 V2000
    5.2665    1.7097    0.0000 O   0  0  0  0  0  0  0  0  0
    4.5520    1.2972    0.0000 C   0  0  0  0  0  0  0  0  0
    4.5520    0.4722    0.0000 C   0  0  0  0  0  0  0  0  0
    3.8375    0.0597    0.0000 N   0  0  0  0  0  0  0  0  0
    3.8375   -0.7653    0.0000 C   0  0  0  0  0  0  0  0  0
    3.1230   -1.1778    0.0000 C   0  0  0  0  0  0  0  0  0
    2.4086   -0.7653    0.0000 C   0  0  0  0  0  0  0  0  0
    2.4086    0.0597    0.0000 C   0  0  0  0  0  0  0  0  0
    3.1230    0.4722    0.0000 C   0  0  0  0  0  0  0  0  0
    1.6941   -1.1778    0.0000 C   0  0  0  0  0  0  0  0  0
    0.9796   -0.7653    0.0000 C   0  0  0  0  0  0  0  0  0
    0.2652   -1.1778    0.0000 C   0  0  0  0  0  0  0  0  0
   -0.4493   -0.7653    0.0000 C   0  0  0  0  0  0  0  0  0
   -1.1638   -1.1778    0.0000 N   0  0  0  0  0  0  0  0  0
   -1.1638   -2.0028    0.0000 C   0  0  0  0  0  0  0  0  0
   -1.8783   -2.4153    0.0000 C   0  0  0  0  0  0  0  0  0
   -2.5927   -2.0028    0.0000 N   0  0  0  0  0  0  0  0  0
   -2.5927   -1.1778    0.0000 C   0  0  0  0  0  0  0  0  0
   -1.8783   -0.7653    0.0000 C   0  0  0  0  0  0  0  0  0
   -1.8783   -3.2403    0.0000 C   0  0  0  0  0  0  0  0  0
   -0.4493    0.0597    0.0000 C   0  0  0  0  0  0  0  0  0
    0.2652    0.4722    0.0000 C   0  0  0  0  0  0  0  0  0
    0.9796    0.0597    0.0000 C   0  0  0  0  0  0  0  0  0
    5.2665    2.5347    0.0000 C   0  0  0  0  0  0  0  0  0
    5.9809    2.9472    0.0000 C   0  0  0  0  0  0  0  0  0
    5.9809    3.7722    0.0000 C   0  0  0  0  0  0  0  0  0
    6.6954    4.1847    0.0000 N   0  0  0  0  0  0  0  0  0
    7.4099    3.7722    0.0000 C   0  0  0  0  0  0  0  0  0
    7.4099    2.9472    0.0000 C   0  0  0  0  0  0  0  0  0
    6.6954    2.5347    0.0000 C   0  0  0  0  0  0  0  0  0
    8.1243    4.1847    0.0000 C   0  0  0  0  0  0  0  0  0
    5.2665    4.1847    0.0000 C   0  0  0  0  0  0  0  0  0
    4.5520    3.7722    0.0000 C   0  0  0  0  0  0  0  0  0
    4.5520    2.9472    0.0000 C   0  0  0  0  0  0  0  0  0
  1  2  1  0  0  0  0
  1 24  1  0  0  0  0
  2  3  1  0  0  0  0
  3  4  1  0  0  0  0
  4  5  1  0  0  0  0
  4  9  1  0  0  0  0
  5  6  1  0  0  0  0
  6  7  1  0  0  0  0
  7  8  1  0  0  0  0
  7 10  1  0  0  0  0
  8  9  1  0  0  0  0
 10 11  1  0  0  0  0
 11 12  4  0  0  0  0
 11 23  4  0  0  0  0
 12 13  4  0  0  0  0
 13 14  1  0  0  0  0
 13 21  4  0  0  0  0
 14 15  1  0  0  0  0
 14 19  1  0  0  0  0
 15 16  1  0  0  0  0
 16 17  1  0  0  0  0
 16 20  1  0  0  0  0
 17 18  1  0  0  0  0
 18 19  1  0  0  0  0
 21 22  4  0  0  0  0
 22 23  4  0  0  0  0
 24 25  4  0  0  0  0
 24 34  4  0  0  0  0
 25 26  4  0  0  0  0
 25 30  4  0  0  0  0
 26 27  4  0  0  0  0
 26 32  4  0  0  0  0
 27 28  4  0  0  0  0
 28 29  4  0  0  0  0
 28 31  1  0  0  0  0
 29 30  4  0  0  0  0
 32 33  4  0  0  0  0
 33 34  4  0  0  0  0
M  END
>  <Name_Molregno>
495379

>  <5-HT1A>
8.5

>  <5-HT1B>
8.25

>  <5-HT1D>
9.1

$$$$
495382
  Marvin  02231216192D 0   1.00000     0.00000     0

 37 41  0  0  0  0  0  0  0  0999 V2000
  -10.6263   -5.5555    0.0000 S   0  0  0  0  0  0  0  0  0
  -11.3408   -5.9680    0.0000 O   0  0  0  0  0  0  0  0  0
  -10.2138   -6.2700    0.0000 O   0  0  0  0  0  0  0  0  0
   -9.9118   -5.1430    0.0000 N   0  0  0  0  0  0  0  0  0
   -9.9118   -4.3180    0.0000 C   0  0  0  0  0  0  0  0  0
   -9.1973   -3.9055    0.0000 C   0  0  0  0  0  0  0  0  0
   -8.4829   -4.3180    0.0000 C   0  0  0  0  0  0  0  0  0
   -8.4829   -5.1430    0.0000 C   0  0  0  0  0  0  0  0  0
   -9.1973   -5.5555    0.0000 C   0  0  0  0  0  0  0  0  0
   -7.7684   -3.9055    0.0000 C   0  0  0  0  0  0  0  0  0
   -7.7684   -3.0805    0.0000 C   0  0  0  0  0  0  0  0  0
   -7.0539   -2.6680    0.0000 C   0  0  0  0  0  0  0  0  0
   -6.3395   -3.0805    0.0000 C   0  0  0  0  0  0  0  0  0
   -6.3395   -3.9055    0.0000 C   0  0  0  0  0  0  0  0  0
   -7.0539   -4.3180    0.0000 C   0  0  0  0  0  0  0  0  0
   -7.0539   -1.8430    0.0000 C   0  0  0  0  0  0  0  0  0
   -6.3395   -1.4305    0.0000 C   0  0  0  0  0  0  0  0  0
   -6.3395   -0.6055    0.0000 C   0  0  0  0  0  0  0  0  0
   -5.6250   -0.1930    0.0000 C   0  0  0  0  0  0  0  0  0
   -4.9105   -0.6055    0.0000 N   0  0  0  0  0  0  0  0  0
   -4.9105   -1.4305    0.0000 C   0  0  0  0  0  0  0  0  0
   -5.6250   -1.8430    0.0000 C   0  0  0  0  0  0  0  0  0
   -4.1960   -0.1930    0.0000 C   0  0  0  0  0  0  0  0  0
   -4.1960    0.6320    0.0000 C   0  0  0  0  0  0  0  0  0
   -3.4816    1.0445    0.0000 O   0  0  0  0  0  0  0  0  0
   -3.4816    1.8695    0.0000 C   0  0  0  0  0  0  0  0  0
   -2.7671    2.2820    0.0000 C   0  0  0  0  0  0  0  0  0
   -2.7671    3.1070    0.0000 C   0  0  0  0  0  0  0  0  0
   -2.0526    3.5195    0.0000 N   0  0  0  0  0  0  0  0  0
   -1.3382    3.1070    0.0000 C   0  0  0  0  0  0  0  0  0
   -1.3382    2.2820    0.0000 C   0  0  0  0  0  0  0  0  0
   -2.0526    1.8695    0.0000 C   0  0  0  0  0  0  0  0  0
   -0.6237    3.5195    0.0000 C   0  0  0  0  0  0  0  0  0
   -3.4816    3.5195    0.0000 C   0  0  0  0  0  0  0  0  0
   -4.1960    3.1070    0.0000 C   0  0  0  0  0  0  0  0  0
   -4.1960    2.2820    0.0000 C   0  0  0  0  0  0  0  0  0
  -11.0388   -4.8410    0.0000 C   0  0  0  0  0  0  0  0  0
  1  2  2  0  0  0  0
  1  3  2  0  0  0  0
  1  4  1  0  0  0  0
  1 37  1  0  0  0  0
  4  5  1  0  0  0  0
  4  9  1  0  0  0  0
  5  6  1  0  0  0  0
  6  7  1  0  0  0  0
  7  8  1  0  0  0  0
  7 10  1  0  0  0  0
  8  9  1  0  0  0  0
 10 11  4  0  0  0  0
 10 15  4  0  0  0  0
 11 12  4  0  0  0  0
 12 13  4  0  0  0  0
 12 16  1  0  0  0  0
 13 14  4  0  0  0  0
 14 15  4  0  0  0  0
 16 17  1  0  0  0  0
 17 18  1  0  0  0  0
 17 22  1  0  0  0  0
 18 19  1  0  0  0  0
 19 20  1  0  0  0  0
 20 21  1  0  0  0  0
 20 23  1  0  0  0  0
 21 22  1  0  0  0  0
 23 24  1  0  0  0  0
 24 25  1  0  0  0  0
 25 26  1  0  0  0  0
 26 27  4  0  0  0  0
 26 36  4  0  0  0  0
 27 28  4  0  0  0  0
 27 32  4  0  0  0  0
 28 29  4  0  0  0  0
 28 34  4  0  0  0  0
 29 30  4  0  0  0  0
 30 31  4  0  0  0  0
 30 33  1  0  0  0  0
 31 32  4  0  0  0  0
 34 35  4  0  0  0  0
 35 36  4  0  0  0  0
M  END
>  <Name_Molregno>
495382

>  <5-HT1A>
8.1

>  <5-HT1B>
7.1

>  <5-HT1D>
8.5

$$$$
495383
  Marvin  02231216192D 0   1.00000     0.00000     0

 33 37  0  0  0  0  0  0  0  0999 V2000
    4.9585    0.3386    0.0000 O   0  0  0  0  0  0  0  0  0
    4.2440   -0.0739    0.0000 C   0  0  0  0  0  0  0  0  0
    4.2440   -0.8989    0.0000 C   0  0  0  0  0  0  0  0  0
    3.5295   -1.3114    0.0000 N   0  0  0  0  0  0  0  0  0
    3.5295   -2.1364    0.0000 C   0  0  0  0  0  0  0  0  0
    2.8150   -2.5489    0.0000 C   0  0  0  0  0  0  0  0  0
    2.1006   -2.1364    0.0000 C   0  0  0  0  0  0  0  0  0
    2.1006   -1.3114    0.0000 C   0  0  0  0  0  0  0  0  0
    2.8150   -0.8989    0.0000 C   0  0  0  0  0  0  0  0  0
    1.3861   -2.5489    0.0000 C   0  0  0  0  0  0  0  0  0
    0.6716   -2.1364    0.0000 C   0  0  0  0  0  0  0  0  0
   -0.0428   -2.5489    0.0000 C   0  0  0  0  0  0  0  0  0
   -0.7573   -2.1364    0.0000 C   0  0  0  0  0  0  0  0  0
   -0.7573   -1.3114    0.0000 C   0  0  0  0  0  0  0  0  0
   -0.0428   -0.8989    0.0000 C   0  0  0  0  0  0  0  0  0
    0.6716   -1.3114    0.0000 C   0  0  0  0  0  0  0  0  0
   -1.4718   -2.5489    0.0000 C   0  0  0  0  0  0  0  0  0
   -1.4718   -3.3739    0.0000 C   0  0  0  0  0  0  0  0  0
   -2.1863   -3.7864    0.0000 C   0  0  0  0  0  0  0  0  0
   -2.9007   -3.3739    0.0000 N   0  0  0  0  0  0  0  0  0
   -2.9007   -2.5489    0.0000 C   0  0  0  0  0  0  0  0  0
   -2.1863   -2.1364    0.0000 C   0  0  0  0  0  0  0  0  0
    4.9585    1.1636    0.0000 C   0  0  0  0  0  0  0  0  0
    5.6729    1.5761    0.0000 C   0  0  0  0  0  0  0  0  0
    5.6729    2.4011    0.0000 C   0  0  0  0  0  0  0  0  0
    6.3874    2.8136    0.0000 N   0  0  0  0  0  0  0  0  0
    7.1019    2.4011    0.0000 C   0  0  0  0  0  0  0  0  0
    7.1019    1.5761    0.0000 C   0  0  0  0  0  0  0  0  0
    6.3874    1.1636    0.0000 C   0  0  0  0  0  0  0  0  0
    7.8163    2.8136    0.0000 C   0  0  0  0  0  0  0  0  0
    4.9585    2.8136    0.0000 C   0  0  0  0  0  0  0  0  0
    4.2440    2.4011    0.0000 C   0  0  0  0  0  0  0  0  0
    4.2440    1.5761    0.0000 C   0  0  0  0  0  0  0  0  0
  1  2  1  0  0  0  0
  1 23  1  0  0  0  0
  2  3  1  0  0  0  0
  3  4  1  0  0  0  0
  4  5  1  0  0  0  0
  4  9  1  0  0  0  0
  5  6  1  0  0  0  0
  6  7  1  0  0  0  0
  7  8  1  0  0  0  0
  7 10  1  0  0  0  0
  8  9  1  0  0  0  0
 10 11  1  0  0  0  0
 11 12  4  0  0  0  0
 11 16  4  0  0  0  0
 12 13  4  0  0  0  0
 13 14  4  0  0  0  0
 13 17  1  0  0  0  0
 14 15  4  0  0  0  0
 15 16  4  0  0  0  0
 17 18  4  0  0  0  0
 17 22  4  0  0  0  0
 18 19  4  0  0  0  0
 19 20  4  0  0  0  0
 20 21  4  0  0  0  0
 21 22  4  0  0  0  0
 23 24  4  0  0  0  0
 23 33  4  0  0  0  0
 24 25  4  0  0  0  0
 24 29  4  0  0  0  0
 25 26  4  0  0  0  0
 25 31  4  0  0  0  0
 26 27  4  0  0  0  0
 27 28  4  0  0  0  0
 27 30  1  0  0  0  0
 28 29  4  0  0  0  0
 31 32  4  0  0  0  0
 32 33  4  0  0  0  0
M  END
>  <Name_Molregno>
495383

>  <5-HT1A>
8.1

>  <5-HT1B>
8.1

>  <5-HT1D>
9

$$$$
495384
  Marvin  02231216192D 0   1.00000     0.00000     0

 33 37  0  0  0  0  0  0  0  0999 V2000
    4.9585    0.3386    0.0000 O   0  0  0  0  0  0  0  0  0
    4.2440   -0.0739    0.0000 C   0  0  0  0  0  0  0  0  0
    4.2440   -0.8989    0.0000 C   0  0  0  0  0  0  0  0  0
    3.5295   -1.3114    0.0000 N   0  0  0  0  0  0  0  0  0
    3.5295   -2.1364    0.0000 C   0  0  0  0  0  0  0  0  0
    2.8150   -2.5489    0.0000 C   0  0  0  0  0  0  0  0  0
    2.1006   -2.1364    0.0000 C   0  0  0  0  0  0  0  0  0
    2.1006   -1.3114    0.0000 C   0  0  0  0  0  0  0  0  0
    2.8150   -0.8989    0.0000 C   0  0  0  0  0  0  0  0  0
    1.3861   -2.5489    0.0000 C   0  0  0  0  0  0  0  0  0
    0.6716   -2.1364    0.0000 C   0  0  0  0  0  0  0  0  0
   -0.0428   -2.5489    0.0000 C   0  0  0  0  0  0  0  0  0
   -0.7573   -2.1364    0.0000 C   0  0  0  0  0  0  0  0  0
   -0.7573   -1.3114    0.0000 C   0  0  0  0  0  0  0  0  0
   -0.0428   -0.8989    0.0000 C   0  0  0  0  0  0  0  0  0
    0.6716   -1.3114    0.0000 C   0  0  0  0  0  0  0  0  0
   -1.4718   -2.5489    0.0000 C   0  0  0  0  0  0  0  0  0
   -1.4718   -3.3739    0.0000 C   0  0  0  0  0  0  0  0  0
   -2.1863   -3.7864    0.0000 C   0  0  0  0  0  0  0  0  0
   -2.9007   -3.3739    0.0000 C   0  0  0  0  0  0  0  0  0
   -2.9007   -2.5489    0.0000 N   0  0  0  0  0  0  0  0  0
   -2.1863   -2.1364    0.0000 C   0  0  0  0  0  0  0  0  0
    4.9585    1.1636    0.0000 C   0  0  0  0  0  0  0  0  0
    5.6729    1.5761    0.0000 C   0  0  0  0  0  0  0  0  0
    5.6729    2.4011    0.0000 C   0  0  0  0  0  0  0  0  0
    6.3874    2.8136    0.0000 N   0  0  0  0  0  0  0  0  0
    7.1019    2.4011    0.0000 C   0  0  0  0  0  0  0  0  0
    7.1019    1.5761    0.0000 C   0  0  0  0  0  0  0  0  0
    6.3874    1.1636    0.0000 C   0  0  0  0  0  0  0  0  0
    7.8163    2.8136    0.0000 C   0  0  0  0  0  0  0  0  0
    4.9585    2.8136    0.0000 C   0  0  0  0  0  0  0  0  0
    4.2440    2.4011    0.0000 C   0  0  0  0  0  0  0  0  0
    4.2440    1.5761    0.0000 C   0  0  0  0  0  0  0  0  0
  1  2  1  0  0  0  0
  1 23  1  0  0  0  0
  2  3  1  0  0  0  0
  3  4  1  0  0  0  0
  4  5  1  0  0  0  0
  4  9  1  0  0  0  0
  5  6  1  0  0  0  0
  6  7  1  0  0  0  0
  7  8  1  0  0  0  0
  7 10  1  0  0  0  0
  8  9  1  0  0  0  0
 10 11  1  0  0  0  0
 11 12  4  0  0  0  0
 11 16  4  0  0  0  0
 12 13  4  0  0  0  0
 13 14  4  0  0  0  0
 13 17  1  0  0  0  0
 14 15  4  0  0  0  0
 15 16  4  0  0  0  0
 17 18  4  0  0  0  0
 17 22  4  0  0  0  0
 18 19  4  0  0  0  0
 19 20  4  0  0  0  0
 20 21  4  0  0  0  0
 21 22  4  0  0  0  0
 23 24  4  0  0  0  0
 23 33  4  0  0  0  0
 24 25  4  0  0  0  0
 24 29  4  0  0  0  0
 25 26  4  0  0  0  0
 25 31  4  0  0  0  0
 26 27  4  0  0  0  0
 27 28  4  0  0  0  0
 27 30  1  0  0  0  0
 28 29  4  0  0  0  0
 31 32  4  0  0  0  0
 32 33  4  0  0  0  0
M  END
>  <Name_Molregno>
495384

>  <5-HT1A>
8.3

>  <5-HT1B>
7.9

>  <5-HT1D>
8.7

$$$$
495442
  Marvin  02231216192D 0   1.00000     0.00000     0

 35 39  0  0  1  0  0  0  0  0999 V2000
    5.5153    0.3701    0.0000 O   0  0  0  0  0  0  0  0  0
    4.8009   -0.0424    0.0000 C   0  0  0  0  0  0  0  0  0
    4.8009   -0.8674    0.0000 C   0  0  0  0  0  0  0  0  0
    4.0864   -1.2799    0.0000 N   0  0  0  0  0  0  0  0  0
    4.0864   -2.1049    0.0000 C   0  0  0  0  0  0  0  0  0
    3.3719   -2.5174    0.0000 C   0  0  0  0  0  0  0  0  0
    2.6574   -2.1049    0.0000 C   0  0  0  0  0  0  0  0  0
    2.6574   -1.2799    0.0000 C   0  0  0  0  0  0  0  0  0
    3.3719   -0.8674    0.0000 C   0  0  0  0  0  0  0  0  0
    1.9430   -2.5174    0.0000 C   0  0  0  0  0  0  0  0  0
    1.2285   -2.1049    0.0000 C   0  0  0  0  0  0  0  0  0
    0.5140   -2.5174    0.0000 C   0  0  0  0  0  0  0  0  0
   -0.2004   -2.1049    0.0000 C   0  0  0  0  0  0  0  0  0
   -0.9149   -2.5174    0.0000 N   0  0  0  0  0  0  0  0  0
   -0.9149   -3.3424    0.0000 C   0  0  0  0  0  0  0  0  0
   -1.6294   -3.7549    0.0000 C   0  0  0  0  0  0  0  0  0
   -2.3439   -3.3424    0.0000 N   0  0  0  0  0  0  0  0  0
   -2.3439   -2.5174    0.0000 C   0  0  0  0  0  0  0  0  0
   -1.6294   -2.1049    0.0000 C   0  0  0  0  0  0  0  0  0
   -1.6294   -1.2799    0.0000 C   0  0  0  0  0  0  0  0  0
   -1.6294   -4.5799    0.0000 C   0  0  0  0  0  0  0  0  0
   -0.2004   -1.2799    0.0000 C   0  0  0  0  0  0  0  0  0
    0.5140   -0.8674    0.0000 C   0  0  0  0  0  0  0  0  0
    1.2285   -1.2799    0.0000 C   0  0  0  0  0  0  0  0  0
    5.5153    1.1951    0.0000 C   0  0  0  0  0  0  0  0  0
    6.2298    1.6076    0.0000 C   0  0  0  0  0  0  0  0  0
    6.2298    2.4326    0.0000 C   0  0  0  0  0  0  0  0  0
    6.9443    2.8451    0.0000 N   0  0  0  0  0  0  0  0  0
    7.6587    2.4326    0.0000 C   0  0  0  0  0  0  0  0  0
    7.6587    1.6076    0.0000 C   0  0  0  0  0  0  0  0  0
    6.9443    1.1951    0.0000 C   0  0  0  0  0  0  0  0  0
    8.3732    2.8451    0.0000 C   0  0  0  0  0  0  0  0  0
    5.5153    2.8451    0.0000 C   0  0  0  0  0  0  0  0  0
    4.8009    2.4326    0.0000 C   0  0  0  0  0  0  0  0  0
    4.8009    1.6076    0.0000 C   0  0  0  0  0  0  0  0  0
  1  2  1  0  0  0  0
  1 25  1  0  0  0  0
  2  3  1  0  0  0  0
  3  4  1  0  0  0  0
  4  5  1  0  0  0  0
  4  9  1  0  0  0  0
  5  6  1  0  0  0  0
  6  7  1  0  0  0  0
  7  8  1  0  0  0  0
  7 10  1  0  0  0  0
  8  9  1  0  0  0  0
 10 11  1  0  0  0  0
 11 12  4  0  0  0  0
 11 24  4  0  0  0  0
 12 13  4  0  0  0  0
 13 14  1  0  0  0  0
 13 22  4  0  0  0  0
 14 15  1  0  0  0  0
 14 19  1  0  0  0  0
 15 16  1  0  0  0  0
 16 17  1  0  0  0  0
 16 21  1  0  0  0  0
 17 18  1  0  0  0  0
 18 19  1  0  0  0  0
 19 20  1  0  0  0  0
 22 23  4  0  0  0  0
 23 24  4  0  0  0  0
 25 26  4  0  0  0  0
 25 35  4  0  0  0  0
 26 27  4  0  0  0  0
 26 31  4  0  0  0  0
 27 28  4  0  0  0  0
 27 33  4  0  0  0  0
 28 29  4  0  0  0  0
 29 30  4  0  0  0  0
 29 32  1  0  0  0  0
 30 31  4  0  0  0  0
 33 34  4  0  0  0  0
 34 35  4  0  0  0  0
M  END
>  <Name_Molregno>
495442

>  <5-HT1A>
8.3

>  <5-HT1B>
7.5

>  <5-HT1D>
9

$$$$
495443
  Marvin  02231216192D 0   1.00000     0.00000     0

 34 38  0  0  0  0  0  0  0  0999 V2000
    5.3301    0.3608    0.0000 O   0  0  0  0  0  0  0  0  0
    4.6156   -0.0517    0.0000 C   0  0  0  0  0  0  0  0  0
    4.6156   -0.8767    0.0000 C   0  0  0  0  0  0  0  0  0
    3.9012   -1.2892    0.0000 N   0  0  0  0  0  0  0  0  0
    3.9012   -2.1142    0.0000 C   0  0  0  0  0  0  0  0  0
    3.1867   -2.5267    0.0000 C   0  0  0  0  0  0  0  0  0
    2.4722   -2.1142    0.0000 C   0  0  0  0  0  0  0  0  0
    2.4722   -1.2892    0.0000 C   0  0  0  0  0  0  0  0  0
    3.1867   -0.8767    0.0000 C   0  0  0  0  0  0  0  0  0
    1.7577   -2.5267    0.0000 C   0  0  0  0  0  0  0  0  0
    1.0433   -2.1142    0.0000 C   0  0  0  0  0  0  0  0  0
    0.3288   -2.5267    0.0000 C   0  0  0  0  0  0  0  0  0
   -0.3857   -2.1142    0.0000 C   0  0  0  0  0  0  0  0  0
   -1.1001   -2.5267    0.0000 N   0  0  0  0  0  0  0  0  0
   -1.1001   -3.3517    0.0000 C   0  0  0  0  0  0  0  0  0
   -1.8146   -3.7642    0.0000 C   0  0  0  0  0  0  0  0  0
   -2.5291   -3.3517    0.0000 N   0  0  0  0  0  0  0  0  0
   -2.5291   -2.5267    0.0000 C   0  0  0  0  0  0  0  0  0
   -1.8146   -2.1142    0.0000 C   0  0  0  0  0  0  0  0  0
   -3.2435   -3.7642    0.0000 C   0  0  0  0  0  0  0  0  0
   -0.3857   -1.2892    0.0000 C   0  0  0  0  0  0  0  0  0
    0.3288   -0.8767    0.0000 C   0  0  0  0  0  0  0  0  0
    1.0433   -1.2892    0.0000 C   0  0  0  0  0  0  0  0  0
    5.3301    1.1858    0.0000 C   0  0  0  0  0  0  0  0  0
    6.0446    1.5983    0.0000 C   0  0  0  0  0  0  0  0  0
    6.0446    2.4233    0.0000 C   0  0  0  0  0  0  0  0  0
    6.7590    2.8358    0.0000 N   0  0  0  0  0  0  0  0  0
    7.4735    2.4233    0.0000 C   0  0  0  0  0  0  0  0  0
    7.4735    1.5983    0.0000 C   0  0  0  0  0  0  0  0  0
    6.7590    1.1858    0.0000 C   0  0  0  0  0  0  0  0  0
    8.1880    2.8358    0.0000 C   0  0  0  0  0  0  0  0  0
    5.3301    2.8358    0.0000 C   0  0  0  0  0  0  0  0  0
    4.6156    2.4233    0.0000 C   0  0  0  0  0  0  0  0  0
    4.6156    1.5983    0.0000 C   0  0  0  0  0  0  0  0  0
  1  2  1  0  0  0  0
  1 24  1  0  0  0  0
  2  3  1  0  0  0  0
  3  4  1  0  0  0  0
  4  5  1  0  0  0  0
  4  9  1  0  0  0  0
  5  6  1  0  0  0  0
  6  7  1  0  0  0  0
  7  8  1  0  0  0  0
  7 10  1  0  0  0  0
  8  9  1  0  0  0  0
 10 11  1  0  0  0  0
 11 12  4  0  0  0  0
 11 23  4  0  0  0  0
 12 13  4  0  0  0  0
 13 14  1  0  0  0  0
 13 21  4  0  0  0  0
 14 15  1  0  0  0  0
 14 19  1  0  0  0  0
 15 16  1  0  0  0  0
 16 17  1  0  0  0  0
 17 18  1  0  0  0  0
 17 20  1  0  0  0  0
 18 19  1  0  0  0  0
 21 22  4  0  0  0  0
 22 23  4  0  0  0  0
 24 25  4  0  0  0  0
 24 34  4  0  0  0  0
 25 26  4  0  0  0  0
 25 30  4  0  0  0  0
 26 27  4  0  0  0  0
 26 32  4  0  0  0  0
 27 28  4  0  0  0  0
 28 29  4  0  0  0  0
 28 31  1  0  0  0  0
 29 30  4  0  0  0  0
 32 33  4  0  0  0  0
 33 34  4  0  0  0  0
M  END
>  <Name_Molregno>
495443

>  <5-HT1A>
9

>  <5-HT1B>
8.2

>  <5-HT1D>
9.3

$$$$
495444
  Marvin  02231216192D 0   1.00000     0.00000     0

 35 39  0  0  0  0  0  0  0  0999 V2000
    5.6296    1.8199    0.0000 O   0  0  0  0  0  0  0  0  0
    4.9151    1.4074    0.0000 C   0  0  0  0  0  0  0  0  0
    4.9151    0.5824    0.0000 C   0  0  0  0  0  0  0  0  0
    4.2006    0.1699    0.0000 N   0  0  0  0  0  0  0  0  0
    4.2006   -0.6551    0.0000 C   0  0  0  0  0  0  0  0  0
    3.4862   -1.0676    0.0000 C   0  0  0  0  0  0  0  0  0
    2.7717   -0.6551    0.0000 C   0  0  0  0  0  0  0  0  0
    2.7717    0.1699    0.0000 C   0  0  0  0  0  0  0  0  0
    3.4862    0.5824    0.0000 C   0  0  0  0  0  0  0  0  0
    2.0572   -1.0676    0.0000 C   0  0  0  0  0  0  0  0  0
    1.3427   -0.6551    0.0000 C   0  0  0  0  0  0  0  0  0
    0.6283   -1.0676    0.0000 C   0  0  0  0  0  0  0  0  0
   -0.0862   -0.6551    0.0000 C   0  0  0  0  0  0  0  0  0
   -0.8007   -1.0676    0.0000 N   0  0  0  0  0  0  0  0  0
   -0.8007   -1.8926    0.0000 C   0  0  0  0  0  0  0  0  0
   -1.5151   -2.3051    0.0000 C   0  0  0  0  0  0  0  0  0
   -1.5151   -3.1301    0.0000 O   0  0  0  0  0  0  0  0  0
   -2.2296   -1.8926    0.0000 N   0  0  0  0  0  0  0  0  0
   -2.2296   -1.0676    0.0000 C   0  0  0  0  0  0  0  0  0
   -1.5151   -0.6551    0.0000 C   0  0  0  0  0  0  0  0  0
   -2.9441   -2.3051    0.0000 C   0  0  0  0  0  0  0  0  0
   -0.0862    0.1699    0.0000 C   0  0  0  0  0  0  0  0  0
    0.6283    0.5824    0.0000 C   0  0  0  0  0  0  0  0  0
    1.3427    0.1699    0.0000 C   0  0  0  0  0  0  0  0  0
    5.6296    2.6449    0.0000 C   0  0  0  0  0  0  0  0  0
    6.3440    3.0574    0.0000 C   0  0  0  0  0  0  0  0  0
    6.3440    3.8824    0.0000 C   0  0  0  0  0  0  0  0  0
    7.0585    4.2949    0.0000 N   0  0  0  0  0  0  0  0  0
    7.7730    3.8824    0.0000 C   0  0  0  0  0  0  0  0  0
    7.7730    3.0574    0.0000 C   0  0  0  0  0  0  0  0  0
    7.0585    2.6449    0.0000 C   0  0  0  0  0  0  0  0  0
    8.4875    4.2949    0.0000 C   0  0  0  0  0  0  0  0  0
    5.6296    4.2949    0.0000 C   0  0  0  0  0  0  0  0  0
    4.9151    3.8824    0.0000 C   0  0  0  0  0  0  0  0  0
    4.9151    3.0574    0.0000 C   0  0  0  0  0  0  0  0  0
  1  2  1  0  0  0  0
  1 25  1  0  0  0  0
  2  3  1  0  0  0  0
  3  4  1  0  0  0  0
  4  5  1  0  0  0  0
  4  9  1  0  0  0  0
  5  6  1  0  0  0  0
  6  7  1  0  0  0  0
  7  8  1  0  0  0  0
  7 10  1  0  0  0  0
  8  9  1  0  0  0  0
 10 11  1  0  0  0  0
 11 12  4  0  0  0  0
 11 24  4  0  0  0  0
 12 13  4  0  0  0  0
 13 14  1  0  0  0  0
 13 22  4  0  0  0  0
 14 15  1  0  0  0  0
 14 20  1  0  0  0  0
 15 16  1  0  0  0  0
 16 17  2  0  0  0  0
 16 18  1  0  0  0  0
 18 19  1  0  0  0  0
 18 21  1  0  0  0  0
 19 20  1  0  0  0  0
 22 23  4  0  0  0  0
 23 24  4  0  0  0  0
 25 26  4  0  0  0  0
 25 35  4  0  0  0  0
 26 27  4  0  0  0  0
 26 31  4  0  0  0  0
 27 28  4  0  0  0  0
 27 33  4  0  0  0  0
 28 29  4  0  0  0  0
 29 30  4  0  0  0  0
 29 32  1  0  0  0  0
 30 31  4  0  0  0  0
 33 34  4  0  0  0  0
 34 35  4  0  0  0  0
M  END
>  <Name_Molregno>
495444

>  <5-HT1A>
8.1

>  <5-HT1B>
6.9

>  <5-HT1D>
8

$$$$
495445
  Marvin  02231216192D 0   1.00000     0.00000     0

 35 39  0  0  0  0  0  0  0  0999 V2000
    5.5854    0.3322    0.0000 O   0  0  0  0  0  0  0  0  0
    4.8709   -0.0803    0.0000 C   0  0  0  0  0  0  0  0  0
    4.8709   -0.9053    0.0000 C   0  0  0  0  0  0  0  0  0
    4.1565   -1.3178    0.0000 N   0  0  0  0  0  0  0  0  0
    4.1565   -2.1428    0.0000 C   0  0  0  0  0  0  0  0  0
    3.4420   -2.5553    0.0000 C   0  0  0  0  0  0  0  0  0
    2.7275   -2.1428    0.0000 C   0  0  0  0  0  0  0  0  0
    2.7275   -1.3178    0.0000 C   0  0  0  0  0  0  0  0  0
    3.4420   -0.9053    0.0000 C   0  0  0  0  0  0  0  0  0
    2.0131   -2.5553    0.0000 C   0  0  0  0  0  0  0  0  0
    1.2986   -2.1428    0.0000 C   0  0  0  0  0  0  0  0  0
    0.5841   -2.5553    0.0000 C   0  0  0  0  0  0  0  0  0
   -0.1304   -2.1428    0.0000 C   0  0  0  0  0  0  0  0  0
   -0.8448   -2.5553    0.0000 N   0  0  0  0  0  0  0  0  0
   -0.8448   -3.3803    0.0000 C   0  0  0  0  0  0  0  0  0
   -1.5593   -3.7928    0.0000 C   0  0  0  0  0  0  0  0  0
   -2.2738   -3.3803    0.0000 N   0  0  0  0  0  0  0  0  0
   -2.2738   -2.5553    0.0000 C   0  0  0  0  0  0  0  0  0
   -1.5593   -2.1428    0.0000 C   0  0  0  0  0  0  0  0  0
   -1.5593   -1.3178    0.0000 O   0  0  0  0  0  0  0  0  0
   -2.9882   -3.7928    0.0000 C   0  0  0  0  0  0  0  0  0
   -0.1304   -1.3178    0.0000 C   0  0  0  0  0  0  0  0  0
    0.5841   -0.9053    0.0000 C   0  0  0  0  0  0  0  0  0
    1.2986   -1.3178    0.0000 C   0  0  0  0  0  0  0  0  0
    5.5854    1.1572    0.0000 C   0  0  0  0  0  0  0  0  0
    6.2999    1.5697    0.0000 C   0  0  0  0  0  0  0  0  0
    6.2999    2.3947    0.0000 C   0  0  0  0  0  0  0  0  0
    7.0144    2.8072    0.0000 N   0  0  0  0  0  0  0  0  0
    7.7288    2.3947    0.0000 C   0  0  0  0  0  0  0  0  0
    7.7288    1.5697    0.0000 C   0  0  0  0  0  0  0  0  0
    7.0144    1.1572    0.0000 C   0  0  0  0  0  0  0  0  0
    8.4433    2.8072    0.0000 C   0  0  0  0  0  0  0  0  0
    5.5854    2.8072    0.0000 C   0  0  0  0  0  0  0  0  0
    4.8709    2.3947    0.0000 C   0  0  0  0  0  0  0  0  0
    4.8709    1.5697    0.0000 C   0  0  0  0  0  0  0  0  0
  1  2  1  0  0  0  0
  1 25  1  0  0  0  0
  2  3  1  0  0  0  0
  3  4  1  0  0  0  0
  4  5  1  0  0  0  0
  4  9  1  0  0  0  0
  5  6  1  0  0  0  0
  6  7  1  0  0  0  0
  7  8  1  0  0  0  0
  7 10  1  0  0  0  0
  8  9  1  0  0  0  0
 10 11  1  0  0  0  0
 11 12  4  0  0  0  0
 11 24  4  0  0  0  0
 12 13  4  0  0  0  0
 13 14  1  0  0  0  0
 13 22  4  0  0  0  0
 14 15  1  0  0  0  0
 14 19  1  0  0  0  0
 15 16  1  0  0  0  0
 16 17  1  0  0  0  0
 17 18  1  0  0  0  0
 17 21  1  0  0  0  0
 18 19  1  0  0  0  0
 19 20  2  0  0  0  0
 22 23  4  0  0  0  0
 23 24  4  0  0  0  0
 25 26  4  0  0  0  0
 25 35  4  0  0  0  0
 26 27  4  0  0  0  0
 26 31  4  0  0  0  0
 27 28  4  0  0  0  0
 27 33  4  0  0  0  0
 28 29  4  0  0  0  0
 29 30  4  0  0  0  0
 29 32  1  0  0  0  0
 30 31  4  0  0  0  0
 33 34  4  0  0  0  0
 34 35  4  0  0  0  0
M  END
>  <Name_Molregno>
495445

>  <5-HT1A>
7.7

>  <5-HT1B>
7.2

>  <5-HT1D>
8.4

$$$$
495446
  Marvin  02231216192D 0   1.00000     0.00000     0

 33 37  0  0  0  0  0  0  0  0999 V2000
    4.9585    0.3386    0.0000 O   0  0  0  0  0  0  0  0  0
    4.2440   -0.0739    0.0000 C   0  0  0  0  0  0  0  0  0
    4.2440   -0.8989    0.0000 C   0  0  0  0  0  0  0  0  0
    3.5295   -1.3114    0.0000 N   0  0  0  0  0  0  0  0  0
    3.5295   -2.1364    0.0000 C   0  0  0  0  0  0  0  0  0
    2.8150   -2.5489    0.0000 C   0  0  0  0  0  0  0  0  0
    2.1006   -2.1364    0.0000 C   0  0  0  0  0  0  0  0  0
    2.1006   -1.3114    0.0000 C   0  0  0  0  0  0  0  0  0
    2.8150   -0.8989    0.0000 C   0  0  0  0  0  0  0  0  0
    1.3861   -2.5489    0.0000 C   0  0  0  0  0  0  0  0  0
    0.6716   -2.1364    0.0000 C   0  0  0  0  0  0  0  0  0
   -0.0428   -2.5489    0.0000 C   0  0  0  0  0  0  0  0  0
   -0.7573   -2.1364    0.0000 C   0  0  0  0  0  0  0  0  0
   -0.7573   -1.3114    0.0000 C   0  0  0  0  0  0  0  0  0
   -0.0428   -0.8989    0.0000 C   0  0  0  0  0  0  0  0  0
    0.6716   -1.3114    0.0000 C   0  0  0  0  0  0  0  0  0
   -1.4718   -2.5489    0.0000 C   0  0  0  0  0  0  0  0  0
   -1.4718   -3.3739    0.0000 C   0  0  0  0  0  0  0  0  0
   -2.1863   -3.7864    0.0000 C   0  0  0  0  0  0  0  0  0
   -2.9007   -3.3739    0.0000 C   0  0  0  0  0  0  0  0  0
   -2.9007   -2.5489    0.0000 C   0  0  0  0  0  0  0  0  0
   -2.1863   -2.1364    0.0000 C   0  0  0  0  0  0  0  0  0
    4.9585    1.1636    0.0000 C   0  0  0  0  0  0  0  0  0
    5.6729    1.5761    0.0000 C   0  0  0  0  0  0  0  0  0
    5.6729    2.4011    0.0000 C   0  0  0  0  0  0  0  0  0
    6.3874    2.8136    0.0000 N   0  0  0  0  0  0  0  0  0
    7.1019    2.4011    0.0000 C   0  0  0  0  0  0  0  0  0
    7.1019    1.5761    0.0000 C   0  0  0  0  0  0  0  0  0
    6.3874    1.1636    0.0000 C   0  0  0  0  0  0  0  0  0
    7.8163    2.8136    0.0000 C   0  0  0  0  0  0  0  0  0
    4.9585    2.8136    0.0000 C   0  0  0  0  0  0  0  0  0
    4.2440    2.4011    0.0000 C   0  0  0  0  0  0  0  0  0
    4.2440    1.5761    0.0000 C   0  0  0  0  0  0  0  0  0
  1  2  1  0  0  0  0
  1 23  1  0  0  0  0
  2  3  1  0  0  0  0
  3  4  1  0  0  0  0
  4  5  1  0  0  0  0
  4  9  1  0  0  0  0
  5  6  1  0  0  0  0
  6  7  1  0  0  0  0
  7  8  1  0  0  0  0
  7 10  1  0  0  0  0
  8  9  1  0  0  0  0
 10 11  1  0  0  0  0
 11 12  4  0  0  0  0
 11 16  4  0  0  0  0
 12 13  4  0  0  0  0
 13 14  4  0  0  0  0
 13 17  1  0  0  0  0
 14 15  4  0  0  0  0
 15 16  4  0  0  0  0
 17 18  4  0  0  0  0
 17 22  4  0  0  0  0
 18 19  4  0  0  0  0
 19 20  4  0  0  0  0
 20 21  4  0  0  0  0
 21 22  4  0  0  0  0
 23 24  4  0  0  0  0
 23 33  4  0  0  0  0
 24 25  4  0  0  0  0
 24 29  4  0  0  0  0
 25 26  4  0  0  0  0
 25 31  4  0  0  0  0
 26 27  4  0  0  0  0
 27 28  4  0  0  0  0
 27 30  1  0  0  0  0
 28 29  4  0  0  0  0
 31 32  4  0  0  0  0
 32 33  4  0  0  0  0
M  END
>  <Name_Molregno>
495446

>  <5-HT1A>
7.2

>  <5-HT1B>
7.2

>  <5-HT1D>
8.1

$$$$
495447
  Marvin  02231216192D 0   1.00000     0.00000     0

 32 36  0  0  0  0  0  0  0  0999 V2000
  -10.3635   -4.1147    0.0000 O   0  0  0  0  0  0  0  0  0
   -9.8115   -3.5016    0.0000 C   0  0  0  0  0  0  0  0  0
   -9.0578   -3.8372    0.0000 C   0  0  0  0  0  0  0  0  0
   -9.1440   -4.6577    0.0000 C   0  0  0  0  0  0  0  0  0
   -9.9510   -4.8292    0.0000 C   0  0  0  0  0  0  0  0  0
   -8.3433   -3.4247    0.0000 C   0  0  0  0  0  0  0  0  0
   -8.3433   -2.5997    0.0000 C   0  0  0  0  0  0  0  0  0
   -7.6288   -2.1872    0.0000 C   0  0  0  0  0  0  0  0  0
   -6.9144   -2.5997    0.0000 C   0  0  0  0  0  0  0  0  0
   -6.9144   -3.4247    0.0000 C   0  0  0  0  0  0  0  0  0
   -7.6288   -3.8372    0.0000 C   0  0  0  0  0  0  0  0  0
   -7.6288   -1.3622    0.0000 C   0  0  0  0  0  0  0  0  0
   -6.9144   -0.9497    0.0000 C   0  0  0  0  0  0  0  0  0
   -6.9144   -0.1247    0.0000 C   0  0  0  0  0  0  0  0  0
   -6.1999    0.2878    0.0000 C   0  0  0  0  0  0  0  0  0
   -5.4854   -0.1247    0.0000 N   0  0  0  0  0  0  0  0  0
   -5.4854   -0.9497    0.0000 C   0  0  0  0  0  0  0  0  0
   -6.1999   -1.3622    0.0000 C   0  0  0  0  0  0  0  0  0
   -4.7710    0.2878    0.0000 C   0  0  0  0  0  0  0  0  0
   -4.7710    1.1128    0.0000 C   0  0  0  0  0  0  0  0  0
   -4.0565    1.5253    0.0000 O   0  0  0  0  0  0  0  0  0
   -4.0565    2.3503    0.0000 C   0  0  0  0  0  0  0  0  0
   -3.3420    2.7628    0.0000 C   0  0  0  0  0  0  0  0  0
   -3.3420    3.5878    0.0000 C   0  0  0  0  0  0  0  0  0
   -2.6276    4.0003    0.0000 N   0  0  0  0  0  0  0  0  0
   -1.9131    3.5878    0.0000 C   0  0  0  0  0  0  0  0  0
   -1.9131    2.7628    0.0000 C   0  0  0  0  0  0  0  0  0
   -2.6276    2.3503    0.0000 C   0  0  0  0  0  0  0  0  0
   -1.1986    4.0003    0.0000 C   0  0  0  0  0  0  0  0  0
   -4.0565    4.0003    0.0000 C   0  0  0  0  0  0  0  0  0
   -4.7710    3.5878    0.0000 C   0  0  0  0  0  0  0  0  0
   -4.7710    2.7628    0.0000 C   0  0  0  0  0  0  0  0  0
  1  2  4  0  0  0  0
  1  5  4  0  0  0  0
  2  3  4  0  0  0  0
  3  4  4  0  0  0  0
  3  6  1  0  0  0  0
  4  5  4  0  0  0  0
  6  7  4  0  0  0  0
  6 11  4  0  0  0  0
  7  8  4  0  0  0  0
  8  9  4  0  0  0  0
  8 12  1  0  0  0  0
  9 10  4  0  0  0  0
 10 11  4  0  0  0  0
 12 13  1  0  0  0  0
 13 14  1  0  0  0  0
 13 18  1  0  0  0  0
 14 15  1  0  0  0  0
 15 16  1  0  0  0  0
 16 17  1  0  0  0  0
 16 19  1  0  0  0  0
 17 18  1  0  0  0  0
 19 20  1  0  0  0  0
 20 21  1  0  0  0  0
 21 22  1  0  0  0  0
 22 23  4  0  0  0  0
 22 32  4  0  0  0  0
 23 24  4  0  0  0  0
 23 28  4  0  0  0  0
 24 25  4  0  0  0  0
 24 30  4  0  0  0  0
 25 26  4  0  0  0  0
 26 27  4  0  0  0  0
 26 29  1  0  0  0  0
 27 28  4  0  0  0  0
 30 31  4  0  0  0  0
 31 32  4  0  0  0  0
M  END
>  <Name_Molregno>
495447

>  <5-HT1A>
7.5

>  <5-HT1B>
7.4

>  <5-HT1D>
8.2

$$$$
496003
  Marvin  02231216192D 0   1.00000     0.00000     0

 33 37  0  0  0  0  0  0  0  0999 V2000
    4.9585    0.3386    0.0000 O   0  0  0  0  0  0  0  0  0
    4.2440   -0.0739    0.0000 C   0  0  0  0  0  0  0  0  0
    4.2440   -0.8989    0.0000 C   0  0  0  0  0  0  0  0  0
    3.5295   -1.3114    0.0000 N   0  0  0  0  0  0  0  0  0
    3.5295   -2.1364    0.0000 C   0  0  0  0  0  0  0  0  0
    2.8150   -2.5489    0.0000 C   0  0  0  0  0  0  0  0  0
    2.1006   -2.1364    0.0000 C   0  0  0  0  0  0  0  0  0
    2.1006   -1.3114    0.0000 C   0  0  0  0  0  0  0  0  0
    2.8150   -0.8989    0.0000 C   0  0  0  0  0  0  0  0  0
    1.3861   -2.5489    0.0000 C   0  0  0  0  0  0  0  0  0
    0.6716   -2.1364    0.0000 C   0  0  0  0  0  0  0  0  0
   -0.0428   -2.5489    0.0000 C   0  0  0  0  0  0  0  0  0
   -0.7573   -2.1364    0.0000 C   0  0  0  0  0  0  0  0  0
   -1.4718   -2.5489    0.0000 N   0  0  0  0  0  0  0  0  0
   -1.4718   -3.3739    0.0000 C   0  0  0  0  0  0  0  0  0
   -2.1863   -3.7864    0.0000 C   0  0  0  0  0  0  0  0  0
   -2.9007   -3.3739    0.0000 C   0  0  0  0  0  0  0  0  0
   -2.9007   -2.5489    0.0000 C   0  0  0  0  0  0  0  0  0
   -2.1863   -2.1364    0.0000 C   0  0  0  0  0  0  0  0  0
   -0.7573   -1.3114    0.0000 C   0  0  0  0  0  0  0  0  0
   -0.0428   -0.8989    0.0000 C   0  0  0  0  0  0  0  0  0
    0.6716   -1.3114    0.0000 C   0  0  0  0  0  0  0  0  0
    4.9585    1.1636    0.0000 C   0  0  0  0  0  0  0  0  0
    5.6729    1.5761    0.0000 C   0  0  0  0  0  0  0  0  0
    5.6729    2.4011    0.0000 C   0  0  0  0  0  0  0  0  0
    6.3874    2.8136    0.0000 N   0  0  0  0  0  0  0  0  0
    7.1019    2.4011    0.0000 C   0  0  0  0  0  0  0  0  0
    7.1019    1.5761    0.0000 C   0  0  0  0  0  0  0  0  0
    6.3874    1.1636    0.0000 C   0  0  0  0  0  0  0  0  0
    7.8163    2.8136    0.0000 C   0  0  0  0  0  0  0  0  0
    4.9585    2.8136    0.0000 C   0  0  0  0  0  0  0  0  0
    4.2440    2.4011    0.0000 C   0  0  0  0  0  0  0  0  0
    4.2440    1.5761    0.0000 C   0  0  0  0  0  0  0  0  0
  1  2  1  0  0  0  0
  1 23  1  0  0  0  0
  2  3  1  0  0  0  0
  3  4  1  0  0  0  0
  4  5  1  0  0  0  0
  4  9  1  0  0  0  0
  5  6  1  0  0  0  0
  6  7  1  0  0  0  0
  7  8  1  0  0  0  0
  7 10  1  0  0  0  0
  8  9  1  0  0  0  0
 10 11  1  0  0  0  0
 11 12  4  0  0  0  0
 11 22  4  0  0  0  0
 12 13  4  0  0  0  0
 13 14  1  0  0  0  0
 13 20  4  0  0  0  0
 14 15  1  0  0  0  0
 14 19  1  0  0  0  0
 15 16  1  0  0  0  0
 16 17  1  0  0  0  0
 17 18  1  0  0  0  0
 18 19  1  0  0  0  0
 20 21  4  0  0  0  0
 21 22  4  0  0  0  0
 23 24  4  0  0  0  0
 23 33  4  0  0  0  0
 24 25  4  0  0  0  0
 24 29  4  0  0  0  0
 25 26  4  0  0  0  0
 25 31  4  0  0  0  0
 26 27  4  0  0  0  0
 27 28  4  0  0  0  0
 27 30  1  0  0  0  0
 28 29  4  0  0  0  0
 31 32  4  0  0  0  0
 32 33  4  0  0  0  0
M  END
>  <Name_Molregno>
496003

>  <5-HT1A>
8.4

>  <5-HT1B>
8.7

>  <5-HT1D>
9

$$$$
496004
  Marvin  02231216192D 0   1.00000     0.00000     0

 33 37  0  0  0  0  0  0  0  0999 V2000
  -10.4424   -5.8330    0.0000 O   0  0  0  0  0  0  0  0  0
  -10.4424   -5.0080    0.0000 C   0  0  0  0  0  0  0  0  0
   -9.7280   -4.5955    0.0000 C   0  0  0  0  0  0  0  0  0
   -9.0135   -5.0080    0.0000 N   0  0  0  0  0  0  0  0  0
   -9.0135   -5.8330    0.0000 C   0  0  0  0  0  0  0  0  0
   -9.7280   -6.2455    0.0000 C   0  0  0  0  0  0  0  0  0
   -8.2990   -4.5955    0.0000 C   0  0  0  0  0  0  0  0  0
   -8.2990   -3.7705    0.0000 C   0  0  0  0  0  0  0  0  0
   -7.5845   -3.3580    0.0000 C   0  0  0  0  0  0  0  0  0
   -6.8701   -3.7705    0.0000 C   0  0  0  0  0  0  0  0  0
   -6.8701   -4.5955    0.0000 C   0  0  0  0  0  0  0  0  0
   -7.5845   -5.0080    0.0000 C   0  0  0  0  0  0  0  0  0
   -7.5845   -2.5330    0.0000 C   0  0  0  0  0  0  0  0  0
   -6.8701   -2.1205    0.0000 C   0  0  0  0  0  0  0  0  0
   -6.8701   -1.2955    0.0000 C   0  0  0  0  0  0  0  0  0
   -6.1556   -0.8830    0.0000 C   0  0  0  0  0  0  0  0  0
   -5.4411   -1.2955    0.0000 N   0  0  0  0  0  0  0  0  0
   -5.4411   -2.1205    0.0000 C   0  0  0  0  0  0  0  0  0
   -6.1556   -2.5330    0.0000 C   0  0  0  0  0  0  0  0  0
   -4.7267   -0.8830    0.0000 C   0  0  0  0  0  0  0  0  0
   -4.7267   -0.0580    0.0000 C   0  0  0  0  0  0  0  0  0
   -4.0122    0.3545    0.0000 O   0  0  0  0  0  0  0  0  0
   -4.0122    1.1795    0.0000 C   0  0  0  0  0  0  0  0  0
   -3.2977    1.5920    0.0000 C   0  0  0  0  0  0  0  0  0
   -3.2977    2.4170    0.0000 C   0  0  0  0  0  0  0  0  0
   -2.5832    2.8295    0.0000 N   0  0  0  0  0  0  0  0  0
   -1.8688    2.4170    0.0000 C   0  0  0  0  0  0  0  0  0
   -1.8688    1.5920    0.0000 C   0  0  0  0  0  0  0  0  0
   -2.5832    1.1795    0.0000 C   0  0  0  0  0  0  0  0  0
   -1.1543    2.8295    0.0000 C   0  0  0  0  0  0  0  0  0
   -4.0122    2.8295    0.0000 C   0  0  0  0  0  0  0  0  0
   -4.7267    2.4170    0.0000 C   0  0  0  0  0  0  0  0  0
   -4.7267    1.5920    0.0000 C   0  0  0  0  0  0  0  0  0
  1  2  1  0  0  0  0
  1  6  1  0  0  0  0
  2  3  1  0  0  0  0
  3  4  1  0  0  0  0
  4  5  1  0  0  0  0
  4  7  1  0  0  0  0
  5  6  1  0  0  0  0
  7  8  4  0  0  0  0
  7 12  4  0  0  0  0
  8  9  4  0  0  0  0
  9 10  4  0  0  0  0
  9 13  1  0  0  0  0
 10 11  4  0  0  0  0
 11 12  4  0  0  0  0
 13 14  1  0  0  0  0
 14 15  1  0  0  0  0
 14 19  1  0  0  0  0
 15 16  1  0  0  0  0
 16 17  1  0  0  0  0
 17 18  1  0  0  0  0
 17 20  1  0  0  0  0
 18 19  1  0  0  0  0
 20 21  1  0  0  0  0
 21 22  1  0  0  0  0
 22 23  1  0  0  0  0
 23 24  4  0  0  0  0
 23 33  4  0  0  0  0
 24 25  4  0  0  0  0
 24 29  4  0  0  0  0
 25 26  4  0  0  0  0
 25 31  4  0  0  0  0
 26 27  4  0  0  0  0
 27 28  4  0  0  0  0
 27 30  1  0  0  0  0
 28 29  4  0  0  0  0
 31 32  4  0  0  0  0
 32 33  4  0  0  0  0
M  END
>  <Name_Molregno>
496004

>  <5-HT1A>
8.3

>  <5-HT1B>
6.9

>  <5-HT1D>
8.6

$$$$
496005
  Marvin  02231216192D 0   1.00000     0.00000     0

 35 39  0  0  1  0  0  0  0  0999 V2000
   -9.8318   -5.5551    0.0000 O   0  0  0  0  0  0  0  0  0
   -9.8318   -4.7301    0.0000 C   0  0  0  0  0  0  0  0  0
   -9.1174   -4.3176    0.0000 C   0  0  0  0  0  0  0  0  0
   -8.4029   -4.7301    0.0000 N   0  0  0  0  0  0  0  0  0
   -8.4029   -5.5551    0.0000 C   0  0  0  0  0  0  0  0  0
   -9.1174   -5.9676    0.0000 C   0  0  0  0  0  0  0  0  0
   -9.1174   -6.7926    0.0000 C   0  0  0  0  0  0  0  0  0
   -7.6884   -4.3176    0.0000 C   0  0  0  0  0  0  0  0  0
   -7.6884   -3.4926    0.0000 C   0  0  0  0  0  0  0  0  0
   -6.9740   -3.0801    0.0000 C   0  0  0  0  0  0  0  0  0
   -6.2595   -3.4926    0.0000 C   0  0  0  0  0  0  0  0  0
   -6.2595   -4.3176    0.0000 C   0  0  0  0  0  0  0  0  0
   -6.9740   -4.7301    0.0000 C   0  0  0  0  0  0  0  0  0
   -6.9740   -2.2551    0.0000 C   0  0  0  0  0  0  0  0  0
   -6.2595   -1.8426    0.0000 C   0  0  0  0  0  0  0  0  0
   -6.2595   -1.0176    0.0000 C   0  0  0  0  0  0  0  0  0
   -5.5450   -0.6051    0.0000 C   0  0  0  0  0  0  0  0  0
   -4.8305   -1.0176    0.0000 N   0  0  0  0  0  0  0  0  0
   -4.8305   -1.8426    0.0000 C   0  0  0  0  0  0  0  0  0
   -5.5450   -2.2551    0.0000 C   0  0  0  0  0  0  0  0  0
   -4.1161   -0.6051    0.0000 C   0  0  0  0  0  0  0  0  0
   -4.1161    0.2199    0.0000 C   0  0  0  0  0  0  0  0  0
   -3.4016    0.6324    0.0000 O   0  0  0  0  0  0  0  0  0
   -3.4016    1.4574    0.0000 C   0  0  0  0  0  0  0  0  0
   -2.6871    1.8699    0.0000 C   0  0  0  0  0  0  0  0  0
   -2.6871    2.6949    0.0000 C   0  0  0  0  0  0  0  0  0
   -1.9727    3.1074    0.0000 N   0  0  0  0  0  0  0  0  0
   -1.2582    2.6949    0.0000 C   0  0  0  0  0  0  0  0  0
   -1.2582    1.8699    0.0000 C   0  0  0  0  0  0  0  0  0
   -1.9727    1.4574    0.0000 C   0  0  0  0  0  0  0  0  0
   -0.5437    3.1074    0.0000 C   0  0  0  0  0  0  0  0  0
   -3.4016    3.1074    0.0000 C   0  0  0  0  0  0  0  0  0
   -4.1161    2.6949    0.0000 C   0  0  0  0  0  0  0  0  0
   -4.1161    1.8699    0.0000 C   0  0  0  0  0  0  0  0  0
  -10.5463   -4.3176    0.0000 C   0  0  0  0  0  0  0  0  0
  1  2  1  0  0  0  0
  1  6  1  0  0  0  0
  2  3  1  0  0  0  0
  2 35  1  0  0  0  0
  3  4  1  0  0  0  0
  4  5  1  0  0  0  0
  4  8  1  0  0  0  0
  5  6  1  0  0  0  0
  6  7  1  0  0  0  0
  8  9  4  0  0  0  0
  8 13  4  0  0  0  0
  9 10  4  0  0  0  0
 10 11  4  0  0  0  0
 10 14  1  0  0  0  0
 11 12  4  0  0  0  0
 12 13  4  0  0  0  0
 14 15  1  0  0  0  0
 15 16  1  0  0  0  0
 15 20  1  0  0  0  0
 16 17  1  0  0  0  0
 17 18  1  0  0  0  0
 18 19  1  0  0  0  0
 18 21  1  0  0  0  0
 19 20  1  0  0  0  0
 21 22  1  0  0  0  0
 22 23  1  0  0  0  0
 23 24  1  0  0  0  0
 24 25  4  0  0  0  0
 24 34  4  0  0  0  0
 25 26  4  0  0  0  0
 25 30  4  0  0  0  0
 26 27  4  0  0  0  0
 26 32  4  0  0  0  0
 27 28  4  0  0  0  0
 28 29  4  0  0  0  0
 28 31  1  0  0  0  0
 29 30  4  0  0  0  0
 32 33  4  0  0  0  0
 33 34  4  0  0  0  0
M  END
>  <Name_Molregno>
496005

>  <5-HT1A>
8.6

>  <5-HT1B>
6.8

>  <5-HT1D>
8.8

$$$$
496006
  Marvin  02231216192D 0   1.00000     0.00000     0

 35 39  0  0  0  0  0  0  0  0999 V2000
    5.6634    0.3670    0.0000 O   0  0  0  0  0  0  0  0  0
    4.9489   -0.0455    0.0000 C   0  0  0  0  0  0  0  0  0
    4.9489   -0.8705    0.0000 C   0  0  0  0  0  0  0  0  0
    4.2344   -1.2830    0.0000 N   0  0  0  0  0  0  0  0  0
    4.2344   -2.1080    0.0000 C   0  0  0  0  0  0  0  0  0
    3.5200   -2.5205    0.0000 C   0  0  0  0  0  0  0  0  0
    2.8055   -2.1080    0.0000 C   0  0  0  0  0  0  0  0  0
    2.8055   -1.2830    0.0000 C   0  0  0  0  0  0  0  0  0
    3.5200   -0.8705    0.0000 C   0  0  0  0  0  0  0  0  0
    2.0910   -2.5205    0.0000 C   0  0  0  0  0  0  0  0  0
    1.3766   -2.1080    0.0000 C   0  0  0  0  0  0  0  0  0
    0.6621   -2.5205    0.0000 C   0  0  0  0  0  0  0  0  0
   -0.0524   -2.1080    0.0000 C   0  0  0  0  0  0  0  0  0
   -0.7669   -2.5205    0.0000 N   0  0  0  0  0  0  0  0  0
   -0.7052   -3.3431    0.0000 C   0  0  0  0  0  0  0  0  0
   -1.3100   -3.9043    0.0000 C   0  0  0  0  0  0  0  0  0
   -2.1258   -3.7813    0.0000 C   0  0  0  0  0  0  0  0  0
   -2.5383   -3.0669    0.0000 N   0  0  0  0  0  0  0  0  0
   -2.2369   -2.2989    0.0000 C   0  0  0  0  0  0  0  0  0
   -1.4485   -2.0557    0.0000 C   0  0  0  0  0  0  0  0  0
   -3.3610   -3.1285    0.0000 C   0  0  0  0  0  0  0  0  0
   -0.0524   -1.2830    0.0000 C   0  0  0  0  0  0  0  0  0
    0.6621   -0.8705    0.0000 C   0  0  0  0  0  0  0  0  0
    1.3766   -1.2830    0.0000 C   0  0  0  0  0  0  0  0  0
    5.6634    1.1920    0.0000 C   0  0  0  0  0  0  0  0  0
    6.3779    1.6045    0.0000 C   0  0  0  0  0  0  0  0  0
    6.3779    2.4295    0.0000 C   0  0  0  0  0  0  0  0  0
    7.0923    2.8420    0.0000 N   0  0  0  0  0  0  0  0  0
    7.8068    2.4295    0.0000 C   0  0  0  0  0  0  0  0  0
    7.8068    1.6045    0.0000 C   0  0  0  0  0  0  0  0  0
    7.0923    1.1920    0.0000 C   0  0  0  0  0  0  0  0  0
    8.5213    2.8420    0.0000 C   0  0  0  0  0  0  0  0  0
    5.6634    2.8420    0.0000 C   0  0  0  0  0  0  0  0  0
    4.9489    2.4295    0.0000 C   0  0  0  0  0  0  0  0  0
    4.9489    1.6045    0.0000 C   0  0  0  0  0  0  0  0  0
  1  2  1  0  0  0  0
  1 25  1  0  0  0  0
  2  3  1  0  0  0  0
  3  4  1  0  0  0  0
  4  5  1  0  0  0  0
  4  9  1  0  0  0  0
  5  6  1  0  0  0  0
  6  7  1  0  0  0  0
  7  8  1  0  0  0  0
  7 10  1  0  0  0  0
  8  9  1  0  0  0  0
 10 11  1  0  0  0  0
 11 12  4  0  0  0  0
 11 24  4  0  0  0  0
 12 13  4  0  0  0  0
 13 14  1  0  0  0  0
 13 22  4  0  0  0  0
 14 15  1  0  0  0  0
 14 20  1  0  0  0  0
 15 16  1  0  0  0  0
 16 17  1  0  0  0  0
 17 18  1  0  0  0  0
 18 19  1  0  0  0  0
 18 21  1  0  0  0  0
 19 20  1  0  0  0  0
 22 23  4  0  0  0  0
 23 24  4  0  0  0  0
 25 26  4  0  0  0  0
 25 35  4  0  0  0  0
 26 27  4  0  0  0  0
 26 31  4  0  0  0  0
 27 28  4  0  0  0  0
 27 33  4  0  0  0  0
 28 29  4  0  0  0  0
 29 30  4  0  0  0  0
 29 32  1  0  0  0  0
 30 31  4  0  0  0  0
 33 34  4  0  0  0  0
 34 35  4  0  0  0  0
M  END
>  <Name_Molregno>
496006

>  <5-HT1A>
8.6

>  <5-HT1B>
8.1

>  <5-HT1D>
9.2

$$$$
496072
  Marvin  02231216192D 0   1.00000     0.00000     0

 32 36  0  0  0  0  0  0  0  0999 V2000
    4.6100    0.2750    0.0000 O   0  0  0  0  0  0  0  0  0
    3.8955   -0.1375    0.0000 C   0  0  0  0  0  0  0  0  0
    3.8955   -0.9625    0.0000 C   0  0  0  0  0  0  0  0  0
    3.1810   -1.3750    0.0000 N   0  0  0  0  0  0  0  0  0
    3.1810   -2.2000    0.0000 C   0  0  0  0  0  0  0  0  0
    2.4666   -2.6125    0.0000 C   0  0  0  0  0  0  0  0  0
    1.7521   -2.2000    0.0000 C   0  0  0  0  0  0  0  0  0
    1.7521   -1.3750    0.0000 C   0  0  0  0  0  0  0  0  0
    2.4666   -0.9625    0.0000 C   0  0  0  0  0  0  0  0  0
    1.0376   -2.6125    0.0000 C   0  0  0  0  0  0  0  0  0
    0.3232   -2.2000    0.0000 C   0  0  0  0  0  0  0  0  0
   -0.3913   -2.6125    0.0000 C   0  0  0  0  0  0  0  0  0
   -1.1058   -2.2000    0.0000 C   0  0  0  0  0  0  0  0  0
   -1.8202   -2.6125    0.0000 N   0  0  0  0  0  0  0  0  0
   -1.9065   -3.4330    0.0000 C   0  0  0  0  0  0  0  0  0
   -2.7135   -3.6045    0.0000 C   0  0  0  0  0  0  0  0  0
   -3.1260   -2.8900    0.0000 C   0  0  0  0  0  0  0  0  0
   -2.5739   -2.2769    0.0000 C   0  0  0  0  0  0  0  0  0
   -1.1058   -1.3750    0.0000 C   0  0  0  0  0  0  0  0  0
   -0.3913   -0.9625    0.0000 C   0  0  0  0  0  0  0  0  0
    0.3232   -1.3750    0.0000 C   0  0  0  0  0  0  0  0  0
    4.6100    1.1000    0.0000 C   0  0  0  0  0  0  0  0  0
    5.3245    1.5125    0.0000 C   0  0  0  0  0  0  0  0  0
    5.3245    2.3375    0.0000 C   0  0  0  0  0  0  0  0  0
    6.0389    2.7500    0.0000 N   0  0  0  0  0  0  0  0  0
    6.7534    2.3375    0.0000 C   0  0  0  0  0  0  0  0  0
    6.7534    1.5125    0.0000 C   0  0  0  0  0  0  0  0  0
    6.0389    1.1000    0.0000 C   0  0  0  0  0  0  0  0  0
    7.4679    2.7500    0.0000 C   0  0  0  0  0  0  0  0  0
    4.6100    2.7500    0.0000 C   0  0  0  0  0  0  0  0  0
    3.8955    2.3375    0.0000 C   0  0  0  0  0  0  0  0  0
    3.8955    1.5125    0.0000 C   0  0  0  0  0  0  0  0  0
  1  2  1  0  0  0  0
  1 22  1  0  0  0  0
  2  3  1  0  0  0  0
  3  4  1  0  0  0  0
  4  5  1  0  0  0  0
  4  9  1  0  0  0  0
  5  6  1  0  0  0  0
  6  7  1  0  0  0  0
  7  8  1  0  0  0  0
  7 10  1  0  0  0  0
  8  9  1  0  0  0  0
 10 11  1  0  0  0  0
 11 12  4  0  0  0  0
 11 21  4  0  0  0  0
 12 13  4  0  0  0  0
 13 14  1  0  0  0  0
 13 19  4  0  0  0  0
 14 15  1  0  0  0  0
 14 18  1  0  0  0  0
 15 16  1  0  0  0  0
 16 17  1  0  0  0  0
 17 18  1  0  0  0  0
 19 20  4  0  0  0  0
 20 21  4  0  0  0  0
 22 23  4  0  0  0  0
 22 32  4  0  0  0  0
 23 24  4  0  0  0  0
 23 28  4  0  0  0  0
 24 25  4  0  0  0  0
 24 30  4  0  0  0  0
 25 26  4  0  0  0  0
 26 27  4  0  0  0  0
 26 29  1  0  0  0  0
 27 28  4  0  0  0  0
 30 31  4  0  0  0  0
 31 32  4  0  0  0  0
M  END
>  <Name_Molregno>
496072

>  <5-HT1A>
8

>  <5-HT1B>
7.4

>  <5-HT1D>
8.6

$$$$
496073
  Marvin  02231216192D 0   1.00000     0.00000     0

 34 38  0  0  0  0  0  0  0  0999 V2000
    5.3301    0.3608    0.0000 O   0  0  0  0  0  0  0  0  0
    4.6156   -0.0517    0.0000 C   0  0  0  0  0  0  0  0  0
    4.6156   -0.8767    0.0000 C   0  0  0  0  0  0  0  0  0
    3.9012   -1.2892    0.0000 N   0  0  0  0  0  0  0  0  0
    3.9012   -2.1142    0.0000 C   0  0  0  0  0  0  0  0  0
    3.1867   -2.5267    0.0000 C   0  0  0  0  0  0  0  0  0
    2.4722   -2.1142    0.0000 C   0  0  0  0  0  0  0  0  0
    2.4722   -1.2892    0.0000 C   0  0  0  0  0  0  0  0  0
    3.1867   -0.8767    0.0000 C   0  0  0  0  0  0  0  0  0
    1.7577   -2.5267    0.0000 C   0  0  0  0  0  0  0  0  0
    1.0433   -2.1142    0.0000 C   0  0  0  0  0  0  0  0  0
    0.3288   -2.5267    0.0000 C   0  0  0  0  0  0  0  0  0
   -0.3857   -2.1142    0.0000 C   0  0  0  0  0  0  0  0  0
   -0.3857   -1.2892    0.0000 C   0  0  0  0  0  0  0  0  0
    0.3288   -0.8767    0.0000 C   0  0  0  0  0  0  0  0  0
    1.0433   -1.2892    0.0000 C   0  0  0  0  0  0  0  0  0
   -1.1001   -2.5267    0.0000 C   0  0  0  0  0  0  0  0  0
   -1.1001   -3.3517    0.0000 C   0  0  0  0  0  0  0  0  0
   -1.8146   -3.7642    0.0000 C   0  0  0  0  0  0  0  0  0
   -2.5291   -3.3517    0.0000 N   0  0  0  0  0  0  0  0  0
   -2.5291   -2.5267    0.0000 C   0  0  0  0  0  0  0  0  0
   -1.8146   -2.1142    0.0000 C   0  0  0  0  0  0  0  0  0
   -3.2435   -3.7642    0.0000 C   0  0  0  0  0  0  0  0  0
    5.3301    1.1858    0.0000 C   0  0  0  0  0  0  0  0  0
    6.0446    1.5983    0.0000 C   0  0  0  0  0  0  0  0  0
    6.0446    2.4233    0.0000 C   0  0  0  0  0  0  0  0  0
    6.7590    2.8358    0.0000 N   0  0  0  0  0  0  0  0  0
    7.4735    2.4233    0.0000 C   0  0  0  0  0  0  0  0  0
    7.4735    1.5983    0.0000 C   0  0  0  0  0  0  0  0  0
    6.7590    1.1858    0.0000 C   0  0  0  0  0  0  0  0  0
    8.1880    2.8358    0.0000 C   0  0  0  0  0  0  0  0  0
    5.3301    2.8358    0.0000 C   0  0  0  0  0  0  0  0  0
    4.6156    2.4233    0.0000 C   0  0  0  0  0  0  0  0  0
    4.6156    1.5983    0.0000 C   0  0  0  0  0  0  0  0  0
  1  2  1  0  0  0  0
  1 24  1  0  0  0  0
  2  3  1  0  0  0  0
  3  4  1  0  0  0  0
  4  5  1  0  0  0  0
  4  9  1  0  0  0  0
  5  6  1  0  0  0  0
  6  7  1  0  0  0  0
  7  8  1  0  0  0  0
  7 10  1  0  0  0  0
  8  9  1  0  0  0  0
 10 11  1  0  0  0  0
 11 12  4  0  0  0  0
 11 16  4  0  0  0  0
 12 13  4  0  0  0  0
 13 14  4  0  0  0  0
 13 17  1  0  0  0  0
 14 15  4  0  0  0  0
 15 16  4  0  0  0  0
 17 18  1  0  0  0  0
 17 22  1  0  0  0  0
 18 19  1  0  0  0  0
 19 20  1  0  0  0  0
 20 21  1  0  0  0  0
 20 23  1  0  0  0  0
 21 22  1  0  0  0  0
 24 25  4  0  0  0  0
 24 34  4  0  0  0  0
 25 26  4  0  0  0  0
 25 30  4  0  0  0  0
 26 27  4  0  0  0  0
 26 32  4  0  0  0  0
 27 28  4  0  0  0  0
 28 29  4  0  0  0  0
 28 31  1  0  0  0  0
 29 30  4  0  0  0  0
 32 33  4  0  0  0  0
 33 34  4  0  0  0  0
M  END
>  <Name_Molregno>
496073

>  <5-HT1A>
8.5

>  <5-HT1B>
8.3

>  <5-HT1D>
9.7

$$$$
496074
  Marvin  02231216192D 0   1.00000     0.00000     0

 33 37  0  0  0  0  0  0  0  0999 V2000
    4.9585    0.3386    0.0000 O   0  0  0  0  0  0  0  0  0
    4.2440   -0.0739    0.0000 C   0  0  0  0  0  0  0  0  0
    4.2440   -0.8989    0.0000 C   0  0  0  0  0  0  0  0  0
    3.5295   -1.3114    0.0000 N   0  0  0  0  0  0  0  0  0
    3.5295   -2.1364    0.0000 C   0  0  0  0  0  0  0  0  0
    2.8150   -2.5489    0.0000 C   0  0  0  0  0  0  0  0  0
    2.1006   -2.1364    0.0000 C   0  0  0  0  0  0  0  0  0
    2.1006   -1.3114    0.0000 C   0  0  0  0  0  0  0  0  0
    2.8150   -0.8989    0.0000 C   0  0  0  0  0  0  0  0  0
    1.3861   -2.5489    0.0000 C   0  0  0  0  0  0  0  0  0
    0.6716   -2.1364    0.0000 C   0  0  0  0  0  0  0  0  0
   -0.0428   -2.5489    0.0000 C   0  0  0  0  0  0  0  0  0
   -0.7573   -2.1364    0.0000 C   0  0  0  0  0  0  0  0  0
   -0.7573   -1.3114    0.0000 C   0  0  0  0  0  0  0  0  0
   -0.0428   -0.8989    0.0000 C   0  0  0  0  0  0  0  0  0
    0.6716   -1.3114    0.0000 C   0  0  0  0  0  0  0  0  0
   -1.4718   -2.5489    0.0000 C   0  0  0  0  0  0  0  0  0
   -1.4718   -3.3739    0.0000 C   0  0  0  0  0  0  0  0  0
   -2.1863   -3.7864    0.0000 C   0  0  0  0  0  0  0  0  0
   -2.9007   -3.3739    0.0000 N   0  0  0  0  0  0  0  0  0
   -2.9007   -2.5489    0.0000 C   0  0  0  0  0  0  0  0  0
   -2.1863   -2.1364    0.0000 C   0  0  0  0  0  0  0  0  0
    4.9585    1.1636    0.0000 C   0  0  0  0  0  0  0  0  0
    5.6729    1.5761    0.0000 C   0  0  0  0  0  0  0  0  0
    5.6729    2.4011    0.0000 C   0  0  0  0  0  0  0  0  0
    6.3874    2.8136    0.0000 N   0  0  0  0  0  0  0  0  0
    7.1019    2.4011    0.0000 C   0  0  0  0  0  0  0  0  0
    7.1019    1.5761    0.0000 C   0  0  0  0  0  0  0  0  0
    6.3874    1.1636    0.0000 C   0  0  0  0  0  0  0  0  0
    7.8163    2.8136    0.0000 C   0  0  0  0  0  0  0  0  0
    4.9585    2.8136    0.0000 C   0  0  0  0  0  0  0  0  0
    4.2440    2.4011    0.0000 C   0  0  0  0  0  0  0  0  0
    4.2440    1.5761    0.0000 C   0  0  0  0  0  0  0  0  0
  1  2  1  0  0  0  0
  1 23  1  0  0  0  0
  2  3  1  0  0  0  0
  3  4  1  0  0  0  0
  4  5  1  0  0  0  0
  4  9  1  0  0  0  0
  5  6  1  0  0  0  0
  6  7  1  0  0  0  0
  7  8  1  0  0  0  0
  7 10  1  0  0  0  0
  8  9  1  0  0  0  0
 10 11  1  0  0  0  0
 11 12  4  0  0  0  0
 11 16  4  0  0  0  0
 12 13  4  0  0  0  0
 13 14  4  0  0  0  0
 13 17  1  0  0  0  0
 14 15  4  0  0  0  0
 15 16  4  0  0  0  0
 17 18  1  0  0  0  0
 17 22  1  0  0  0  0
 18 19  1  0  0  0  0
 19 20  1  0  0  0  0
 20 21  1  0  0  0  0
 21 22  1  0  0  0  0
 23 24  4  0  0  0  0
 23 33  4  0  0  0  0
 24 25  4  0  0  0  0
 24 29  4  0  0  0  0
 25 26  4  0  0  0  0
 25 31  4  0  0  0  0
 26 27  4  0  0  0  0
 27 28  4  0  0  0  0
 27 30  1  0  0  0  0
 28 29  4  0  0  0  0
 31 32  4  0  0  0  0
 32 33  4  0  0  0  0
M  END
>  <Name_Molregno>
496074

>  <5-HT1A>
8.2

>  <5-HT1B>
8.2

>  <5-HT1D>
8.9

$$$$
496075
  Marvin  02231216192D 0   1.00000     0.00000     0

 36 40  0  0  0  0  0  0  0  0999 V2000
    6.0644    0.4593    0.0000 O   0  0  0  0  0  0  0  0  0
    5.3499    0.0468    0.0000 C   0  0  0  0  0  0  0  0  0
    5.3499   -0.7782    0.0000 C   0  0  0  0  0  0  0  0  0
    4.6355   -1.1907    0.0000 N   0  0  0  0  0  0  0  0  0
    4.6355   -2.0157    0.0000 C   0  0  0  0  0  0  0  0  0
    3.9210   -2.4282    0.0000 C   0  0  0  0  0  0  0  0  0
    3.2065   -2.0157    0.0000 C   0  0  0  0  0  0  0  0  0
    3.2065   -1.1907    0.0000 C   0  0  0  0  0  0  0  0  0
    3.9210   -0.7782    0.0000 C   0  0  0  0  0  0  0  0  0
    2.4921   -2.4282    0.0000 C   0  0  0  0  0  0  0  0  0
    1.7776   -2.0157    0.0000 C   0  0  0  0  0  0  0  0  0
    1.0631   -2.4282    0.0000 C   0  0  0  0  0  0  0  0  0
    0.3487   -2.0157    0.0000 C   0  0  0  0  0  0  0  0  0
    0.3487   -1.1907    0.0000 C   0  0  0  0  0  0  0  0  0
    1.0631   -0.7782    0.0000 C   0  0  0  0  0  0  0  0  0
    1.7776   -1.1907    0.0000 C   0  0  0  0  0  0  0  0  0
   -0.3658   -2.4282    0.0000 C   0  0  0  0  0  0  0  0  0
   -0.3658   -3.2532    0.0000 C   0  0  0  0  0  0  0  0  0
   -1.0803   -3.6657    0.0000 C   0  0  0  0  0  0  0  0  0
   -1.7948   -3.2532    0.0000 N   0  0  0  0  0  0  0  0  0
   -1.7948   -2.4282    0.0000 C   0  0  0  0  0  0  0  0  0
   -1.0803   -2.0157    0.0000 C   0  0  0  0  0  0  0  0  0
   -2.5092   -3.6657    0.0000 C   0  0  0  0  0  0  0  0  0
   -3.2237   -3.2532    0.0000 O   0  0  0  0  0  0  0  0  0
   -2.5092   -4.4907    0.0000 C   0  0  0  0  0  0  0  0  0
    6.0644    1.2843    0.0000 C   0  0  0  0  0  0  0  0  0
    6.7789    1.6968    0.0000 C   0  0  0  0  0  0  0  0  0
    6.7789    2.5218    0.0000 C   0  0  0  0  0  0  0  0  0
    7.4934    2.9343    0.0000 N   0  0  0  0  0  0  0  0  0
    8.2078    2.5218    0.0000 C   0  0  0  0  0  0  0  0  0
    8.2078    1.6968    0.0000 C   0  0  0  0  0  0  0  0  0
    7.4934    1.2843    0.0000 C   0  0  0  0  0  0  0  0  0
    8.9223    2.9343    0.0000 C   0  0  0  0  0  0  0  0  0
    6.0644    2.9343    0.0000 C   0  0  0  0  0  0  0  0  0
    5.3499    2.5218    0.0000 C   0  0  0  0  0  0  0  0  0
    5.3499    1.6968    0.0000 C   0  0  0  0  0  0  0  0  0
  1  2  1  0  0  0  0
  1 26  1  0  0  0  0
  2  3  1  0  0  0  0
  3  4  1  0  0  0  0
  4  5  1  0  0  0  0
  4  9  1  0  0  0  0
  5  6  1  0  0  0  0
  6  7  1  0  0  0  0
  7  8  1  0  0  0  0
  7 10  1  0  0  0  0
  8  9  1  0  0  0  0
 10 11  1  0  0  0  0
 11 12  4  0  0  0  0
 11 16  4  0  0  0  0
 12 13  4  0  0  0  0
 13 14  4  0  0  0  0
 13 17  1  0  0  0  0
 14 15  4  0  0  0  0
 15 16  4  0  0  0  0
 17 18  1  0  0  0  0
 17 22  1  0  0  0  0
 18 19  1  0  0  0  0
 19 20  1  0  0  0  0
 20 21  1  0  0  0  0
 20 23  1  0  0  0  0
 21 22  1  0  0  0  0
 23 24  2  0  0  0  0
 23 25  1  0  0  0  0
 26 27  4  0  0  0  0
 26 36  4  0  0  0  0
 27 28  4  0  0  0  0
 27 32  4  0  0  0  0
 28 29  4  0  0  0  0
 28 34  4  0  0  0  0
 29 30  4  0  0  0  0
 30 31  4  0  0  0  0
 30 33  1  0  0  0  0
 31 32  4  0  0  0  0
 34 35  4  0  0  0  0
 35 36  4  0  0  0  0
M  END
>  <Name_Molregno>
496075

>  <5-HT1A>
7.9

>  <5-HT1B>
6.8

>  <5-HT1D>
8.4

$$$$
498962
  Marvin  02231216192D 0   1.00000     0.00000     0

 29 31  0  0  0  0  0  0  0  0999 V2000
    4.6273    6.8992    0.0000 F   0  0  0  0  0  0  0  0  0
    4.6273    6.0742    0.0000 C   0  0  0  0  0  0  0  0  0
    5.3417    5.6617    0.0000 C   0  0  0  0  0  0  0  0  0
    5.3417    4.8367    0.0000 C   0  0  0  0  0  0  0  0  0
    4.6273    4.4242    0.0000 C   0  0  0  0  0  0  0  0  0
    3.9128    4.8367    0.0000 C   0  0  0  0  0  0  0  0  0
    3.9128    5.6617    0.0000 C   0  0  0  0  0  0  0  0  0
    4.6273    3.5992    0.0000 C   0  0  0  0  0  0  0  0  0
    5.3417    3.1867    0.0000 C   0  0  0  0  0  0  0  0  0
    5.3417    2.3617    0.0000 N   0  0  0  0  0  0  0  0  0
    6.0562    1.9492    0.0000 C   0  0  0  0  0  0  0  0  0
    6.0562    1.1242    0.0000 C   0  0  0  0  0  0  0  0  0
    5.3417    0.7117    0.0000 C   0  0  0  0  0  0  0  0  0
    4.6273    1.1242    0.0000 C   0  0  0  0  0  0  0  0  0
    4.6273    1.9492    0.0000 C   0  0  0  0  0  0  0  0  0
    5.3417   -0.1133    0.0000 C   0  0  0  0  0  0  0  0  0
    4.6273   -0.5258    0.0000 O   0  0  0  0  0  0  0  0  0
    6.0562   -0.5258    0.0000 C   0  0  0  0  0  0  0  0  0
    6.7707   -0.1133    0.0000 C   0  0  0  0  0  0  0  0  0
    7.4851   -0.5258    0.0000 C   0  0  0  0  0  0  0  0  0
    7.4851   -1.3508    0.0000 C   0  0  0  0  0  0  0  0  0
    6.7707   -1.7633    0.0000 C   0  0  0  0  0  0  0  0  0
    6.7707   -2.5883    0.0000 O   0  0  0  0  0  0  0  0  0
    7.4851   -3.0008    0.0000 C   0  0  0  0  0  0  0  0  0
    7.4851   -3.8258    0.0000 C   0  0  0  0  0  0  0  0  0
    8.1996   -4.2383    0.0000 F   0  0  0  0  0  0  0  0  0
    6.0562   -1.3508    0.0000 C   0  0  0  0  0  0  0  0  0
    5.3417   -1.7633    0.0000 O   0  0  0  0  0  0  0  0  0
    5.3417   -2.5883    0.0000 C   0  0  0  0  0  0  0  0  0
  1  2  1  0  0  0  0
  2  3  4  0  0  0  0
  2  7  4  0  0  0  0
  3  4  4  0  0  0  0
  4  5  4  0  0  0  0
  5  6  4  0  0  0  0
  5  8  1  0  0  0  0
  6  7  4  0  0  0  0
  8  9  1  0  0  0  0
  9 10  1  0  0  0  0
 10 11  1  0  0  0  0
 10 15  1  0  0  0  0
 11 12  1  0  0  0  0
 12 13  1  0  0  0  0
 13 14  1  0  0  0  0
 13 16  1  0  0  0  0
 14 15  1  0  0  0  0
 16 17  2  0  0  0  0
 16 18  1  0  0  0  0
 18 19  4  0  0  0  0
 18 27  4  0  0  0  0
 19 20  4  0  0  0  0
 20 21  4  0  0  0  0
 21 22  4  0  0  0  0
 22 23  1  0  0  0  0
 22 27  4  0  0  0  0
 23 24  1  0  0  0  0
 24 25  1  0  0  0  0
 25 26  1  0  0  0  0
 27 28  1  0  0  0  0
 28 29  1  0  0  0  0
M  END
>  <Name_Molregno>
498962

>  <5-HT1A>
5.77

>  <5-HT1B>
5.66

>  <5-HT1D>
6.15

>  <5-HT1E>
5

>  <5-HT2C>
6.89

>  <5-HT3>
5

>  <5-HT5>
5.8

>  <5-HT6>
5

>  <5-HT7>
6.68

>  <Alpha-1A>
6.84

>  <Alpha-1B>
6.26

>  <Alpha-2A>
6.06

>  <Alpha-2C>
6.48

>  <DOPAMINE D1>
5.85

>  <DOPAMINE D2>
5.42

>  <DOPAMINE D4>
6.76

>  <DOPAMINE D5>
5.13

>  <Dopamine transporter>
5

>  <HISTAMINE H1>
6.03

>  <HISTAMINE H2>
5.76

>  <HISTAMINE H3>
5

>  <Serotonin transporter>
5.51

$$$$
498963
  Marvin  02231216192D 0   1.00000     0.00000     0

 31 33  0  0  1  0  0  0  0  0999 V2000
    8.1600    6.3223    0.0000 F   0  0  0  0  0  0  0  0  0
    7.4455    5.9098    0.0000 C   0  0  0  0  0  0  0  0  0
    7.4455    5.0848    0.0000 C   0  0  0  0  0  0  0  0  0
    6.7310    4.6723    0.0000 O   0  0  0  0  0  0  0  0  0
    6.7310    3.8473    0.0000 C   0  0  0  0  0  0  0  0  0
    7.4455    3.4348    0.0000 C   0  0  0  0  0  0  0  0  0
    7.4455    2.6098    0.0000 C   0  0  0  0  0  0  0  0  0
    6.7310    2.1973    0.0000 C   0  0  0  0  0  0  0  0  0
    6.0165    2.6098    0.0000 C   0  0  0  0  0  0  0  0  0
    5.3021    2.1973    0.0000 C   0  0  0  0  0  0  0  0  0
    4.5876    2.6098    0.0000 O   0  0  0  0  0  0  0  0  0
    5.3021    1.3723    0.0000 C   0  0  0  0  0  0  0  0  0
    6.0165    0.9598    0.0000 C   0  0  0  0  0  0  0  0  0
    6.0165    0.1348    0.0000 C   0  0  0  0  0  0  0  0  0
    5.3021   -0.2777    0.0000 N   0  0  0  0  0  0  0  0  0
    4.5876    0.1348    0.0000 C   0  0  0  0  0  0  0  0  0
    4.5876    0.9598    0.0000 C   0  0  0  0  0  0  0  0  0
    5.3021   -1.1027    0.0000 C   0  0  0  0  0  0  0  0  0
    6.0165   -1.5152    0.0000 C   0  0  0  0  0  0  0  0  0
    6.0165   -2.3402    0.0000 C   0  0  0  0  0  0  0  0  0
    6.7310   -2.7527    0.0000 C   0  0  0  0  0  0  0  0  0
    6.7310   -3.5777    0.0000 C   0  0  0  0  0  0  0  0  0
    6.0165   -3.9902    0.0000 C   0  0  0  0  0  0  0  0  0
    6.0165   -4.8152    0.0000 N   0  3  0  0  0  0  0  0  0
    6.7310   -5.2277    0.0000 O   0  5  0  0  0  0  0  0  0
    5.3021   -5.2277    0.0000 O   0  5  0  0  0  0  0  0  0
    5.3021   -3.5777    0.0000 C   0  0  0  0  0  0  0  0  0
    5.3021   -2.7527    0.0000 C   0  0  0  0  0  0  0  0  0
    6.0165    3.4348    0.0000 C   0  0  0  0  0  0  0  0  0
    5.3021    3.8473    0.0000 O   0  0  0  0  0  0  0  0  0
    4.5876    3.4348    0.0000 C   0  0  0  0  0  0  0  0  0
  1  2  1  0  0  0  0
  2  3  1  0  0  0  0
  3  4  1  0  0  0  0
  4  5  1  0  0  0  0
  5  6  4  0  0  0  0
  5 29  4  0  0  0  0
  6  7  4  0  0  0  0
  7  8  4  0  0  0  0
  8  9  4  0  0  0  0
  9 10  1  0  0  0  0
  9 29  4  0  0  0  0
 10 11  1  0  0  0  0
 10 12  1  0  0  0  0
 12 13  1  0  0  0  0
 12 17  1  0  0  0  0
 13 14  1  0  0  0  0
 14 15  1  0  0  0  0
 15 16  1  0  0  0  0
 15 18  1  0  0  0  0
 16 17  1  0  0  0  0
 18 19  1  0  0  0  0
 19 20  1  0  0  0  0
 20 21  4  0  0  0  0
 20 28  4  0  0  0  0
 21 22  4  0  0  0  0
 22 23  4  0  0  0  0
 23 24  1  0  0  0  0
 23 27  4  0  0  0  0
 24 25  1  0  0  0  0
 24 26  1  0  0  0  0
 27 28  4  0  0  0  0
 29 30  1  0  0  0  0
 30 31  1  0  0  0  0
M  CHG  3  24   1  25  -1  26  -1
M  END
>  <Name_Molregno>
498963

>  <5-HT1A>
5

>  <5-HT1B>
5

>  <5-HT1D>
5.47

>  <5-HT1E>
5

>  <5-HT2C>
5

>  <5-HT3>
5

>  <5-HT5>
5

>  <5-HT6>
5

>  <5-HT7>
5.29

$$$$
498964
  Marvin  02231216192D 0   1.00000     0.00000     0

 29 31  0  0  1  0  0  0  0  0999 V2000
    7.7806    5.8078    0.0000 F   0  0  0  0  0  0  0  0  0
    7.0662    5.3953    0.0000 C   0  0  0  0  0  0  0  0  0
    7.0662    4.5703    0.0000 C   0  0  0  0  0  0  0  0  0
    6.3517    4.1578    0.0000 O   0  0  0  0  0  0  0  0  0
    6.3517    3.3328    0.0000 C   0  0  0  0  0  0  0  0  0
    7.0662    2.9203    0.0000 C   0  0  0  0  0  0  0  0  0
    7.0662    2.0953    0.0000 C   0  0  0  0  0  0  0  0  0
    6.3517    1.6828    0.0000 C   0  0  0  0  0  0  0  0  0
    5.6372    2.0953    0.0000 C   0  0  0  0  0  0  0  0  0
    4.9227    1.6828    0.0000 C   0  0  0  0  0  0  0  0  0
    4.2083    2.0953    0.0000 O   0  0  0  0  0  0  0  0  0
    4.9227    0.8578    0.0000 C   0  0  0  0  0  0  0  0  0
    5.6372    0.4453    0.0000 C   0  0  0  0  0  0  0  0  0
    5.6372   -0.3797    0.0000 C   0  0  0  0  0  0  0  0  0
    4.9227   -0.7922    0.0000 N   0  0  0  0  0  0  0  0  0
    4.2083   -0.3797    0.0000 C   0  0  0  0  0  0  0  0  0
    4.2083    0.4453    0.0000 C   0  0  0  0  0  0  0  0  0
    4.9227   -1.6172    0.0000 C   0  0  0  0  0  0  0  0  0
    5.6372   -2.0297    0.0000 C   0  0  0  0  0  0  0  0  0
    5.6372   -2.8547    0.0000 C   0  0  0  0  0  0  0  0  0
    6.3517   -3.2672    0.0000 C   0  0  0  0  0  0  0  0  0
    6.3517   -4.0922    0.0000 C   0  0  0  0  0  0  0  0  0
    5.6372   -4.5047    0.0000 C   0  0  0  0  0  0  0  0  0
    4.9227   -4.0922    0.0000 C   0  0  0  0  0  0  0  0  0
    4.9227   -3.2672    0.0000 C   0  0  0  0  0  0  0  0  0
    5.6372   -5.3297    0.0000 C   0  0  0  0  0  0  0  0  0
    5.6372    2.9203    0.0000 C   0  0  0  0  0  0  0  0  0
    4.9227    3.3328    0.0000 O   0  0  0  0  0  0  0  0  0
    4.2083    2.9203    0.0000 C   0  0  0  0  0  0  0  0  0
  1  2  1  0  0  0  0
  2  3  1  0  0  0  0
  3  4  1  0  0  0  0
  4  5  1  0  0  0  0
  5  6  4  0  0  0  0
  5 27  4  0  0  0  0
  6  7  4  0  0  0  0
  7  8  4  0  0  0  0
  8  9  4  0  0  0  0
  9 10  1  0  0  0  0
  9 27  4  0  0  0  0
 10 11  1  0  0  0  0
 10 12  1  0  0  0  0
 12 13  1  0  0  0  0
 12 17  1  0  0  0  0
 13 14  1  0  0  0  0
 14 15  1  0  0  0  0
 15 16  1  0  0  0  0
 15 18  1  0  0  0  0
 16 17  1  0  0  0  0
 18 19  1  0  0  0  0
 19 20  1  0  0  0  0
 20 21  4  0  0  0  0
 20 25  4  0  0  0  0
 21 22  4  0  0  0  0
 22 23  4  0  0  0  0
 23 24  4  0  0  0  0
 23 26  1  0  0  0  0
 24 25  4  0  0  0  0
 27 28  1  0  0  0  0
 28 29  1  0  0  0  0
M  END
>  <Name_Molregno>
498964

>  <5-HT1A>
5

>  <5-HT1B>
5.31

>  <5-HT1D>
5.84

>  <5-HT1E>
5

>  <5-HT2C>
6.29

>  <5-HT3>
5

>  <5-HT5>
5

>  <5-HT6>
5

>  <5-HT7>
6.3

>  <Alpha-1B>
5

>  <Alpha-2A>
5

>  <Alpha-2C>
6.84

>  <DOPAMINE D1>
5.75

>  <DOPAMINE D2>
5

>  <DOPAMINE D4>
5.57

>  <Dopamine transporter>
5

>  <HISTAMINE H1>
6.36

>  <HISTAMINE H2>
5.94

>  <HISTAMINE H3>
5

>  <Serotonin transporter>
5.58

$$$$
499028
  Marvin  02231216192D 0   1.00000     0.00000     0

 29 31  0  0  0  0  0  0  0  0999 V2000
    7.7806    5.8078    0.0000 F   0  0  0  0  0  0  0  0  0
    7.0662    5.3953    0.0000 C   0  0  0  0  0  0  0  0  0
    7.0662    4.5703    0.0000 C   0  0  0  0  0  0  0  0  0
    6.3517    4.1578    0.0000 O   0  0  0  0  0  0  0  0  0
    6.3517    3.3328    0.0000 C   0  0  0  0  0  0  0  0  0
    7.0662    2.9203    0.0000 C   0  0  0  0  0  0  0  0  0
    7.0662    2.0953    0.0000 C   0  0  0  0  0  0  0  0  0
    6.3517    1.6828    0.0000 C   0  0  0  0  0  0  0  0  0
    5.6372    2.0953    0.0000 C   0  0  0  0  0  0  0  0  0
    4.9227    1.6828    0.0000 C   0  0  0  0  0  0  0  0  0
    4.2083    2.0953    0.0000 O   0  0  0  0  0  0  0  0  0
    4.9227    0.8578    0.0000 C   0  0  0  0  0  0  0  0  0
    5.6372    0.4453    0.0000 C   0  0  0  0  0  0  0  0  0
    5.6372   -0.3797    0.0000 C   0  0  0  0  0  0  0  0  0
    4.9227   -0.7922    0.0000 N   0  0  0  0  0  0  0  0  0
    4.2083   -0.3797    0.0000 C   0  0  0  0  0  0  0  0  0
    4.2083    0.4453    0.0000 C   0  0  0  0  0  0  0  0  0
    4.9227   -1.6172    0.0000 C   0  0  0  0  0  0  0  0  0
    5.6372   -2.0297    0.0000 C   0  0  0  0  0  0  0  0  0
    5.6372   -2.8547    0.0000 C   0  0  0  0  0  0  0  0  0
    6.3517   -3.2672    0.0000 C   0  0  0  0  0  0  0  0  0
    6.3517   -4.0922    0.0000 C   0  0  0  0  0  0  0  0  0
    5.6372   -4.5047    0.0000 C   0  0  0  0  0  0  0  0  0
    4.9227   -4.0922    0.0000 C   0  0  0  0  0  0  0  0  0
    4.9227   -3.2672    0.0000 C   0  0  0  0  0  0  0  0  0
    5.6372   -5.3297    0.0000 C   0  0  0  0  0  0  0  0  0
    5.6372    2.9203    0.0000 C   0  0  0  0  0  0  0  0  0
    4.9227    3.3328    0.0000 O   0  0  0  0  0  0  0  0  0
    4.2083    2.9203    0.0000 C   0  0  0  0  0  0  0  0  0
  1  2  1  0  0  0  0
  2  3  1  0  0  0  0
  3  4  1  0  0  0  0
  4  5  1  0  0  0  0
  5  6  4  0  0  0  0
  5 27  4  0  0  0  0
  6  7  4  0  0  0  0
  7  8  4  0  0  0  0
  8  9  4  0  0  0  0
  9 10  1  0  0  0  0
  9 27  4  0  0  0  0
 10 11  2  0  0  0  0
 10 12  1  0  0  0  0
 12 13  1  0  0  0  0
 12 17  1  0  0  0  0
 13 14  1  0  0  0  0
 14 15  1  0  0  0  0
 15 16  1  0  0  0  0
 15 18  1  0  0  0  0
 16 17  1  0  0  0  0
 18 19  1  0  0  0  0
 19 20  1  0  0  0  0
 20 21  4  0  0  0  0
 20 25  4  0  0  0  0
 21 22  4  0  0  0  0
 22 23  4  0  0  0  0
 23 24  4  0  0  0  0
 23 26  1  0  0  0  0
 24 25  4  0  0  0  0
 27 28  1  0  0  0  0
 28 29  1  0  0  0  0
M  END
>  <Name_Molregno>
499028

>  <5-HT1A>
5.73

>  <5-HT1B>
5.47

>  <5-HT1E>
5

>  <5-HT2C>
6.3

>  <5-HT3>
5

>  <5-HT5>
5.77

>  <5-HT6>
5

>  <5-HT7>
6.14

>  <Alpha-2C>
6.81

>  <DOPAMINE D1>
5.71

>  <DOPAMINE D2>
5

>  <DOPAMINE D4>
6.03

>  <HISTAMINE H1>
6.18

>  <HISTAMINE H2>
6.08

>  <HISTAMINE H3>
5.04

>  <Serotonin transporter>
6

$$$$
499029
  Marvin  02231216192D 0   1.00000     0.00000     0

 30 32  0  0  1  0  0  0  0  0999 V2000
    7.9632    6.0652    0.0000 F   0  0  0  0  0  0  0  0  0
    7.2488    5.6527    0.0000 C   0  0  0  0  0  0  0  0  0
    7.2488    4.8277    0.0000 C   0  0  0  0  0  0  0  0  0
    6.5343    4.4152    0.0000 O   0  0  0  0  0  0  0  0  0
    6.5343    3.5902    0.0000 C   0  0  0  0  0  0  0  0  0
    7.2488    3.1777    0.0000 C   0  0  0  0  0  0  0  0  0
    7.2488    2.3527    0.0000 C   0  0  0  0  0  0  0  0  0
    6.5343    1.9402    0.0000 C   0  0  0  0  0  0  0  0  0
    5.8198    2.3527    0.0000 C   0  0  0  0  0  0  0  0  0
    5.1053    1.9402    0.0000 C   0  0  0  0  0  0  0  0  0
    4.3909    2.3527    0.0000 O   0  0  0  0  0  0  0  0  0
    5.1053    1.1152    0.0000 C   0  0  0  0  0  0  0  0  0
    5.8198    0.7027    0.0000 C   0  0  0  0  0  0  0  0  0
    5.8198   -0.1223    0.0000 C   0  0  0  0  0  0  0  0  0
    5.1053   -0.5348    0.0000 N   0  0  0  0  0  0  0  0  0
    4.3909   -0.1223    0.0000 C   0  0  0  0  0  0  0  0  0
    4.3909    0.7027    0.0000 C   0  0  0  0  0  0  0  0  0
    5.1053   -1.3598    0.0000 C   0  0  0  0  0  0  0  0  0
    5.8198   -1.7723    0.0000 C   0  0  0  0  0  0  0  0  0
    5.8198   -2.5973    0.0000 C   0  0  0  0  0  0  0  0  0
    6.5343   -3.0098    0.0000 C   0  0  0  0  0  0  0  0  0
    6.5343   -3.8348    0.0000 C   0  0  0  0  0  0  0  0  0
    5.8198   -4.2473    0.0000 C   0  0  0  0  0  0  0  0  0
    5.8198   -5.0723    0.0000 O   0  0  0  0  0  0  0  0  0
    6.5343   -5.4848    0.0000 C   0  0  0  0  0  0  0  0  0
    5.1053   -3.8348    0.0000 C   0  0  0  0  0  0  0  0  0
    5.1053   -3.0098    0.0000 C   0  0  0  0  0  0  0  0  0
    5.8198    3.1777    0.0000 C   0  0  0  0  0  0  0  0  0
    5.1053    3.5902    0.0000 O   0  0  0  0  0  0  0  0  0
    4.3909    3.1777    0.0000 C   0  0  0  0  0  0  0  0  0
  1  2  1  0  0  0  0
  2  3  1  0  0  0  0
  3  4  1  0  0  0  0
  4  5  1  0  0  0  0
  5  6  4  0  0  0  0
  5 28  4  0  0  0  0
  6  7  4  0  0  0  0
  7  8  4  0  0  0  0
  8  9  4  0  0  0  0
  9 10  1  0  0  0  0
  9 28  4  0  0  0  0
 10 11  1  0  0  0  0
 10 12  1  0  0  0  0
 12 13  1  0  0  0  0
 12 17  1  0  0  0  0
 13 14  1  0  0  0  0
 14 15  1  0  0  0  0
 15 16  1  0  0  0  0
 15 18  1  0  0  0  0
 16 17  1  0  0  0  0
 18 19  1  0  0  0  0
 19 20  1  0  0  0  0
 20 21  4  0  0  0  0
 20 27  4  0  0  0  0
 21 22  4  0  0  0  0
 22 23  4  0  0  0  0
 23 24  1  0  0  0  0
 23 26  4  0  0  0  0
 24 25  1  0  0  0  0
 26 27  4  0  0  0  0
 28 29  1  0  0  0  0
 29 30  1  0  0  0  0
M  END
>  <Name_Molregno>
499029

>  <5-HT1A>
5

>  <5-HT1B>
5

>  <5-HT1D>
5

>  <5-HT1E>
5

>  <5-HT2C>
5

>  <5-HT3>
5

>  <5-HT5>
5

>  <5-HT6>
5

>  <5-HT7>
5

$$$$
499030
  Marvin  02231216192D 0   1.00000     0.00000     0

 31 33  0  0  0  0  0  0  0  0999 V2000
    8.1600    6.3223    0.0000 F   0  0  0  0  0  0  0  0  0
    7.4455    5.9098    0.0000 C   0  0  0  0  0  0  0  0  0
    7.4455    5.0848    0.0000 C   0  0  0  0  0  0  0  0  0
    6.7310    4.6723    0.0000 O   0  0  0  0  0  0  0  0  0
    6.7310    3.8473    0.0000 C   0  0  0  0  0  0  0  0  0
    7.4455    3.4348    0.0000 C   0  0  0  0  0  0  0  0  0
    7.4455    2.6098    0.0000 C   0  0  0  0  0  0  0  0  0
    6.7310    2.1973    0.0000 C   0  0  0  0  0  0  0  0  0
    6.0165    2.6098    0.0000 C   0  0  0  0  0  0  0  0  0
    5.3021    2.1973    0.0000 C   0  0  0  0  0  0  0  0  0
    4.5876    2.6098    0.0000 O   0  0  0  0  0  0  0  0  0
    5.3021    1.3723    0.0000 C   0  0  0  0  0  0  0  0  0
    6.0165    0.9598    0.0000 C   0  0  0  0  0  0  0  0  0
    6.0165    0.1348    0.0000 C   0  0  0  0  0  0  0  0  0
    5.3021   -0.2777    0.0000 N   0  0  0  0  0  0  0  0  0
    4.5876    0.1348    0.0000 C   0  0  0  0  0  0  0  0  0
    4.5876    0.9598    0.0000 C   0  0  0  0  0  0  0  0  0
    5.3021   -1.1027    0.0000 C   0  0  0  0  0  0  0  0  0
    6.0165   -1.5152    0.0000 C   0  0  0  0  0  0  0  0  0
    6.0165   -2.3402    0.0000 C   0  0  0  0  0  0  0  0  0
    6.7310   -2.7527    0.0000 C   0  0  0  0  0  0  0  0  0
    6.7310   -3.5777    0.0000 C   0  0  0  0  0  0  0  0  0
    6.0165   -3.9902    0.0000 C   0  0  0  0  0  0  0  0  0
    6.0165   -4.8152    0.0000 N   0  3  0  0  0  0  0  0  0
    6.7310   -5.2277    0.0000 O   0  5  0  0  0  0  0  0  0
    5.3021   -5.2277    0.0000 O   0  5  0  0  0  0  0  0  0
    5.3021   -3.5777    0.0000 C   0  0  0  0  0  0  0  0  0
    5.3021   -2.7527    0.0000 C   0  0  0  0  0  0  0  0  0
    6.0165    3.4348    0.0000 C   0  0  0  0  0  0  0  0  0
    5.3021    3.8473    0.0000 O   0  0  0  0  0  0  0  0  0
    4.5876    3.4348    0.0000 C   0  0  0  0  0  0  0  0  0
  1  2  1  0  0  0  0
  2  3  1  0  0  0  0
  3  4  1  0  0  0  0
  4  5  1  0  0  0  0
  5  6  4  0  0  0  0
  5 29  4  0  0  0  0
  6  7  4  0  0  0  0
  7  8  4  0  0  0  0
  8  9  4  0  0  0  0
  9 10  1  0  0  0  0
  9 29  4  0  0  0  0
 10 11  2  0  0  0  0
 10 12  1  0  0  0  0
 12 13  1  0  0  0  0
 12 17  1  0  0  0  0
 13 14  1  0  0  0  0
 14 15  1  0  0  0  0
 15 16  1  0  0  0  0
 15 18  1  0  0  0  0
 16 17  1  0  0  0  0
 18 19  1  0  0  0  0
 19 20  1  0  0  0  0
 20 21  4  0  0  0  0
 20 28  4  0  0  0  0
 21 22  4  0  0  0  0
 22 23  4  0  0  0  0
 23 24  1  0  0  0  0
 23 27  4  0  0  0  0
 24 25  1  0  0  0  0
 24 26  1  0  0  0  0
 27 28  4  0  0  0  0
 29 30  1  0  0  0  0
 30 31  1  0  0  0  0
M  CHG  3  24   1  25  -1  26  -1
M  END
>  <Name_Molregno>
499030

>  <5-HT1A>
5.76

>  <5-HT1B>
5

>  <5-HT1D>
5.74

>  <5-HT1E>
5

>  <5-HT2C>
5

>  <5-HT3>
5

>  <5-HT5>
5

>  <5-HT6>
5

>  <5-HT7>
5.2

$$$$
499031
  Marvin  02231216192D 0   1.00000     0.00000     0

 30 32  0  0  0  0  0  0  0  0999 V2000
    7.9632    6.0652    0.0000 F   0  0  0  0  0  0  0  0  0
    7.2488    5.6527    0.0000 C   0  0  0  0  0  0  0  0  0
    7.2488    4.8277    0.0000 C   0  0  0  0  0  0  0  0  0
    6.5343    4.4152    0.0000 O   0  0  0  0  0  0  0  0  0
    6.5343    3.5902    0.0000 C   0  0  0  0  0  0  0  0  0
    7.2488    3.1777    0.0000 C   0  0  0  0  0  0  0  0  0
    7.2488    2.3527    0.0000 C   0  0  0  0  0  0  0  0  0
    6.5343    1.9402    0.0000 C   0  0  0  0  0  0  0  0  0
    5.8198    2.3527    0.0000 C   0  0  0  0  0  0  0  0  0
    5.1053    1.9402    0.0000 C   0  0  0  0  0  0  0  0  0
    4.3909    2.3527    0.0000 O   0  0  0  0  0  0  0  0  0
    5.1053    1.1152    0.0000 C   0  0  0  0  0  0  0  0  0
    5.8198    0.7027    0.0000 C   0  0  0  0  0  0  0  0  0
    5.8198   -0.1223    0.0000 C   0  0  0  0  0  0  0  0  0
    5.1053   -0.5348    0.0000 N   0  0  0  0  0  0  0  0  0
    4.3909   -0.1223    0.0000 C   0  0  0  0  0  0  0  0  0
    4.3909    0.7027    0.0000 C   0  0  0  0  0  0  0  0  0
    5.1053   -1.3598    0.0000 C   0  0  0  0  0  0  0  0  0
    5.8198   -1.7723    0.0000 C   0  0  0  0  0  0  0  0  0
    5.8198   -2.5973    0.0000 C   0  0  0  0  0  0  0  0  0
    6.5343   -3.0098    0.0000 C   0  0  0  0  0  0  0  0  0
    6.5343   -3.8348    0.0000 C   0  0  0  0  0  0  0  0  0
    5.8198   -4.2473    0.0000 C   0  0  0  0  0  0  0  0  0
    5.8198   -5.0723    0.0000 O   0  0  0  0  0  0  0  0  0
    6.5343   -5.4848    0.0000 C   0  0  0  0  0  0  0  0  0
    5.1053   -3.8348    0.0000 C   0  0  0  0  0  0  0  0  0
    5.1053   -3.0098    0.0000 C   0  0  0  0  0  0  0  0  0
    5.8198    3.1777    0.0000 C   0  0  0  0  0  0  0  0  0
    5.1053    3.5902    0.0000 O   0  0  0  0  0  0  0  0  0
    4.3909    3.1777    0.0000 C   0  0  0  0  0  0  0  0  0
  1  2  1  0  0  0  0
  2  3  1  0  0  0  0
  3  4  1  0  0  0  0
  4  5  1  0  0  0  0
  5  6  4  0  0  0  0
  5 28  4  0  0  0  0
  6  7  4  0  0  0  0
  7  8  4  0  0  0  0
  8  9  4  0  0  0  0
  9 10  1  0  0  0  0
  9 28  4  0  0  0  0
 10 11  2  0  0  0  0
 10 12  1  0  0  0  0
 12 13  1  0  0  0  0
 12 17  1  0  0  0  0
 13 14  1  0  0  0  0
 14 15  1  0  0  0  0
 15 16  1  0  0  0  0
 15 18  1  0  0  0  0
 16 17  1  0  0  0  0
 18 19  1  0  0  0  0
 19 20  1  0  0  0  0
 20 21  4  0  0  0  0
 20 27  4  0  0  0  0
 21 22  4  0  0  0  0
 22 23  4  0  0  0  0
 23 24  1  0  0  0  0
 23 26  4  0  0  0  0
 24 25  1  0  0  0  0
 26 27  4  0  0  0  0
 28 29  1  0  0  0  0
 29 30  1  0  0  0  0
M  END
>  <Name_Molregno>
499031

>  <5-HT1A>
6

>  <5-HT1B>
5

>  <5-HT1D>
5.84

>  <5-HT1E>
5

>  <5-HT2C>
5.03

>  <5-HT3>
5

>  <5-HT5>
5

>  <5-HT6>
5

>  <5-HT7>
5.54

$$$$
508299
  Marvin  02231216192D 0   1.00000     0.00000     0

 52 59  0  0  0  0  0  0  0  0999 V2000
   -4.6142    3.3114    0.0000 F   0  0  0  0  0  0  0  0  0
   -5.4347    3.2251    0.0000 C   0  0  0  0  0  0  0  0  0
   -5.7703    2.4714    0.0000 C   0  0  0  0  0  0  0  0  0
   -6.5907    2.3852    0.0000 C   0  0  0  0  0  0  0  0  0
   -7.0757    3.0526    0.0000 C   0  0  0  0  0  0  0  0  0
   -6.7401    3.8063    0.0000 C   0  0  0  0  0  0  0  0  0
   -5.9196    3.8926    0.0000 C   0  0  0  0  0  0  0  0  0
   -7.8962    2.9664    0.0000 C   0  0  0  0  0  0  0  0  0
   -8.3811    3.6338    0.0000 O   0  0  0  0  0  0  0  0  0
   -8.2317    2.2127    0.0000 N   0  0  0  0  0  0  0  0  0
   -9.0522    2.1265    0.0000 C   0  0  0  0  0  0  0  0  0
   -9.3877    1.3728    0.0000 C   0  0  0  0  0  0  0  0  0
  -10.2082    1.2866    0.0000 C   0  0  0  0  0  0  0  0  0
  -10.6932    1.9540    0.0000 C   0  0  0  0  0  0  0  0  0
  -11.4778    1.6991    0.0000 N   0  0  0  0  0  0  0  0  0
  -11.4778    0.8741    0.0000 C   0  0  0  0  0  0  0  0  0
  -10.6932    0.6191    0.0000 C   0  0  0  0  0  0  0  0  0
  -10.4382   -0.1655    0.0000 C   0  0  0  0  0  0  0  0  0
   -9.6312   -0.3370    0.0000 C   0  0  0  0  0  0  0  0  0
   -9.3763   -1.1216    0.0000 C   0  0  0  0  0  0  0  0  0
   -9.9283   -1.7347    0.0000 N   0  0  0  0  0  0  0  0  0
  -10.7353   -1.5632    0.0000 C   0  0  0  0  0  0  0  0  0
  -10.9902   -0.7786    0.0000 C   0  0  0  0  0  0  0  0  0
   -9.6734   -2.5193    0.0000 C   0  0  0  0  0  0  0  0  0
   -8.8664   -2.6909    0.0000 C   0  0  0  0  0  0  0  0  0
   -8.6115   -3.4755    0.0000 N   0  0  0  0  0  0  0  0  0
   -7.8045   -3.6470    0.0000 C   0  0  0  0  0  0  0  0  0
   -7.5496   -4.4316    0.0000 C   0  0  0  0  0  0  0  0  0
   -8.1016   -5.0447    0.0000 C   0  0  0  0  0  0  0  0  0
   -8.9086   -4.8732    0.0000 C   0  0  0  0  0  0  0  0  0
   -9.1635   -4.0886    0.0000 C   0  0  0  0  0  0  0  0  0
   -7.8467   -5.8294    0.0000 C   0  0  0  0  0  0  0  0  0
   -7.0620   -6.0843    0.0000 C   0  0  0  0  0  0  0  0  0
   -6.3476   -5.6718    0.0000 C   0  0  0  0  0  0  0  0  0
   -5.6331   -6.0843    0.0000 C   0  0  0  0  0  0  0  0  0
   -4.9186   -5.6718    0.0000 N   0  0  0  0  0  0  0  0  0
   -4.2042   -6.0843    0.0000 C   0  0  0  0  0  0  0  0  0
   -3.4897   -5.6718    0.0000 O   0  0  0  0  0  0  0  0  0
   -4.2042   -6.9093    0.0000 C   0  0  0  0  0  0  0  0  0
   -3.4897   -7.3218    0.0000 C   0  0  0  0  0  0  0  0  0
   -3.4897   -8.1468    0.0000 C   0  0  0  0  0  0  0  0  0
   -4.2042   -8.5593    0.0000 C   0  0  0  0  0  0  0  0  0
   -4.2042   -9.3843    0.0000 F   0  0  0  0  0  0  0  0  0
   -4.9186   -8.1468    0.0000 C   0  0  0  0  0  0  0  0  0
   -4.9186   -7.3218    0.0000 C   0  0  0  0  0  0  0  0  0
   -5.6331   -6.9093    0.0000 C   0  0  0  0  0  0  0  0  0
   -6.3476   -7.3218    0.0000 C   0  0  0  0  0  0  0  0  0
   -7.0620   -6.9093    0.0000 C   0  0  0  0  0  0  0  0  0
   -7.8467   -7.1642    0.0000 N   0  0  0  0  0  0  0  0  0
   -8.3316   -6.4968    0.0000 C   0  0  0  0  0  0  0  0  0
  -10.3576    2.7077    0.0000 C   0  0  0  0  0  0  0  0  0
   -9.5371    2.7939    0.0000 C   0  0  0  0  0  0  0  0  0
  1  2  1  0  0  0  0
  2  3  4  0  0  0  0
  2  7  4  0  0  0  0
  3  4  4  0  0  0  0
  4  5  4  0  0  0  0
  5  6  4  0  0  0  0
  5  8  1  0  0  0  0
  6  7  4  0  0  0  0
  8  9  2  0  0  0  0
  8 10  1  0  0  0  0
 10 11  1  0  0  0  0
 11 12  4  0  0  0  0
 11 52  4  0  0  0  0
 12 13  4  0  0  0  0
 13 14  4  0  0  0  0
 13 17  4  0  0  0  0
 14 15  4  0  0  0  0
 14 51  4  0  0  0  0
 15 16  4  0  0  0  0
 16 17  4  0  0  0  0
 17 18  1  0  0  0  0
 18 19  1  0  0  0  0
 18 23  1  0  0  0  0
 19 20  1  0  0  0  0
 20 21  1  0  0  0  0
 21 22  1  0  0  0  0
 21 24  1  0  0  0  0
 22 23  1  0  0  0  0
 24 25  1  0  0  0  0
 25 26  1  0  0  0  0
 26 27  1  0  0  0  0
 26 31  1  0  0  0  0
 27 28  1  0  0  0  0
 28 29  1  0  0  0  0
 29 30  1  0  0  0  0
 29 32  1  0  0  0  0
 30 31  1  0  0  0  0
 32 33  4  0  0  0  0
 32 50  4  0  0  0  0
 33 34  4  0  0  0  0
 33 48  4  0  0  0  0
 34 35  4  0  0  0  0
 35 36  1  0  0  0  0
 35 46  4  0  0  0  0
 36 37  1  0  0  0  0
 37 38  2  0  0  0  0
 37 39  1  0  0  0  0
 39 40  4  0  0  0  0
 39 45  4  0  0  0  0
 40 41  4  0  0  0  0
 41 42  4  0  0  0  0
 42 43  1  0  0  0  0
 42 44  4  0  0  0  0
 44 45  4  0  0  0  0
 46 47  4  0  0  0  0
 47 48  4  0  0  0  0
 48 49  4  0  0  0  0
 49 50  4  0  0  0  0
 51 52  4  0  0  0  0
M  STY  2   1 DAT   2 DAT
M  SAL   1  1  15
M  SDT   1 MRV_IMPLICIT_H                                        
M  SDD   1     0.0000    0.0000    DR    ALL  0       0  
M  SED   1 IMPL_H1
M  SAL   2  1  49
M  SDT   2 MRV_IMPLICIT_H                                        
M  SDD   2     0.0000    0.0000    DR    ALL  0       0  
M  SED   2 IMPL_H1
M  END
>  <Name_Molregno>
508299

>  <5-HT1B>
5

>  <5-HT1D>
6.66

$$$$
508300
  Marvin  02231216192D 0   1.00000     0.00000     0

 53 60  0  0  0  0  0  0  0  0999 V2000
  -10.7038    6.0698    0.0000 F   0  0  0  0  0  0  0  0  0
  -11.0394    5.3162    0.0000 C   0  0  0  0  0  0  0  0  0
  -10.5545    4.6487    0.0000 C   0  0  0  0  0  0  0  0  0
  -10.8900    3.8951    0.0000 C   0  0  0  0  0  0  0  0  0
  -11.7105    3.8088    0.0000 C   0  0  0  0  0  0  0  0  0
  -12.1954    4.4763    0.0000 C   0  0  0  0  0  0  0  0  0
  -11.8599    5.2299    0.0000 C   0  0  0  0  0  0  0  0  0
  -12.0461    3.0551    0.0000 C   0  0  0  0  0  0  0  0  0
  -12.8665    2.9689    0.0000 O   0  0  0  0  0  0  0  0  0
  -11.5611    2.3877    0.0000 N   0  0  0  0  0  0  0  0  0
  -11.8967    1.6340    0.0000 C   0  0  0  0  0  0  0  0  0
  -11.4118    0.9666    0.0000 C   0  0  0  0  0  0  0  0  0
  -11.7473    0.2129    0.0000 C   0  0  0  0  0  0  0  0  0
  -12.5678    0.1267    0.0000 C   0  0  0  0  0  0  0  0  0
  -12.7393   -0.6803    0.0000 N   0  0  0  0  0  0  0  0  0
  -12.0249   -1.0928    0.0000 C   0  0  0  0  0  0  0  0  0
  -11.4118   -0.5408    0.0000 C   0  0  0  0  0  0  0  0  0
  -10.6048   -0.7123    0.0000 C   0  0  0  0  0  0  0  0  0
  -10.0528   -0.0992    0.0000 C   0  0  0  0  0  0  0  0  0
   -9.2458   -0.2707    0.0000 C   0  0  0  0  0  0  0  0  0
   -8.9909   -1.0553    0.0000 N   0  0  0  0  0  0  0  0  0
   -9.5429   -1.6684    0.0000 C   0  0  0  0  0  0  0  0  0
  -10.3499   -1.4969    0.0000 C   0  0  0  0  0  0  0  0  0
   -8.1839   -1.2269    0.0000 C   0  0  0  0  0  0  0  0  0
   -7.9289   -2.0115    0.0000 C   0  0  0  0  0  0  0  0  0
   -7.1220   -2.1830    0.0000 C   0  0  0  0  0  0  0  0  0
   -6.8670   -2.9676    0.0000 N   0  0  0  0  0  0  0  0  0
   -6.0601   -3.1392    0.0000 C   0  0  0  0  0  0  0  0  0
   -5.8051   -3.9238    0.0000 C   0  0  0  0  0  0  0  0  0
   -6.3572   -4.5369    0.0000 C   0  0  0  0  0  0  0  0  0
   -7.1641   -4.3654    0.0000 C   0  0  0  0  0  0  0  0  0
   -7.4191   -3.5807    0.0000 C   0  0  0  0  0  0  0  0  0
   -6.1022   -5.3215    0.0000 C   0  0  0  0  0  0  0  0  0
   -5.3176   -5.5764    0.0000 C   0  0  0  0  0  0  0  0  0
   -4.6031   -5.1639    0.0000 C   0  0  0  0  0  0  0  0  0
   -3.8887   -5.5764    0.0000 C   0  0  0  0  0  0  0  0  0
   -3.1742   -5.1639    0.0000 N   0  0  0  0  0  0  0  0  0
   -2.4597   -5.5764    0.0000 C   0  0  0  0  0  0  0  0  0
   -1.7452   -5.1639    0.0000 O   0  0  0  0  0  0  0  0  0
   -2.4597   -6.4014    0.0000 C   0  0  0  0  0  0  0  0  0
   -1.7452   -6.8139    0.0000 C   0  0  0  0  0  0  0  0  0
   -1.7452   -7.6389    0.0000 C   0  0  0  0  0  0  0  0  0
   -2.4597   -8.0514    0.0000 C   0  0  0  0  0  0  0  0  0
   -2.4597   -8.8764    0.0000 F   0  0  0  0  0  0  0  0  0
   -3.1742   -7.6389    0.0000 C   0  0  0  0  0  0  0  0  0
   -3.1742   -6.8139    0.0000 C   0  0  0  0  0  0  0  0  0
   -3.8887   -6.4014    0.0000 C   0  0  0  0  0  0  0  0  0
   -4.6031   -6.8139    0.0000 C   0  0  0  0  0  0  0  0  0
   -5.3176   -6.4014    0.0000 C   0  0  0  0  0  0  0  0  0
   -6.1022   -6.6564    0.0000 N   0  0  0  0  0  0  0  0  0
   -6.5871   -5.9889    0.0000 C   0  0  0  0  0  0  0  0  0
  -13.0527    0.7941    0.0000 C   0  0  0  0  0  0  0  0  0
  -12.7172    1.5478    0.0000 C   0  0  0  0  0  0  0  0  0
  1  2  1  0  0  0  0
  2  3  4  0  0  0  0
  2  7  4  0  0  0  0
  3  4  4  0  0  0  0
  4  5  4  0  0  0  0
  5  6  4  0  0  0  0
  5  8  1  0  0  0  0
  6  7  4  0  0  0  0
  8  9  2  0  0  0  0
  8 10  1  0  0  0  0
 10 11  1  0  0  0  0
 11 12  4  0  0  0  0
 11 53  4  0  0  0  0
 12 13  4  0  0  0  0
 13 14  4  0  0  0  0
 13 17  4  0  0  0  0
 14 15  4  0  0  0  0
 14 52  4  0  0  0  0
 15 16  4  0  0  0  0
 16 17  4  0  0  0  0
 17 18  1  0  0  0  0
 18 19  1  0  0  0  0
 18 23  1  0  0  0  0
 19 20  1  0  0  0  0
 20 21  1  0  0  0  0
 21 22  1  0  0  0  0
 21 24  1  0  0  0  0
 22 23  1  0  0  0  0
 24 25  1  0  0  0  0
 25 26  1  0  0  0  0
 26 27  1  0  0  0  0
 27 28  1  0  0  0  0
 27 32  1  0  0  0  0
 28 29  1  0  0  0  0
 29 30  1  0  0  0  0
 30 31  1  0  0  0  0
 30 33  1  0  0  0  0
 31 32  1  0  0  0  0
 33 34  4  0  0  0  0
 33 51  4  0  0  0  0
 34 35  4  0  0  0  0
 34 49  4  0  0  0  0
 35 36  4  0  0  0  0
 36 37  1  0  0  0  0
 36 47  4  0  0  0  0
 37 38  1  0  0  0  0
 38 39  2  0  0  0  0
 38 40  1  0  0  0  0
 40 41  4  0  0  0  0
 40 46  4  0  0  0  0
 41 42  4  0  0  0  0
 42 43  4  0  0  0  0
 43 44  1  0  0  0  0
 43 45  4  0  0  0  0
 45 46  4  0  0  0  0
 47 48  4  0  0  0  0
 48 49  4  0  0  0  0
 49 50  4  0  0  0  0
 50 51  4  0  0  0  0
 52 53  4  0  0  0  0
M  STY  2   1 DAT   2 DAT
M  SAL   1  1  15
M  SDT   1 MRV_IMPLICIT_H                                        
M  SDD   1     0.0000    0.0000    DR    ALL  0       0  
M  SED   1 IMPL_H1
M  SAL   2  1  50
M  SDT   2 MRV_IMPLICIT_H                                        
M  SDD   2     0.0000    0.0000    DR    ALL  0       0  
M  SED   2 IMPL_H1
M  END
>  <Name_Molregno>
508300

>  <5-HT1B>
5

>  <5-HT1D>
7.1

$$$$
508301
  Marvin  02231216192D 0   1.00000     0.00000     0

 56 63  0  0  0  0  0  0  0  0999 V2000
    0.4824    2.6917    0.0000 F   0  0  0  0  0  0  0  0  0
    0.9673    2.0242    0.0000 C   0  0  0  0  0  0  0  0  0
    1.7878    2.1105    0.0000 C   0  0  0  0  0  0  0  0  0
    2.2727    1.4430    0.0000 C   0  0  0  0  0  0  0  0  0
    1.9372    0.6893    0.0000 C   0  0  0  0  0  0  0  0  0
    1.1167    0.6031    0.0000 C   0  0  0  0  0  0  0  0  0
    0.6318    1.2705    0.0000 C   0  0  0  0  0  0  0  0  0
    2.4221    0.0219    0.0000 C   0  0  0  0  0  0  0  0  0
    2.0865   -0.7318    0.0000 O   0  0  0  0  0  0  0  0  0
    3.2426    0.1081    0.0000 N   0  0  0  0  0  0  0  0  0
    3.7275   -0.5593    0.0000 C   0  0  0  0  0  0  0  0  0
    4.5480   -0.4731    0.0000 C   0  0  0  0  0  0  0  0  0
    5.0329   -1.1405    0.0000 C   0  0  0  0  0  0  0  0  0
    4.6973   -1.8942    0.0000 C   0  0  0  0  0  0  0  0  0
    5.3104   -2.4462    0.0000 N   0  0  0  0  0  0  0  0  0
    6.0249   -2.0337    0.0000 C   0  0  0  0  0  0  0  0  0
    5.8534   -1.2267    0.0000 C   0  0  0  0  0  0  0  0  0
    6.4054   -0.6136    0.0000 C   0  0  0  0  0  0  0  0  0
    6.1505    0.1710    0.0000 C   0  0  0  0  0  0  0  0  0
    6.7025    0.7841    0.0000 C   0  0  0  0  0  0  0  0  0
    7.5095    0.6125    0.0000 N   0  0  0  0  0  0  0  0  0
    7.7644   -0.1721    0.0000 C   0  0  0  0  0  0  0  0  0
    7.2124   -0.7852    0.0000 C   0  0  0  0  0  0  0  0  0
    8.0615    1.2256    0.0000 C   0  0  0  0  0  0  0  0  0
    8.8685    1.0541    0.0000 C   0  0  0  0  0  0  0  0  0
    9.1234    0.2695    0.0000 C   0  0  0  0  0  0  0  0  0
    9.9304    0.0980    0.0000 C   0  0  0  0  0  0  0  0  0
   10.1853   -0.6867    0.0000 C   0  0  0  0  0  0  0  0  0
   10.9923   -0.8582    0.0000 C   0  0  0  0  0  0  0  0  0
   11.2472   -1.6428    0.0000 N   0  0  0  0  0  0  0  0  0
   12.0542   -1.8143    0.0000 C   0  0  0  0  0  0  0  0  0
   12.3092   -2.5990    0.0000 C   0  0  0  0  0  0  0  0  0
   11.7571   -3.2121    0.0000 C   0  0  0  0  0  0  0  0  0
   10.9501   -3.0405    0.0000 C   0  0  0  0  0  0  0  0  0
   10.6952   -2.2559    0.0000 C   0  0  0  0  0  0  0  0  0
   12.0121   -3.9967    0.0000 C   0  0  0  0  0  0  0  0  0
   12.7967   -4.2516    0.0000 C   0  0  0  0  0  0  0  0  0
   13.5112   -3.8391    0.0000 C   0  0  0  0  0  0  0  0  0
   14.2256   -4.2516    0.0000 C   0  0  0  0  0  0  0  0  0
   14.9401   -3.8391    0.0000 N   0  0  0  0  0  0  0  0  0
   15.6546   -4.2516    0.0000 C   0  0  0  0  0  0  0  0  0
   16.3690   -3.8391    0.0000 O   0  0  0  0  0  0  0  0  0
   15.6546   -5.0766    0.0000 C   0  0  0  0  0  0  0  0  0
   16.3690   -5.4891    0.0000 C   0  0  0  0  0  0  0  0  0
   16.3690   -6.3141    0.0000 C   0  0  0  0  0  0  0  0  0
   15.6546   -6.7266    0.0000 C   0  0  0  0  0  0  0  0  0
   15.6546   -7.5516    0.0000 F   0  0  0  0  0  0  0  0  0
   14.9401   -6.3141    0.0000 C   0  0  0  0  0  0  0  0  0
   14.9401   -5.4891    0.0000 C   0  0  0  0  0  0  0  0  0
   14.2256   -5.0766    0.0000 C   0  0  0  0  0  0  0  0  0
   13.5112   -5.4891    0.0000 C   0  0  0  0  0  0  0  0  0
   12.7967   -5.0766    0.0000 C   0  0  0  0  0  0  0  0  0
   12.0121   -5.3316    0.0000 N   0  0  0  0  0  0  0  0  0
   11.5271   -4.6641    0.0000 C   0  0  0  0  0  0  0  0  0
    3.8769   -1.9804    0.0000 C   0  0  0  0  0  0  0  0  0
    3.3919   -1.3130    0.0000 C   0  0  0  0  0  0  0  0  0
  1  2  1  0  0  0  0
  2  3  4  0  0  0  0
  2  7  4  0  0  0  0
  3  4  4  0  0  0  0
  4  5  4  0  0  0  0
  5  6  4  0  0  0  0
  5  8  1  0  0  0  0
  6  7  4  0  0  0  0
  8  9  2  0  0  0  0
  8 10  1  0  0  0  0
 10 11  1  0  0  0  0
 11 12  4  0  0  0  0
 11 56  4  0  0  0  0
 12 13  4  0  0  0  0
 13 14  4  0  0  0  0
 13 17  4  0  0  0  0
 14 15  4  0  0  0  0
 14 55  4  0  0  0  0
 15 16  4  0  0  0  0
 16 17  4  0  0  0  0
 17 18  1  0  0  0  0
 18 19  1  0  0  0  0
 18 23  1  0  0  0  0
 19 20  1  0  0  0  0
 20 21  1  0  0  0  0
 21 22  1  0  0  0  0
 21 24  1  0  0  0  0
 22 23  1  0  0  0  0
 24 25  1  0  0  0  0
 25 26  1  0  0  0  0
 26 27  1  0  0  0  0
 27 28  1  0  0  0  0
 28 29  1  0  0  0  0
 29 30  1  0  0  0  0
 30 31  1  0  0  0  0
 30 35  1  0  0  0  0
 31 32  1  0  0  0  0
 32 33  1  0  0  0  0
 33 34  1  0  0  0  0
 33 36  1  0  0  0  0
 34 35  1  0  0  0  0
 36 37  4  0  0  0  0
 36 54  4  0  0  0  0
 37 38  4  0  0  0  0
 37 52  4  0  0  0  0
 38 39  4  0  0  0  0
 39 40  1  0  0  0  0
 39 50  4  0  0  0  0
 40 41  1  0  0  0  0
 41 42  2  0  0  0  0
 41 43  1  0  0  0  0
 43 44  4  0  0  0  0
 43 49  4  0  0  0  0
 44 45  4  0  0  0  0
 45 46  4  0  0  0  0
 46 47  1  0  0  0  0
 46 48  4  0  0  0  0
 48 49  4  0  0  0  0
 50 51  4  0  0  0  0
 51 52  4  0  0  0  0
 52 53  4  0  0  0  0
 53 54  4  0  0  0  0
 55 56  4  0  0  0  0
M  STY  2   1 DAT   2 DAT
M  SAL   1  1  15
M  SDT   1 MRV_IMPLICIT_H                                        
M  SDD   1     0.0000    0.0000    DR    ALL  0       0  
M  SED   1 IMPL_H1
M  SAL   2  1  53
M  SDT   2 MRV_IMPLICIT_H                                        
M  SDD   2     0.0000    0.0000    DR    ALL  0       0  
M  SED   2 IMPL_H1
M  END
>  <Name_Molregno>
508301

>  <5-HT1B>
7

>  <5-HT1D>
9.22

$$$$
508302
  Marvin  02231216192D 0   1.00000     0.00000     0

 57 64  0  0  0  0  0  0  0  0999 V2000
  -13.1359    7.2883    0.0000 F   0  0  0  0  0  0  0  0  0
  -13.4714    6.5347    0.0000 C   0  0  0  0  0  0  0  0  0
  -12.9865    5.8672    0.0000 C   0  0  0  0  0  0  0  0  0
  -13.3221    5.1135    0.0000 C   0  0  0  0  0  0  0  0  0
  -14.1425    5.0273    0.0000 C   0  0  0  0  0  0  0  0  0
  -14.6275    5.6948    0.0000 C   0  0  0  0  0  0  0  0  0
  -14.2919    6.4484    0.0000 C   0  0  0  0  0  0  0  0  0
  -14.4781    4.2736    0.0000 C   0  0  0  0  0  0  0  0  0
  -15.2986    4.1874    0.0000 O   0  0  0  0  0  0  0  0  0
  -13.9932    3.6062    0.0000 N   0  0  0  0  0  0  0  0  0
  -14.3287    2.8525    0.0000 C   0  0  0  0  0  0  0  0  0
  -13.8438    2.1851    0.0000 C   0  0  0  0  0  0  0  0  0
  -14.1794    1.4314    0.0000 C   0  0  0  0  0  0  0  0  0
  -14.9998    1.3452    0.0000 C   0  0  0  0  0  0  0  0  0
  -15.1714    0.5382    0.0000 N   0  0  0  0  0  0  0  0  0
  -14.4569    0.1257    0.0000 C   0  0  0  0  0  0  0  0  0
  -13.8438    0.6777    0.0000 C   0  0  0  0  0  0  0  0  0
  -13.0368    0.5062    0.0000 C   0  0  0  0  0  0  0  0  0
  -12.4848    1.1193    0.0000 C   0  0  0  0  0  0  0  0  0
  -11.6778    0.9478    0.0000 C   0  0  0  0  0  0  0  0  0
  -11.4229    0.1632    0.0000 N   0  0  0  0  0  0  0  0  0
  -11.9749   -0.4499    0.0000 C   0  0  0  0  0  0  0  0  0
  -12.7819   -0.2784    0.0000 C   0  0  0  0  0  0  0  0  0
  -10.6159   -0.0084    0.0000 C   0  0  0  0  0  0  0  0  0
  -10.3610   -0.7930    0.0000 C   0  0  0  0  0  0  0  0  0
   -9.5540   -0.9645    0.0000 C   0  0  0  0  0  0  0  0  0
   -9.2991   -1.7491    0.0000 C   0  0  0  0  0  0  0  0  0
   -8.4921   -1.9207    0.0000 C   0  0  0  0  0  0  0  0  0
   -8.2372   -2.7053    0.0000 C   0  0  0  0  0  0  0  0  0
   -7.4302   -2.8768    0.0000 C   0  0  0  0  0  0  0  0  0
   -7.1752   -3.6614    0.0000 N   0  0  0  0  0  0  0  0  0
   -6.3683   -3.8330    0.0000 C   0  0  0  0  0  0  0  0  0
   -6.1133   -4.6176    0.0000 C   0  0  0  0  0  0  0  0  0
   -6.6654   -5.2307    0.0000 C   0  0  0  0  0  0  0  0  0
   -7.4723   -5.0592    0.0000 C   0  0  0  0  0  0  0  0  0
   -7.7273   -4.2745    0.0000 C   0  0  0  0  0  0  0  0  0
   -6.4104   -6.0153    0.0000 C   0  0  0  0  0  0  0  0  0
   -5.6258   -6.2702    0.0000 C   0  0  0  0  0  0  0  0  0
   -4.9113   -5.8577    0.0000 C   0  0  0  0  0  0  0  0  0
   -4.1969   -6.2702    0.0000 C   0  0  0  0  0  0  0  0  0
   -3.4824   -5.8577    0.0000 N   0  0  0  0  0  0  0  0  0
   -2.7679   -6.2702    0.0000 C   0  0  0  0  0  0  0  0  0
   -2.0535   -5.8577    0.0000 O   0  0  0  0  0  0  0  0  0
   -2.7679   -7.0952    0.0000 C   0  0  0  0  0  0  0  0  0
   -2.0535   -7.5077    0.0000 C   0  0  0  0  0  0  0  0  0
   -2.0535   -8.3327    0.0000 C   0  0  0  0  0  0  0  0  0
   -2.7679   -8.7452    0.0000 C   0  0  0  0  0  0  0  0  0
   -2.7679   -9.5702    0.0000 F   0  0  0  0  0  0  0  0  0
   -3.4824   -8.3327    0.0000 C   0  0  0  0  0  0  0  0  0
   -3.4824   -7.5077    0.0000 C   0  0  0  0  0  0  0  0  0
   -4.1969   -7.0952    0.0000 C   0  0  0  0  0  0  0  0  0
   -4.9113   -7.5077    0.0000 C   0  0  0  0  0  0  0  0  0
   -5.6258   -7.0952    0.0000 C   0  0  0  0  0  0  0  0  0
   -6.4104   -7.3502    0.0000 N   0  0  0  0  0  0  0  0  0
   -6.8953   -6.6827    0.0000 C   0  0  0  0  0  0  0  0  0
  -15.4848    2.0126    0.0000 C   0  0  0  0  0  0  0  0  0
  -15.1492    2.7663    0.0000 C   0  0  0  0  0  0  0  0  0
  1  2  1  0  0  0  0
  2  3  4  0  0  0  0
  2  7  4  0  0  0  0
  3  4  4  0  0  0  0
  4  5  4  0  0  0  0
  5  6  4  0  0  0  0
  5  8  1  0  0  0  0
  6  7  4  0  0  0  0
  8  9  2  0  0  0  0
  8 10  1  0  0  0  0
 10 11  1  0  0  0  0
 11 12  4  0  0  0  0
 11 57  4  0  0  0  0
 12 13  4  0  0  0  0
 13 14  4  0  0  0  0
 13 17  4  0  0  0  0
 14 15  4  0  0  0  0
 14 56  4  0  0  0  0
 15 16  4  0  0  0  0
 16 17  4  0  0  0  0
 17 18  1  0  0  0  0
 18 19  1  0  0  0  0
 18 23  1  0  0  0  0
 19 20  1  0  0  0  0
 20 21  1  0  0  0  0
 21 22  1  0  0  0  0
 21 24  1  0  0  0  0
 22 23  1  0  0  0  0
 24 25  1  0  0  0  0
 25 26  1  0  0  0  0
 26 27  1  0  0  0  0
 27 28  1  0  0  0  0
 28 29  1  0  0  0  0
 29 30  1  0  0  0  0
 30 31  1  0  0  0  0
 31 32  1  0  0  0  0
 31 36  1  0  0  0  0
 32 33  1  0  0  0  0
 33 34  1  0  0  0  0
 34 35  1  0  0  0  0
 34 37  1  0  0  0  0
 35 36  1  0  0  0  0
 37 38  4  0  0  0  0
 37 55  4  0  0  0  0
 38 39  4  0  0  0  0
 38 53  4  0  0  0  0
 39 40  4  0  0  0  0
 40 41  1  0  0  0  0
 40 51  4  0  0  0  0
 41 42  1  0  0  0  0
 42 43  2  0  0  0  0
 42 44  1  0  0  0  0
 44 45  4  0  0  0  0
 44 50  4  0  0  0  0
 45 46  4  0  0  0  0
 46 47  4  0  0  0  0
 47 48  1  0  0  0  0
 47 49  4  0  0  0  0
 49 50  4  0  0  0  0
 51 52  4  0  0  0  0
 52 53  4  0  0  0  0
 53 54  4  0  0  0  0
 54 55  4  0  0  0  0
 56 57  4  0  0  0  0
M  STY  2   1 DAT   2 DAT
M  SAL   1  1  15
M  SDT   1 MRV_IMPLICIT_H                                        
M  SDD   1     0.0000    0.0000    DR    ALL  0       0  
M  SED   1 IMPL_H1
M  SAL   2  1  54
M  SDT   2 MRV_IMPLICIT_H                                        
M  SDD   2     0.0000    0.0000    DR    ALL  0       0  
M  SED   2 IMPL_H1
M  END
>  <Name_Molregno>
508302

>  <5-HT1B>
7.1

>  <5-HT1D>
9.52

$$$$
508303
  Marvin  02231216192D 0   1.00000     0.00000     0

 59 66  0  0  0  0  0  0  0  0999 V2000
   -4.7666   -0.9260    0.0000 F   0  0  0  0  0  0  0  0  0
   -4.5116   -1.7106    0.0000 C   0  0  0  0  0  0  0  0  0
   -3.7047   -1.8821    0.0000 C   0  0  0  0  0  0  0  0  0
   -3.4497   -2.6668    0.0000 C   0  0  0  0  0  0  0  0  0
   -4.0018   -3.2799    0.0000 C   0  0  0  0  0  0  0  0  0
   -4.8087   -3.1083    0.0000 C   0  0  0  0  0  0  0  0  0
   -5.0637   -2.3237    0.0000 C   0  0  0  0  0  0  0  0  0
   -3.7468   -4.0645    0.0000 C   0  0  0  0  0  0  0  0  0
   -4.2989   -4.6776    0.0000 O   0  0  0  0  0  0  0  0  0
   -2.9399   -4.2360    0.0000 N   0  0  0  0  0  0  0  0  0
   -2.6849   -5.0206    0.0000 C   0  0  0  0  0  0  0  0  0
   -1.8779   -5.1921    0.0000 C   0  0  0  0  0  0  0  0  0
   -1.6230   -5.9768    0.0000 C   0  0  0  0  0  0  0  0  0
   -2.1750   -6.5899    0.0000 C   0  0  0  0  0  0  0  0  0
   -1.7625   -7.3043    0.0000 N   0  0  0  0  0  0  0  0  0
   -0.9556   -7.1328    0.0000 C   0  0  0  0  0  0  0  0  0
   -0.8693   -6.3123    0.0000 C   0  0  0  0  0  0  0  0  0
   -0.1549   -5.8998    0.0000 C   0  0  0  0  0  0  0  0  0
   -0.1549   -5.0748    0.0000 C   0  0  0  0  0  0  0  0  0
    0.5596   -4.6623    0.0000 C   0  0  0  0  0  0  0  0  0
    1.2741   -5.0748    0.0000 N   0  0  0  0  0  0  0  0  0
    1.2741   -5.8998    0.0000 C   0  0  0  0  0  0  0  0  0
    0.5596   -6.3123    0.0000 C   0  0  0  0  0  0  0  0  0
    1.9886   -4.6623    0.0000 C   0  0  0  0  0  0  0  0  0
    2.7030   -5.0748    0.0000 C   0  0  0  0  0  0  0  0  0
    3.4175   -4.6623    0.0000 C   0  0  0  0  0  0  0  0  0
    4.1320   -5.0748    0.0000 C   0  0  0  0  0  0  0  0  0
    4.8464   -4.6623    0.0000 C   0  0  0  0  0  0  0  0  0
    5.5609   -5.0748    0.0000 C   0  0  0  0  0  0  0  0  0
    6.2754   -4.6623    0.0000 C   0  0  0  0  0  0  0  0  0
    6.9899   -5.0748    0.0000 C   0  0  0  0  0  0  0  0  0
    7.7043   -4.6623    0.0000 C   0  0  0  0  0  0  0  0  0
    8.4188   -5.0748    0.0000 N   0  0  0  0  0  0  0  0  0
    9.1333   -4.6623    0.0000 C   0  0  0  0  0  0  0  0  0
    9.8477   -5.0748    0.0000 C   0  0  0  0  0  0  0  0  0
    9.8477   -5.8998    0.0000 C   0  0  0  0  0  0  0  0  0
    9.1333   -6.3123    0.0000 C   0  0  0  0  0  0  0  0  0
    8.4188   -5.8998    0.0000 C   0  0  0  0  0  0  0  0  0
   10.5622   -6.3123    0.0000 C   0  0  0  0  0  0  0  0  0
   11.3159   -5.9768    0.0000 C   0  0  0  0  0  0  0  0  0
   11.5708   -5.1921    0.0000 C   0  0  0  0  0  0  0  0  0
   12.3778   -5.0206    0.0000 C   0  0  0  0  0  0  0  0  0
   12.6327   -4.2360    0.0000 N   0  0  0  0  0  0  0  0  0
   13.4397   -4.0645    0.0000 C   0  0  0  0  0  0  0  0  0
   13.6946   -3.2799    0.0000 O   0  0  0  0  0  0  0  0  0
   13.9917   -4.6776    0.0000 C   0  0  0  0  0  0  0  0  0
   14.7987   -4.5060    0.0000 C   0  0  0  0  0  0  0  0  0
   15.3507   -5.1191    0.0000 C   0  0  0  0  0  0  0  0  0
   15.0958   -5.9038    0.0000 C   0  0  0  0  0  0  0  0  0
   15.6478   -6.5169    0.0000 F   0  0  0  0  0  0  0  0  0
   14.2888   -6.0753    0.0000 C   0  0  0  0  0  0  0  0  0
   13.7368   -5.4622    0.0000 C   0  0  0  0  0  0  0  0  0
   12.9298   -5.6337    0.0000 C   0  0  0  0  0  0  0  0  0
   12.6749   -6.4183    0.0000 C   0  0  0  0  0  0  0  0  0
   11.8679   -6.5899    0.0000 C   0  0  0  0  0  0  0  0  0
   11.4554   -7.3043    0.0000 N   0  0  0  0  0  0  0  0  0
   10.6484   -7.1328    0.0000 C   0  0  0  0  0  0  0  0  0
   -2.9820   -6.4183    0.0000 C   0  0  0  0  0  0  0  0  0
   -3.2369   -5.6337    0.0000 C   0  0  0  0  0  0  0  0  0
  1  2  1  0  0  0  0
  2  3  4  0  0  0  0
  2  7  4  0  0  0  0
  3  4  4  0  0  0  0
  4  5  4  0  0  0  0
  5  6  4  0  0  0  0
  5  8  1  0  0  0  0
  6  7  4  0  0  0  0
  8  9  2  0  0  0  0
  8 10  1  0  0  0  0
 10 11  1  0  0  0  0
 11 12  4  0  0  0  0
 11 59  4  0  0  0  0
 12 13  4  0  0  0  0
 13 14  4  0  0  0  0
 13 17  4  0  0  0  0
 14 15  4  0  0  0  0
 14 58  4  0  0  0  0
 15 16  4  0  0  0  0
 16 17  4  0  0  0  0
 17 18  1  0  0  0  0
 18 19  1  0  0  0  0
 18 23  1  0  0  0  0
 19 20  1  0  0  0  0
 20 21  1  0  0  0  0
 21 22  1  0  0  0  0
 21 24  1  0  0  0  0
 22 23  1  0  0  0  0
 24 25  1  0  0  0  0
 25 26  1  0  0  0  0
 26 27  1  0  0  0  0
 27 28  1  0  0  0  0
 28 29  1  0  0  0  0
 29 30  1  0  0  0  0
 30 31  1  0  0  0  0
 31 32  1  0  0  0  0
 32 33  1  0  0  0  0
 33 34  1  0  0  0  0
 33 38  1  0  0  0  0
 34 35  1  0  0  0  0
 35 36  1  0  0  0  0
 36 37  1  0  0  0  0
 36 39  1  0  0  0  0
 37 38  1  0  0  0  0
 39 40  4  0  0  0  0
 39 57  4  0  0  0  0
 40 41  4  0  0  0  0
 40 55  4  0  0  0  0
 41 42  4  0  0  0  0
 42 43  1  0  0  0  0
 42 53  4  0  0  0  0
 43 44  1  0  0  0  0
 44 45  2  0  0  0  0
 44 46  1  0  0  0  0
 46 47  4  0  0  0  0
 46 52  4  0  0  0  0
 47 48  4  0  0  0  0
 48 49  4  0  0  0  0
 49 50  1  0  0  0  0
 49 51  4  0  0  0  0
 51 52  4  0  0  0  0
 53 54  4  0  0  0  0
 54 55  4  0  0  0  0
 55 56  4  0  0  0  0
 56 57  4  0  0  0  0
 58 59  4  0  0  0  0
M  STY  2   1 DAT   2 DAT
M  SAL   1  1  15
M  SDT   1 MRV_IMPLICIT_H                                        
M  SDD   1     0.0000    0.0000    DR    ALL  0       0  
M  SED   1 IMPL_H1
M  SAL   2  1  56
M  SDT   2 MRV_IMPLICIT_H                                        
M  SDD   2     0.0000    0.0000    DR    ALL  0       0  
M  SED   2 IMPL_H1
M  END
>  <Name_Molregno>
508303

>  <5-HT1B>
6.9

>  <5-HT1D>
9

$$$$
508304
  Marvin  02231216192D 0   1.00000     0.00000     0

 60 67  0  0  0  0  0  0  0  0999 V2000
  -14.5846    4.5365    0.0000 F   0  0  0  0  0  0  0  0  0
  -15.1366    3.9234    0.0000 C   0  0  0  0  0  0  0  0  0
  -14.8817    3.1388    0.0000 C   0  0  0  0  0  0  0  0  0
  -15.4337    2.5257    0.0000 C   0  0  0  0  0  0  0  0  0
  -16.2407    2.6972    0.0000 C   0  0  0  0  0  0  0  0  0
  -16.4956    3.4818    0.0000 C   0  0  0  0  0  0  0  0  0
  -15.9436    4.0949    0.0000 C   0  0  0  0  0  0  0  0  0
  -16.7927    2.0841    0.0000 C   0  0  0  0  0  0  0  0  0
  -17.5997    2.2557    0.0000 O   0  0  0  0  0  0  0  0  0
  -16.5378    1.2995    0.0000 N   0  0  0  0  0  0  0  0  0
  -17.0898    0.6864    0.0000 C   0  0  0  0  0  0  0  0  0
  -16.8349   -0.0982    0.0000 C   0  0  0  0  0  0  0  0  0
  -17.3869   -0.7113    0.0000 C   0  0  0  0  0  0  0  0  0
  -18.1939   -0.5398    0.0000 C   0  0  0  0  0  0  0  0  0
  -18.6064   -1.2542    0.0000 N   0  0  0  0  0  0  0  0  0
  -18.0544   -1.8673    0.0000 C   0  0  0  0  0  0  0  0  0
  -17.3007   -1.5318    0.0000 C   0  0  0  0  0  0  0  0  0
  -16.5862   -1.9443    0.0000 C   0  0  0  0  0  0  0  0  0
  -15.8717   -1.5318    0.0000 C   0  0  0  0  0  0  0  0  0
  -15.1573   -1.9443    0.0000 C   0  0  0  0  0  0  0  0  0
  -15.1573   -2.7693    0.0000 N   0  0  0  0  0  0  0  0  0
  -15.8717   -3.1818    0.0000 C   0  0  0  0  0  0  0  0  0
  -16.5862   -2.7693    0.0000 C   0  0  0  0  0  0  0  0  0
  -14.4428   -3.1818    0.0000 C   0  0  0  0  0  0  0  0  0
  -13.7283   -2.7693    0.0000 C   0  0  0  0  0  0  0  0  0
  -13.0139   -3.1818    0.0000 C   0  0  0  0  0  0  0  0  0
  -12.2994   -2.7693    0.0000 C   0  0  0  0  0  0  0  0  0
  -11.5849   -3.1818    0.0000 C   0  0  0  0  0  0  0  0  0
  -10.8705   -2.7693    0.0000 C   0  0  0  0  0  0  0  0  0
  -10.1560   -3.1818    0.0000 C   0  0  0  0  0  0  0  0  0
   -9.4415   -2.7693    0.0000 C   0  0  0  0  0  0  0  0  0
   -8.7270   -3.1818    0.0000 C   0  0  0  0  0  0  0  0  0
   -8.0126   -2.7693    0.0000 C   0  0  0  0  0  0  0  0  0
   -7.2981   -3.1818    0.0000 N   0  0  0  0  0  0  0  0  0
   -6.5836   -2.7693    0.0000 C   0  0  0  0  0  0  0  0  0
   -5.8692   -3.1818    0.0000 C   0  0  0  0  0  0  0  0  0
   -5.8692   -4.0068    0.0000 C   0  0  0  0  0  0  0  0  0
   -6.5836   -4.4193    0.0000 C   0  0  0  0  0  0  0  0  0
   -7.2981   -4.0068    0.0000 C   0  0  0  0  0  0  0  0  0
   -5.1547   -4.4193    0.0000 C   0  0  0  0  0  0  0  0  0
   -4.4010   -4.0837    0.0000 C   0  0  0  0  0  0  0  0  0
   -4.1461   -3.2991    0.0000 C   0  0  0  0  0  0  0  0  0
   -3.3391   -3.1276    0.0000 C   0  0  0  0  0  0  0  0  0
   -3.0842   -2.3430    0.0000 N   0  0  0  0  0  0  0  0  0
   -2.2772   -2.1714    0.0000 C   0  0  0  0  0  0  0  0  0
   -2.0222   -1.3868    0.0000 O   0  0  0  0  0  0  0  0  0
   -1.7252   -2.7845    0.0000 C   0  0  0  0  0  0  0  0  0
   -0.9182   -2.6130    0.0000 C   0  0  0  0  0  0  0  0  0
   -0.3662   -3.2261    0.0000 C   0  0  0  0  0  0  0  0  0
   -0.6211   -4.0107    0.0000 C   0  0  0  0  0  0  0  0  0
   -0.0691   -4.6238    0.0000 F   0  0  0  0  0  0  0  0  0
   -1.4281   -4.1822    0.0000 C   0  0  0  0  0  0  0  0  0
   -1.9801   -3.5691    0.0000 C   0  0  0  0  0  0  0  0  0
   -2.7871   -3.7407    0.0000 C   0  0  0  0  0  0  0  0  0
   -3.0420   -4.5253    0.0000 C   0  0  0  0  0  0  0  0  0
   -3.8490   -4.6968    0.0000 C   0  0  0  0  0  0  0  0  0
   -4.2615   -5.4113    0.0000 N   0  0  0  0  0  0  0  0  0
   -5.0684   -5.2398    0.0000 C   0  0  0  0  0  0  0  0  0
  -18.4488    0.2448    0.0000 C   0  0  0  0  0  0  0  0  0
  -17.8968    0.8579    0.0000 C   0  0  0  0  0  0  0  0  0
  1  2  1  0  0  0  0
  2  3  4  0  0  0  0
  2  7  4  0  0  0  0
  3  4  4  0  0  0  0
  4  5  4  0  0  0  0
  5  6  4  0  0  0  0
  5  8  1  0  0  0  0
  6  7  4  0  0  0  0
  8  9  2  0  0  0  0
  8 10  1  0  0  0  0
 10 11  1  0  0  0  0
 11 12  4  0  0  0  0
 11 60  4  0  0  0  0
 12 13  4  0  0  0  0
 13 14  4  0  0  0  0
 13 17  4  0  0  0  0
 14 15  4  0  0  0  0
 14 59  4  0  0  0  0
 15 16  4  0  0  0  0
 16 17  4  0  0  0  0
 17 18  1  0  0  0  0
 18 19  1  0  0  0  0
 18 23  1  0  0  0  0
 19 20  1  0  0  0  0
 20 21  1  0  0  0  0
 21 22  1  0  0  0  0
 21 24  1  0  0  0  0
 22 23  1  0  0  0  0
 24 25  1  0  0  0  0
 25 26  1  0  0  0  0
 26 27  1  0  0  0  0
 27 28  1  0  0  0  0
 28 29  1  0  0  0  0
 29 30  1  0  0  0  0
 30 31  1  0  0  0  0
 31 32  1  0  0  0  0
 32 33  1  0  0  0  0
 33 34  1  0  0  0  0
 34 35  1  0  0  0  0
 34 39  1  0  0  0  0
 35 36  1  0  0  0  0
 36 37  1  0  0  0  0
 37 38  1  0  0  0  0
 37 40  1  0  0  0  0
 38 39  1  0  0  0  0
 40 41  4  0  0  0  0
 40 58  4  0  0  0  0
 41 42  4  0  0  0  0
 41 56  4  0  0  0  0
 42 43  4  0  0  0  0
 43 44  1  0  0  0  0
 43 54  4  0  0  0  0
 44 45  1  0  0  0  0
 45 46  2  0  0  0  0
 45 47  1  0  0  0  0
 47 48  4  0  0  0  0
 47 53  4  0  0  0  0
 48 49  4  0  0  0  0
 49 50  4  0  0  0  0
 50 51  1  0  0  0  0
 50 52  4  0  0  0  0
 52 53  4  0  0  0  0
 54 55  4  0  0  0  0
 55 56  4  0  0  0  0
 56 57  4  0  0  0  0
 57 58  4  0  0  0  0
 59 60  4  0  0  0  0
M  STY  2   1 DAT   2 DAT
M  SAL   1  1  15
M  SDT   1 MRV_IMPLICIT_H                                        
M  SDD   1     0.0000    0.0000    DR    ALL  0       0  
M  SED   1 IMPL_H1
M  SAL   2  1  57
M  SDT   2 MRV_IMPLICIT_H                                        
M  SDD   2     0.0000    0.0000    DR    ALL  0       0  
M  SED   2 IMPL_H1
M  END
>  <Name_Molregno>
508304

>  <5-HT1B>
7.42

>  <5-HT1D>
7.89

$$$$
508305
  Marvin  02231216192D 0   1.00000     0.00000     0

 61 68  0  0  0  0  0  0  0  0999 V2000
   -1.4408   -4.2764    0.0000 F   0  0  0  0  0  0  0  0  0
   -0.8888   -3.6633    0.0000 C   0  0  0  0  0  0  0  0  0
   -1.1437   -2.8787    0.0000 C   0  0  0  0  0  0  0  0  0
   -0.5917   -2.2656    0.0000 C   0  0  0  0  0  0  0  0  0
    0.2153   -2.4371    0.0000 C   0  0  0  0  0  0  0  0  0
    0.4702   -3.2218    0.0000 C   0  0  0  0  0  0  0  0  0
   -0.0818   -3.8349    0.0000 C   0  0  0  0  0  0  0  0  0
    0.7673   -1.8241    0.0000 C   0  0  0  0  0  0  0  0  0
    0.5124   -1.0394    0.0000 O   0  0  0  0  0  0  0  0  0
    1.5743   -1.9956    0.0000 N   0  0  0  0  0  0  0  0  0
    1.8292   -2.7802    0.0000 C   0  0  0  0  0  0  0  0  0
    2.6362   -2.9517    0.0000 C   0  0  0  0  0  0  0  0  0
    2.8912   -3.7364    0.0000 C   0  0  0  0  0  0  0  0  0
    2.3391   -4.3494    0.0000 C   0  0  0  0  0  0  0  0  0
    2.7516   -5.0639    0.0000 N   0  0  0  0  0  0  0  0  0
    3.5586   -4.8924    0.0000 C   0  0  0  0  0  0  0  0  0
    3.6448   -4.0719    0.0000 C   0  0  0  0  0  0  0  0  0
    4.3593   -3.6594    0.0000 C   0  0  0  0  0  0  0  0  0
    4.3593   -2.8344    0.0000 C   0  0  0  0  0  0  0  0  0
    5.0738   -2.4219    0.0000 C   0  0  0  0  0  0  0  0  0
    5.7882   -2.8344    0.0000 N   0  0  0  0  0  0  0  0  0
    5.7882   -3.6594    0.0000 C   0  0  0  0  0  0  0  0  0
    5.0738   -4.0719    0.0000 C   0  0  0  0  0  0  0  0  0
    6.5027   -2.4219    0.0000 C   0  0  0  0  0  0  0  0  0
    7.2172   -2.8344    0.0000 C   0  0  0  0  0  0  0  0  0
    7.9317   -2.4219    0.0000 C   0  0  0  0  0  0  0  0  0
    8.6461   -2.8344    0.0000 C   0  0  0  0  0  0  0  0  0
    9.3606   -2.4219    0.0000 C   0  0  0  0  0  0  0  0  0
   10.0751   -2.8344    0.0000 C   0  0  0  0  0  0  0  0  0
   10.7895   -2.4219    0.0000 C   0  0  0  0  0  0  0  0  0
   11.5040   -2.8344    0.0000 C   0  0  0  0  0  0  0  0  0
   12.2185   -2.4219    0.0000 C   0  0  0  0  0  0  0  0  0
   12.9329   -2.8344    0.0000 C   0  0  0  0  0  0  0  0  0
   13.6474   -2.4219    0.0000 C   0  0  0  0  0  0  0  0  0
   14.3619   -2.8344    0.0000 N   0  0  0  0  0  0  0  0  0
   15.0764   -2.4219    0.0000 C   0  0  0  0  0  0  0  0  0
   15.7908   -2.8344    0.0000 C   0  0  0  0  0  0  0  0  0
   15.7908   -3.6594    0.0000 C   0  0  0  0  0  0  0  0  0
   15.0764   -4.0719    0.0000 C   0  0  0  0  0  0  0  0  0
   14.3619   -3.6594    0.0000 C   0  0  0  0  0  0  0  0  0
   16.5053   -4.0719    0.0000 C   0  0  0  0  0  0  0  0  0
   17.2590   -3.7364    0.0000 C   0  0  0  0  0  0  0  0  0
   17.5139   -2.9517    0.0000 C   0  0  0  0  0  0  0  0  0
   18.3209   -2.7802    0.0000 C   0  0  0  0  0  0  0  0  0
   18.5758   -1.9956    0.0000 N   0  0  0  0  0  0  0  0  0
   19.3828   -1.8241    0.0000 C   0  0  0  0  0  0  0  0  0
   19.6377   -1.0394    0.0000 O   0  0  0  0  0  0  0  0  0
   19.9348   -2.4371    0.0000 C   0  0  0  0  0  0  0  0  0
   20.7418   -2.2656    0.0000 C   0  0  0  0  0  0  0  0  0
   21.2938   -2.8787    0.0000 C   0  0  0  0  0  0  0  0  0
   21.0389   -3.6633    0.0000 C   0  0  0  0  0  0  0  0  0
   21.5909   -4.2764    0.0000 F   0  0  0  0  0  0  0  0  0
   20.2319   -3.8349    0.0000 C   0  0  0  0  0  0  0  0  0
   19.6799   -3.2218    0.0000 C   0  0  0  0  0  0  0  0  0
   18.8729   -3.3933    0.0000 C   0  0  0  0  0  0  0  0  0
   18.6180   -4.1779    0.0000 C   0  0  0  0  0  0  0  0  0
   17.8110   -4.3494    0.0000 C   0  0  0  0  0  0  0  0  0
   17.3985   -5.0639    0.0000 N   0  0  0  0  0  0  0  0  0
   16.5915   -4.8924    0.0000 C   0  0  0  0  0  0  0  0  0
    1.5321   -4.1779    0.0000 C   0  0  0  0  0  0  0  0  0
    1.2772   -3.3933    0.0000 C   0  0  0  0  0  0  0  0  0
  1  2  1  0  0  0  0
  2  3  4  0  0  0  0
  2  7  4  0  0  0  0
  3  4  4  0  0  0  0
  4  5  4  0  0  0  0
  5  6  4  0  0  0  0
  5  8  1  0  0  0  0
  6  7  4  0  0  0  0
  8  9  2  0  0  0  0
  8 10  1  0  0  0  0
 10 11  1  0  0  0  0
 11 12  4  0  0  0  0
 11 61  4  0  0  0  0
 12 13  4  0  0  0  0
 13 14  4  0  0  0  0
 13 17  4  0  0  0  0
 14 15  4  0  0  0  0
 14 60  4  0  0  0  0
 15 16  4  0  0  0  0
 16 17  4  0  0  0  0
 17 18  1  0  0  0  0
 18 19  1  0  0  0  0
 18 23  1  0  0  0  0
 19 20  1  0  0  0  0
 20 21  1  0  0  0  0
 21 22  1  0  0  0  0
 21 24  1  0  0  0  0
 22 23  1  0  0  0  0
 24 25  1  0  0  0  0
 25 26  1  0  0  0  0
 26 27  1  0  0  0  0
 27 28  1  0  0  0  0
 28 29  1  0  0  0  0
 29 30  1  0  0  0  0
 30 31  1  0  0  0  0
 31 32  1  0  0  0  0
 32 33  1  0  0  0  0
 33 34  1  0  0  0  0
 34 35  1  0  0  0  0
 35 36  1  0  0  0  0
 35 40  1  0  0  0  0
 36 37  1  0  0  0  0
 37 38  1  0  0  0  0
 38 39  1  0  0  0  0
 38 41  1  0  0  0  0
 39 40  1  0  0  0  0
 41 42  4  0  0  0  0
 41 59  4  0  0  0  0
 42 43  4  0  0  0  0
 42 57  4  0  0  0  0
 43 44  4  0  0  0  0
 44 45  1  0  0  0  0
 44 55  4  0  0  0  0
 45 46  1  0  0  0  0
 46 47  2  0  0  0  0
 46 48  1  0  0  0  0
 48 49  4  0  0  0  0
 48 54  4  0  0  0  0
 49 50  4  0  0  0  0
 50 51  4  0  0  0  0
 51 52  1  0  0  0  0
 51 53  4  0  0  0  0
 53 54  4  0  0  0  0
 55 56  4  0  0  0  0
 56 57  4  0  0  0  0
 57 58  4  0  0  0  0
 58 59  4  0  0  0  0
 60 61  4  0  0  0  0
M  STY  2   1 DAT   2 DAT
M  SAL   1  1  15
M  SDT   1 MRV_IMPLICIT_H                                        
M  SDD   1     0.0000    0.0000    DR    ALL  0       0  
M  SED   1 IMPL_H1
M  SAL   2  1  58
M  SDT   2 MRV_IMPLICIT_H                                        
M  SDD   2     0.0000    0.0000    DR    ALL  0       0  
M  SED   2 IMPL_H1
M  END
>  <Name_Molregno>
508305

>  <5-HT1B>
6.9

>  <5-HT1D>
7.89

$$$$
508306
  Marvin  02231216192D 0   1.00000     0.00000     0

 62 69  0  0  0  0  0  0  0  0999 V2000
   -0.5000   -3.9348    0.0000 F   0  0  0  0  0  0  0  0  0
    0.3069   -4.1064    0.0000 C   0  0  0  0  0  0  0  0  0
    0.8590   -3.4933    0.0000 C   0  0  0  0  0  0  0  0  0
    1.6659   -3.6648    0.0000 C   0  0  0  0  0  0  0  0  0
    1.9209   -4.4494    0.0000 C   0  0  0  0  0  0  0  0  0
    1.3688   -5.0625    0.0000 C   0  0  0  0  0  0  0  0  0
    0.5619   -4.8910    0.0000 C   0  0  0  0  0  0  0  0  0
    2.7279   -4.6210    0.0000 C   0  0  0  0  0  0  0  0  0
    2.9828   -5.4056    0.0000 O   0  0  0  0  0  0  0  0  0
    3.2799   -4.0079    0.0000 N   0  0  0  0  0  0  0  0  0
    4.0869   -4.1794    0.0000 C   0  0  0  0  0  0  0  0  0
    4.6389   -3.5663    0.0000 C   0  0  0  0  0  0  0  0  0
    5.4459   -3.7378    0.0000 C   0  0  0  0  0  0  0  0  0
    5.7008   -4.5224    0.0000 C   0  0  0  0  0  0  0  0  0
    6.5258   -4.5224    0.0000 N   0  0  0  0  0  0  0  0  0
    6.7807   -3.7378    0.0000 C   0  0  0  0  0  0  0  0  0
    6.1133   -3.2529    0.0000 C   0  0  0  0  0  0  0  0  0
    6.1133   -2.4279    0.0000 C   0  0  0  0  0  0  0  0  0
    5.3988   -2.0154    0.0000 C   0  0  0  0  0  0  0  0  0
    5.3988   -1.1904    0.0000 C   0  0  0  0  0  0  0  0  0
    6.1133   -0.7779    0.0000 N   0  0  0  0  0  0  0  0  0
    6.8278   -1.1904    0.0000 C   0  0  0  0  0  0  0  0  0
    6.8278   -2.0154    0.0000 C   0  0  0  0  0  0  0  0  0
    6.1133    0.0471    0.0000 C   0  0  0  0  0  0  0  0  0
    6.8278    0.4596    0.0000 C   0  0  0  0  0  0  0  0  0
    7.5422    0.0471    0.0000 C   0  0  0  0  0  0  0  0  0
    8.2567    0.4596    0.0000 C   0  0  0  0  0  0  0  0  0
    8.9712    0.0471    0.0000 C   0  0  0  0  0  0  0  0  0
    9.6857    0.4596    0.0000 C   0  0  0  0  0  0  0  0  0
   10.4001    0.0471    0.0000 C   0  0  0  0  0  0  0  0  0
   11.1146    0.4596    0.0000 C   0  0  0  0  0  0  0  0  0
   11.8291    0.0471    0.0000 C   0  0  0  0  0  0  0  0  0
   12.5435    0.4596    0.0000 C   0  0  0  0  0  0  0  0  0
   13.2580    0.0471    0.0000 C   0  0  0  0  0  0  0  0  0
   13.9725    0.4596    0.0000 C   0  0  0  0  0  0  0  0  0
   14.6869    0.0471    0.0000 N   0  0  0  0  0  0  0  0  0
   15.4014    0.4596    0.0000 C   0  0  0  0  0  0  0  0  0
   16.1159    0.0471    0.0000 C   0  0  0  0  0  0  0  0  0
   16.1159   -0.7779    0.0000 C   0  0  0  0  0  0  0  0  0
   15.4014   -1.1904    0.0000 C   0  0  0  0  0  0  0  0  0
   14.6869   -0.7779    0.0000 C   0  0  0  0  0  0  0  0  0
   16.8304   -1.1904    0.0000 C   0  0  0  0  0  0  0  0  0
   17.5840   -0.8548    0.0000 C   0  0  0  0  0  0  0  0  0
   17.8390   -0.0702    0.0000 C   0  0  0  0  0  0  0  0  0
   18.6459    0.1013    0.0000 C   0  0  0  0  0  0  0  0  0
   18.9009    0.8859    0.0000 N   0  0  0  0  0  0  0  0  0
   19.7079    1.0575    0.0000 C   0  0  0  0  0  0  0  0  0
   19.9628    1.8421    0.0000 O   0  0  0  0  0  0  0  0  0
   20.2599    0.4444    0.0000 C   0  0  0  0  0  0  0  0  0
   21.0669    0.6159    0.0000 C   0  0  0  0  0  0  0  0  0
   21.6189    0.0028    0.0000 C   0  0  0  0  0  0  0  0  0
   21.3640   -0.7818    0.0000 C   0  0  0  0  0  0  0  0  0
   21.9160   -1.3949    0.0000 F   0  0  0  0  0  0  0  0  0
   20.5570   -0.9533    0.0000 C   0  0  0  0  0  0  0  0  0
   20.0050   -0.3403    0.0000 C   0  0  0  0  0  0  0  0  0
   19.1980   -0.5118    0.0000 C   0  0  0  0  0  0  0  0  0
   18.9430   -1.2964    0.0000 C   0  0  0  0  0  0  0  0  0
   18.1361   -1.4679    0.0000 C   0  0  0  0  0  0  0  0  0
   17.7236   -2.1824    0.0000 N   0  0  0  0  0  0  0  0  0
   16.9166   -2.0109    0.0000 C   0  0  0  0  0  0  0  0  0
    5.1488   -5.1355    0.0000 C   0  0  0  0  0  0  0  0  0
    4.3418   -4.9640    0.0000 C   0  0  0  0  0  0  0  0  0
  1  2  1  0  0  0  0
  2  3  4  0  0  0  0
  2  7  4  0  0  0  0
  3  4  4  0  0  0  0
  4  5  4  0  0  0  0
  5  6  4  0  0  0  0
  5  8  1  0  0  0  0
  6  7  4  0  0  0  0
  8  9  2  0  0  0  0
  8 10  1  0  0  0  0
 10 11  1  0  0  0  0
 11 12  4  0  0  0  0
 11 62  4  0  0  0  0
 12 13  4  0  0  0  0
 13 14  4  0  0  0  0
 13 17  4  0  0  0  0
 14 15  4  0  0  0  0
 14 61  4  0  0  0  0
 15 16  4  0  0  0  0
 16 17  4  0  0  0  0
 17 18  1  0  0  0  0
 18 19  1  0  0  0  0
 18 23  1  0  0  0  0
 19 20  1  0  0  0  0
 20 21  1  0  0  0  0
 21 22  1  0  0  0  0
 21 24  1  0  0  0  0
 22 23  1  0  0  0  0
 24 25  1  0  0  0  0
 25 26  1  0  0  0  0
 26 27  1  0  0  0  0
 27 28  1  0  0  0  0
 28 29  1  0  0  0  0
 29 30  1  0  0  0  0
 30 31  1  0  0  0  0
 31 32  1  0  0  0  0
 32 33  1  0  0  0  0
 33 34  1  0  0  0  0
 34 35  1  0  0  0  0
 35 36  1  0  0  0  0
 36 37  1  0  0  0  0
 36 41  1  0  0  0  0
 37 38  1  0  0  0  0
 38 39  1  0  0  0  0
 39 40  1  0  0  0  0
 39 42  1  0  0  0  0
 40 41  1  0  0  0  0
 42 43  4  0  0  0  0
 42 60  4  0  0  0  0
 43 44  4  0  0  0  0
 43 58  4  0  0  0  0
 44 45  4  0  0  0  0
 45 46  1  0  0  0  0
 45 56  4  0  0  0  0
 46 47  1  0  0  0  0
 47 48  2  0  0  0  0
 47 49  1  0  0  0  0
 49 50  4  0  0  0  0
 49 55  4  0  0  0  0
 50 51  4  0  0  0  0
 51 52  4  0  0  0  0
 52 53  1  0  0  0  0
 52 54  4  0  0  0  0
 54 55  4  0  0  0  0
 56 57  4  0  0  0  0
 57 58  4  0  0  0  0
 58 59  4  0  0  0  0
 59 60  4  0  0  0  0
 61 62  4  0  0  0  0
M  STY  2   1 DAT   2 DAT
M  SAL   1  1  15
M  SDT   1 MRV_IMPLICIT_H                                        
M  SDD   1     0.0000    0.0000    DR    ALL  0       0  
M  SED   1 IMPL_H1
M  SAL   2  1  59
M  SDT   2 MRV_IMPLICIT_H                                        
M  SDD   2     0.0000    0.0000    DR    ALL  0       0  
M  SED   2 IMPL_H1
M  END
>  <Name_Molregno>
508306

>  <5-HT1B>
5

>  <5-HT1D>
7.89

$$$$
508307
  Marvin  02231216192D 0   1.00000     0.00000     0

 58 65  0  0  0  0  0  0  0  0999 V2000
   11.1588    5.2646    0.0000 F   0  0  0  0  0  0  0  0  0
   10.3383    5.1783    0.0000 C   0  0  0  0  0  0  0  0  0
   10.0028    4.4247    0.0000 C   0  0  0  0  0  0  0  0  0
    9.1823    4.3384    0.0000 C   0  0  0  0  0  0  0  0  0
    8.6974    5.0059    0.0000 C   0  0  0  0  0  0  0  0  0
    9.0329    5.7595    0.0000 C   0  0  0  0  0  0  0  0  0
    9.8534    5.8458    0.0000 C   0  0  0  0  0  0  0  0  0
    7.8769    4.9196    0.0000 C   0  0  0  0  0  0  0  0  0
    7.3920    5.5871    0.0000 O   0  0  0  0  0  0  0  0  0
    7.5413    4.1659    0.0000 N   0  0  0  0  0  0  0  0  0
    6.7209    4.0797    0.0000 C   0  0  0  0  0  0  0  0  0
    6.3853    3.3260    0.0000 C   0  0  0  0  0  0  0  0  0
    5.5648    3.2398    0.0000 C   0  0  0  0  0  0  0  0  0
    5.0799    3.9072    0.0000 C   0  0  0  0  0  0  0  0  0
    4.2953    3.6523    0.0000 N   0  0  0  0  0  0  0  0  0
    4.2953    2.8273    0.0000 C   0  0  0  0  0  0  0  0  0
    5.0799    2.5724    0.0000 C   0  0  0  0  0  0  0  0  0
    5.3348    1.7877    0.0000 C   0  0  0  0  0  0  0  0  0
    6.1418    1.6162    0.0000 C   0  0  0  0  0  0  0  0  0
    6.3968    0.8316    0.0000 C   0  0  0  0  0  0  0  0  0
    5.8447    0.2185    0.0000 N   0  0  0  0  0  0  0  0  0
    5.0378    0.3900    0.0000 C   0  0  0  0  0  0  0  0  0
    4.7828    1.1746    0.0000 C   0  0  0  0  0  0  0  0  0
    6.0997   -0.5661    0.0000 C   0  0  0  0  0  0  0  0  0
    6.9066   -0.7377    0.0000 C   0  0  0  0  0  0  0  0  0
    7.1616   -1.5223    0.0000 O   0  0  0  0  0  0  0  0  0
    7.9685   -1.6938    0.0000 C   0  0  0  0  0  0  0  0  0
    8.2235   -2.4784    0.0000 C   0  0  0  0  0  0  0  0  0
    9.0305   -2.6500    0.0000 O   0  0  0  0  0  0  0  0  0
    9.2854   -3.4346    0.0000 C   0  0  0  0  0  0  0  0  0
   10.0924   -3.6061    0.0000 C   0  0  0  0  0  0  0  0  0
   10.3473   -4.3907    0.0000 N   0  0  0  0  0  0  0  0  0
   11.1543   -4.5622    0.0000 C   0  0  0  0  0  0  0  0  0
   11.4092   -5.3469    0.0000 C   0  0  0  0  0  0  0  0  0
   10.8572   -5.9600    0.0000 C   0  0  0  0  0  0  0  0  0
   10.0502   -5.7884    0.0000 C   0  0  0  0  0  0  0  0  0
    9.7953   -5.0038    0.0000 C   0  0  0  0  0  0  0  0  0
   11.1121   -6.7446    0.0000 C   0  0  0  0  0  0  0  0  0
   11.8967   -6.9995    0.0000 C   0  0  0  0  0  0  0  0  0
   12.6112   -6.5870    0.0000 C   0  0  0  0  0  0  0  0  0
   13.3257   -6.9995    0.0000 C   0  0  0  0  0  0  0  0  0
   14.0402   -6.5870    0.0000 N   0  0  0  0  0  0  0  0  0
   14.7546   -6.9995    0.0000 C   0  0  0  0  0  0  0  0  0
   15.4691   -6.5870    0.0000 O   0  0  0  0  0  0  0  0  0
   14.7546   -7.8245    0.0000 C   0  0  0  0  0  0  0  0  0
   15.4691   -8.2370    0.0000 C   0  0  0  0  0  0  0  0  0
   15.4691   -9.0620    0.0000 C   0  0  0  0  0  0  0  0  0
   14.7546   -9.4745    0.0000 C   0  0  0  0  0  0  0  0  0
   14.7546  -10.2995    0.0000 F   0  0  0  0  0  0  0  0  0
   14.0402   -9.0620    0.0000 C   0  0  0  0  0  0  0  0  0
   14.0402   -8.2370    0.0000 C   0  0  0  0  0  0  0  0  0
   13.3257   -7.8245    0.0000 C   0  0  0  0  0  0  0  0  0
   12.6112   -8.2370    0.0000 C   0  0  0  0  0  0  0  0  0
   11.8967   -7.8245    0.0000 C   0  0  0  0  0  0  0  0  0
   11.1121   -8.0795    0.0000 N   0  0  0  0  0  0  0  0  0
   10.6272   -7.4120    0.0000 C   0  0  0  0  0  0  0  0  0
    5.4155    4.6609    0.0000 C   0  0  0  0  0  0  0  0  0
    6.2359    4.7471    0.0000 C   0  0  0  0  0  0  0  0  0
  1  2  1  0  0  0  0
  2  3  4  0  0  0  0
  2  7  4  0  0  0  0
  3  4  4  0  0  0  0
  4  5  4  0  0  0  0
  5  6  4  0  0  0  0
  5  8  1  0  0  0  0
  6  7  4  0  0  0  0
  8  9  2  0  0  0  0
  8 10  1  0  0  0  0
 10 11  1  0  0  0  0
 11 12  4  0  0  0  0
 11 58  4  0  0  0  0
 12 13  4  0  0  0  0
 13 14  4  0  0  0  0
 13 17  4  0  0  0  0
 14 15  4  0  0  0  0
 14 57  4  0  0  0  0
 15 16  4  0  0  0  0
 16 17  4  0  0  0  0
 17 18  1  0  0  0  0
 18 19  1  0  0  0  0
 18 23  1  0  0  0  0
 19 20  1  0  0  0  0
 20 21  1  0  0  0  0
 21 22  1  0  0  0  0
 21 24  1  0  0  0  0
 22 23  1  0  0  0  0
 24 25  1  0  0  0  0
 25 26  1  0  0  0  0
 26 27  1  0  0  0  0
 27 28  1  0  0  0  0
 28 29  1  0  0  0  0
 29 30  1  0  0  0  0
 30 31  1  0  0  0  0
 31 32  1  0  0  0  0
 32 33  1  0  0  0  0
 32 37  1  0  0  0  0
 33 34  1  0  0  0  0
 34 35  1  0  0  0  0
 35 36  1  0  0  0  0
 35 38  1  0  0  0  0
 36 37  1  0  0  0  0
 38 39  4  0  0  0  0
 38 56  4  0  0  0  0
 39 40  4  0  0  0  0
 39 54  4  0  0  0  0
 40 41  4  0  0  0  0
 41 42  1  0  0  0  0
 41 52  4  0  0  0  0
 42 43  1  0  0  0  0
 43 44  2  0  0  0  0
 43 45  1  0  0  0  0
 45 46  4  0  0  0  0
 45 51  4  0  0  0  0
 46 47  4  0  0  0  0
 47 48  4  0  0  0  0
 48 49  1  0  0  0  0
 48 50  4  0  0  0  0
 50 51  4  0  0  0  0
 52 53  4  0  0  0  0
 53 54  4  0  0  0  0
 54 55  4  0  0  0  0
 55 56  4  0  0  0  0
 57 58  4  0  0  0  0
M  STY  2   1 DAT   2 DAT
M  SAL   1  1  15
M  SDT   1 MRV_IMPLICIT_H                                        
M  SDD   1     0.0000    0.0000    DR    ALL  0       0  
M  SED   1 IMPL_H1
M  SAL   2  1  55
M  SDT   2 MRV_IMPLICIT_H                                        
M  SDD   2     0.0000    0.0000    DR    ALL  0       0  
M  SED   2 IMPL_H1
M  END
>  <Name_Molregno>
508307

>  <5-HT1B>
7.74

>  <5-HT1D>
8.82

$$$$
508308
  Marvin  02231216192D 0   1.00000     0.00000     0

 61 68  0  0  0  0  0  0  0  0999 V2000
   -4.4336   -3.5217    0.0000 F   0  0  0  0  0  0  0  0  0
   -3.8815   -2.9086    0.0000 C   0  0  0  0  0  0  0  0  0
   -4.1365   -2.1240    0.0000 C   0  0  0  0  0  0  0  0  0
   -3.5844   -1.5109    0.0000 C   0  0  0  0  0  0  0  0  0
   -2.7775   -1.6824    0.0000 C   0  0  0  0  0  0  0  0  0
   -2.5225   -2.4670    0.0000 C   0  0  0  0  0  0  0  0  0
   -3.0746   -3.0801    0.0000 C   0  0  0  0  0  0  0  0  0
   -2.2254   -1.0693    0.0000 C   0  0  0  0  0  0  0  0  0
   -2.4804   -0.2847    0.0000 O   0  0  0  0  0  0  0  0  0
   -1.4185   -1.2408    0.0000 N   0  0  0  0  0  0  0  0  0
   -1.1635   -2.0255    0.0000 C   0  0  0  0  0  0  0  0  0
   -0.3565   -2.1970    0.0000 C   0  0  0  0  0  0  0  0  0
   -0.1016   -2.9816    0.0000 C   0  0  0  0  0  0  0  0  0
   -0.6536   -3.5947    0.0000 C   0  0  0  0  0  0  0  0  0
   -0.2411   -4.3092    0.0000 N   0  0  0  0  0  0  0  0  0
    0.5658   -4.1376    0.0000 C   0  0  0  0  0  0  0  0  0
    0.6521   -3.3172    0.0000 C   0  0  0  0  0  0  0  0  0
    1.3665   -2.9047    0.0000 C   0  0  0  0  0  0  0  0  0
    1.3665   -2.0797    0.0000 C   0  0  0  0  0  0  0  0  0
    2.0810   -1.6672    0.0000 C   0  0  0  0  0  0  0  0  0
    2.7955   -2.0797    0.0000 N   0  0  0  0  0  0  0  0  0
    2.7955   -2.9047    0.0000 C   0  0  0  0  0  0  0  0  0
    2.0810   -3.3172    0.0000 C   0  0  0  0  0  0  0  0  0
    3.5100   -1.6672    0.0000 C   0  0  0  0  0  0  0  0  0
    4.2244   -2.0797    0.0000 C   0  0  0  0  0  0  0  0  0
    4.9389   -1.6672    0.0000 O   0  0  0  0  0  0  0  0  0
    5.6534   -2.0797    0.0000 C   0  0  0  0  0  0  0  0  0
    6.3678   -1.6672    0.0000 C   0  0  0  0  0  0  0  0  0
    7.0823   -2.0797    0.0000 O   0  0  0  0  0  0  0  0  0
    7.7968   -1.6672    0.0000 C   0  0  0  0  0  0  0  0  0
    8.5113   -2.0797    0.0000 C   0  0  0  0  0  0  0  0  0
    9.2257   -1.6672    0.0000 O   0  0  0  0  0  0  0  0  0
    9.9402   -2.0797    0.0000 C   0  0  0  0  0  0  0  0  0
   10.6547   -1.6672    0.0000 C   0  0  0  0  0  0  0  0  0
   11.3691   -2.0797    0.0000 N   0  0  0  0  0  0  0  0  0
   12.0836   -1.6672    0.0000 C   0  0  0  0  0  0  0  0  0
   12.7981   -2.0797    0.0000 C   0  0  0  0  0  0  0  0  0
   12.7981   -2.9047    0.0000 C   0  0  0  0  0  0  0  0  0
   12.0836   -3.3172    0.0000 C   0  0  0  0  0  0  0  0  0
   11.3691   -2.9047    0.0000 C   0  0  0  0  0  0  0  0  0
   13.5125   -3.3172    0.0000 C   0  0  0  0  0  0  0  0  0
   14.2662   -2.9816    0.0000 C   0  0  0  0  0  0  0  0  0
   14.5212   -2.1970    0.0000 C   0  0  0  0  0  0  0  0  0
   15.3281   -2.0255    0.0000 C   0  0  0  0  0  0  0  0  0
   15.5831   -1.2408    0.0000 N   0  0  0  0  0  0  0  0  0
   16.3900   -1.0693    0.0000 C   0  0  0  0  0  0  0  0  0
   16.6450   -0.2847    0.0000 O   0  0  0  0  0  0  0  0  0
   16.9421   -1.6824    0.0000 C   0  0  0  0  0  0  0  0  0
   17.7490   -1.5109    0.0000 C   0  0  0  0  0  0  0  0  0
   18.3011   -2.1240    0.0000 C   0  0  0  0  0  0  0  0  0
   18.0461   -2.9086    0.0000 C   0  0  0  0  0  0  0  0  0
   18.5982   -3.5217    0.0000 F   0  0  0  0  0  0  0  0  0
   17.2392   -3.0801    0.0000 C   0  0  0  0  0  0  0  0  0
   16.6871   -2.4670    0.0000 C   0  0  0  0  0  0  0  0  0
   15.8802   -2.6386    0.0000 C   0  0  0  0  0  0  0  0  0
   15.6252   -3.4232    0.0000 C   0  0  0  0  0  0  0  0  0
   14.8183   -3.5947    0.0000 C   0  0  0  0  0  0  0  0  0
   14.4058   -4.3092    0.0000 N   0  0  0  0  0  0  0  0  0
   13.5988   -4.1376    0.0000 C   0  0  0  0  0  0  0  0  0
   -1.4606   -3.4232    0.0000 C   0  0  0  0  0  0  0  0  0
   -1.7155   -2.6386    0.0000 C   0  0  0  0  0  0  0  0  0
  1  2  1  0  0  0  0
  2  3  4  0  0  0  0
  2  7  4  0  0  0  0
  3  4  4  0  0  0  0
  4  5  4  0  0  0  0
  5  6  4  0  0  0  0
  5  8  1  0  0  0  0
  6  7  4  0  0  0  0
  8  9  2  0  0  0  0
  8 10  1  0  0  0  0
 10 11  1  0  0  0  0
 11 12  4  0  0  0  0
 11 61  4  0  0  0  0
 12 13  4  0  0  0  0
 13 14  4  0  0  0  0
 13 17  4  0  0  0  0
 14 15  4  0  0  0  0
 14 60  4  0  0  0  0
 15 16  4  0  0  0  0
 16 17  4  0  0  0  0
 17 18  1  0  0  0  0
 18 19  1  0  0  0  0
 18 23  1  0  0  0  0
 19 20  1  0  0  0  0
 20 21  1  0  0  0  0
 21 22  1  0  0  0  0
 21 24  1  0  0  0  0
 22 23  1  0  0  0  0
 24 25  1  0  0  0  0
 25 26  1  0  0  0  0
 26 27  1  0  0  0  0
 27 28  1  0  0  0  0
 28 29  1  0  0  0  0
 29 30  1  0  0  0  0
 30 31  1  0  0  0  0
 31 32  1  0  0  0  0
 32 33  1  0  0  0  0
 33 34  1  0  0  0  0
 34 35  1  0  0  0  0
 35 36  1  0  0  0  0
 35 40  1  0  0  0  0
 36 37  1  0  0  0  0
 37 38  1  0  0  0  0
 38 39  1  0  0  0  0
 38 41  1  0  0  0  0
 39 40  1  0  0  0  0
 41 42  4  0  0  0  0
 41 59  4  0  0  0  0
 42 43  4  0  0  0  0
 42 57  4  0  0  0  0
 43 44  4  0  0  0  0
 44 45  1  0  0  0  0
 44 55  4  0  0  0  0
 45 46  1  0  0  0  0
 46 47  2  0  0  0  0
 46 48  1  0  0  0  0
 48 49  4  0  0  0  0
 48 54  4  0  0  0  0
 49 50  4  0  0  0  0
 50 51  4  0  0  0  0
 51 52  1  0  0  0  0
 51 53  4  0  0  0  0
 53 54  4  0  0  0  0
 55 56  4  0  0  0  0
 56 57  4  0  0  0  0
 57 58  4  0  0  0  0
 58 59  4  0  0  0  0
 60 61  4  0  0  0  0
M  STY  2   1 DAT   2 DAT
M  SAL   1  1  15
M  SDT   1 MRV_IMPLICIT_H                                        
M  SDD   1     0.0000    0.0000    DR    ALL  0       0  
M  SED   1 IMPL_H1
M  SAL   2  1  58
M  SDT   2 MRV_IMPLICIT_H                                        
M  SDD   2     0.0000    0.0000    DR    ALL  0       0  
M  SED   2 IMPL_H1
M  END
>  <Name_Molregno>
508308

>  <5-HT1B>
7.49

>  <5-HT1D>
8.41

$$$$
508372
  Marvin  02231216192D 0   1.00000     0.00000     0

 54 61  0  0  0  0  0  0  0  0999 V2000
   -0.3502   -0.3008    0.0000 F   0  0  0  0  0  0  0  0  0
   -1.1707   -0.3870    0.0000 C   0  0  0  0  0  0  0  0  0
   -1.5063   -1.1407    0.0000 C   0  0  0  0  0  0  0  0  0
   -2.3267   -1.2269    0.0000 C   0  0  0  0  0  0  0  0  0
   -2.8117   -0.5595    0.0000 C   0  0  0  0  0  0  0  0  0
   -2.4761    0.1942    0.0000 C   0  0  0  0  0  0  0  0  0
   -1.6556    0.2804    0.0000 C   0  0  0  0  0  0  0  0  0
   -3.6322   -0.6457    0.0000 C   0  0  0  0  0  0  0  0  0
   -4.1171    0.0217    0.0000 O   0  0  0  0  0  0  0  0  0
   -3.9677   -1.3994    0.0000 N   0  0  0  0  0  0  0  0  0
   -4.7882   -1.4856    0.0000 C   0  0  0  0  0  0  0  0  0
   -5.1237   -2.2393    0.0000 C   0  0  0  0  0  0  0  0  0
   -5.9442   -2.3255    0.0000 C   0  0  0  0  0  0  0  0  0
   -6.4292   -1.6581    0.0000 C   0  0  0  0  0  0  0  0  0
   -7.2138   -1.9130    0.0000 N   0  0  0  0  0  0  0  0  0
   -7.2138   -2.7380    0.0000 C   0  0  0  0  0  0  0  0  0
   -6.4292   -2.9930    0.0000 C   0  0  0  0  0  0  0  0  0
   -6.1742   -3.7776    0.0000 C   0  0  0  0  0  0  0  0  0
   -5.3672   -3.9491    0.0000 C   0  0  0  0  0  0  0  0  0
   -5.1123   -4.7338    0.0000 C   0  0  0  0  0  0  0  0  0
   -5.6643   -5.3469    0.0000 N   0  0  0  0  0  0  0  0  0
   -6.4713   -5.1753    0.0000 C   0  0  0  0  0  0  0  0  0
   -6.7262   -4.3907    0.0000 C   0  0  0  0  0  0  0  0  0
   -5.4094   -6.1315    0.0000 C   0  0  0  0  0  0  0  0  0
   -4.6024   -6.3030    0.0000 C   0  0  0  0  0  0  0  0  0
   -4.3475   -7.0876    0.0000 C   0  0  0  0  0  0  0  0  0
   -3.5405   -7.2592    0.0000 C   0  0  0  0  0  0  0  0  0
   -3.2856   -8.0438    0.0000 N   0  0  0  0  0  0  0  0  0
   -2.4786   -8.2153    0.0000 C   0  0  0  0  0  0  0  0  0
   -2.2237   -8.9999    0.0000 C   0  0  0  0  0  0  0  0  0
   -2.7757   -9.6130    0.0000 C   0  0  0  0  0  0  0  0  0
   -3.5827   -9.4415    0.0000 C   0  0  0  0  0  0  0  0  0
   -3.8376   -8.6569    0.0000 C   0  0  0  0  0  0  0  0  0
   -2.5208  -10.3976    0.0000 C   0  0  0  0  0  0  0  0  0
   -1.7361  -10.6526    0.0000 C   0  0  0  0  0  0  0  0  0
   -1.0217  -10.2401    0.0000 C   0  0  0  0  0  0  0  0  0
   -0.3072  -10.6526    0.0000 C   0  0  0  0  0  0  0  0  0
    0.4073  -10.2401    0.0000 N   0  0  0  0  0  0  0  0  0
    1.1217  -10.6526    0.0000 C   0  0  0  0  0  0  0  0  0
    1.8362  -10.2401    0.0000 O   0  0  0  0  0  0  0  0  0
    1.1217  -11.4776    0.0000 C   0  0  0  0  0  0  0  0  0
    1.8362  -11.8901    0.0000 C   0  0  0  0  0  0  0  0  0
    1.8362  -12.7151    0.0000 C   0  0  0  0  0  0  0  0  0
    1.1217  -13.1276    0.0000 C   0  0  0  0  0  0  0  0  0
    1.1217  -13.9526    0.0000 F   0  0  0  0  0  0  0  0  0
    0.4073  -12.7151    0.0000 C   0  0  0  0  0  0  0  0  0
    0.4073  -11.8901    0.0000 C   0  0  0  0  0  0  0  0  0
   -0.3072  -11.4776    0.0000 C   0  0  0  0  0  0  0  0  0
   -1.0217  -11.8901    0.0000 C   0  0  0  0  0  0  0  0  0
   -1.7361  -11.4776    0.0000 C   0  0  0  0  0  0  0  0  0
   -2.5208  -11.7325    0.0000 N   0  0  0  0  0  0  0  0  0
   -3.0057  -11.0651    0.0000 C   0  0  0  0  0  0  0  0  0
   -6.0936   -0.9044    0.0000 C   0  0  0  0  0  0  0  0  0
   -5.2731   -0.8182    0.0000 C   0  0  0  0  0  0  0  0  0
  1  2  1  0  0  0  0
  2  3  4  0  0  0  0
  2  7  4  0  0  0  0
  3  4  4  0  0  0  0
  4  5  4  0  0  0  0
  5  6  4  0  0  0  0
  5  8  1  0  0  0  0
  6  7  4  0  0  0  0
  8  9  2  0  0  0  0
  8 10  1  0  0  0  0
 10 11  1  0  0  0  0
 11 12  4  0  0  0  0
 11 54  4  0  0  0  0
 12 13  4  0  0  0  0
 13 14  4  0  0  0  0
 13 17  4  0  0  0  0
 14 15  4  0  0  0  0
 14 53  4  0  0  0  0
 15 16  4  0  0  0  0
 16 17  4  0  0  0  0
 17 18  1  0  0  0  0
 18 19  1  0  0  0  0
 18 23  1  0  0  0  0
 19 20  1  0  0  0  0
 20 21  1  0  0  0  0
 21 22  1  0  0  0  0
 21 24  1  0  0  0  0
 22 23  1  0  0  0  0
 24 25  1  0  0  0  0
 25 26  2  0  0  0  0
 26 27  1  0  0  0  0
 27 28  1  0  0  0  0
 28 29  1  0  0  0  0
 28 33  1  0  0  0  0
 29 30  1  0  0  0  0
 30 31  1  0  0  0  0
 31 32  1  0  0  0  0
 31 34  1  0  0  0  0
 32 33  1  0  0  0  0
 34 35  4  0  0  0  0
 34 52  4  0  0  0  0
 35 36  4  0  0  0  0
 35 50  4  0  0  0  0
 36 37  4  0  0  0  0
 37 38  1  0  0  0  0
 37 48  4  0  0  0  0
 38 39  1  0  0  0  0
 39 40  2  0  0  0  0
 39 41  1  0  0  0  0
 41 42  4  0  0  0  0
 41 47  4  0  0  0  0
 42 43  4  0  0  0  0
 43 44  4  0  0  0  0
 44 45  1  0  0  0  0
 44 46  4  0  0  0  0
 46 47  4  0  0  0  0
 48 49  4  0  0  0  0
 49 50  4  0  0  0  0
 50 51  4  0  0  0  0
 51 52  4  0  0  0  0
 53 54  4  0  0  0  0
M  STY  2   1 DAT   2 DAT
M  SAL   1  1  15
M  SDT   1 MRV_IMPLICIT_H                                        
M  SDD   1     0.0000    0.0000    DR    ALL  0       0  
M  SED   1 IMPL_H1
M  SAL   2  1  51
M  SDT   2 MRV_IMPLICIT_H                                        
M  SDD   2     0.0000    0.0000    DR    ALL  0       0  
M  SED   2 IMPL_H1
M  END
>  <Name_Molregno>
508372

>  <5-HT1B>
6.99

>  <5-HT1D>
7.62

$$$$
508373
  Marvin  02231216192D 0   1.00000     0.00000     0

 58 66  0  0  0  0  0  0  0  0999 V2000
  -11.8980    6.6467    0.0000 F   0  0  0  0  0  0  0  0  0
  -12.2336    5.8930    0.0000 C   0  0  0  0  0  0  0  0  0
  -11.7486    5.2256    0.0000 C   0  0  0  0  0  0  0  0  0
  -12.0842    4.4719    0.0000 C   0  0  0  0  0  0  0  0  0
  -12.9047    4.3857    0.0000 C   0  0  0  0  0  0  0  0  0
  -13.3896    5.0531    0.0000 C   0  0  0  0  0  0  0  0  0
  -13.0540    5.8068    0.0000 C   0  0  0  0  0  0  0  0  0
  -13.2402    3.6320    0.0000 C   0  0  0  0  0  0  0  0  0
  -14.0607    3.5458    0.0000 O   0  0  0  0  0  0  0  0  0
  -12.7553    2.9646    0.0000 N   0  0  0  0  0  0  0  0  0
  -13.0909    2.2109    0.0000 C   0  0  0  0  0  0  0  0  0
  -12.6059    1.5434    0.0000 C   0  0  0  0  0  0  0  0  0
  -12.9415    0.7898    0.0000 C   0  0  0  0  0  0  0  0  0
  -13.7620    0.7035    0.0000 C   0  0  0  0  0  0  0  0  0
  -13.9335   -0.1034    0.0000 N   0  0  0  0  0  0  0  0  0
  -13.2190   -0.5159    0.0000 C   0  0  0  0  0  0  0  0  0
  -12.6059    0.0361    0.0000 C   0  0  0  0  0  0  0  0  0
  -11.7990   -0.1354    0.0000 C   0  0  0  0  0  0  0  0  0
  -11.2469    0.4777    0.0000 C   0  0  0  0  0  0  0  0  0
  -10.4400    0.3061    0.0000 C   0  0  0  0  0  0  0  0  0
  -10.1850   -0.4785    0.0000 N   0  0  0  0  0  0  0  0  0
  -10.7371   -1.0916    0.0000 C   0  0  0  0  0  0  0  0  0
  -11.5440   -0.9201    0.0000 C   0  0  0  0  0  0  0  0  0
   -9.3781   -0.6500    0.0000 C   0  0  0  0  0  0  0  0  0
   -9.1231   -1.4346    0.0000 C   0  0  0  0  0  0  0  0  0
   -8.3161   -1.6062    0.0000 C   0  0  0  0  0  0  0  0  0
   -8.0612   -2.3908    0.0000 C   0  0  0  0  0  0  0  0  0
   -8.6132   -3.0039    0.0000 C   0  0  0  0  0  0  0  0  0
   -9.4202   -2.8323    0.0000 C   0  0  0  0  0  0  0  0  0
   -9.6752   -2.0477    0.0000 C   0  0  0  0  0  0  0  0  0
   -7.2542   -2.5623    0.0000 C   0  0  0  0  0  0  0  0  0
   -6.9993   -3.3469    0.0000 N   0  0  0  0  0  0  0  0  0
   -6.1923   -3.5185    0.0000 C   0  0  0  0  0  0  0  0  0
   -5.9374   -4.3031    0.0000 C   0  0  0  0  0  0  0  0  0
   -6.4894   -4.9162    0.0000 C   0  0  0  0  0  0  0  0  0
   -7.2964   -4.7446    0.0000 C   0  0  0  0  0  0  0  0  0
   -7.5513   -3.9600    0.0000 C   0  0  0  0  0  0  0  0  0
   -6.2345   -5.7008    0.0000 C   0  0  0  0  0  0  0  0  0
   -5.4499   -5.9557    0.0000 C   0  0  0  0  0  0  0  0  0
   -4.7354   -5.5432    0.0000 C   0  0  0  0  0  0  0  0  0
   -4.0209   -5.9557    0.0000 C   0  0  0  0  0  0  0  0  0
   -3.3064   -5.5432    0.0000 N   0  0  0  0  0  0  0  0  0
   -2.5920   -5.9557    0.0000 C   0  0  0  0  0  0  0  0  0
   -1.8775   -5.5432    0.0000 O   0  0  0  0  0  0  0  0  0
   -2.5920   -6.7807    0.0000 C   0  0  0  0  0  0  0  0  0
   -1.8775   -7.1932    0.0000 C   0  0  0  0  0  0  0  0  0
   -1.8775   -8.0182    0.0000 C   0  0  0  0  0  0  0  0  0
   -2.5920   -8.4307    0.0000 C   0  0  0  0  0  0  0  0  0
   -2.5920   -9.2557    0.0000 F   0  0  0  0  0  0  0  0  0
   -3.3064   -8.0182    0.0000 C   0  0  0  0  0  0  0  0  0
   -3.3064   -7.1932    0.0000 C   0  0  0  0  0  0  0  0  0
   -4.0209   -6.7807    0.0000 C   0  0  0  0  0  0  0  0  0
   -4.7354   -7.1932    0.0000 C   0  0  0  0  0  0  0  0  0
   -5.4499   -6.7807    0.0000 C   0  0  0  0  0  0  0  0  0
   -6.2345   -7.0357    0.0000 N   0  0  0  0  0  0  0  0  0
   -6.7194   -6.3682    0.0000 C   0  0  0  0  0  0  0  0  0
  -14.2469    1.3710    0.0000 C   0  0  0  0  0  0  0  0  0
  -13.9113    2.1247    0.0000 C   0  0  0  0  0  0  0  0  0
  1  2  1  0  0  0  0
  2  3  4  0  0  0  0
  2  7  4  0  0  0  0
  3  4  4  0  0  0  0
  4  5  4  0  0  0  0
  5  6  4  0  0  0  0
  5  8  1  0  0  0  0
  6  7  4  0  0  0  0
  8  9  2  0  0  0  0
  8 10  1  0  0  0  0
 10 11  1  0  0  0  0
 11 12  4  0  0  0  0
 11 58  4  0  0  0  0
 12 13  4  0  0  0  0
 13 14  4  0  0  0  0
 13 17  4  0  0  0  0
 14 15  4  0  0  0  0
 14 57  4  0  0  0  0
 15 16  4  0  0  0  0
 16 17  4  0  0  0  0
 17 18  1  0  0  0  0
 18 19  1  0  0  0  0
 18 23  1  0  0  0  0
 19 20  1  0  0  0  0
 20 21  1  0  0  0  0
 21 22  1  0  0  0  0
 21 24  1  0  0  0  0
 22 23  1  0  0  0  0
 24 25  1  0  0  0  0
 25 26  4  0  0  0  0
 25 30  4  0  0  0  0
 26 27  4  0  0  0  0
 27 28  4  0  0  0  0
 27 31  1  0  0  0  0
 28 29  4  0  0  0  0
 29 30  4  0  0  0  0
 31 32  1  0  0  0  0
 32 33  1  0  0  0  0
 32 37  1  0  0  0  0
 33 34  1  0  0  0  0
 34 35  1  0  0  0  0
 35 36  1  0  0  0  0
 35 38  1  0  0  0  0
 36 37  1  0  0  0  0
 38 39  4  0  0  0  0
 38 56  4  0  0  0  0
 39 40  4  0  0  0  0
 39 54  4  0  0  0  0
 40 41  4  0  0  0  0
 41 42  1  0  0  0  0
 41 52  4  0  0  0  0
 42 43  1  0  0  0  0
 43 44  2  0  0  0  0
 43 45  1  0  0  0  0
 45 46  4  0  0  0  0
 45 51  4  0  0  0  0
 46 47  4  0  0  0  0
 47 48  4  0  0  0  0
 48 49  1  0  0  0  0
 48 50  4  0  0  0  0
 50 51  4  0  0  0  0
 52 53  4  0  0  0  0
 53 54  4  0  0  0  0
 54 55  4  0  0  0  0
 55 56  4  0  0  0  0
 57 58  4  0  0  0  0
M  STY  2   1 DAT   2 DAT
M  SAL   1  1  15
M  SDT   1 MRV_IMPLICIT_H                                        
M  SDD   1     0.0000    0.0000    DR    ALL  0       0  
M  SED   1 IMPL_H1
M  SAL   2  1  55
M  SDT   2 MRV_IMPLICIT_H                                        
M  SDD   2     0.0000    0.0000    DR    ALL  0       0  
M  SED   2 IMPL_H1
M  END
>  <Name_Molregno>
508373

>  <5-HT1B>
6.34

>  <5-HT1D>
6.82

$$$$
508374
  Marvin  02231216192D 0   1.00000     0.00000     0

 56 63  0  0  1  0  0  0  0  0999 V2000
   -4.3769    3.4725    0.0000 F   0  0  0  0  0  0  0  0  0
   -5.1974    3.3862    0.0000 C   0  0  0  0  0  0  0  0  0
   -5.5329    2.6325    0.0000 C   0  0  0  0  0  0  0  0  0
   -6.3534    2.5463    0.0000 C   0  0  0  0  0  0  0  0  0
   -6.8383    3.2137    0.0000 C   0  0  0  0  0  0  0  0  0
   -6.5028    3.9674    0.0000 C   0  0  0  0  0  0  0  0  0
   -5.6823    4.0537    0.0000 C   0  0  0  0  0  0  0  0  0
   -7.6588    3.1275    0.0000 C   0  0  0  0  0  0  0  0  0
   -8.1437    3.7949    0.0000 O   0  0  0  0  0  0  0  0  0
   -7.9944    2.3738    0.0000 N   0  0  0  0  0  0  0  0  0
   -8.8148    2.2876    0.0000 C   0  0  0  0  0  0  0  0  0
   -9.1504    1.5339    0.0000 C   0  0  0  0  0  0  0  0  0
   -9.9709    1.4477    0.0000 C   0  0  0  0  0  0  0  0  0
  -10.4558    2.1151    0.0000 C   0  0  0  0  0  0  0  0  0
  -11.2404    1.8602    0.0000 N   0  0  0  0  0  0  0  0  0
  -11.2404    1.0352    0.0000 C   0  0  0  0  0  0  0  0  0
  -10.4558    0.7802    0.0000 C   0  0  0  0  0  0  0  0  0
  -10.2009   -0.0044    0.0000 C   0  0  0  0  0  0  0  0  0
   -9.3939   -0.1759    0.0000 C   0  0  0  0  0  0  0  0  0
   -9.1389   -0.9605    0.0000 C   0  0  0  0  0  0  0  0  0
   -9.6910   -1.5736    0.0000 N   0  0  0  0  0  0  0  0  0
  -10.4980   -1.4021    0.0000 C   0  0  0  0  0  0  0  0  0
  -10.7529   -0.6175    0.0000 C   0  0  0  0  0  0  0  0  0
   -9.4360   -2.3582    0.0000 C   0  0  0  0  0  0  0  0  0
   -8.6291   -2.5298    0.0000 C   0  0  0  0  0  0  0  0  0
   -8.3741   -3.3144    0.0000 N   0  0  0  0  0  0  0  0  0
   -7.5672   -3.4859    0.0000 C   0  0  0  0  0  0  0  0  0
   -7.3122   -4.2705    0.0000 C   0  0  0  0  0  0  0  0  0
   -7.8643   -4.8836    0.0000 C   0  0  0  0  0  0  0  0  0
   -8.6712   -4.7121    0.0000 C   0  0  0  0  0  0  0  0  0
   -8.9262   -3.9275    0.0000 C   0  0  0  0  0  0  0  0  0
   -7.6093   -5.6683    0.0000 C   0  0  0  0  0  0  0  0  0
   -6.8247   -5.9232    0.0000 C   0  0  0  0  0  0  0  0  0
   -6.1102   -5.5107    0.0000 C   0  0  0  0  0  0  0  0  0
   -5.3958   -5.9232    0.0000 C   0  0  0  0  0  0  0  0  0
   -4.6813   -5.5107    0.0000 N   0  0  0  0  0  0  0  0  0
   -3.9668   -5.9232    0.0000 C   0  0  0  0  0  0  0  0  0
   -3.2523   -5.5107    0.0000 O   0  0  0  0  0  0  0  0  0
   -3.9668   -6.7482    0.0000 C   0  0  0  0  0  0  0  0  0
   -3.2523   -7.1607    0.0000 C   0  0  0  0  0  0  0  0  0
   -3.2523   -7.9857    0.0000 C   0  0  0  0  0  0  0  0  0
   -3.9668   -8.3982    0.0000 C   0  0  0  0  0  0  0  0  0
   -3.9668   -9.2232    0.0000 F   0  0  0  0  0  0  0  0  0
   -4.6813   -7.9857    0.0000 C   0  0  0  0  0  0  0  0  0
   -4.6813   -7.1607    0.0000 C   0  0  0  0  0  0  0  0  0
   -5.3958   -6.7482    0.0000 C   0  0  0  0  0  0  0  0  0
   -6.1102   -7.1607    0.0000 C   0  0  0  0  0  0  0  0  0
   -6.8247   -6.7482    0.0000 C   0  0  0  0  0  0  0  0  0
   -7.6093   -7.0031    0.0000 N   0  0  0  0  0  0  0  0  0
   -8.0942   -6.3357    0.0000 C   0  0  0  0  0  0  0  0  0
   -9.9881   -2.9713    0.0000 C   0  0  0  0  0  0  0  0  0
  -10.5401   -3.5844    0.0000 F   0  0  0  0  0  0  0  0  0
   -9.3750   -3.5234    0.0000 F   0  0  0  0  0  0  0  0  0
  -10.6012   -2.4193    0.0000 F   0  0  0  0  0  0  0  0  0
  -10.1202    2.8688    0.0000 C   0  0  0  0  0  0  0  0  0
   -9.2998    2.9550    0.0000 C   0  0  0  0  0  0  0  0  0
  1  2  1  0  0  0  0
  2  3  4  0  0  0  0
  2  7  4  0  0  0  0
  3  4  4  0  0  0  0
  4  5  4  0  0  0  0
  5  6  4  0  0  0  0
  5  8  1  0  0  0  0
  6  7  4  0  0  0  0
  8  9  2  0  0  0  0
  8 10  1  0  0  0  0
 10 11  1  0  0  0  0
 11 12  4  0  0  0  0
 11 56  4  0  0  0  0
 12 13  4  0  0  0  0
 13 14  4  0  0  0  0
 13 17  4  0  0  0  0
 14 15  4  0  0  0  0
 14 55  4  0  0  0  0
 15 16  4  0  0  0  0
 16 17  4  0  0  0  0
 17 18  1  0  0  0  0
 18 19  1  0  0  0  0
 18 23  1  0  0  0  0
 19 20  1  0  0  0  0
 20 21  1  0  0  0  0
 21 22  1  0  0  0  0
 21 24  1  0  0  0  0
 22 23  1  0  0  0  0
 24 25  1  0  0  0  0
 24 51  1  0  0  0  0
 25 26  1  0  0  0  0
 26 27  1  0  0  0  0
 26 31  1  0  0  0  0
 27 28  1  0  0  0  0
 28 29  1  0  0  0  0
 29 30  1  0  0  0  0
 29 32  1  0  0  0  0
 30 31  1  0  0  0  0
 32 33  4  0  0  0  0
 32 50  4  0  0  0  0
 33 34  4  0  0  0  0
 33 48  4  0  0  0  0
 34 35  4  0  0  0  0
 35 36  1  0  0  0  0
 35 46  4  0  0  0  0
 36 37  1  0  0  0  0
 37 38  2  0  0  0  0
 37 39  1  0  0  0  0
 39 40  4  0  0  0  0
 39 45  4  0  0  0  0
 40 41  4  0  0  0  0
 41 42  4  0  0  0  0
 42 43  1  0  0  0  0
 42 44  4  0  0  0  0
 44 45  4  0  0  0  0
 46 47  4  0  0  0  0
 47 48  4  0  0  0  0
 48 49  4  0  0  0  0
 49 50  4  0  0  0  0
 51 52  1  0  0  0  0
 51 53  1  0  0  0  0
 51 54  1  0  0  0  0
 55 56  4  0  0  0  0
M  STY  2   1 DAT   2 DAT
M  SAL   1  1  15
M  SDT   1 MRV_IMPLICIT_H                                        
M  SDD   1     0.0000    0.0000    DR    ALL  0       0  
M  SED   1 IMPL_H1
M  SAL   2  1  49
M  SDT   2 MRV_IMPLICIT_H                                        
M  SDD   2     0.0000    0.0000    DR    ALL  0       0  
M  SED   2 IMPL_H1
M  END
>  <Name_Molregno>
508374

>  <5-HT1B>
6

>  <5-HT1D>
6

$$$$
508375
  Marvin  02231216192D 0   1.00000     0.00000     0

 55 62  0  0  1  0  0  0  0  0999 V2000
   -4.4300    3.4414    0.0000 F   0  0  0  0  0  0  0  0  0
   -5.2505    3.3552    0.0000 C   0  0  0  0  0  0  0  0  0
   -5.5860    2.6015    0.0000 C   0  0  0  0  0  0  0  0  0
   -6.4065    2.5153    0.0000 C   0  0  0  0  0  0  0  0  0
   -6.8914    3.1827    0.0000 C   0  0  0  0  0  0  0  0  0
   -6.5559    3.9364    0.0000 C   0  0  0  0  0  0  0  0  0
   -5.7354    4.0226    0.0000 C   0  0  0  0  0  0  0  0  0
   -7.7119    3.0965    0.0000 C   0  0  0  0  0  0  0  0  0
   -8.1968    3.7639    0.0000 O   0  0  0  0  0  0  0  0  0
   -8.0475    2.3428    0.0000 N   0  0  0  0  0  0  0  0  0
   -8.8679    2.2566    0.0000 C   0  0  0  0  0  0  0  0  0
   -9.2035    1.5029    0.0000 C   0  0  0  0  0  0  0  0  0
  -10.0240    1.4166    0.0000 C   0  0  0  0  0  0  0  0  0
  -10.5089    2.0841    0.0000 C   0  0  0  0  0  0  0  0  0
  -11.2935    1.8291    0.0000 N   0  0  0  0  0  0  0  0  0
  -11.2935    1.0041    0.0000 C   0  0  0  0  0  0  0  0  0
  -10.5089    0.7492    0.0000 C   0  0  0  0  0  0  0  0  0
  -10.2540   -0.0354    0.0000 C   0  0  0  0  0  0  0  0  0
   -9.4470   -0.2069    0.0000 C   0  0  0  0  0  0  0  0  0
   -9.1921   -0.9916    0.0000 C   0  0  0  0  0  0  0  0  0
   -9.7441   -1.6047    0.0000 N   0  0  0  0  0  0  0  0  0
  -10.5511   -1.4331    0.0000 C   0  0  0  0  0  0  0  0  0
  -10.8060   -0.6485    0.0000 C   0  0  0  0  0  0  0  0  0
   -9.4892   -2.3893    0.0000 C   0  0  0  0  0  0  0  0  0
   -8.6822   -2.5608    0.0000 C   0  0  0  0  0  0  0  0  0
   -8.4272   -3.3454    0.0000 N   0  0  0  0  0  0  0  0  0
   -7.6203   -3.5170    0.0000 C   0  0  0  0  0  0  0  0  0
   -7.3653   -4.3016    0.0000 C   0  0  0  0  0  0  0  0  0
   -7.9174   -4.9147    0.0000 C   0  0  0  0  0  0  0  0  0
   -8.7243   -4.7432    0.0000 C   0  0  0  0  0  0  0  0  0
   -8.9793   -3.9585    0.0000 C   0  0  0  0  0  0  0  0  0
   -7.6624   -5.6993    0.0000 C   0  0  0  0  0  0  0  0  0
   -6.8778   -5.9542    0.0000 C   0  0  0  0  0  0  0  0  0
   -6.1633   -5.5417    0.0000 C   0  0  0  0  0  0  0  0  0
   -5.4489   -5.9542    0.0000 C   0  0  0  0  0  0  0  0  0
   -4.7344   -5.5417    0.0000 N   0  0  0  0  0  0  0  0  0
   -4.0199   -5.9542    0.0000 C   0  0  0  0  0  0  0  0  0
   -3.3054   -5.5417    0.0000 O   0  0  0  0  0  0  0  0  0
   -4.0199   -6.7792    0.0000 C   0  0  0  0  0  0  0  0  0
   -3.3054   -7.1917    0.0000 C   0  0  0  0  0  0  0  0  0
   -3.3054   -8.0167    0.0000 C   0  0  0  0  0  0  0  0  0
   -4.0199   -8.4292    0.0000 C   0  0  0  0  0  0  0  0  0
   -4.0199   -9.2542    0.0000 F   0  0  0  0  0  0  0  0  0
   -4.7344   -8.0167    0.0000 C   0  0  0  0  0  0  0  0  0
   -4.7344   -7.1917    0.0000 C   0  0  0  0  0  0  0  0  0
   -5.4489   -6.7792    0.0000 C   0  0  0  0  0  0  0  0  0
   -6.1633   -7.1917    0.0000 C   0  0  0  0  0  0  0  0  0
   -6.8778   -6.7792    0.0000 C   0  0  0  0  0  0  0  0  0
   -7.6624   -7.0342    0.0000 N   0  0  0  0  0  0  0  0  0
   -8.1473   -6.3667    0.0000 C   0  0  0  0  0  0  0  0  0
  -10.0412   -3.0024    0.0000 C   0  0  0  0  0  0  0  0  0
   -9.7862   -3.7870    0.0000 O   0  0  0  0  0  0  0  0  0
  -10.8482   -2.8309    0.0000 N   0  0  0  0  0  0  0  0  0
  -10.1733    2.8378    0.0000 C   0  0  0  0  0  0  0  0  0
   -9.3529    2.9240    0.0000 C   0  0  0  0  0  0  0  0  0
  1  2  1  0  0  0  0
  2  3  4  0  0  0  0
  2  7  4  0  0  0  0
  3  4  4  0  0  0  0
  4  5  4  0  0  0  0
  5  6  4  0  0  0  0
  5  8  1  0  0  0  0
  6  7  4  0  0  0  0
  8  9  2  0  0  0  0
  8 10  1  0  0  0  0
 10 11  1  0  0  0  0
 11 12  4  0  0  0  0
 11 55  4  0  0  0  0
 12 13  4  0  0  0  0
 13 14  4  0  0  0  0
 13 17  4  0  0  0  0
 14 15  4  0  0  0  0
 14 54  4  0  0  0  0
 15 16  4  0  0  0  0
 16 17  4  0  0  0  0
 17 18  1  0  0  0  0
 18 19  1  0  0  0  0
 18 23  1  0  0  0  0
 19 20  1  0  0  0  0
 20 21  1  0  0  0  0
 21 22  1  0  0  0  0
 21 24  1  0  0  0  0
 22 23  1  0  0  0  0
 24 25  1  0  0  0  0
 24 51  1  0  0  0  0
 25 26  1  0  0  0  0
 26 27  1  0  0  0  0
 26 31  1  0  0  0  0
 27 28  1  0  0  0  0
 28 29  1  0  0  0  0
 29 30  1  0  0  0  0
 29 32  1  0  0  0  0
 30 31  1  0  0  0  0
 32 33  4  0  0  0  0
 32 50  4  0  0  0  0
 33 34  4  0  0  0  0
 33 48  4  0  0  0  0
 34 35  4  0  0  0  0
 35 36  1  0  0  0  0
 35 46  4  0  0  0  0
 36 37  1  0  0  0  0
 37 38  2  0  0  0  0
 37 39  1  0  0  0  0
 39 40  4  0  0  0  0
 39 45  4  0  0  0  0
 40 41  4  0  0  0  0
 41 42  4  0  0  0  0
 42 43  1  0  0  0  0
 42 44  4  0  0  0  0
 44 45  4  0  0  0  0
 46 47  4  0  0  0  0
 47 48  4  0  0  0  0
 48 49  4  0  0  0  0
 49 50  4  0  0  0  0
 51 52  2  0  0  0  0
 51 53  1  0  0  0  0
 54 55  4  0  0  0  0
M  STY  2   1 DAT   2 DAT
M  SAL   1  1  15
M  SDT   1 MRV_IMPLICIT_H                                        
M  SDD   1     0.0000    0.0000    DR    ALL  0       0  
M  SED   1 IMPL_H1
M  SAL   2  1  49
M  SDT   2 MRV_IMPLICIT_H                                        
M  SDD   2     0.0000    0.0000    DR    ALL  0       0  
M  SED   2 IMPL_H1
M  END
>  <Name_Molregno>
508375

>  <5-HT1B>
6

>  <5-HT1D>
6

$$$$
508376
  Marvin  02231216192D 0   1.00000     0.00000     0

 33 36  0  0  0  0  0  0  0  0999 V2000
   -3.8557    2.1179    0.0000 F   0  0  0  0  0  0  0  0  0
   -4.4077    1.5048    0.0000 C   0  0  0  0  0  0  0  0  0
   -4.1528    0.7202    0.0000 C   0  0  0  0  0  0  0  0  0
   -4.7048    0.1071    0.0000 C   0  0  0  0  0  0  0  0  0
   -5.5118    0.2786    0.0000 C   0  0  0  0  0  0  0  0  0
   -5.7667    1.0632    0.0000 C   0  0  0  0  0  0  0  0  0
   -5.2147    1.6763    0.0000 C   0  0  0  0  0  0  0  0  0
   -6.0638   -0.3345    0.0000 C   0  0  0  0  0  0  0  0  0
   -6.8708   -0.1629    0.0000 O   0  0  0  0  0  0  0  0  0
   -5.8089   -1.1191    0.0000 N   0  0  0  0  0  0  0  0  0
   -6.3609   -1.7322    0.0000 C   0  0  0  0  0  0  0  0  0
   -6.1060   -2.5168    0.0000 C   0  0  0  0  0  0  0  0  0
   -6.6580   -3.1299    0.0000 C   0  0  0  0  0  0  0  0  0
   -7.4650   -2.9584    0.0000 C   0  0  0  0  0  0  0  0  0
   -7.8775   -3.6728    0.0000 N   0  0  0  0  0  0  0  0  0
   -7.3254   -4.2859    0.0000 C   0  0  0  0  0  0  0  0  0
   -6.5718   -3.9504    0.0000 C   0  0  0  0  0  0  0  0  0
   -5.8573   -4.3629    0.0000 C   0  0  0  0  0  0  0  0  0
   -5.1428   -3.9504    0.0000 C   0  0  0  0  0  0  0  0  0
   -4.4284   -4.3629    0.0000 C   0  0  0  0  0  0  0  0  0
   -4.4284   -5.1879    0.0000 N   0  0  0  0  0  0  0  0  0
   -5.1428   -5.6004    0.0000 C   0  0  0  0  0  0  0  0  0
   -5.8573   -5.1879    0.0000 C   0  0  0  0  0  0  0  0  0
   -3.7139   -5.6004    0.0000 C   0  0  0  0  0  0  0  0  0
   -2.9994   -5.1879    0.0000 C   0  0  0  0  0  0  0  0  0
   -2.2849   -5.6004    0.0000 C   0  0  0  0  0  0  0  0  0
   -1.5705   -5.1879    0.0000 C   0  0  0  0  0  0  0  0  0
   -0.8560   -5.6004    0.0000 C   0  0  0  0  0  0  0  0  0
   -0.1415   -5.1879    0.0000 C   0  0  0  0  0  0  0  0  0
    0.5729   -5.6004    0.0000 C   0  0  0  0  0  0  0  0  0
    1.2874   -5.1879    0.0000 C   0  0  0  0  0  0  0  0  0
   -7.7199   -2.1738    0.0000 C   0  0  0  0  0  0  0  0  0
   -7.1679   -1.5607    0.0000 C   0  0  0  0  0  0  0  0  0
  1  2  1  0  0  0  0
  2  3  4  0  0  0  0
  2  7  4  0  0  0  0
  3  4  4  0  0  0  0
  4  5  4  0  0  0  0
  5  6  4  0  0  0  0
  5  8  1  0  0  0  0
  6  7  4  0  0  0  0
  8  9  2  0  0  0  0
  8 10  1  0  0  0  0
 10 11  1  0  0  0  0
 11 12  4  0  0  0  0
 11 33  4  0  0  0  0
 12 13  4  0  0  0  0
 13 14  4  0  0  0  0
 13 17  4  0  0  0  0
 14 15  4  0  0  0  0
 14 32  4  0  0  0  0
 15 16  4  0  0  0  0
 16 17  4  0  0  0  0
 17 18  1  0  0  0  0
 18 19  1  0  0  0  0
 18 23  1  0  0  0  0
 19 20  1  0  0  0  0
 20 21  1  0  0  0  0
 21 22  1  0  0  0  0
 21 24  1  0  0  0  0
 22 23  1  0  0  0  0
 24 25  1  0  0  0  0
 25 26  1  0  0  0  0
 26 27  1  0  0  0  0
 27 28  1  0  0  0  0
 28 29  1  0  0  0  0
 29 30  1  0  0  0  0
 30 31  1  0  0  0  0
 32 33  4  0  0  0  0
M  STY  1   1 DAT
M  SAL   1  1  15
M  SDT   1 MRV_IMPLICIT_H                                        
M  SDD   1     0.0000    0.0000    DR    ALL  0       0  
M  SED   1 IMPL_H1
M  END
>  <Name_Molregno>
508376

>  <5-HT1B>
6

>  <5-HT1D>
6

$$$$
508377
  Marvin  02231216192D 0   1.00000     0.00000     0

 32 36  0  0  0  0  0  0  0  0999 V2000
    1.0323   -3.3790    0.0000 F   0  0  0  0  0  0  0  0  0
    0.3178   -2.9665    0.0000 C   0  0  0  0  0  0  0  0  0
   -0.3967   -3.3790    0.0000 C   0  0  0  0  0  0  0  0  0
   -1.1112   -2.9665    0.0000 C   0  0  0  0  0  0  0  0  0
   -1.1112   -2.1415    0.0000 C   0  0  0  0  0  0  0  0  0
   -0.3967   -1.7290    0.0000 C   0  0  0  0  0  0  0  0  0
    0.3178   -2.1415    0.0000 C   0  0  0  0  0  0  0  0  0
   -1.8256   -1.7290    0.0000 C   0  0  0  0  0  0  0  0  0
   -1.8256   -0.9040    0.0000 O   0  0  0  0  0  0  0  0  0
   -2.5401   -2.1415    0.0000 N   0  0  0  0  0  0  0  0  0
   -3.2546   -1.7290    0.0000 C   0  0  0  0  0  0  0  0  0
   -3.9690   -2.1415    0.0000 C   0  0  0  0  0  0  0  0  0
   -4.6835   -1.7290    0.0000 C   0  0  0  0  0  0  0  0  0
   -4.6835   -0.9040    0.0000 C   0  0  0  0  0  0  0  0  0
   -5.4681   -0.6490    0.0000 N   0  0  0  0  0  0  0  0  0
   -5.9531   -1.3165    0.0000 C   0  0  0  0  0  0  0  0  0
   -5.4681   -1.9839    0.0000 C   0  0  0  0  0  0  0  0  0
   -5.7231   -2.7685    0.0000 C   0  0  0  0  0  0  0  0  0
   -5.1710   -3.3816    0.0000 C   0  0  0  0  0  0  0  0  0
   -5.4260   -4.1663    0.0000 C   0  0  0  0  0  0  0  0  0
   -6.2329   -4.3378    0.0000 N   0  0  0  0  0  0  0  0  0
   -6.7850   -3.7247    0.0000 C   0  0  0  0  0  0  0  0  0
   -6.5300   -2.9401    0.0000 C   0  0  0  0  0  0  0  0  0
   -6.4879   -5.1224    0.0000 C   0  0  0  0  0  0  0  0  0
   -7.2949   -5.2939    0.0000 C   0  0  0  0  0  0  0  0  0
   -7.5498   -6.0786    0.0000 C   0  0  0  0  0  0  0  0  0
   -8.3568   -6.2501    0.0000 C   0  0  0  0  0  0  0  0  0
   -8.9088   -5.6370    0.0000 C   0  0  0  0  0  0  0  0  0
   -8.6539   -4.8524    0.0000 C   0  0  0  0  0  0  0  0  0
   -7.8469   -4.6808    0.0000 C   0  0  0  0  0  0  0  0  0
   -3.9690   -0.4915    0.0000 C   0  0  0  0  0  0  0  0  0
   -3.2546   -0.9040    0.0000 C   0  0  0  0  0  0  0  0  0
  1  2  1  0  0  0  0
  2  3  4  0  0  0  0
  2  7  4  0  0  0  0
  3  4  4  0  0  0  0
  4  5  4  0  0  0  0
  5  6  4  0  0  0  0
  5  8  1  0  0  0  0
  6  7  4  0  0  0  0
  8  9  2  0  0  0  0
  8 10  1  0  0  0  0
 10 11  1  0  0  0  0
 11 12  4  0  0  0  0
 11 32  4  0  0  0  0
 12 13  4  0  0  0  0
 13 14  4  0  0  0  0
 13 17  4  0  0  0  0
 14 15  4  0  0  0  0
 14 31  4  0  0  0  0
 15 16  4  0  0  0  0
 16 17  4  0  0  0  0
 17 18  1  0  0  0  0
 18 19  1  0  0  0  0
 18 23  1  0  0  0  0
 19 20  1  0  0  0  0
 20 21  1  0  0  0  0
 21 22  1  0  0  0  0
 21 24  1  0  0  0  0
 22 23  1  0  0  0  0
 24 25  1  0  0  0  0
 25 26  4  0  0  0  0
 25 30  4  0  0  0  0
 26 27  4  0  0  0  0
 27 28  4  0  0  0  0
 28 29  4  0  0  0  0
 29 30  4  0  0  0  0
 31 32  4  0  0  0  0
M  STY  1   1 DAT
M  SAL   1  1  15
M  SDT   1 MRV_IMPLICIT_H                                        
M  SDD   1     0.0000    0.0000    DR    ALL  0       0  
M  SED   1 IMPL_H1
M  END
>  <Name_Molregno>
508377

>  <5-HT1B>
6

>  <5-HT1D>
6

$$$$
508378
  Marvin  02231216192D 0   1.00000     0.00000     0

 28 31  0  0  0  0  0  0  0  0999 V2000
    1.1355   -3.7643    0.0000 F   0  0  0  0  0  0  0  0  0
    0.4210   -3.3518    0.0000 C   0  0  0  0  0  0  0  0  0
   -0.2935   -3.7643    0.0000 C   0  0  0  0  0  0  0  0  0
   -1.0079   -3.3518    0.0000 C   0  0  0  0  0  0  0  0  0
   -1.0079   -2.5268    0.0000 C   0  0  0  0  0  0  0  0  0
   -0.2935   -2.1143    0.0000 C   0  0  0  0  0  0  0  0  0
    0.4210   -2.5268    0.0000 C   0  0  0  0  0  0  0  0  0
   -1.7224   -2.1143    0.0000 C   0  0  0  0  0  0  0  0  0
   -1.7224   -1.2893    0.0000 O   0  0  0  0  0  0  0  0  0
   -2.4369   -2.5268    0.0000 N   0  0  0  0  0  0  0  0  0
   -3.1514   -2.1143    0.0000 C   0  0  0  0  0  0  0  0  0
   -3.8658   -2.5268    0.0000 C   0  0  0  0  0  0  0  0  0
   -4.5803   -2.1143    0.0000 C   0  0  0  0  0  0  0  0  0
   -4.5803   -1.2893    0.0000 C   0  0  0  0  0  0  0  0  0
   -5.3649   -1.0343    0.0000 N   0  0  0  0  0  0  0  0  0
   -5.8498   -1.7018    0.0000 C   0  0  0  0  0  0  0  0  0
   -5.3649   -2.3692    0.0000 C   0  0  0  0  0  0  0  0  0
   -5.6199   -3.1538    0.0000 C   0  0  0  0  0  0  0  0  0
   -5.0678   -3.7669    0.0000 C   0  0  0  0  0  0  0  0  0
   -5.3228   -4.5515    0.0000 C   0  0  0  0  0  0  0  0  0
   -6.1297   -4.7231    0.0000 N   0  0  0  0  0  0  0  0  0
   -6.6818   -4.1100    0.0000 C   0  0  0  0  0  0  0  0  0
   -6.4268   -3.3253    0.0000 C   0  0  0  0  0  0  0  0  0
   -6.3847   -5.5077    0.0000 C   0  0  0  0  0  0  0  0  0
   -7.1916   -5.6792    0.0000 C   0  0  0  0  0  0  0  0  0
   -7.4466   -6.4638    0.0000 O   0  0  0  0  0  0  0  0  0
   -3.8658   -0.8768    0.0000 C   0  0  0  0  0  0  0  0  0
   -3.1514   -1.2893    0.0000 C   0  0  0  0  0  0  0  0  0
  1  2  1  0  0  0  0
  2  3  4  0  0  0  0
  2  7  4  0  0  0  0
  3  4  4  0  0  0  0
  4  5  4  0  0  0  0
  5  6  4  0  0  0  0
  5  8  1  0  0  0  0
  6  7  4  0  0  0  0
  8  9  2  0  0  0  0
  8 10  1  0  0  0  0
 10 11  1  0  0  0  0
 11 12  4  0  0  0  0
 11 28  4  0  0  0  0
 12 13  4  0  0  0  0
 13 14  4  0  0  0  0
 13 17  4  0  0  0  0
 14 15  4  0  0  0  0
 14 27  4  0  0  0  0
 15 16  4  0  0  0  0
 16 17  4  0  0  0  0
 17 18  1  0  0  0  0
 18 19  1  0  0  0  0
 18 23  1  0  0  0  0
 19 20  1  0  0  0  0
 20 21  1  0  0  0  0
 21 22  1  0  0  0  0
 21 24  1  0  0  0  0
 22 23  1  0  0  0  0
 24 25  1  0  0  0  0
 25 26  1  0  0  0  0
 27 28  4  0  0  0  0
M  STY  1   1 DAT
M  SAL   1  1  15
M  SDT   1 MRV_IMPLICIT_H                                        
M  SDD   1     0.0000    0.0000    DR    ALL  0       0  
M  SED   1 IMPL_H1
M  END
>  <Name_Molregno>
508378

>  <5-HT1B>
6

>  <5-HT1D>
6

$$$$
508379
  Marvin  02231216192D 0   1.00000     0.00000     0

 33 37  0  0  0  0  0  0  0  0999 V2000
    0.5945   -2.7054    0.0000 F   0  0  0  0  0  0  0  0  0
   -0.1199   -2.2929    0.0000 C   0  0  0  0  0  0  0  0  0
   -0.8344   -2.7054    0.0000 C   0  0  0  0  0  0  0  0  0
   -1.5489   -2.2929    0.0000 C   0  0  0  0  0  0  0  0  0
   -1.5489   -1.4679    0.0000 C   0  0  0  0  0  0  0  0  0
   -0.8344   -1.0554    0.0000 C   0  0  0  0  0  0  0  0  0
   -0.1199   -1.4679    0.0000 C   0  0  0  0  0  0  0  0  0
   -2.2633   -1.0554    0.0000 C   0  0  0  0  0  0  0  0  0
   -2.2633   -0.2304    0.0000 O   0  0  0  0  0  0  0  0  0
   -2.9778   -1.4679    0.0000 N   0  0  0  0  0  0  0  0  0
   -3.6923   -1.0554    0.0000 C   0  0  0  0  0  0  0  0  0
   -4.4067   -1.4679    0.0000 C   0  0  0  0  0  0  0  0  0
   -5.1212   -1.0554    0.0000 C   0  0  0  0  0  0  0  0  0
   -5.1212   -0.2304    0.0000 C   0  0  0  0  0  0  0  0  0
   -5.9058    0.0246    0.0000 N   0  0  0  0  0  0  0  0  0
   -6.3908   -0.6429    0.0000 C   0  0  0  0  0  0  0  0  0
   -5.9058   -1.3103    0.0000 C   0  0  0  0  0  0  0  0  0
   -6.1608   -2.0949    0.0000 C   0  0  0  0  0  0  0  0  0
   -5.6087   -2.7080    0.0000 C   0  0  0  0  0  0  0  0  0
   -5.8637   -3.4927    0.0000 C   0  0  0  0  0  0  0  0  0
   -6.6707   -3.6642    0.0000 N   0  0  0  0  0  0  0  0  0
   -7.2227   -3.0511    0.0000 C   0  0  0  0  0  0  0  0  0
   -6.9678   -2.2665    0.0000 C   0  0  0  0  0  0  0  0  0
   -6.9256   -4.4488    0.0000 C   0  0  0  0  0  0  0  0  0
   -6.3736   -5.0619    0.0000 C   0  0  0  0  0  0  0  0  0
   -6.6285   -5.8465    0.0000 N   0  0  0  0  0  0  0  0  0
   -6.0765   -6.4596    0.0000 C   0  0  0  0  0  0  0  0  0
   -6.3314   -7.2442    0.0000 C   0  0  0  0  0  0  0  0  0
   -7.1384   -7.4158    0.0000 C   0  0  0  0  0  0  0  0  0
   -7.6904   -6.8027    0.0000 C   0  0  0  0  0  0  0  0  0
   -7.4355   -6.0180    0.0000 C   0  0  0  0  0  0  0  0  0
   -4.4067    0.1821    0.0000 C   0  0  0  0  0  0  0  0  0
   -3.6923   -0.2304    0.0000 C   0  0  0  0  0  0  0  0  0
  1  2  1  0  0  0  0
  2  3  4  0  0  0  0
  2  7  4  0  0  0  0
  3  4  4  0  0  0  0
  4  5  4  0  0  0  0
  5  6  4  0  0  0  0
  5  8  1  0  0  0  0
  6  7  4  0  0  0  0
  8  9  2  0  0  0  0
  8 10  1  0  0  0  0
 10 11  1  0  0  0  0
 11 12  4  0  0  0  0
 11 33  4  0  0  0  0
 12 13  4  0  0  0  0
 13 14  4  0  0  0  0
 13 17  4  0  0  0  0
 14 15  4  0  0  0  0
 14 32  4  0  0  0  0
 15 16  4  0  0  0  0
 16 17  4  0  0  0  0
 17 18  1  0  0  0  0
 18 19  1  0  0  0  0
 18 23  1  0  0  0  0
 19 20  1  0  0  0  0
 20 21  1  0  0  0  0
 21 22  1  0  0  0  0
 21 24  1  0  0  0  0
 22 23  1  0  0  0  0
 24 25  1  0  0  0  0
 25 26  1  0  0  0  0
 26 27  1  0  0  0  0
 26 31  1  0  0  0  0
 27 28  1  0  0  0  0
 28 29  1  0  0  0  0
 29 30  1  0  0  0  0
 30 31  1  0  0  0  0
 32 33  4  0  0  0  0
M  STY  1   1 DAT
M  SAL   1  1  15
M  SDT   1 MRV_IMPLICIT_H                                        
M  SDD   1     0.0000    0.0000    DR    ALL  0       0  
M  SED   1 IMPL_H1
M  END
>  <Name_Molregno>
508379

>  <5-HT1B>
6

>  <5-HT1D>
6

$$$$
508439
  Marvin  02231216192D 0   1.00000     0.00000     0

 31 34  0  0  0  0  0  0  0  0999 V2000
    1.0385   -3.3418    0.0000 F   0  0  0  0  0  0  0  0  0
    0.3241   -2.9293    0.0000 C   0  0  0  0  0  0  0  0  0
   -0.3904   -3.3418    0.0000 C   0  0  0  0  0  0  0  0  0
   -1.1049   -2.9293    0.0000 C   0  0  0  0  0  0  0  0  0
   -1.1049   -2.1043    0.0000 C   0  0  0  0  0  0  0  0  0
   -0.3904   -1.6918    0.0000 C   0  0  0  0  0  0  0  0  0
    0.3241   -2.1043    0.0000 C   0  0  0  0  0  0  0  0  0
   -1.8193   -1.6918    0.0000 C   0  0  0  0  0  0  0  0  0
   -1.8193   -0.8668    0.0000 O   0  0  0  0  0  0  0  0  0
   -2.5338   -2.1043    0.0000 N   0  0  0  0  0  0  0  0  0
   -3.2483   -1.6918    0.0000 C   0  0  0  0  0  0  0  0  0
   -3.9628   -2.1043    0.0000 C   0  0  0  0  0  0  0  0  0
   -4.6772   -1.6918    0.0000 C   0  0  0  0  0  0  0  0  0
   -4.6772   -0.8668    0.0000 C   0  0  0  0  0  0  0  0  0
   -5.4618   -0.6119    0.0000 N   0  0  0  0  0  0  0  0  0
   -5.9468   -1.2793    0.0000 C   0  0  0  0  0  0  0  0  0
   -5.4618   -1.9468    0.0000 C   0  0  0  0  0  0  0  0  0
   -5.7168   -2.7314    0.0000 C   0  0  0  0  0  0  0  0  0
   -5.1648   -3.3445    0.0000 C   0  0  0  0  0  0  0  0  0
   -5.4197   -4.1291    0.0000 C   0  0  0  0  0  0  0  0  0
   -6.2267   -4.3006    0.0000 N   0  0  0  0  0  0  0  0  0
   -6.7787   -3.6875    0.0000 C   0  0  0  0  0  0  0  0  0
   -6.5238   -2.9029    0.0000 C   0  0  0  0  0  0  0  0  0
   -6.4816   -5.0853    0.0000 C   0  0  0  0  0  0  0  0  0
   -7.2886   -5.2568    0.0000 C   0  0  0  0  0  0  0  0  0
   -7.5435   -6.0414    0.0000 C   0  0  0  0  0  0  0  0  0
   -8.3505   -6.2129    0.0000 N   0  0  0  0  0  0  0  0  0
   -8.6054   -6.9976    0.0000 C   0  0  0  0  0  0  0  0  0
   -8.9025   -5.5998    0.0000 C   0  0  0  0  0  0  0  0  0
   -3.9628   -0.4543    0.0000 C   0  0  0  0  0  0  0  0  0
   -3.2483   -0.8668    0.0000 C   0  0  0  0  0  0  0  0  0
  1  2  1  0  0  0  0
  2  3  4  0  0  0  0
  2  7  4  0  0  0  0
  3  4  4  0  0  0  0
  4  5  4  0  0  0  0
  5  6  4  0  0  0  0
  5  8  1  0  0  0  0
  6  7  4  0  0  0  0
  8  9  2  0  0  0  0
  8 10  1  0  0  0  0
 10 11  1  0  0  0  0
 11 12  4  0  0  0  0
 11 31  4  0  0  0  0
 12 13  4  0  0  0  0
 13 14  4  0  0  0  0
 13 17  4  0  0  0  0
 14 15  4  0  0  0  0
 14 30  4  0  0  0  0
 15 16  4  0  0  0  0
 16 17  4  0  0  0  0
 17 18  1  0  0  0  0
 18 19  1  0  0  0  0
 18 23  1  0  0  0  0
 19 20  1  0  0  0  0
 20 21  1  0  0  0  0
 21 22  1  0  0  0  0
 21 24  1  0  0  0  0
 22 23  1  0  0  0  0
 24 25  1  0  0  0  0
 25 26  1  0  0  0  0
 26 27  1  0  0  0  0
 27 28  1  0  0  0  0
 27 29  1  0  0  0  0
 30 31  4  0  0  0  0
M  STY  1   1 DAT
M  SAL   1  1  15
M  SDT   1 MRV_IMPLICIT_H                                        
M  SDD   1     0.0000    0.0000    DR    ALL  0       0  
M  SED   1 IMPL_H1
M  END
>  <Name_Molregno>
508439

>  <5-HT1B>
6

>  <5-HT1D>
6

$$$$
508440
  Marvin  02231216192D 0   1.00000     0.00000     0

 37 40  0  0  0  0  0  0  0  0999 V2000
  -10.7958    1.2143    0.0000 F   0  0  0  0  0  0  0  0  0
  -10.5408    0.4297    0.0000 C   0  0  0  0  0  0  0  0  0
   -9.7339    0.2582    0.0000 C   0  0  0  0  0  0  0  0  0
   -9.4789   -0.5264    0.0000 C   0  0  0  0  0  0  0  0  0
  -10.0309   -1.1395    0.0000 C   0  0  0  0  0  0  0  0  0
  -10.8379   -0.9680    0.0000 C   0  0  0  0  0  0  0  0  0
  -11.0929   -0.1834    0.0000 C   0  0  0  0  0  0  0  0  0
   -9.7760   -1.9242    0.0000 C   0  0  0  0  0  0  0  0  0
  -10.3280   -2.5373    0.0000 O   0  0  0  0  0  0  0  0  0
   -8.9690   -2.0957    0.0000 N   0  0  0  0  0  0  0  0  0
   -8.7141   -2.8803    0.0000 C   0  0  0  0  0  0  0  0  0
   -7.9071   -3.0518    0.0000 C   0  0  0  0  0  0  0  0  0
   -7.6522   -3.8365    0.0000 C   0  0  0  0  0  0  0  0  0
   -8.2042   -4.4496    0.0000 C   0  0  0  0  0  0  0  0  0
   -7.7917   -5.1640    0.0000 N   0  0  0  0  0  0  0  0  0
   -6.9847   -4.9925    0.0000 C   0  0  0  0  0  0  0  0  0
   -6.8985   -4.1720    0.0000 C   0  0  0  0  0  0  0  0  0
   -6.1840   -3.7595    0.0000 C   0  0  0  0  0  0  0  0  0
   -6.1840   -2.9345    0.0000 C   0  0  0  0  0  0  0  0  0
   -5.4696   -2.5220    0.0000 C   0  0  0  0  0  0  0  0  0
   -4.7551   -2.9345    0.0000 N   0  0  0  0  0  0  0  0  0
   -4.7551   -3.7595    0.0000 C   0  0  0  0  0  0  0  0  0
   -5.4696   -4.1720    0.0000 C   0  0  0  0  0  0  0  0  0
   -4.0406   -2.5220    0.0000 C   0  0  0  0  0  0  0  0  0
   -3.3262   -2.9345    0.0000 C   0  0  0  0  0  0  0  0  0
   -2.6117   -2.5220    0.0000 C   0  0  0  0  0  0  0  0  0
   -1.8972   -2.9345    0.0000 C   0  0  0  0  0  0  0  0  0
   -1.1827   -2.5220    0.0000 C   0  0  0  0  0  0  0  0  0
   -0.4683   -2.9345    0.0000 C   0  0  0  0  0  0  0  0  0
    0.2462   -2.5220    0.0000 C   0  0  0  0  0  0  0  0  0
    0.9607   -2.9345    0.0000 C   0  0  0  0  0  0  0  0  0
    1.6751   -2.5220    0.0000 C   0  0  0  0  0  0  0  0  0
    2.3896   -2.9345    0.0000 C   0  0  0  0  0  0  0  0  0
    3.1041   -2.5220    0.0000 O   0  0  0  0  0  0  0  0  0
    2.3896   -3.7595    0.0000 O   0  0  0  0  0  0  0  0  0
   -9.0112   -4.2780    0.0000 C   0  0  0  0  0  0  0  0  0
   -9.2661   -3.4934    0.0000 C   0  0  0  0  0  0  0  0  0
  1  2  1  0  0  0  0
  2  3  4  0  0  0  0
  2  7  4  0  0  0  0
  3  4  4  0  0  0  0
  4  5  4  0  0  0  0
  5  6  4  0  0  0  0
  5  8  1  0  0  0  0
  6  7  4  0  0  0  0
  8  9  2  0  0  0  0
  8 10  1  0  0  0  0
 10 11  1  0  0  0  0
 11 12  4  0  0  0  0
 11 37  4  0  0  0  0
 12 13  4  0  0  0  0
 13 14  4  0  0  0  0
 13 17  4  0  0  0  0
 14 15  4  0  0  0  0
 14 36  4  0  0  0  0
 15 16  4  0  0  0  0
 16 17  4  0  0  0  0
 17 18  1  0  0  0  0
 18 19  1  0  0  0  0
 18 23  1  0  0  0  0
 19 20  1  0  0  0  0
 20 21  1  0  0  0  0
 21 22  1  0  0  0  0
 21 24  1  0  0  0  0
 22 23  1  0  0  0  0
 24 25  1  0  0  0  0
 25 26  1  0  0  0  0
 26 27  1  0  0  0  0
 27 28  1  0  0  0  0
 28 29  1  0  0  0  0
 29 30  1  0  0  0  0
 30 31  1  0  0  0  0
 31 32  1  0  0  0  0
 32 33  1  0  0  0  0
 33 34  1  0  0  0  0
 33 35  2  0  0  0  0
 36 37  4  0  0  0  0
M  STY  1   1 DAT
M  SAL   1  1  15
M  SDT   1 MRV_IMPLICIT_H                                        
M  SDD   1     0.0000    0.0000    DR    ALL  0       0  
M  SED   1 IMPL_H1
M  END
>  <Name_Molregno>
508440

>  <5-HT1B>
6

>  <5-HT1D>
6

$$$$
508494
  Marvin  02231216192D 0   1.00000     0.00000     0

 39 44  0  0  0  0  0  0  0  0999 V2000
    2.0436   -1.0615    0.0000 O   0  0  0  0  0  0  0  0  0
    2.0436   -1.8865    0.0000 C   0  0  0  0  0  0  0  0  0
    2.7581   -2.2990    0.0000 N   0  0  0  0  0  0  0  0  0
    3.4725   -1.8865    0.0000 C   0  0  0  0  0  0  0  0  0
    3.4725   -1.0615    0.0000 C   0  0  0  0  0  0  0  0  0
    4.1870   -0.6490    0.0000 C   0  0  0  0  0  0  0  0  0
    4.9015   -1.0615    0.0000 C   0  0  0  0  0  0  0  0  0
    5.5146   -0.5094    0.0000 N   0  0  0  0  0  0  0  0  0
    5.1790    0.2442    0.0000 C   0  0  0  0  0  0  0  0  0
    4.3585    0.1580    0.0000 C   0  0  0  0  0  0  0  0  0
    3.8065    0.7711    0.0000 C   0  0  0  0  0  0  0  0  0
    2.9995    0.5996    0.0000 C   0  0  0  0  0  0  0  0  0
    2.4475    1.2127    0.0000 C   0  0  0  0  0  0  0  0  0
    2.7024    1.9973    0.0000 N   0  0  0  0  0  0  0  0  0
    3.5094    2.1688    0.0000 C   0  0  0  0  0  0  0  0  0
    4.0614    1.5557    0.0000 C   0  0  0  0  0  0  0  0  0
    2.1504    2.6104    0.0000 C   0  0  0  0  0  0  0  0  0
    4.9015   -1.8865    0.0000 C   0  0  0  0  0  0  0  0  0
    4.1870   -2.2990    0.0000 C   0  0  0  0  0  0  0  0  0
    1.3291   -2.2990    0.0000 C   0  0  0  0  0  0  0  0  0
    0.6147   -1.8865    0.0000 C   0  0  0  0  0  0  0  0  0
    0.6147   -1.0615    0.0000 O   0  0  0  0  0  0  0  0  0
   -0.0998   -2.2990    0.0000 N   0  0  0  0  0  0  0  0  0
   -0.8143   -1.8865    0.0000 C   0  0  0  0  0  0  0  0  0
   -1.5288   -2.2990    0.0000 C   0  0  0  0  0  0  0  0  0
   -2.2432   -1.8865    0.0000 C   0  0  0  0  0  0  0  0  0
   -2.2432   -1.0615    0.0000 C   0  0  0  0  0  0  0  0  0
   -3.0278   -0.8065    0.0000 N   0  0  0  0  0  0  0  0  0
   -3.5128   -1.4740    0.0000 C   0  0  0  0  0  0  0  0  0
   -3.0278   -2.1414    0.0000 C   0  0  0  0  0  0  0  0  0
   -3.2828   -2.9260    0.0000 C   0  0  0  0  0  0  0  0  0
   -2.7308   -3.5391    0.0000 C   0  0  0  0  0  0  0  0  0
   -2.9857   -4.3237    0.0000 C   0  0  0  0  0  0  0  0  0
   -3.7927   -4.4953    0.0000 N   0  0  0  0  0  0  0  0  0
   -4.3447   -3.8822    0.0000 C   0  0  0  0  0  0  0  0  0
   -4.0898   -3.0975    0.0000 C   0  0  0  0  0  0  0  0  0
   -4.0476   -5.2799    0.0000 C   0  0  0  0  0  0  0  0  0
   -1.5288   -0.6490    0.0000 C   0  0  0  0  0  0  0  0  0
   -0.8143   -1.0615    0.0000 C   0  0  0  0  0  0  0  0  0
  1  2  2  0  0  0  0
  2  3  1  0  0  0  0
  2 20  1  0  0  0  0
  3  4  1  0  0  0  0
  4  5  4  0  0  0  0
  4 19  4  0  0  0  0
  5  6  4  0  0  0  0
  6  7  4  0  0  0  0
  6 10  4  0  0  0  0
  7  8  4  0  0  0  0
  7 18  4  0  0  0  0
  8  9  4  0  0  0  0
  9 10  4  0  0  0  0
 10 11  1  0  0  0  0
 11 12  1  0  0  0  0
 11 16  1  0  0  0  0
 12 13  1  0  0  0  0
 13 14  1  0  0  0  0
 14 15  1  0  0  0  0
 14 17  1  0  0  0  0
 15 16  1  0  0  0  0
 18 19  4  0  0  0  0
 20 21  1  0  0  0  0
 21 22  2  0  0  0  0
 21 23  1  0  0  0  0
 23 24  1  0  0  0  0
 24 25  4  0  0  0  0
 24 39  4  0  0  0  0
 25 26  4  0  0  0  0
 26 27  4  0  0  0  0
 26 30  4  0  0  0  0
 27 28  4  0  0  0  0
 27 38  4  0  0  0  0
 28 29  4  0  0  0  0
 29 30  4  0  0  0  0
 30 31  1  0  0  0  0
 31 32  1  0  0  0  0
 31 36  1  0  0  0  0
 32 33  1  0  0  0  0
 33 34  1  0  0  0  0
 34 35  1  0  0  0  0
 34 37  1  0  0  0  0
 35 36  1  0  0  0  0
 38 39  4  0  0  0  0
M  STY  2   1 DAT   2 DAT
M  SAL   1  1   8
M  SDT   1 MRV_IMPLICIT_H                                        
M  SDD   1     0.0000    0.0000    DR    ALL  0       0  
M  SED   1 IMPL_H1
M  SAL   2  1  28
M  SDT   2 MRV_IMPLICIT_H                                        
M  SDD   2     0.0000    0.0000    DR    ALL  0       0  
M  SED   2 IMPL_H1
M  END
>  <Name_Molregno>
508494

>  <5-HT1B>
7.8

>  <5-HT1D>
8.47

$$$$
508495
  Marvin  02231216192D 0   1.00000     0.00000     0

 41 46  0  0  0  0  0  0  0  0999 V2000
   -0.2076   -2.3280    0.0000 O   0  0  0  0  0  0  0  0  0
   -0.2076   -1.5030    0.0000 C   0  0  0  0  0  0  0  0  0
   -0.9221   -1.0905    0.0000 N   0  0  0  0  0  0  0  0  0
   -1.6365   -1.5030    0.0000 C   0  0  0  0  0  0  0  0  0
   -1.6365   -2.3280    0.0000 C   0  0  0  0  0  0  0  0  0
   -2.3510   -2.7405    0.0000 C   0  0  0  0  0  0  0  0  0
   -3.0655   -2.3280    0.0000 C   0  0  0  0  0  0  0  0  0
   -3.6786   -2.8800    0.0000 N   0  0  0  0  0  0  0  0  0
   -3.3430   -3.6337    0.0000 C   0  0  0  0  0  0  0  0  0
   -2.5225   -3.5474    0.0000 C   0  0  0  0  0  0  0  0  0
   -1.9705   -4.1605    0.0000 C   0  0  0  0  0  0  0  0  0
   -1.1635   -3.9890    0.0000 C   0  0  0  0  0  0  0  0  0
   -0.6115   -4.6021    0.0000 C   0  0  0  0  0  0  0  0  0
   -0.8664   -5.3867    0.0000 N   0  0  0  0  0  0  0  0  0
   -1.6734   -5.5582    0.0000 C   0  0  0  0  0  0  0  0  0
   -2.2254   -4.9451    0.0000 C   0  0  0  0  0  0  0  0  0
   -0.3144   -5.9998    0.0000 C   0  0  0  0  0  0  0  0  0
   -3.0655   -1.5030    0.0000 C   0  0  0  0  0  0  0  0  0
   -2.3510   -1.0905    0.0000 C   0  0  0  0  0  0  0  0  0
    0.5069   -1.0905    0.0000 C   0  0  0  0  0  0  0  0  0
    1.2214   -1.5030    0.0000 C   0  0  0  0  0  0  0  0  0
    1.9358   -1.0905    0.0000 C   0  0  0  0  0  0  0  0  0
    2.6503   -1.5030    0.0000 C   0  0  0  0  0  0  0  0  0
    2.6503   -2.3280    0.0000 O   0  0  0  0  0  0  0  0  0
    3.3648   -1.0905    0.0000 N   0  0  0  0  0  0  0  0  0
    4.0792   -1.5030    0.0000 C   0  0  0  0  0  0  0  0  0
    4.7937   -1.0905    0.0000 C   0  0  0  0  0  0  0  0  0
    5.5082   -1.5030    0.0000 C   0  0  0  0  0  0  0  0  0
    5.5082   -2.3280    0.0000 C   0  0  0  0  0  0  0  0  0
    6.2928   -2.5829    0.0000 N   0  0  0  0  0  0  0  0  0
    6.7777   -1.9155    0.0000 C   0  0  0  0  0  0  0  0  0
    6.2928   -1.2480    0.0000 C   0  0  0  0  0  0  0  0  0
    6.5477   -0.4634    0.0000 C   0  0  0  0  0  0  0  0  0
    5.9957    0.1497    0.0000 C   0  0  0  0  0  0  0  0  0
    6.2506    0.9343    0.0000 C   0  0  0  0  0  0  0  0  0
    7.0576    1.1058    0.0000 N   0  0  0  0  0  0  0  0  0
    7.6097    0.4927    0.0000 C   0  0  0  0  0  0  0  0  0
    7.3547   -0.2919    0.0000 C   0  0  0  0  0  0  0  0  0
    7.3126    1.8905    0.0000 C   0  0  0  0  0  0  0  0  0
    4.7937   -2.7405    0.0000 C   0  0  0  0  0  0  0  0  0
    4.0792   -2.3280    0.0000 C   0  0  0  0  0  0  0  0  0
  1  2  2  0  0  0  0
  2  3  1  0  0  0  0
  2 20  1  0  0  0  0
  3  4  1  0  0  0  0
  4  5  4  0  0  0  0
  4 19  4  0  0  0  0
  5  6  4  0  0  0  0
  6  7  4  0  0  0  0
  6 10  4  0  0  0  0
  7  8  4  0  0  0  0
  7 18  4  0  0  0  0
  8  9  4  0  0  0  0
  9 10  4  0  0  0  0
 10 11  1  0  0  0  0
 11 12  1  0  0  0  0
 11 16  1  0  0  0  0
 12 13  1  0  0  0  0
 13 14  1  0  0  0  0
 14 15  1  0  0  0  0
 14 17  1  0  0  0  0
 15 16  1  0  0  0  0
 18 19  4  0  0  0  0
 20 21  1  0  0  0  0
 21 22  1  0  0  0  0
 22 23  1  0  0  0  0
 23 24  2  0  0  0  0
 23 25  1  0  0  0  0
 25 26  1  0  0  0  0
 26 27  4  0  0  0  0
 26 41  4  0  0  0  0
 27 28  4  0  0  0  0
 28 29  4  0  0  0  0
 28 32  4  0  0  0  0
 29 30  4  0  0  0  0
 29 40  4  0  0  0  0
 30 31  4  0  0  0  0
 31 32  4  0  0  0  0
 32 33  1  0  0  0  0
 33 34  1  0  0  0  0
 33 38  1  0  0  0  0
 34 35  1  0  0  0  0
 35 36  1  0  0  0  0
 36 37  1  0  0  0  0
 36 39  1  0  0  0  0
 37 38  1  0  0  0  0
 40 41  4  0  0  0  0
M  STY  2   1 DAT   2 DAT
M  SAL   1  1   8
M  SDT   1 MRV_IMPLICIT_H                                        
M  SDD   1     0.0000    0.0000    DR    ALL  0       0  
M  SED   1 IMPL_H1
M  SAL   2  1  30
M  SDT   2 MRV_IMPLICIT_H                                        
M  SDD   2     0.0000    0.0000    DR    ALL  0       0  
M  SED   2 IMPL_H1
M  END
>  <Name_Molregno>
508495

>  <5-HT1B>
9.12

>  <5-HT1D>
9.02

$$$$
508496
  Marvin  02231216192D 0   1.00000     0.00000     0

 44 49  0  0  0  0  0  0  0  0999 V2000
    0.1081   -0.2262    0.0000 O   0  0  0  0  0  0  0  0  0
    0.1081   -1.0512    0.0000 C   0  0  0  0  0  0  0  0  0
   -0.6063   -1.4637    0.0000 N   0  0  0  0  0  0  0  0  0
   -1.3208   -1.0512    0.0000 C   0  0  0  0  0  0  0  0  0
   -2.0353   -1.4637    0.0000 C   0  0  0  0  0  0  0  0  0
   -2.7497   -1.0512    0.0000 C   0  0  0  0  0  0  0  0  0
   -2.7497   -0.2262    0.0000 C   0  0  0  0  0  0  0  0  0
   -3.5344    0.0288    0.0000 N   0  0  0  0  0  0  0  0  0
   -4.0193   -0.6387    0.0000 C   0  0  0  0  0  0  0  0  0
   -3.5344   -1.3061    0.0000 C   0  0  0  0  0  0  0  0  0
   -3.7893   -2.0907    0.0000 C   0  0  0  0  0  0  0  0  0
   -3.2373   -2.7038    0.0000 C   0  0  0  0  0  0  0  0  0
   -3.4922   -3.4884    0.0000 C   0  0  0  0  0  0  0  0  0
   -4.2992   -3.6600    0.0000 N   0  0  0  0  0  0  0  0  0
   -4.8512   -3.0469    0.0000 C   0  0  0  0  0  0  0  0  0
   -4.5963   -2.2622    0.0000 C   0  0  0  0  0  0  0  0  0
   -4.5541   -4.4446    0.0000 C   0  0  0  0  0  0  0  0  0
   -2.0353    0.1863    0.0000 C   0  0  0  0  0  0  0  0  0
   -1.3208   -0.2262    0.0000 C   0  0  0  0  0  0  0  0  0
    0.8226   -1.4637    0.0000 C   0  0  0  0  0  0  0  0  0
    1.5371   -1.0512    0.0000 C   0  0  0  0  0  0  0  0  0
    2.2515   -1.4637    0.0000 C   0  0  0  0  0  0  0  0  0
    2.9660   -1.0512    0.0000 C   0  0  0  0  0  0  0  0  0
    3.6805   -1.4637    0.0000 C   0  0  0  0  0  0  0  0  0
    4.3950   -1.0512    0.0000 C   0  0  0  0  0  0  0  0  0
    5.1094   -1.4637    0.0000 C   0  0  0  0  0  0  0  0  0
    5.1094   -2.2887    0.0000 O   0  0  0  0  0  0  0  0  0
    5.8239   -1.0512    0.0000 N   0  0  0  0  0  0  0  0  0
    6.5384   -1.4637    0.0000 C   0  0  0  0  0  0  0  0  0
    7.2528   -1.0512    0.0000 C   0  0  0  0  0  0  0  0  0
    7.9673   -1.4637    0.0000 C   0  0  0  0  0  0  0  0  0
    7.9673   -2.2887    0.0000 C   0  0  0  0  0  0  0  0  0
    8.7519   -2.5436    0.0000 N   0  0  0  0  0  0  0  0  0
    9.2369   -1.8762    0.0000 C   0  0  0  0  0  0  0  0  0
    8.7519   -1.2087    0.0000 C   0  0  0  0  0  0  0  0  0
    9.0069   -0.4241    0.0000 C   0  0  0  0  0  0  0  0  0
    8.4548    0.1890    0.0000 C   0  0  0  0  0  0  0  0  0
    8.7098    0.9736    0.0000 C   0  0  0  0  0  0  0  0  0
    9.5168    1.1451    0.0000 N   0  0  0  0  0  0  0  0  0
   10.0688    0.5321    0.0000 C   0  0  0  0  0  0  0  0  0
    9.8138   -0.2526    0.0000 C   0  0  0  0  0  0  0  0  0
    9.7717    1.9298    0.0000 C   0  0  0  0  0  0  0  0  0
    7.2528   -2.7012    0.0000 C   0  0  0  0  0  0  0  0  0
    6.5384   -2.2887    0.0000 C   0  0  0  0  0  0  0  0  0
  1  2  2  0  0  0  0
  2  3  1  0  0  0  0
  2 20  1  0  0  0  0
  3  4  1  0  0  0  0
  4  5  4  0  0  0  0
  4 19  4  0  0  0  0
  5  6  4  0  0  0  0
  6  7  4  0  0  0  0
  6 10  4  0  0  0  0
  7  8  4  0  0  0  0
  7 18  4  0  0  0  0
  8  9  4  0  0  0  0
  9 10  4  0  0  0  0
 10 11  1  0  0  0  0
 11 12  1  0  0  0  0
 11 16  1  0  0  0  0
 12 13  1  0  0  0  0
 13 14  1  0  0  0  0
 14 15  1  0  0  0  0
 14 17  1  0  0  0  0
 15 16  1  0  0  0  0
 18 19  4  0  0  0  0
 20 21  1  0  0  0  0
 21 22  1  0  0  0  0
 22 23  1  0  0  0  0
 23 24  1  0  0  0  0
 24 25  1  0  0  0  0
 25 26  1  0  0  0  0
 26 27  2  0  0  0  0
 26 28  1  0  0  0  0
 28 29  1  0  0  0  0
 29 30  4  0  0  0  0
 29 44  4  0  0  0  0
 30 31  4  0  0  0  0
 31 32  4  0  0  0  0
 31 35  4  0  0  0  0
 32 33  4  0  0  0  0
 32 43  4  0  0  0  0
 33 34  4  0  0  0  0
 34 35  4  0  0  0  0
 35 36  1  0  0  0  0
 36 37  1  0  0  0  0
 36 41  1  0  0  0  0
 37 38  1  0  0  0  0
 38 39  1  0  0  0  0
 39 40  1  0  0  0  0
 39 42  1  0  0  0  0
 40 41  1  0  0  0  0
 43 44  4  0  0  0  0
M  STY  2   1 DAT   2 DAT
M  SAL   1  1   8
M  SDT   1 MRV_IMPLICIT_H                                        
M  SDD   1     0.0000    0.0000    DR    ALL  0       0  
M  SED   1 IMPL_H1
M  SAL   2  1  33
M  SDT   2 MRV_IMPLICIT_H                                        
M  SDD   2     0.0000    0.0000    DR    ALL  0       0  
M  SED   2 IMPL_H1
M  END
>  <Name_Molregno>
508496

>  <5-HT1B>
8.89

>  <5-HT1D>
9.05

$$$$
508497
  Marvin  02231216192D 0   1.00000     0.00000     0

 46 51  0  0  0  0  0  0  0  0999 V2000
    1.3847    2.5349    0.0000 O   0  0  0  0  0  0  0  0  0
    1.3847    1.7099    0.0000 C   0  0  0  0  0  0  0  0  0
    0.6702    1.2974    0.0000 N   0  0  0  0  0  0  0  0  0
   -0.0442    1.7099    0.0000 C   0  0  0  0  0  0  0  0  0
   -0.7587    1.2974    0.0000 C   0  0  0  0  0  0  0  0  0
   -1.4732    1.7099    0.0000 C   0  0  0  0  0  0  0  0  0
   -1.4732    2.5349    0.0000 C   0  0  0  0  0  0  0  0  0
   -2.2578    2.7899    0.0000 N   0  0  0  0  0  0  0  0  0
   -2.7427    2.1224    0.0000 C   0  0  0  0  0  0  0  0  0
   -2.2578    1.4550    0.0000 C   0  0  0  0  0  0  0  0  0
   -2.5127    0.6704    0.0000 C   0  0  0  0  0  0  0  0  0
   -1.9607    0.0573    0.0000 C   0  0  0  0  0  0  0  0  0
   -2.2157   -0.7274    0.0000 C   0  0  0  0  0  0  0  0  0
   -3.0226   -0.8989    0.0000 N   0  0  0  0  0  0  0  0  0
   -3.5747   -0.2858    0.0000 C   0  0  0  0  0  0  0  0  0
   -3.3197    0.4988    0.0000 C   0  0  0  0  0  0  0  0  0
   -3.2776   -1.6835    0.0000 C   0  0  0  0  0  0  0  0  0
   -0.7587    2.9474    0.0000 C   0  0  0  0  0  0  0  0  0
   -0.0442    2.5349    0.0000 C   0  0  0  0  0  0  0  0  0
    2.0992    1.2974    0.0000 C   0  0  0  0  0  0  0  0  0
    2.8136    1.7099    0.0000 C   0  0  0  0  0  0  0  0  0
    3.5281    1.2974    0.0000 C   0  0  0  0  0  0  0  0  0
    4.2426    1.7099    0.0000 C   0  0  0  0  0  0  0  0  0
    4.9571    1.2974    0.0000 C   0  0  0  0  0  0  0  0  0
    5.6715    1.7099    0.0000 C   0  0  0  0  0  0  0  0  0
    6.3860    1.2974    0.0000 C   0  0  0  0  0  0  0  0  0
    7.1005    1.7099    0.0000 C   0  0  0  0  0  0  0  0  0
    7.8149    1.2974    0.0000 C   0  0  0  0  0  0  0  0  0
    7.8149    0.4724    0.0000 O   0  0  0  0  0  0  0  0  0
    8.5294    1.7099    0.0000 N   0  0  0  0  0  0  0  0  0
    9.2439    1.2974    0.0000 C   0  0  0  0  0  0  0  0  0
    9.9583    1.7099    0.0000 C   0  0  0  0  0  0  0  0  0
   10.6728    1.2974    0.0000 C   0  0  0  0  0  0  0  0  0
   10.6728    0.4724    0.0000 C   0  0  0  0  0  0  0  0  0
   11.4574    0.2175    0.0000 N   0  0  0  0  0  0  0  0  0
   11.9424    0.8849    0.0000 C   0  0  0  0  0  0  0  0  0
   11.4574    1.5524    0.0000 C   0  0  0  0  0  0  0  0  0
   11.7124    2.3370    0.0000 C   0  0  0  0  0  0  0  0  0
   11.1603    2.9501    0.0000 C   0  0  0  0  0  0  0  0  0
   11.4153    3.7347    0.0000 C   0  0  0  0  0  0  0  0  0
   12.2223    3.9062    0.0000 N   0  0  0  0  0  0  0  0  0
   12.7743    3.2931    0.0000 C   0  0  0  0  0  0  0  0  0
   12.5194    2.5085    0.0000 C   0  0  0  0  0  0  0  0  0
   12.4772    4.6908    0.0000 C   0  0  0  0  0  0  0  0  0
    9.9583    0.0599    0.0000 C   0  0  0  0  0  0  0  0  0
    9.2439    0.4724    0.0000 C   0  0  0  0  0  0  0  0  0
  1  2  2  0  0  0  0
  2  3  1  0  0  0  0
  2 20  1  0  0  0  0
  3  4  1  0  0  0  0
  4  5  4  0  0  0  0
  4 19  4  0  0  0  0
  5  6  4  0  0  0  0
  6  7  4  0  0  0  0
  6 10  4  0  0  0  0
  7  8  4  0  0  0  0
  7 18  4  0  0  0  0
  8  9  4  0  0  0  0
  9 10  4  0  0  0  0
 10 11  1  0  0  0  0
 11 12  1  0  0  0  0
 11 16  1  0  0  0  0
 12 13  1  0  0  0  0
 13 14  1  0  0  0  0
 14 15  1  0  0  0  0
 14 17  1  0  0  0  0
 15 16  1  0  0  0  0
 18 19  4  0  0  0  0
 20 21  1  0  0  0  0
 21 22  1  0  0  0  0
 22 23  1  0  0  0  0
 23 24  1  0  0  0  0
 24 25  1  0  0  0  0
 25 26  1  0  0  0  0
 26 27  1  0  0  0  0
 27 28  1  0  0  0  0
 28 29  2  0  0  0  0
 28 30  1  0  0  0  0
 30 31  1  0  0  0  0
 31 32  4  0  0  0  0
 31 46  4  0  0  0  0
 32 33  4  0  0  0  0
 33 34  4  0  0  0  0
 33 37  4  0  0  0  0
 34 35  4  0  0  0  0
 34 45  4  0  0  0  0
 35 36  4  0  0  0  0
 36 37  4  0  0  0  0
 37 38  1  0  0  0  0
 38 39  1  0  0  0  0
 38 43  1  0  0  0  0
 39 40  1  0  0  0  0
 40 41  1  0  0  0  0
 41 42  1  0  0  0  0
 41 44  1  0  0  0  0
 42 43  1  0  0  0  0
 45 46  4  0  0  0  0
M  STY  2   1 DAT   2 DAT
M  SAL   1  1   8
M  SDT   1 MRV_IMPLICIT_H                                        
M  SDD   1     0.0000    0.0000    DR    ALL  0       0  
M  SED   1 IMPL_H1
M  SAL   2  1  35
M  SDT   2 MRV_IMPLICIT_H                                        
M  SDD   2     0.0000    0.0000    DR    ALL  0       0  
M  SED   2 IMPL_H1
M  END
>  <Name_Molregno>
508497

>  <5-HT1B>
9.1

>  <5-HT1D>
9.02

$$$$
508498
  Marvin  02231216192D 0   1.00000     0.00000     0

 47 52  0  0  0  0  0  0  0  0999 V2000
    0.8252   -1.6306    0.0000 O   0  0  0  0  0  0  0  0  0
    0.8252   -0.8056    0.0000 C   0  0  0  0  0  0  0  0  0
    0.1107   -0.3931    0.0000 N   0  0  0  0  0  0  0  0  0
   -0.6037   -0.8056    0.0000 C   0  0  0  0  0  0  0  0  0
   -0.6037   -1.6306    0.0000 C   0  0  0  0  0  0  0  0  0
   -1.3182   -2.0431    0.0000 C   0  0  0  0  0  0  0  0  0
   -2.0327   -1.6306    0.0000 C   0  0  0  0  0  0  0  0  0
   -2.6458   -2.1827    0.0000 N   0  0  0  0  0  0  0  0  0
   -2.3102   -2.9363    0.0000 C   0  0  0  0  0  0  0  0  0
   -1.4897   -2.8501    0.0000 C   0  0  0  0  0  0  0  0  0
   -0.9377   -3.4632    0.0000 C   0  0  0  0  0  0  0  0  0
   -0.1307   -3.2917    0.0000 C   0  0  0  0  0  0  0  0  0
    0.4213   -3.9048    0.0000 C   0  0  0  0  0  0  0  0  0
    0.1664   -4.6894    0.0000 N   0  0  0  0  0  0  0  0  0
   -0.6406   -4.8609    0.0000 C   0  0  0  0  0  0  0  0  0
   -1.1926   -4.2478    0.0000 C   0  0  0  0  0  0  0  0  0
    0.7184   -5.3025    0.0000 C   0  0  0  0  0  0  0  0  0
   -2.0327   -0.8056    0.0000 C   0  0  0  0  0  0  0  0  0
   -1.3182   -0.3931    0.0000 C   0  0  0  0  0  0  0  0  0
    1.5397   -0.3931    0.0000 C   0  0  0  0  0  0  0  0  0
    2.2541   -0.8056    0.0000 C   0  0  0  0  0  0  0  0  0
    2.9686   -0.3931    0.0000 C   0  0  0  0  0  0  0  0  0
    3.6831   -0.8056    0.0000 C   0  0  0  0  0  0  0  0  0
    4.3976   -0.3931    0.0000 C   0  0  0  0  0  0  0  0  0
    5.1120   -0.8056    0.0000 C   0  0  0  0  0  0  0  0  0
    5.8265   -0.3931    0.0000 C   0  0  0  0  0  0  0  0  0
    6.5410   -0.8056    0.0000 C   0  0  0  0  0  0  0  0  0
    7.2554   -0.3931    0.0000 C   0  0  0  0  0  0  0  0  0
    7.9699   -0.8056    0.0000 C   0  0  0  0  0  0  0  0  0
    7.9699   -1.6306    0.0000 O   0  0  0  0  0  0  0  0  0
    8.6844   -0.3931    0.0000 N   0  0  0  0  0  0  0  0  0
    9.3989   -0.8056    0.0000 C   0  0  0  0  0  0  0  0  0
   10.1133   -0.3931    0.0000 C   0  0  0  0  0  0  0  0  0
   10.8278   -0.8056    0.0000 C   0  0  0  0  0  0  0  0  0
   10.8278   -1.6306    0.0000 C   0  0  0  0  0  0  0  0  0
   11.6124   -1.8856    0.0000 N   0  0  0  0  0  0  0  0  0
   12.0973   -1.2181    0.0000 C   0  0  0  0  0  0  0  0  0
   11.6124   -0.5507    0.0000 C   0  0  0  0  0  0  0  0  0
   11.8674    0.2339    0.0000 C   0  0  0  0  0  0  0  0  0
   11.3153    0.8470    0.0000 C   0  0  0  0  0  0  0  0  0
   11.5703    1.6317    0.0000 C   0  0  0  0  0  0  0  0  0
   12.3772    1.8032    0.0000 N   0  0  0  0  0  0  0  0  0
   12.9293    1.1901    0.0000 C   0  0  0  0  0  0  0  0  0
   12.6743    0.4055    0.0000 C   0  0  0  0  0  0  0  0  0
   12.6322    2.5878    0.0000 C   0  0  0  0  0  0  0  0  0
   10.1133   -2.0431    0.0000 C   0  0  0  0  0  0  0  0  0
    9.3989   -1.6306    0.0000 C   0  0  0  0  0  0  0  0  0
  1  2  2  0  0  0  0
  2  3  1  0  0  0  0
  2 20  1  0  0  0  0
  3  4  1  0  0  0  0
  4  5  4  0  0  0  0
  4 19  4  0  0  0  0
  5  6  4  0  0  0  0
  6  7  4  0  0  0  0
  6 10  4  0  0  0  0
  7  8  4  0  0  0  0
  7 18  4  0  0  0  0
  8  9  4  0  0  0  0
  9 10  4  0  0  0  0
 10 11  1  0  0  0  0
 11 12  1  0  0  0  0
 11 16  1  0  0  0  0
 12 13  1  0  0  0  0
 13 14  1  0  0  0  0
 14 15  1  0  0  0  0
 14 17  1  0  0  0  0
 15 16  1  0  0  0  0
 18 19  4  0  0  0  0
 20 21  1  0  0  0  0
 21 22  1  0  0  0  0
 22 23  1  0  0  0  0
 23 24  1  0  0  0  0
 24 25  1  0  0  0  0
 25 26  1  0  0  0  0
 26 27  1  0  0  0  0
 27 28  1  0  0  0  0
 28 29  1  0  0  0  0
 29 30  2  0  0  0  0
 29 31  1  0  0  0  0
 31 32  1  0  0  0  0
 32 33  4  0  0  0  0
 32 47  4  0  0  0  0
 33 34  4  0  0  0  0
 34 35  4  0  0  0  0
 34 38  4  0  0  0  0
 35 36  4  0  0  0  0
 35 46  4  0  0  0  0
 36 37  4  0  0  0  0
 37 38  4  0  0  0  0
 38 39  1  0  0  0  0
 39 40  1  0  0  0  0
 39 44  1  0  0  0  0
 40 41  1  0  0  0  0
 41 42  1  0  0  0  0
 42 43  1  0  0  0  0
 42 45  1  0  0  0  0
 43 44  1  0  0  0  0
 46 47  4  0  0  0  0
M  STY  2   1 DAT   2 DAT
M  SAL   1  1   8
M  SDT   1 MRV_IMPLICIT_H                                        
M  SDD   1     0.0000    0.0000    DR    ALL  0       0  
M  SED   1 IMPL_H1
M  SAL   2  1  36
M  SDT   2 MRV_IMPLICIT_H                                        
M  SDD   2     0.0000    0.0000    DR    ALL  0       0  
M  SED   2 IMPL_H1
M  END
>  <Name_Molregno>
508498

>  <5-HT1B>
8.89

>  <5-HT1D>
9.05

$$$$
508499
  Marvin  02231216192D 0   1.00000     0.00000     0

 49 54  0  0  0  0  0  0  0  0999 V2000
   -1.3335   -0.4270    0.0000 O   0  0  0  0  0  0  0  0  0
   -1.3335    0.3980    0.0000 C   0  0  0  0  0  0  0  0  0
   -2.0480    0.8105    0.0000 N   0  0  0  0  0  0  0  0  0
   -2.7624    0.3980    0.0000 C   0  0  0  0  0  0  0  0  0
   -2.7624   -0.4270    0.0000 C   0  0  0  0  0  0  0  0  0
   -3.4769   -0.8395    0.0000 C   0  0  0  0  0  0  0  0  0
   -4.1914   -0.4270    0.0000 C   0  0  0  0  0  0  0  0  0
   -4.8045   -0.9790    0.0000 N   0  0  0  0  0  0  0  0  0
   -4.4689   -1.7327    0.0000 C   0  0  0  0  0  0  0  0  0
   -3.6484   -1.6465    0.0000 C   0  0  0  0  0  0  0  0  0
   -3.0964   -2.2596    0.0000 C   0  0  0  0  0  0  0  0  0
   -2.2894   -2.0880    0.0000 C   0  0  0  0  0  0  0  0  0
   -1.7374   -2.7011    0.0000 C   0  0  0  0  0  0  0  0  0
   -1.9923   -3.4857    0.0000 N   0  0  0  0  0  0  0  0  0
   -2.7993   -3.6573    0.0000 C   0  0  0  0  0  0  0  0  0
   -3.3513   -3.0442    0.0000 C   0  0  0  0  0  0  0  0  0
   -1.4403   -4.0988    0.0000 C   0  0  0  0  0  0  0  0  0
   -4.1914    0.3980    0.0000 C   0  0  0  0  0  0  0  0  0
   -3.4769    0.8105    0.0000 C   0  0  0  0  0  0  0  0  0
   -0.6190    0.8105    0.0000 C   0  0  0  0  0  0  0  0  0
    0.0955    0.3980    0.0000 C   0  0  0  0  0  0  0  0  0
    0.8099    0.8105    0.0000 C   0  0  0  0  0  0  0  0  0
    1.5244    0.3980    0.0000 C   0  0  0  0  0  0  0  0  0
    2.2389    0.8105    0.0000 C   0  0  0  0  0  0  0  0  0
    2.9533    0.3980    0.0000 C   0  0  0  0  0  0  0  0  0
    3.6678    0.8105    0.0000 C   0  0  0  0  0  0  0  0  0
    4.3823    0.3980    0.0000 C   0  0  0  0  0  0  0  0  0
    5.0968    0.8105    0.0000 C   0  0  0  0  0  0  0  0  0
    5.8112    0.3980    0.0000 C   0  0  0  0  0  0  0  0  0
    6.5257    0.8105    0.0000 C   0  0  0  0  0  0  0  0  0
    7.2402    0.3980    0.0000 C   0  0  0  0  0  0  0  0  0
    7.2402   -0.4270    0.0000 O   0  0  0  0  0  0  0  0  0
    7.9546    0.8105    0.0000 N   0  0  0  0  0  0  0  0  0
    8.6691    0.3980    0.0000 C   0  0  0  0  0  0  0  0  0
    9.3836    0.8105    0.0000 C   0  0  0  0  0  0  0  0  0
   10.0981    0.3980    0.0000 C   0  0  0  0  0  0  0  0  0
   10.0981   -0.4270    0.0000 C   0  0  0  0  0  0  0  0  0
   10.8827   -0.6819    0.0000 N   0  0  0  0  0  0  0  0  0
   11.3676   -0.0145    0.0000 C   0  0  0  0  0  0  0  0  0
   10.8827    0.6529    0.0000 C   0  0  0  0  0  0  0  0  0
   11.1376    1.4376    0.0000 C   0  0  0  0  0  0  0  0  0
   10.5856    2.0507    0.0000 C   0  0  0  0  0  0  0  0  0
   10.8405    2.8353    0.0000 C   0  0  0  0  0  0  0  0  0
   11.6475    3.0068    0.0000 N   0  0  0  0  0  0  0  0  0
   12.1995    2.3937    0.0000 C   0  0  0  0  0  0  0  0  0
   11.9446    1.6091    0.0000 C   0  0  0  0  0  0  0  0  0
   11.9024    3.7914    0.0000 C   0  0  0  0  0  0  0  0  0
    9.3836   -0.8395    0.0000 C   0  0  0  0  0  0  0  0  0
    8.6691   -0.4270    0.0000 C   0  0  0  0  0  0  0  0  0
  1  2  2  0  0  0  0
  2  3  1  0  0  0  0
  2 20  1  0  0  0  0
  3  4  1  0  0  0  0
  4  5  4  0  0  0  0
  4 19  4  0  0  0  0
  5  6  4  0  0  0  0
  6  7  4  0  0  0  0
  6 10  4  0  0  0  0
  7  8  4  0  0  0  0
  7 18  4  0  0  0  0
  8  9  4  0  0  0  0
  9 10  4  0  0  0  0
 10 11  1  0  0  0  0
 11 12  1  0  0  0  0
 11 16  1  0  0  0  0
 12 13  1  0  0  0  0
 13 14  1  0  0  0  0
 14 15  1  0  0  0  0
 14 17  1  0  0  0  0
 15 16  1  0  0  0  0
 18 19  4  0  0  0  0
 20 21  1  0  0  0  0
 21 22  1  0  0  0  0
 22 23  1  0  0  0  0
 23 24  1  0  0  0  0
 24 25  1  0  0  0  0
 25 26  1  0  0  0  0
 26 27  1  0  0  0  0
 27 28  1  0  0  0  0
 28 29  1  0  0  0  0
 29 30  1  0  0  0  0
 30 31  1  0  0  0  0
 31 32  2  0  0  0  0
 31 33  1  0  0  0  0
 33 34  1  0  0  0  0
 34 35  4  0  0  0  0
 34 49  4  0  0  0  0
 35 36  4  0  0  0  0
 36 37  4  0  0  0  0
 36 40  4  0  0  0  0
 37 38  4  0  0  0  0
 37 48  4  0  0  0  0
 38 39  4  0  0  0  0
 39 40  4  0  0  0  0
 40 41  1  0  0  0  0
 41 42  1  0  0  0  0
 41 46  1  0  0  0  0
 42 43  1  0  0  0  0
 43 44  1  0  0  0  0
 44 45  1  0  0  0  0
 44 47  1  0  0  0  0
 45 46  1  0  0  0  0
 48 49  4  0  0  0  0
M  STY  2   1 DAT   2 DAT
M  SAL   1  1   8
M  SDT   1 MRV_IMPLICIT_H                                        
M  SDD   1     0.0000    0.0000    DR    ALL  0       0  
M  SED   1 IMPL_H1
M  SAL   2  1  38
M  SDT   2 MRV_IMPLICIT_H                                        
M  SDD   2     0.0000    0.0000    DR    ALL  0       0  
M  SED   2 IMPL_H1
M  END
>  <Name_Molregno>
508499

>  <5-HT1B>
10

>  <5-HT1D>
8.85

$$$$
508500
  Marvin  02231216192D 0   1.00000     0.00000     0

 50 55  0  0  0  0  0  0  0  0999 V2000
   -0.1132    0.0610    0.0000 O   0  0  0  0  0  0  0  0  0
   -0.1132   -0.7640    0.0000 C   0  0  0  0  0  0  0  0  0
   -0.8277   -1.1765    0.0000 N   0  0  0  0  0  0  0  0  0
   -1.5422   -0.7640    0.0000 C   0  0  0  0  0  0  0  0  0
   -2.2566   -1.1765    0.0000 C   0  0  0  0  0  0  0  0  0
   -2.9711   -0.7640    0.0000 C   0  0  0  0  0  0  0  0  0
   -2.9711    0.0610    0.0000 C   0  0  0  0  0  0  0  0  0
   -3.7557    0.3160    0.0000 N   0  0  0  0  0  0  0  0  0
   -4.2407   -0.3515    0.0000 C   0  0  0  0  0  0  0  0  0
   -3.7557   -1.0189    0.0000 C   0  0  0  0  0  0  0  0  0
   -4.0107   -1.8035    0.0000 C   0  0  0  0  0  0  0  0  0
   -3.4586   -2.4166    0.0000 C   0  0  0  0  0  0  0  0  0
   -3.7136   -3.2013    0.0000 C   0  0  0  0  0  0  0  0  0
   -4.5205   -3.3728    0.0000 N   0  0  0  0  0  0  0  0  0
   -5.0726   -2.7597    0.0000 C   0  0  0  0  0  0  0  0  0
   -4.8176   -1.9751    0.0000 C   0  0  0  0  0  0  0  0  0
   -4.7755   -4.1574    0.0000 C   0  0  0  0  0  0  0  0  0
   -2.2566    0.4735    0.0000 C   0  0  0  0  0  0  0  0  0
   -1.5422    0.0610    0.0000 C   0  0  0  0  0  0  0  0  0
    0.6012   -1.1765    0.0000 C   0  0  0  0  0  0  0  0  0
    1.3157   -0.7640    0.0000 C   0  0  0  0  0  0  0  0  0
    2.0302   -1.1765    0.0000 C   0  0  0  0  0  0  0  0  0
    2.7447   -0.7640    0.0000 C   0  0  0  0  0  0  0  0  0
    3.4591   -1.1765    0.0000 C   0  0  0  0  0  0  0  0  0
    4.1736   -0.7640    0.0000 C   0  0  0  0  0  0  0  0  0
    4.8881   -1.1765    0.0000 C   0  0  0  0  0  0  0  0  0
    5.6025   -0.7640    0.0000 C   0  0  0  0  0  0  0  0  0
    6.3170   -1.1765    0.0000 C   0  0  0  0  0  0  0  0  0
    7.0315   -0.7640    0.0000 C   0  0  0  0  0  0  0  0  0
    7.7460   -1.1765    0.0000 C   0  0  0  0  0  0  0  0  0
    8.4604   -0.7640    0.0000 C   0  0  0  0  0  0  0  0  0
    9.1749   -1.1765    0.0000 C   0  0  0  0  0  0  0  0  0
    9.1749   -2.0015    0.0000 O   0  0  0  0  0  0  0  0  0
    9.8894   -0.7640    0.0000 N   0  0  0  0  0  0  0  0  0
   10.6038   -1.1765    0.0000 C   0  0  0  0  0  0  0  0  0
   11.3183   -0.7640    0.0000 C   0  0  0  0  0  0  0  0  0
   12.0328   -1.1765    0.0000 C   0  0  0  0  0  0  0  0  0
   12.0328   -2.0015    0.0000 C   0  0  0  0  0  0  0  0  0
   12.8174   -2.2564    0.0000 N   0  0  0  0  0  0  0  0  0
   13.3023   -1.5890    0.0000 C   0  0  0  0  0  0  0  0  0
   12.8174   -0.9215    0.0000 C   0  0  0  0  0  0  0  0  0
   13.0723   -0.1369    0.0000 C   0  0  0  0  0  0  0  0  0
   12.5203    0.4762    0.0000 C   0  0  0  0  0  0  0  0  0
   12.7752    1.2608    0.0000 C   0  0  0  0  0  0  0  0  0
   13.5822    1.4323    0.0000 N   0  0  0  0  0  0  0  0  0
   14.1343    0.8192    0.0000 C   0  0  0  0  0  0  0  0  0
   13.8793    0.0346    0.0000 C   0  0  0  0  0  0  0  0  0
   13.8372    2.2169    0.0000 C   0  0  0  0  0  0  0  0  0
   11.3183   -2.4140    0.0000 C   0  0  0  0  0  0  0  0  0
   10.6038   -2.0015    0.0000 C   0  0  0  0  0  0  0  0  0
  1  2  2  0  0  0  0
  2  3  1  0  0  0  0
  2 20  1  0  0  0  0
  3  4  1  0  0  0  0
  4  5  4  0  0  0  0
  4 19  4  0  0  0  0
  5  6  4  0  0  0  0
  6  7  4  0  0  0  0
  6 10  4  0  0  0  0
  7  8  4  0  0  0  0
  7 18  4  0  0  0  0
  8  9  4  0  0  0  0
  9 10  4  0  0  0  0
 10 11  1  0  0  0  0
 11 12  1  0  0  0  0
 11 16  1  0  0  0  0
 12 13  1  0  0  0  0
 13 14  1  0  0  0  0
 14 15  1  0  0  0  0
 14 17  1  0  0  0  0
 15 16  1  0  0  0  0
 18 19  4  0  0  0  0
 20 21  1  0  0  0  0
 21 22  1  0  0  0  0
 22 23  1  0  0  0  0
 23 24  1  0  0  0  0
 24 25  1  0  0  0  0
 25 26  1  0  0  0  0
 26 27  1  0  0  0  0
 27 28  1  0  0  0  0
 28 29  1  0  0  0  0
 29 30  1  0  0  0  0
 30 31  1  0  0  0  0
 31 32  1  0  0  0  0
 32 33  2  0  0  0  0
 32 34  1  0  0  0  0
 34 35  1  0  0  0  0
 35 36  4  0  0  0  0
 35 50  4  0  0  0  0
 36 37  4  0  0  0  0
 37 38  4  0  0  0  0
 37 41  4  0  0  0  0
 38 39  4  0  0  0  0
 38 49  4  0  0  0  0
 39 40  4  0  0  0  0
 40 41  4  0  0  0  0
 41 42  1  0  0  0  0
 42 43  1  0  0  0  0
 42 47  1  0  0  0  0
 43 44  1  0  0  0  0
 44 45  1  0  0  0  0
 45 46  1  0  0  0  0
 45 48  1  0  0  0  0
 46 47  1  0  0  0  0
 49 50  4  0  0  0  0
M  STY  2   1 DAT   2 DAT
M  SAL   1  1   8
M  SDT   1 MRV_IMPLICIT_H                                        
M  SDD   1     0.0000    0.0000    DR    ALL  0       0  
M  SED   1 IMPL_H1
M  SAL   2  1  39
M  SDT   2 MRV_IMPLICIT_H                                        
M  SDD   2     0.0000    0.0000    DR    ALL  0       0  
M  SED   2 IMPL_H1
M  END
>  <Name_Molregno>
508500

>  <5-HT1B>
9.3

>  <5-HT1D>
8.77

$$$$
508501
  Marvin  02231216192D 0   1.00000     0.00000     0

 51 56  0  0  0  0  0  0  0  0999 V2000
   -0.6496   -1.2943    0.0000 O   0  0  0  0  0  0  0  0  0
   -0.6496   -0.4693    0.0000 C   0  0  0  0  0  0  0  0  0
   -1.3641   -0.0568    0.0000 N   0  0  0  0  0  0  0  0  0
   -2.0786   -0.4693    0.0000 C   0  0  0  0  0  0  0  0  0
   -2.0786   -1.2943    0.0000 C   0  0  0  0  0  0  0  0  0
   -2.7931   -1.7068    0.0000 C   0  0  0  0  0  0  0  0  0
   -3.5075   -1.2943    0.0000 C   0  0  0  0  0  0  0  0  0
   -4.1206   -1.8463    0.0000 N   0  0  0  0  0  0  0  0  0
   -3.7851   -2.6000    0.0000 C   0  0  0  0  0  0  0  0  0
   -2.9646   -2.5138    0.0000 C   0  0  0  0  0  0  0  0  0
   -2.4125   -3.1269    0.0000 C   0  0  0  0  0  0  0  0  0
   -1.6056   -2.9554    0.0000 C   0  0  0  0  0  0  0  0  0
   -1.0535   -3.5684    0.0000 C   0  0  0  0  0  0  0  0  0
   -1.3085   -4.3531    0.0000 N   0  0  0  0  0  0  0  0  0
   -2.1155   -4.5246    0.0000 C   0  0  0  0  0  0  0  0  0
   -2.6675   -3.9115    0.0000 C   0  0  0  0  0  0  0  0  0
   -0.7565   -4.9662    0.0000 C   0  0  0  0  0  0  0  0  0
   -3.5075   -0.4693    0.0000 C   0  0  0  0  0  0  0  0  0
   -2.7931   -0.0568    0.0000 C   0  0  0  0  0  0  0  0  0
    0.0648   -0.0568    0.0000 C   0  0  0  0  0  0  0  0  0
    0.7793   -0.4693    0.0000 C   0  0  0  0  0  0  0  0  0
    1.4938   -0.0568    0.0000 C   0  0  0  0  0  0  0  0  0
    2.2082   -0.4693    0.0000 C   0  0  0  0  0  0  0  0  0
    2.9227   -0.0568    0.0000 C   0  0  0  0  0  0  0  0  0
    3.6372   -0.4693    0.0000 C   0  0  0  0  0  0  0  0  0
    4.3517   -0.0568    0.0000 C   0  0  0  0  0  0  0  0  0
    5.0661   -0.4693    0.0000 C   0  0  0  0  0  0  0  0  0
    5.7806   -0.0568    0.0000 C   0  0  0  0  0  0  0  0  0
    6.4951   -0.4693    0.0000 C   0  0  0  0  0  0  0  0  0
    7.2095   -0.0568    0.0000 C   0  0  0  0  0  0  0  0  0
    7.9240   -0.4693    0.0000 C   0  0  0  0  0  0  0  0  0
    8.6385   -0.0568    0.0000 C   0  0  0  0  0  0  0  0  0
    9.3530   -0.4693    0.0000 C   0  0  0  0  0  0  0  0  0
    9.3530   -1.2943    0.0000 O   0  0  0  0  0  0  0  0  0
   10.0674   -0.0568    0.0000 N   0  0  0  0  0  0  0  0  0
   10.7819   -0.4693    0.0000 C   0  0  0  0  0  0  0  0  0
   11.4964   -0.0568    0.0000 C   0  0  0  0  0  0  0  0  0
   12.2108   -0.4693    0.0000 C   0  0  0  0  0  0  0  0  0
   12.2108   -1.2943    0.0000 C   0  0  0  0  0  0  0  0  0
   12.9955   -1.5493    0.0000 N   0  0  0  0  0  0  0  0  0
   13.4804   -0.8818    0.0000 C   0  0  0  0  0  0  0  0  0
   12.9955   -0.2144    0.0000 C   0  0  0  0  0  0  0  0  0
   13.2504    0.5702    0.0000 C   0  0  0  0  0  0  0  0  0
   12.6984    1.1833    0.0000 C   0  0  0  0  0  0  0  0  0
   12.9533    1.9680    0.0000 C   0  0  0  0  0  0  0  0  0
   13.7603    2.1395    0.0000 N   0  0  0  0  0  0  0  0  0
   14.3123    1.5264    0.0000 C   0  0  0  0  0  0  0  0  0
   14.0574    0.7418    0.0000 C   0  0  0  0  0  0  0  0  0
   14.0152    2.9241    0.0000 C   0  0  0  0  0  0  0  0  0
   11.4964   -1.7068    0.0000 C   0  0  0  0  0  0  0  0  0
   10.7819   -1.2943    0.0000 C   0  0  0  0  0  0  0  0  0
  1  2  2  0  0  0  0
  2  3  1  0  0  0  0
  2 20  1  0  0  0  0
  3  4  1  0  0  0  0
  4  5  4  0  0  0  0
  4 19  4  0  0  0  0
  5  6  4  0  0  0  0
  6  7  4  0  0  0  0
  6 10  4  0  0  0  0
  7  8  4  0  0  0  0
  7 18  4  0  0  0  0
  8  9  4  0  0  0  0
  9 10  4  0  0  0  0
 10 11  1  0  0  0  0
 11 12  1  0  0  0  0
 11 16  1  0  0  0  0
 12 13  1  0  0  0  0
 13 14  1  0  0  0  0
 14 15  1  0  0  0  0
 14 17  1  0  0  0  0
 15 16  1  0  0  0  0
 18 19  4  0  0  0  0
 20 21  1  0  0  0  0
 21 22  1  0  0  0  0
 22 23  1  0  0  0  0
 23 24  1  0  0  0  0
 24 25  1  0  0  0  0
 25 26  1  0  0  0  0
 26 27  1  0  0  0  0
 27 28  1  0  0  0  0
 28 29  1  0  0  0  0
 29 30  1  0  0  0  0
 30 31  1  0  0  0  0
 31 32  1  0  0  0  0
 32 33  1  0  0  0  0
 33 34  2  0  0  0  0
 33 35  1  0  0  0  0
 35 36  1  0  0  0  0
 36 37  4  0  0  0  0
 36 51  4  0  0  0  0
 37 38  4  0  0  0  0
 38 39  4  0  0  0  0
 38 42  4  0  0  0  0
 39 40  4  0  0  0  0
 39 50  4  0  0  0  0
 40 41  4  0  0  0  0
 41 42  4  0  0  0  0
 42 43  1  0  0  0  0
 43 44  1  0  0  0  0
 43 48  1  0  0  0  0
 44 45  1  0  0  0  0
 45 46  1  0  0  0  0
 46 47  1  0  0  0  0
 46 49  1  0  0  0  0
 47 48  1  0  0  0  0
 50 51  4  0  0  0  0
M  STY  2   1 DAT   2 DAT
M  SAL   1  1   8
M  SDT   1 MRV_IMPLICIT_H                                        
M  SDD   1     0.0000    0.0000    DR    ALL  0       0  
M  SED   1 IMPL_H1
M  SAL   2  1  40
M  SDT   2 MRV_IMPLICIT_H                                        
M  SDD   2     0.0000    0.0000    DR    ALL  0       0  
M  SED   2 IMPL_H1
M  END
>  <Name_Molregno>
508501

>  <5-HT1B>
9.24

>  <5-HT1D>
8.64

$$$$
508502
  Marvin  02231216192D 0   1.00000     0.00000     0

 52 57  0  0  0  0  0  0  0  0999 V2000
   -9.3764    0.5978    0.0000 O   0  0  0  0  0  0  0  0  0
   -9.3764   -0.2272    0.0000 C   0  0  0  0  0  0  0  0  0
  -10.0909   -0.6397    0.0000 N   0  0  0  0  0  0  0  0  0
  -10.8053   -0.2272    0.0000 C   0  0  0  0  0  0  0  0  0
  -11.5198   -0.6397    0.0000 C   0  0  0  0  0  0  0  0  0
  -12.2343   -0.2272    0.0000 C   0  0  0  0  0  0  0  0  0
  -12.2343    0.5978    0.0000 C   0  0  0  0  0  0  0  0  0
  -13.0189    0.8527    0.0000 N   0  0  0  0  0  0  0  0  0
  -13.5038    0.1853    0.0000 C   0  0  0  0  0  0  0  0  0
  -13.0189   -0.4821    0.0000 C   0  0  0  0  0  0  0  0  0
  -13.2738   -1.2668    0.0000 C   0  0  0  0  0  0  0  0  0
  -12.7218   -1.8799    0.0000 C   0  0  0  0  0  0  0  0  0
  -12.9767   -2.6645    0.0000 C   0  0  0  0  0  0  0  0  0
  -13.7837   -2.8360    0.0000 N   0  0  0  0  0  0  0  0  0
  -14.3357   -2.2229    0.0000 C   0  0  0  0  0  0  0  0  0
  -14.0808   -1.4383    0.0000 C   0  0  0  0  0  0  0  0  0
  -14.0387   -3.6206    0.0000 C   0  0  0  0  0  0  0  0  0
  -11.5198    1.0103    0.0000 C   0  0  0  0  0  0  0  0  0
  -10.8053    0.5978    0.0000 C   0  0  0  0  0  0  0  0  0
   -8.6619   -0.6397    0.0000 C   0  0  0  0  0  0  0  0  0
   -7.9474   -0.2272    0.0000 C   0  0  0  0  0  0  0  0  0
   -7.2330   -0.6397    0.0000 C   0  0  0  0  0  0  0  0  0
   -6.5185   -0.2272    0.0000 C   0  0  0  0  0  0  0  0  0
   -5.8040   -0.6397    0.0000 C   0  0  0  0  0  0  0  0  0
   -5.0896   -0.2272    0.0000 C   0  0  0  0  0  0  0  0  0
   -4.3751   -0.6397    0.0000 C   0  0  0  0  0  0  0  0  0
   -3.6606   -0.2272    0.0000 C   0  0  0  0  0  0  0  0  0
   -2.9462   -0.6397    0.0000 C   0  0  0  0  0  0  0  0  0
   -2.2317   -0.2272    0.0000 C   0  0  0  0  0  0  0  0  0
   -1.5172   -0.6397    0.0000 C   0  0  0  0  0  0  0  0  0
   -0.8027   -0.2272    0.0000 C   0  0  0  0  0  0  0  0  0
   -0.0883   -0.6397    0.0000 C   0  0  0  0  0  0  0  0  0
    0.6262   -0.2272    0.0000 C   0  0  0  0  0  0  0  0  0
    1.3407   -0.6397    0.0000 C   0  0  0  0  0  0  0  0  0
    1.3407   -1.4647    0.0000 O   0  0  0  0  0  0  0  0  0
    2.0551   -0.2272    0.0000 N   0  0  0  0  0  0  0  0  0
    2.7696   -0.6397    0.0000 C   0  0  0  0  0  0  0  0  0
    3.4841   -0.2272    0.0000 C   0  0  0  0  0  0  0  0  0
    4.1986   -0.6397    0.0000 C   0  0  0  0  0  0  0  0  0
    4.1986   -1.4647    0.0000 C   0  0  0  0  0  0  0  0  0
    4.9832   -1.7196    0.0000 N   0  0  0  0  0  0  0  0  0
    5.4681   -1.0522    0.0000 C   0  0  0  0  0  0  0  0  0
    4.9832   -0.3848    0.0000 C   0  0  0  0  0  0  0  0  0
    5.2381    0.3999    0.0000 C   0  0  0  0  0  0  0  0  0
    4.6861    1.0130    0.0000 C   0  0  0  0  0  0  0  0  0
    4.9410    1.7976    0.0000 C   0  0  0  0  0  0  0  0  0
    5.7480    1.9691    0.0000 N   0  0  0  0  0  0  0  0  0
    6.3000    1.3560    0.0000 C   0  0  0  0  0  0  0  0  0
    6.0451    0.5714    0.0000 C   0  0  0  0  0  0  0  0  0
    6.0029    2.7537    0.0000 C   0  0  0  0  0  0  0  0  0
    3.4841   -1.8772    0.0000 C   0  0  0  0  0  0  0  0  0
    2.7696   -1.4647    0.0000 C   0  0  0  0  0  0  0  0  0
  1  2  2  0  0  0  0
  2  3  1  0  0  0  0
  2 20  1  0  0  0  0
  3  4  1  0  0  0  0
  4  5  4  0  0  0  0
  4 19  4  0  0  0  0
  5  6  4  0  0  0  0
  6  7  4  0  0  0  0
  6 10  4  0  0  0  0
  7  8  4  0  0  0  0
  7 18  4  0  0  0  0
  8  9  4  0  0  0  0
  9 10  4  0  0  0  0
 10 11  1  0  0  0  0
 11 12  1  0  0  0  0
 11 16  1  0  0  0  0
 12 13  1  0  0  0  0
 13 14  1  0  0  0  0
 14 15  1  0  0  0  0
 14 17  1  0  0  0  0
 15 16  1  0  0  0  0
 18 19  4  0  0  0  0
 20 21  1  0  0  0  0
 21 22  1  0  0  0  0
 22 23  1  0  0  0  0
 23 24  1  0  0  0  0
 24 25  1  0  0  0  0
 25 26  1  0  0  0  0
 26 27  1  0  0  0  0
 27 28  1  0  0  0  0
 28 29  1  0  0  0  0
 29 30  1  0  0  0  0
 30 31  1  0  0  0  0
 31 32  1  0  0  0  0
 32 33  1  0  0  0  0
 33 34  1  0  0  0  0
 34 35  2  0  0  0  0
 34 36  1  0  0  0  0
 36 37  1  0  0  0  0
 37 38  4  0  0  0  0
 37 52  4  0  0  0  0
 38 39  4  0  0  0  0
 39 40  4  0  0  0  0
 39 43  4  0  0  0  0
 40 41  4  0  0  0  0
 40 51  4  0  0  0  0
 41 42  4  0  0  0  0
 42 43  4  0  0  0  0
 43 44  1  0  0  0  0
 44 45  1  0  0  0  0
 44 49  1  0  0  0  0
 45 46  1  0  0  0  0
 46 47  1  0  0  0  0
 47 48  1  0  0  0  0
 47 50  1  0  0  0  0
 48 49  1  0  0  0  0
 51 52  4  0  0  0  0
M  STY  2   1 DAT   2 DAT
M  SAL   1  1   8
M  SDT   1 MRV_IMPLICIT_H                                        
M  SDD   1     0.0000    0.0000    DR    ALL  0       0  
M  SED   1 IMPL_H1
M  SAL   2  1  41
M  SDT   2 MRV_IMPLICIT_H                                        
M  SDD   2     0.0000    0.0000    DR    ALL  0       0  
M  SED   2 IMPL_H1
M  END
>  <Name_Molregno>
508502

>  <5-HT1B>
9.09

>  <5-HT1D>
7.95

$$$$
508503
  Marvin  02231216192D 0   1.00000     0.00000     0

 17 19  0  0  0  0  0  0  0  0999 V2000
   -1.7922   -0.6490    0.0000 N   0  0  0  0  0  0  0  0  0
   -2.2771    0.0184    0.0000 C   0  0  0  0  0  0  0  0  0
   -1.7922    0.6859    0.0000 C   0  0  0  0  0  0  0  0  0
   -1.0076    0.4309    0.0000 C   0  0  0  0  0  0  0  0  0
   -0.2931    0.8434    0.0000 C   0  0  0  0  0  0  0  0  0
    0.4213    0.4309    0.0000 C   0  0  0  0  0  0  0  0  0
    1.1358    0.8434    0.0000 N   0  0  0  0  0  0  0  0  0
    0.4213   -0.3941    0.0000 C   0  0  0  0  0  0  0  0  0
   -0.2931   -0.8066    0.0000 C   0  0  0  0  0  0  0  0  0
   -1.0076   -0.3941    0.0000 C   0  0  0  0  0  0  0  0  0
   -2.0472    1.4705    0.0000 C   0  0  0  0  0  0  0  0  0
   -2.8541    1.6420    0.0000 C   0  0  0  0  0  0  0  0  0
   -3.1091    2.4266    0.0000 C   0  0  0  0  0  0  0  0  0
   -2.5570    3.0397    0.0000 N   0  0  0  0  0  0  0  0  0
   -1.7501    2.8682    0.0000 C   0  0  0  0  0  0  0  0  0
   -1.4951    2.0836    0.0000 C   0  0  0  0  0  0  0  0  0
   -2.8120    3.8244    0.0000 C   0  0  0  0  0  0  0  0  0
  1  2  4  0  0  0  0
  1 10  4  0  0  0  0
  2  3  4  0  0  0  0
  3  4  4  0  0  0  0
  3 11  1  0  0  0  0
  4  5  4  0  0  0  0
  4 10  4  0  0  0  0
  5  6  4  0  0  0  0
  6  7  1  0  0  0  0
  6  8  4  0  0  0  0
  8  9  4  0  0  0  0
  9 10  4  0  0  0  0
 11 12  1  0  0  0  0
 11 16  1  0  0  0  0
 12 13  1  0  0  0  0
 13 14  1  0  0  0  0
 14 15  1  0  0  0  0
 14 17  1  0  0  0  0
 15 16  1  0  0  0  0
M  STY  1   1 DAT
M  SAL   1  1   1
M  SDT   1 MRV_IMPLICIT_H                                        
M  SDD   1     0.0000    0.0000    DR    ALL  0       0  
M  SED   1 IMPL_H1
M  END
>  <Name_Molregno>
508503

>  <5-HT1B>
6.45

>  <5-HT1D>
7.4

$$$$
513010
  Marvin  02231216192D 0   1.00000     0.00000     0

 22 24  0  0  1  0  0  0  0  0999 V2000
   -0.2296   -0.4433    0.0000 O   0  0  0  0  0  0  0  0  0
    0.5954   -0.4441    0.0000 C   0  0  0  0  0  0  0  0  0
    1.0086    0.2700    0.0000 O   0  0  0  0  0  0  0  0  0
    1.0072   -1.1590    0.0000 C   0  0  0  0  0  0  0  0  0
    1.8322   -1.1598    0.0000 C   0  0  0  0  0  0  0  0  0
    2.2440   -1.8747    0.0000 C   0  0  0  0  0  0  0  0  0
    1.8308   -2.5887    0.0000 C   0  0  0  0  0  0  0  0  0
    1.0058   -2.5879    0.0000 C   0  0  0  0  0  0  0  0  0
    0.5940   -1.8730    0.0000 C   0  0  0  0  0  0  0  0  0
   -0.6414    0.2716    0.0000 C   0  0  0  0  0  0  0  0  0
   -0.7796    1.0890    0.0000 C   0  0  0  0  0  0  0  0  0
   -1.7084    1.0735    0.0000 C   0  0  0  0  0  0  0  0  0
   -2.2690    1.5134    0.0000 N   0  0  0  0  0  0  0  0  0
   -2.1293    0.7003    0.0000 C   0  0  0  0  0  0  0  0  0
   -2.6492   -0.0120    0.0000 C   0  0  0  0  0  0  0  0  0
   -2.0289    0.3649    0.0000 C   0  0  0  0  0  0  0  0  0
   -1.1576    0.7003    0.0000 C   0  0  0  0  0  0  0  0  0
   -1.4378   -0.0757    0.0000 C   0  0  0  0  0  0  0  0  0
   -2.2499   -0.2210    0.0000 O   0  0  0  0  0  0  0  0  0
   -2.5301   -0.9969    0.0000 C   0  0  0  0  0  0  0  0  0
   -0.9059   -0.7063    0.0000 O   0  0  0  0  0  0  0  0  0
   -2.6916    2.2219    0.0000 C   0  0  0  0  0  0  0  0  0
  1  2  1  0  0  0  0
  1 10  1  0  0  0  0
  2  3  2  0  0  0  0
  2  4  1  0  0  0  0
  4  5  4  0  0  0  0
  4  9  4  0  0  0  0
  5  6  4  0  0  0  0
  6  7  4  0  0  0  0
  7  8  4  0  0  0  0
  8  9  4  0  0  0  0
 10 11  1  0  0  0  0
 10 17  1  0  0  0  0
 11 12  1  0  0  0  0
 12 13  1  0  0  0  0
 12 16  1  0  0  0  0
 13 14  1  0  0  0  0
 13 22  1  0  0  0  0
 14 15  1  0  0  0  0
 14 17  1  0  0  0  0
 15 16  1  0  0  0  0
 17 18  1  0  0  0  0
 18 19  1  0  0  0  0
 18 21  2  0  0  0  0
 19 20  1  0  0  0  0
M  END
>  <Name_Molregno>
513010

>  <5-HT1A>
5

>  <5-HT1B>
5.47

>  <5-HT1D>
5

>  <5-HT1E>
5

>  <5-HT3>
5.31

>  <5-HT5>
5

>  <5-HT6>
5

>  <5-HT7>
5

>  <Alpha-1A>
5.68

>  <Alpha-1B>
5

>  <Alpha-2A>
5

>  <Alpha-2C>
5

>  <Beta-1>
5

>  <Beta-2>
5

>  <DOPAMINE D1>
5

>  <DOPAMINE D2>
5

>  <DOPAMINE D4>
5

>  <DOPAMINE D5>
5

>  <Dopamine transporter>
6.67

>  <HISTAMINE H1>
5.67

>  <HISTAMINE H2>
5

>  <HISTAMINE H4>
5

>  <Muscarinic acetylcholine receptor M1>
5

>  <Muscarinic acetylcholine receptor M2>
5

>  <Muscarinic acetylcholine receptor M3>
5

>  <Muscarinic acetylcholine receptor M4>
5

>  <Muscarinic acetylcholine receptor M5>
5

>  <Norepinephrine transporter>
5.76

>  <Serotonin transporter>
6.68

$$$$
513996
  Marvin  02231216192D 0   1.00000     0.00000     0

 31 35  0  0  0  0  0  0  0  0999 V2000
   -2.1904   -4.3104    0.0000 O   0  0  0  0  0  0  0  0  0
   -2.1904   -5.1354    0.0000 C   0  0  0  0  0  0  0  0  0
   -2.9049   -5.5479    0.0000 C   0  0  0  0  0  0  0  0  0
   -2.9049   -6.3729    0.0000 O   0  0  0  0  0  0  0  0  0
   -3.6194   -5.1354    0.0000 N   0  0  0  0  0  0  0  0  0
   -3.6194   -4.3104    0.0000 C   0  0  0  0  0  0  0  0  0
   -4.3338   -3.8979    0.0000 C   0  0  0  0  0  0  0  0  0
   -4.3338   -3.0729    0.0000 C   0  0  0  0  0  0  0  0  0
   -3.6194   -2.6604    0.0000 C   0  0  0  0  0  0  0  0  0
   -2.9049   -3.0729    0.0000 C   0  0  0  0  0  0  0  0  0
   -2.9049   -3.8979    0.0000 C   0  0  0  0  0  0  0  0  0
   -5.0483   -2.6604    0.0000 C   0  0  0  0  0  0  0  0  0
   -5.0483   -1.8354    0.0000 C   0  0  0  0  0  0  0  0  0
   -5.7628   -1.4229    0.0000 C   0  0  0  0  0  0  0  0  0
   -5.7628   -0.5979    0.0000 N   0  0  0  0  0  0  0  0  0
   -6.4773   -0.1854    0.0000 C   0  0  0  0  0  0  0  0  0
   -6.4773    0.6396    0.0000 C   0  0  0  0  0  0  0  0  0
   -5.7628    1.0521    0.0000 N   0  0  0  0  0  0  0  0  0
   -5.0483    0.6396    0.0000 C   0  0  0  0  0  0  0  0  0
   -5.0483   -0.1854    0.0000 C   0  0  0  0  0  0  0  0  0
   -5.7628    1.8771    0.0000 C   0  0  0  0  0  0  0  0  0
   -5.0483    2.2896    0.0000 C   0  0  0  0  0  0  0  0  0
   -5.0483    3.1146    0.0000 C   0  0  0  0  0  0  0  0  0
   -4.3338    3.5271    0.0000 N   0  0  0  0  0  0  0  0  0
   -3.6194    3.1146    0.0000 C   0  0  0  0  0  0  0  0  0
   -3.6194    2.2896    0.0000 C   0  0  0  0  0  0  0  0  0
   -4.3338    1.8771    0.0000 C   0  0  0  0  0  0  0  0  0
   -2.9049    3.5271    0.0000 C   0  0  0  0  0  0  0  0  0
   -5.7628    3.5271    0.0000 C   0  0  0  0  0  0  0  0  0
   -6.4773    3.1146    0.0000 C   0  0  0  0  0  0  0  0  0
   -6.4773    2.2896    0.0000 C   0  0  0  0  0  0  0  0  0
  1  2  1  0  0  0  0
  1 11  1  0  0  0  0
  2  3  1  0  0  0  0
  3  4  2  0  0  0  0
  3  5  1  0  0  0  0
  5  6  1  0  0  0  0
  6  7  4  0  0  0  0
  6 11  4  0  0  0  0
  7  8  4  0  0  0  0
  8  9  4  0  0  0  0
  8 12  1  0  0  0  0
  9 10  4  0  0  0  0
 10 11  4  0  0  0  0
 12 13  1  0  0  0  0
 13 14  1  0  0  0  0
 14 15  1  0  0  0  0
 15 16  1  0  0  0  0
 15 20  1  0  0  0  0
 16 17  1  0  0  0  0
 17 18  1  0  0  0  0
 18 19  1  0  0  0  0
 18 21  1  0  0  0  0
 19 20  1  0  0  0  0
 21 22  4  0  0  0  0
 21 31  4  0  0  0  0
 22 23  4  0  0  0  0
 22 27  4  0  0  0  0
 23 24  4  0  0  0  0
 23 29  4  0  0  0  0
 24 25  4  0  0  0  0
 25 26  4  0  0  0  0
 25 28  1  0  0  0  0
 26 27  4  0  0  0  0
 29 30  4  0  0  0  0
 30 31  4  0  0  0  0
M  END
>  <Name_Molregno>
513996

>  <5-HT1A>
8.6

>  <5-HT1B>
7.3

>  <5-HT1D>
8

$$$$
513997
  Marvin  02231216192D 0   1.00000     0.00000     0

 32 36  0  0  0  0  0  0  0  0999 V2000
   -4.3598   -4.2605    0.0000 O   0  0  0  0  0  0  0  0  0
   -5.0743   -4.6730    0.0000 C   0  0  0  0  0  0  0  0  0
   -5.7888   -4.2605    0.0000 C   0  0  0  0  0  0  0  0  0
   -6.5032   -4.6730    0.0000 O   0  0  0  0  0  0  0  0  0
   -5.7888   -3.4355    0.0000 N   0  0  0  0  0  0  0  0  0
   -5.0743   -3.0230    0.0000 C   0  0  0  0  0  0  0  0  0
   -5.0743   -2.1980    0.0000 C   0  0  0  0  0  0  0  0  0
   -4.3598   -1.7855    0.0000 C   0  0  0  0  0  0  0  0  0
   -3.6454   -2.1980    0.0000 C   0  0  0  0  0  0  0  0  0
   -3.6454   -3.0230    0.0000 C   0  0  0  0  0  0  0  0  0
   -4.3598   -3.4355    0.0000 C   0  0  0  0  0  0  0  0  0
   -4.3598   -0.9605    0.0000 C   0  0  0  0  0  0  0  0  0
   -5.0743   -0.5480    0.0000 C   0  0  0  0  0  0  0  0  0
   -5.0743    0.2770    0.0000 C   0  0  0  0  0  0  0  0  0
   -5.7888    0.6895    0.0000 C   0  0  0  0  0  0  0  0  0
   -5.7888    1.5145    0.0000 N   0  0  0  0  0  0  0  0  0
   -6.5032    1.9270    0.0000 C   0  0  0  0  0  0  0  0  0
   -6.5032    2.7520    0.0000 C   0  0  0  0  0  0  0  0  0
   -5.7888    3.1645    0.0000 N   0  0  0  0  0  0  0  0  0
   -5.0743    2.7520    0.0000 C   0  0  0  0  0  0  0  0  0
   -5.0743    1.9270    0.0000 C   0  0  0  0  0  0  0  0  0
   -5.7888    3.9895    0.0000 C   0  0  0  0  0  0  0  0  0
   -5.0743    4.4020    0.0000 C   0  0  0  0  0  0  0  0  0
   -5.0743    5.2270    0.0000 C   0  0  0  0  0  0  0  0  0
   -4.3598    5.6395    0.0000 N   0  0  0  0  0  0  0  0  0
   -3.6454    5.2270    0.0000 C   0  0  0  0  0  0  0  0  0
   -3.6454    4.4020    0.0000 C   0  0  0  0  0  0  0  0  0
   -4.3598    3.9895    0.0000 C   0  0  0  0  0  0  0  0  0
   -2.9309    5.6395    0.0000 C   0  0  0  0  0  0  0  0  0
   -5.7888    5.6395    0.0000 C   0  0  0  0  0  0  0  0  0
   -6.5032    5.2270    0.0000 C   0  0  0  0  0  0  0  0  0
   -6.5032    4.4020    0.0000 C   0  0  0  0  0  0  0  0  0
  1  2  1  0  0  0  0
  1 11  1  0  0  0  0
  2  3  1  0  0  0  0
  3  4  2  0  0  0  0
  3  5  1  0  0  0  0
  5  6  1  0  0  0  0
  6  7  4  0  0  0  0
  6 11  4  0  0  0  0
  7  8  4  0  0  0  0
  8  9  4  0  0  0  0
  8 12  1  0  0  0  0
  9 10  4  0  0  0  0
 10 11  4  0  0  0  0
 12 13  1  0  0  0  0
 13 14  1  0  0  0  0
 14 15  1  0  0  0  0
 15 16  1  0  0  0  0
 16 17  1  0  0  0  0
 16 21  1  0  0  0  0
 17 18  1  0  0  0  0
 18 19  1  0  0  0  0
 19 20  1  0  0  0  0
 19 22  1  0  0  0  0
 20 21  1  0  0  0  0
 22 23  4  0  0  0  0
 22 32  4  0  0  0  0
 23 24  4  0  0  0  0
 23 28  4  0  0  0  0
 24 25  4  0  0  0  0
 24 30  4  0  0  0  0
 25 26  4  0  0  0  0
 26 27  4  0  0  0  0
 26 29  1  0  0  0  0
 27 28  4  0  0  0  0
 30 31  4  0  0  0  0
 31 32  4  0  0  0  0
M  END
>  <Name_Molregno>
513997

>  <5-HT1A>
9.2

>  <5-HT1B>
8.2

>  <5-HT1D>
7.9

$$$$
513998
  Marvin  02231216192D 0   1.00000     0.00000     0

 29 33  0  0  0  0  0  0  0  0999 V2000
   -1.8956   -3.6417    0.0000 O   0  0  0  0  0  0  0  0  0
   -1.8956   -4.4667    0.0000 C   0  0  0  0  0  0  0  0  0
   -2.6101   -4.8792    0.0000 C   0  0  0  0  0  0  0  0  0
   -2.6101   -5.7042    0.0000 O   0  0  0  0  0  0  0  0  0
   -3.3246   -4.4667    0.0000 N   0  0  0  0  0  0  0  0  0
   -3.3246   -3.6417    0.0000 C   0  0  0  0  0  0  0  0  0
   -4.0390   -3.2292    0.0000 C   0  0  0  0  0  0  0  0  0
   -4.0390   -2.4042    0.0000 C   0  0  0  0  0  0  0  0  0
   -3.3246   -1.9917    0.0000 C   0  0  0  0  0  0  0  0  0
   -2.6101   -2.4042    0.0000 C   0  0  0  0  0  0  0  0  0
   -2.6101   -3.2292    0.0000 C   0  0  0  0  0  0  0  0  0
   -4.7535   -1.9917    0.0000 C   0  0  0  0  0  0  0  0  0
   -4.7535   -1.1667    0.0000 N   0  0  0  0  0  0  0  0  0
   -5.4680   -0.7542    0.0000 C   0  0  0  0  0  0  0  0  0
   -5.4680    0.0708    0.0000 C   0  0  0  0  0  0  0  0  0
   -4.7535    0.4833    0.0000 N   0  0  0  0  0  0  0  0  0
   -4.0390    0.0708    0.0000 C   0  0  0  0  0  0  0  0  0
   -4.0390   -0.7542    0.0000 C   0  0  0  0  0  0  0  0  0
   -4.7535    1.3083    0.0000 C   0  0  0  0  0  0  0  0  0
   -4.0390    1.7208    0.0000 C   0  0  0  0  0  0  0  0  0
   -4.0390    2.5458    0.0000 C   0  0  0  0  0  0  0  0  0
   -3.3246    2.9583    0.0000 N   0  0  0  0  0  0  0  0  0
   -2.6101    2.5458    0.0000 C   0  0  0  0  0  0  0  0  0
   -2.6101    1.7208    0.0000 C   0  0  0  0  0  0  0  0  0
   -3.3246    1.3083    0.0000 C   0  0  0  0  0  0  0  0  0
   -1.8956    2.9583    0.0000 C   0  0  0  0  0  0  0  0  0
   -4.7535    2.9583    0.0000 C   0  0  0  0  0  0  0  0  0
   -5.4680    2.5458    0.0000 C   0  0  0  0  0  0  0  0  0
   -5.4680    1.7208    0.0000 C   0  0  0  0  0  0  0  0  0
  1  2  1  0  0  0  0
  1 11  1  0  0  0  0
  2  3  1  0  0  0  0
  3  4  2  0  0  0  0
  3  5  1  0  0  0  0
  5  6  1  0  0  0  0
  6  7  4  0  0  0  0
  6 11  4  0  0  0  0
  7  8  4  0  0  0  0
  8  9  4  0  0  0  0
  8 12  1  0  0  0  0
  9 10  4  0  0  0  0
 10 11  4  0  0  0  0
 12 13  1  0  0  0  0
 13 14  1  0  0  0  0
 13 18  1  0  0  0  0
 14 15  1  0  0  0  0
 15 16  1  0  0  0  0
 16 17  1  0  0  0  0
 16 19  1  0  0  0  0
 17 18  1  0  0  0  0
 19 20  4  0  0  0  0
 19 29  4  0  0  0  0
 20 21  4  0  0  0  0
 20 25  4  0  0  0  0
 21 22  4  0  0  0  0
 21 27  4  0  0  0  0
 22 23  4  0  0  0  0
 23 24  4  0  0  0  0
 23 26  1  0  0  0  0
 24 25  4  0  0  0  0
 27 28  4  0  0  0  0
 28 29  4  0  0  0  0
M  END
>  <Name_Molregno>
513998

>  <5-HT1A>
6.2

>  <5-HT1B>
5

>  <5-HT1D>
6.9

$$$$
514068
  Marvin  02231216192D 0   1.00000     0.00000     0

 33 37  0  0  1  0  0  0  0  0999 V2000
   -6.6733   -4.9327    0.0000 O   0  0  0  0  0  0  0  0  0
   -7.3878   -5.3452    0.0000 C   0  0  0  0  0  0  0  0  0
   -8.1023   -4.9327    0.0000 C   0  0  0  0  0  0  0  0  0
   -8.8167   -5.3452    0.0000 O   0  0  0  0  0  0  0  0  0
   -8.1023   -4.1077    0.0000 N   0  0  0  0  0  0  0  0  0
   -7.3878   -3.6952    0.0000 C   0  0  0  0  0  0  0  0  0
   -7.3878   -2.8702    0.0000 C   0  0  0  0  0  0  0  0  0
   -6.6733   -2.4577    0.0000 C   0  0  0  0  0  0  0  0  0
   -5.9589   -2.8702    0.0000 C   0  0  0  0  0  0  0  0  0
   -5.9589   -3.6952    0.0000 C   0  0  0  0  0  0  0  0  0
   -6.6733   -4.1077    0.0000 C   0  0  0  0  0  0  0  0  0
   -6.6733   -1.6327    0.0000 C   0  0  0  0  0  0  0  0  0
   -5.9589   -1.2202    0.0000 C   0  0  0  0  0  0  0  0  0
   -5.9589   -0.3952    0.0000 C   0  0  0  0  0  0  0  0  0
   -5.2444    0.0173    0.0000 C   0  0  0  0  0  0  0  0  0
   -4.5299   -0.3952    0.0000 N   0  0  0  0  0  0  0  0  0
   -4.5299   -1.2202    0.0000 C   0  0  0  0  0  0  0  0  0
   -5.2444   -1.6327    0.0000 C   0  0  0  0  0  0  0  0  0
   -3.8154    0.0173    0.0000 C   0  0  0  0  0  0  0  0  0
   -3.8154    0.8423    0.0000 C   0  0  0  0  0  0  0  0  0
   -3.1010    1.2548    0.0000 O   0  0  0  0  0  0  0  0  0
   -3.1010    2.0798    0.0000 C   0  0  0  0  0  0  0  0  0
   -2.3865    2.4923    0.0000 C   0  0  0  0  0  0  0  0  0
   -2.3865    3.3173    0.0000 C   0  0  0  0  0  0  0  0  0
   -1.6720    3.7298    0.0000 N   0  0  0  0  0  0  0  0  0
   -0.9576    3.3173    0.0000 C   0  0  0  0  0  0  0  0  0
   -0.9576    2.4923    0.0000 C   0  0  0  0  0  0  0  0  0
   -1.6720    2.0798    0.0000 C   0  0  0  0  0  0  0  0  0
   -0.2431    3.7298    0.0000 C   0  0  0  0  0  0  0  0  0
   -3.1010    3.7298    0.0000 C   0  0  0  0  0  0  0  0  0
   -3.8154    3.3173    0.0000 C   0  0  0  0  0  0  0  0  0
   -3.8154    2.4923    0.0000 C   0  0  0  0  0  0  0  0  0
   -3.1010   -0.3952    0.0000 C   0  0  0  0  0  0  0  0  0
  1  2  1  0  0  0  0
  1 11  1  0  0  0  0
  2  3  1  0  0  0  0
  3  4  2  0  0  0  0
  3  5  1  0  0  0  0
  5  6  1  0  0  0  0
  6  7  4  0  0  0  0
  6 11  4  0  0  0  0
  7  8  4  0  0  0  0
  8  9  4  0  0  0  0
  8 12  1  0  0  0  0
  9 10  4  0  0  0  0
 10 11  4  0  0  0  0
 12 13  1  0  0  0  0
 13 14  1  0  0  0  0
 13 18  1  0  0  0  0
 14 15  1  0  0  0  0
 15 16  1  0  0  0  0
 16 17  1  0  0  0  0
 16 19  1  0  0  0  0
 17 18  1  0  0  0  0
 19 20  1  0  0  0  0
 19 33  1  0  0  0  0
 20 21  1  0  0  0  0
 21 22  1  0  0  0  0
 22 23  4  0  0  0  0
 22 32  4  0  0  0  0
 23 24  4  0  0  0  0
 23 28  4  0  0  0  0
 24 25  4  0  0  0  0
 24 30  4  0  0  0  0
 25 26  4  0  0  0  0
 26 27  4  0  0  0  0
 26 29  1  0  0  0  0
 27 28  4  0  0  0  0
 30 31  4  0  0  0  0
 31 32  4  0  0  0  0
M  END
>  <Name_Molregno>
514068

>  <5-HT1A>
7.15

>  <5-HT1B>
7.2

>  <5-HT1D>
6.45

$$$$
514069
  Marvin  02231216192D 0   1.00000     0.00000     0

 33 37  0  0  1  0  0  0  0  0999 V2000
   -6.6545   -5.0150    0.0000 O   0  0  0  0  0  0  0  0  0
   -7.3689   -5.4275    0.0000 C   0  0  0  0  0  0  0  0  0
   -8.0834   -5.0150    0.0000 C   0  0  0  0  0  0  0  0  0
   -8.7979   -5.4275    0.0000 O   0  0  0  0  0  0  0  0  0
   -8.0834   -4.1900    0.0000 N   0  0  0  0  0  0  0  0  0
   -7.3689   -3.7775    0.0000 C   0  0  0  0  0  0  0  0  0
   -7.3689   -2.9525    0.0000 C   0  0  0  0  0  0  0  0  0
   -6.6545   -2.5400    0.0000 C   0  0  0  0  0  0  0  0  0
   -5.9400   -2.9525    0.0000 C   0  0  0  0  0  0  0  0  0
   -5.9400   -3.7775    0.0000 C   0  0  0  0  0  0  0  0  0
   -6.6545   -4.1900    0.0000 C   0  0  0  0  0  0  0  0  0
   -6.6545   -1.7150    0.0000 C   0  0  0  0  0  0  0  0  0
   -5.9400   -1.3025    0.0000 C   0  0  0  0  0  0  0  0  0
   -5.9400   -0.4775    0.0000 C   0  0  0  0  0  0  0  0  0
   -5.2255   -0.0650    0.0000 C   0  0  0  0  0  0  0  0  0
   -4.5111   -0.4775    0.0000 N   0  0  0  0  0  0  0  0  0
   -4.5111   -1.3025    0.0000 C   0  0  0  0  0  0  0  0  0
   -5.2255   -1.7150    0.0000 C   0  0  0  0  0  0  0  0  0
   -3.7966   -0.0650    0.0000 C   0  0  0  0  0  0  0  0  0
   -3.7966    0.7600    0.0000 C   0  0  0  0  0  0  0  0  0
   -3.0821    1.1725    0.0000 O   0  0  0  0  0  0  0  0  0
   -3.0821    1.9975    0.0000 C   0  0  0  0  0  0  0  0  0
   -2.3676    2.4100    0.0000 C   0  0  0  0  0  0  0  0  0
   -2.3676    3.2350    0.0000 C   0  0  0  0  0  0  0  0  0
   -1.6532    3.6475    0.0000 N   0  0  0  0  0  0  0  0  0
   -0.9387    3.2350    0.0000 C   0  0  0  0  0  0  0  0  0
   -0.9387    2.4100    0.0000 C   0  0  0  0  0  0  0  0  0
   -1.6532    1.9975    0.0000 C   0  0  0  0  0  0  0  0  0
   -0.2242    3.6475    0.0000 C   0  0  0  0  0  0  0  0  0
   -3.0821    3.6475    0.0000 C   0  0  0  0  0  0  0  0  0
   -3.7966    3.2350    0.0000 C   0  0  0  0  0  0  0  0  0
   -3.7966    2.4100    0.0000 C   0  0  0  0  0  0  0  0  0
   -4.5111    1.1725    0.0000 C   0  0  0  0  0  0  0  0  0
  1  2  1  0  0  0  0
  1 11  1  0  0  0  0
  2  3  1  0  0  0  0
  3  4  2  0  0  0  0
  3  5  1  0  0  0  0
  5  6  1  0  0  0  0
  6  7  4  0  0  0  0
  6 11  4  0  0  0  0
  7  8  4  0  0  0  0
  8  9  4  0  0  0  0
  8 12  1  0  0  0  0
  9 10  4  0  0  0  0
 10 11  4  0  0  0  0
 12 13  1  0  0  0  0
 13 14  1  0  0  0  0
 13 18  1  0  0  0  0
 14 15  1  0  0  0  0
 15 16  1  0  0  0  0
 16 17  1  0  0  0  0
 16 19  1  0  0  0  0
 17 18  1  0  0  0  0
 19 20  1  0  0  0  0
 20 21  1  0  0  0  0
 20 33  1  0  0  0  0
 21 22  1  0  0  0  0
 22 23  4  0  0  0  0
 22 32  4  0  0  0  0
 23 24  4  0  0  0  0
 23 28  4  0  0  0  0
 24 25  4  0  0  0  0
 24 30  4  0  0  0  0
 25 26  4  0  0  0  0
 26 27  4  0  0  0  0
 26 29  1  0  0  0  0
 27 28  4  0  0  0  0
 30 31  4  0  0  0  0
 31 32  4  0  0  0  0
M  END
>  <Name_Molregno>
514069

>  <5-HT1A>
6.4

>  <5-HT1B>
6.7

>  <5-HT1D>
7.1

$$$$
514070
  Marvin  02231216192D 0   1.00000     0.00000     0

 31 35  0  0  0  0  0  0  0  0999 V2000
   -8.9817   -2.8268    0.0000 O   0  0  0  0  0  0  0  0  0
   -9.6962   -2.4143    0.0000 C   0  0  0  0  0  0  0  0  0
   -9.6962   -1.5893    0.0000 C   0  0  0  0  0  0  0  0  0
  -10.4107   -1.1768    0.0000 O   0  0  0  0  0  0  0  0  0
   -8.9817   -1.1768    0.0000 N   0  0  0  0  0  0  0  0  0
   -8.2672   -1.5893    0.0000 C   0  0  0  0  0  0  0  0  0
   -7.5528   -1.1768    0.0000 C   0  0  0  0  0  0  0  0  0
   -6.8383   -1.5893    0.0000 C   0  0  0  0  0  0  0  0  0
   -6.1238   -1.1768    0.0000 O   0  0  0  0  0  0  0  0  0
   -6.1238   -0.3518    0.0000 C   0  0  0  0  0  0  0  0  0
   -5.4094    0.0607    0.0000 C   0  0  0  0  0  0  0  0  0
   -5.1958    0.8576    0.0000 C   0  0  0  0  0  0  0  0  0
   -4.3989    0.6440    0.0000 N   0  0  0  0  0  0  0  0  0
   -4.6125   -0.1529    0.0000 C   0  0  0  0  0  0  0  0  0
   -3.6845    1.0565    0.0000 C   0  0  0  0  0  0  0  0  0
   -3.6845    1.8815    0.0000 C   0  0  0  0  0  0  0  0  0
   -2.9700    2.2940    0.0000 O   0  0  0  0  0  0  0  0  0
   -2.9700    3.1190    0.0000 C   0  0  0  0  0  0  0  0  0
   -2.2555    3.5315    0.0000 C   0  0  0  0  0  0  0  0  0
   -2.2555    4.3565    0.0000 C   0  0  0  0  0  0  0  0  0
   -1.5411    4.7690    0.0000 N   0  0  0  0  0  0  0  0  0
   -0.8266    4.3565    0.0000 C   0  0  0  0  0  0  0  0  0
   -0.8266    3.5315    0.0000 C   0  0  0  0  0  0  0  0  0
   -1.5411    3.1190    0.0000 C   0  0  0  0  0  0  0  0  0
   -0.1121    4.7690    0.0000 C   0  0  0  0  0  0  0  0  0
   -2.9700    4.7690    0.0000 C   0  0  0  0  0  0  0  0  0
   -3.6845    4.3565    0.0000 C   0  0  0  0  0  0  0  0  0
   -3.6845    3.5315    0.0000 C   0  0  0  0  0  0  0  0  0
   -6.8383   -2.4143    0.0000 C   0  0  0  0  0  0  0  0  0
   -7.5528   -2.8268    0.0000 C   0  0  0  0  0  0  0  0  0
   -8.2672   -2.4143    0.0000 C   0  0  0  0  0  0  0  0  0
  1  2  1  0  0  0  0
  1 31  1  0  0  0  0
  2  3  1  0  0  0  0
  3  4  2  0  0  0  0
  3  5  1  0  0  0  0
  5  6  1  0  0  0  0
  6  7  4  0  0  0  0
  6 31  4  0  0  0  0
  7  8  4  0  0  0  0
  8  9  1  0  0  0  0
  8 29  4  0  0  0  0
  9 10  1  0  0  0  0
 10 11  1  0  0  0  0
 11 12  1  0  0  0  0
 11 14  1  0  0  0  0
 12 13  1  0  0  0  0
 13 14  1  0  0  0  0
 13 15  1  0  0  0  0
 15 16  1  0  0  0  0
 16 17  1  0  0  0  0
 17 18  1  0  0  0  0
 18 19  4  0  0  0  0
 18 28  4  0  0  0  0
 19 20  4  0  0  0  0
 19 24  4  0  0  0  0
 20 21  4  0  0  0  0
 20 26  4  0  0  0  0
 21 22  4  0  0  0  0
 22 23  4  0  0  0  0
 22 25  1  0  0  0  0
 23 24  4  0  0  0  0
 26 27  4  0  0  0  0
 27 28  4  0  0  0  0
 29 30  4  0  0  0  0
 30 31  4  0  0  0  0
M  END
>  <Name_Molregno>
514070

>  <5-HT1A>
7.3

>  <5-HT1B>
7.3

>  <5-HT1D>
8.1

$$$$
514071
  Marvin  02231216192D 0   1.00000     0.00000     0

 32 36  0  0  0  0  0  0  0  0999 V2000
  -10.2451   -1.4055    0.0000 O   0  0  0  0  0  0  0  0  0
  -10.9595   -0.9930    0.0000 C   0  0  0  0  0  0  0  0  0
  -10.9595   -0.1680    0.0000 C   0  0  0  0  0  0  0  0  0
  -11.6740    0.2445    0.0000 O   0  0  0  0  0  0  0  0  0
  -10.2451    0.2445    0.0000 N   0  0  0  0  0  0  0  0  0
   -9.5306   -0.1680    0.0000 C   0  0  0  0  0  0  0  0  0
   -8.8161    0.2445    0.0000 C   0  0  0  0  0  0  0  0  0
   -8.1017   -0.1680    0.0000 C   0  0  0  0  0  0  0  0  0
   -7.3872    0.2445    0.0000 O   0  0  0  0  0  0  0  0  0
   -7.3872    1.0695    0.0000 C   0  0  0  0  0  0  0  0  0
   -6.6727    1.4820    0.0000 C   0  0  0  0  0  0  0  0  0
   -6.4592    2.2788    0.0000 C   0  0  0  0  0  0  0  0  0
   -5.6623    2.0653    0.0000 N   0  0  0  0  0  0  0  0  0
   -5.8758    1.2684    0.0000 C   0  0  0  0  0  0  0  0  0
   -4.9478    2.4778    0.0000 C   0  0  0  0  0  0  0  0  0
   -4.2334    2.0653    0.0000 C   0  0  0  0  0  0  0  0  0
   -3.5189    2.4778    0.0000 C   0  0  0  0  0  0  0  0  0
   -2.8044    2.0653    0.0000 O   0  0  0  0  0  0  0  0  0
   -2.0899    2.4778    0.0000 C   0  0  0  0  0  0  0  0  0
   -1.3755    2.0653    0.0000 C   0  0  0  0  0  0  0  0  0
   -0.6610    2.4778    0.0000 C   0  0  0  0  0  0  0  0  0
    0.0535    2.0653    0.0000 N   0  0  0  0  0  0  0  0  0
    0.0535    1.2403    0.0000 C   0  0  0  0  0  0  0  0  0
   -0.6610    0.8278    0.0000 C   0  0  0  0  0  0  0  0  0
   -1.3755    1.2403    0.0000 C   0  0  0  0  0  0  0  0  0
    0.7679    0.8278    0.0000 C   0  0  0  0  0  0  0  0  0
   -0.6610    3.3028    0.0000 C   0  0  0  0  0  0  0  0  0
   -1.3755    3.7153    0.0000 C   0  0  0  0  0  0  0  0  0
   -2.0899    3.3028    0.0000 C   0  0  0  0  0  0  0  0  0
   -8.1017   -0.9930    0.0000 C   0  0  0  0  0  0  0  0  0
   -8.8161   -1.4055    0.0000 C   0  0  0  0  0  0  0  0  0
   -9.5306   -0.9930    0.0000 C   0  0  0  0  0  0  0  0  0
  1  2  1  0  0  0  0
  1 32  1  0  0  0  0
  2  3  1  0  0  0  0
  3  4  2  0  0  0  0
  3  5  1  0  0  0  0
  5  6  1  0  0  0  0
  6  7  4  0  0  0  0
  6 32  4  0  0  0  0
  7  8  4  0  0  0  0
  8  9  1  0  0  0  0
  8 30  4  0  0  0  0
  9 10  1  0  0  0  0
 10 11  1  0  0  0  0
 11 12  1  0  0  0  0
 11 14  1  0  0  0  0
 12 13  1  0  0  0  0
 13 14  1  0  0  0  0
 13 15  1  0  0  0  0
 15 16  1  0  0  0  0
 16 17  1  0  0  0  0
 17 18  1  0  0  0  0
 18 19  1  0  0  0  0
 19 20  4  0  0  0  0
 19 29  4  0  0  0  0
 20 21  4  0  0  0  0
 20 25  4  0  0  0  0
 21 22  4  0  0  0  0
 21 27  4  0  0  0  0
 22 23  4  0  0  0  0
 23 24  4  0  0  0  0
 23 26  1  0  0  0  0
 24 25  4  0  0  0  0
 27 28  4  0  0  0  0
 28 29  4  0  0  0  0
 30 31  4  0  0  0  0
 31 32  4  0  0  0  0
M  END
>  <Name_Molregno>
514071

>  <5-HT1A>
7.1

>  <5-HT1B>
6.5

>  <5-HT1D>
6.8

$$$$
514140
  Marvin  02231216192D 0   1.00000     0.00000     0

 31 35  0  0  0  0  0  0  0  0999 V2000
   -6.7607   -7.2868    0.0000 O   0  0  0  0  0  0  0  0  0
   -7.4751   -6.8743    0.0000 C   0  0  0  0  0  0  0  0  0
   -7.4751   -6.0493    0.0000 C   0  0  0  0  0  0  0  0  0
   -8.1896   -5.6368    0.0000 O   0  0  0  0  0  0  0  0  0
   -6.7607   -5.6368    0.0000 N   0  0  0  0  0  0  0  0  0
   -6.0462   -6.0493    0.0000 C   0  0  0  0  0  0  0  0  0
   -5.3317   -5.6368    0.0000 C   0  0  0  0  0  0  0  0  0
   -4.6173   -6.0493    0.0000 C   0  0  0  0  0  0  0  0  0
   -3.9028   -5.6368    0.0000 O   0  0  0  0  0  0  0  0  0
   -3.9028   -4.8118    0.0000 C   0  0  0  0  0  0  0  0  0
   -4.4862   -4.2284    0.0000 C   0  0  0  0  0  0  0  0  0
   -3.9028   -3.6451    0.0000 N   0  0  0  0  0  0  0  0  0
   -3.3194   -4.2284    0.0000 C   0  0  0  0  0  0  0  0  0
   -3.9028   -2.8201    0.0000 C   0  0  0  0  0  0  0  0  0
   -3.1883   -2.4076    0.0000 C   0  0  0  0  0  0  0  0  0
   -3.1883   -1.5826    0.0000 C   0  0  0  0  0  0  0  0  0
   -2.4739   -1.1701    0.0000 O   0  0  0  0  0  0  0  0  0
   -2.4739   -0.3451    0.0000 C   0  0  0  0  0  0  0  0  0
   -1.7594    0.0674    0.0000 C   0  0  0  0  0  0  0  0  0
   -1.7594    0.8924    0.0000 C   0  0  0  0  0  0  0  0  0
   -1.0449    1.3049    0.0000 N   0  0  0  0  0  0  0  0  0
   -0.3304    0.8924    0.0000 C   0  0  0  0  0  0  0  0  0
   -0.3304    0.0674    0.0000 C   0  0  0  0  0  0  0  0  0
   -1.0449   -0.3451    0.0000 C   0  0  0  0  0  0  0  0  0
    0.3840    1.3049    0.0000 C   0  0  0  0  0  0  0  0  0
   -2.4739    1.3049    0.0000 C   0  0  0  0  0  0  0  0  0
   -3.1883    0.8924    0.0000 C   0  0  0  0  0  0  0  0  0
   -3.1883    0.0674    0.0000 C   0  0  0  0  0  0  0  0  0
   -4.6173   -6.8743    0.0000 C   0  0  0  0  0  0  0  0  0
   -5.3317   -7.2868    0.0000 C   0  0  0  0  0  0  0  0  0
   -6.0462   -6.8743    0.0000 C   0  0  0  0  0  0  0  0  0
  1  2  1  0  0  0  0
  1 31  1  0  0  0  0
  2  3  1  0  0  0  0
  3  4  2  0  0  0  0
  3  5  1  0  0  0  0
  5  6  1  0  0  0  0
  6  7  4  0  0  0  0
  6 31  4  0  0  0  0
  7  8  4  0  0  0  0
  8  9  1  0  0  0  0
  8 29  4  0  0  0  0
  9 10  1  0  0  0  0
 10 11  1  0  0  0  0
 10 13  1  0  0  0  0
 11 12  1  0  0  0  0
 12 13  1  0  0  0  0
 12 14  1  0  0  0  0
 14 15  1  0  0  0  0
 15 16  1  0  0  0  0
 16 17  1  0  0  0  0
 17 18  1  0  0  0  0
 18 19  4  0  0  0  0
 18 28  4  0  0  0  0
 19 20  4  0  0  0  0
 19 24  4  0  0  0  0
 20 21  4  0  0  0  0
 20 26  4  0  0  0  0
 21 22  4  0  0  0  0
 22 23  4  0  0  0  0
 22 25  1  0  0  0  0
 23 24  4  0  0  0  0
 26 27  4  0  0  0  0
 27 28  4  0  0  0  0
 29 30  4  0  0  0  0
 30 31  4  0  0  0  0
M  END
>  <Name_Molregno>
514140

>  <5-HT1A>
6.8

>  <5-HT1B>
6.4

>  <5-HT1D>
6.6

$$$$
514141
  Marvin  02231216192D 0   1.00000     0.00000     0

 30 34  0  0  0  0  0  0  0  0999 V2000
   -5.6081   -4.4397    0.0000 O   0  0  0  0  0  0  0  0  0
   -6.3225   -4.8523    0.0000 C   0  0  0  0  0  0  0  0  0
   -7.0370   -4.4397    0.0000 C   0  0  0  0  0  0  0  0  0
   -7.7515   -4.8522    0.0000 O   0  0  0  0  0  0  0  0  0
   -7.0370   -3.6148    0.0000 N   0  0  0  0  0  0  0  0  0
   -6.3225   -3.2022    0.0000 C   0  0  0  0  0  0  0  0  0
   -6.3225   -2.3772    0.0000 C   0  0  0  0  0  0  0  0  0
   -5.6081   -1.9647    0.0000 C   0  0  0  0  0  0  0  0  0
   -4.8936   -2.3772    0.0000 C   0  0  0  0  0  0  0  0  0
   -4.8936   -3.2022    0.0000 C   0  0  0  0  0  0  0  0  0
   -5.6081   -3.6147    0.0000 C   0  0  0  0  0  0  0  0  0
   -5.6081   -1.1397    0.0000 C   0  0  0  0  0  0  0  0  0
   -4.8936   -0.7273    0.0000 N   0  0  0  0  0  0  0  0  0
   -4.8936    0.0978    0.0000 C   0  0  0  0  0  0  0  0  0
   -4.1791    0.5103    0.0000 C   0  0  0  0  0  0  0  0  0
   -3.4646    0.0978    0.0000 C   0  0  0  0  0  0  0  0  0
   -2.7502    0.5102    0.0000 O   0  0  0  0  0  0  0  0  0
   -2.7502    1.3352    0.0000 C   0  0  0  0  0  0  0  0  0
   -2.0357    1.7477    0.0000 C   0  0  0  0  0  0  0  0  0
   -2.0357    2.5728    0.0000 C   0  0  0  0  0  0  0  0  0
   -1.3212    2.9853    0.0000 N   0  0  0  0  0  0  0  0  0
   -0.6068    2.5728    0.0000 C   0  0  0  0  0  0  0  0  0
   -0.6068    1.7477    0.0000 C   0  0  0  0  0  0  0  0  0
   -1.3212    1.3352    0.0000 C   0  0  0  0  0  0  0  0  0
    0.1077    2.9852    0.0000 C   0  0  0  0  0  0  0  0  0
   -2.7502    2.9853    0.0000 C   0  0  0  0  0  0  0  0  0
   -3.4646    2.5728    0.0000 C   0  0  0  0  0  0  0  0  0
   -3.4646    1.7478    0.0000 C   0  0  0  0  0  0  0  0  0
   -3.4646   -0.7273    0.0000 C   0  0  0  0  0  0  0  0  0
   -4.1791   -1.1397    0.0000 C   0  0  0  0  0  0  0  0  0
  1  2  1  0  0  0  0
  1 11  1  0  0  0  0
  2  3  1  0  0  0  0
  3  4  2  0  0  0  0
  3  5  1  0  0  0  0
  5  6  1  0  0  0  0
  6  7  4  0  0  0  0
  6 11  4  0  0  0  0
  7  8  4  0  0  0  0
  8  9  4  0  0  0  0
  8 12  1  0  0  0  0
  9 10  4  0  0  0  0
 10 11  4  0  0  0  0
 12 13  1  0  0  0  0
 13 14  1  0  0  0  0
 13 30  1  0  0  0  0
 14 15  1  0  0  0  0
 15 16  1  0  0  0  0
 16 17  1  0  0  0  0
 16 29  1  0  0  0  0
 17 18  1  0  0  0  0
 18 19  4  0  0  0  0
 18 28  4  0  0  0  0
 19 20  4  0  0  0  0
 19 24  4  0  0  0  0
 20 21  4  0  0  0  0
 20 26  4  0  0  0  0
 21 22  4  0  0  0  0
 22 23  4  0  0  0  0
 22 25  1  0  0  0  0
 23 24  4  0  0  0  0
 26 27  4  0  0  0  0
 27 28  4  0  0  0  0
 29 30  1  0  0  0  0
M  END
>  <Name_Molregno>
514141

>  <5-HT1A>
5

>  <5-HT1B>
5.6

>  <5-HT1D>
5.9

$$$$
514142
  Marvin  02231216192D 0   1.00000     0.00000     0

 31 35  0  0  0  0  0  0  0  0999 V2000
   -2.7434   -4.1765    0.0000 O   0  0  0  0  0  0  0  0  0
   -2.7434   -5.0015    0.0000 C   0  0  0  0  0  0  0  0  0
   -3.4579   -5.4140    0.0000 C   0  0  0  0  0  0  0  0  0
   -3.4579   -6.2390    0.0000 O   0  0  0  0  0  0  0  0  0
   -4.1723   -5.0015    0.0000 N   0  0  0  0  0  0  0  0  0
   -4.1723   -4.1765    0.0000 C   0  0  0  0  0  0  0  0  0
   -4.8868   -3.7640    0.0000 C   0  0  0  0  0  0  0  0  0
   -4.8868   -2.9390    0.0000 C   0  0  0  0  0  0  0  0  0
   -4.1723   -2.5265    0.0000 C   0  0  0  0  0  0  0  0  0
   -3.4579   -2.9390    0.0000 C   0  0  0  0  0  0  0  0  0
   -3.4579   -3.7640    0.0000 C   0  0  0  0  0  0  0  0  0
   -5.6013   -2.5265    0.0000 C   0  0  0  0  0  0  0  0  0
   -5.6013   -1.7015    0.0000 N   0  0  0  0  0  0  0  0  0
   -6.3158   -1.2890    0.0000 C   0  0  0  0  0  0  0  0  0
   -6.3158   -0.4640    0.0000 C   0  0  0  0  0  0  0  0  0
   -5.6013   -0.0515    0.0000 C   0  0  0  0  0  0  0  0  0
   -4.8868   -0.4640    0.0000 C   0  0  0  0  0  0  0  0  0
   -4.8868   -1.2890    0.0000 C   0  0  0  0  0  0  0  0  0
   -5.6013    0.7735    0.0000 C   0  0  0  0  0  0  0  0  0
   -4.8868    1.1860    0.0000 O   0  0  0  0  0  0  0  0  0
   -4.8868    2.0110    0.0000 C   0  0  0  0  0  0  0  0  0
   -4.1723    2.4235    0.0000 C   0  0  0  0  0  0  0  0  0
   -4.1723    3.2485    0.0000 C   0  0  0  0  0  0  0  0  0
   -3.4579    3.6610    0.0000 N   0  0  0  0  0  0  0  0  0
   -2.7434    3.2485    0.0000 C   0  0  0  0  0  0  0  0  0
   -2.7434    2.4235    0.0000 C   0  0  0  0  0  0  0  0  0
   -3.4579    2.0110    0.0000 C   0  0  0  0  0  0  0  0  0
   -2.0289    3.6610    0.0000 C   0  0  0  0  0  0  0  0  0
   -4.8868    3.6610    0.0000 C   0  0  0  0  0  0  0  0  0
   -5.6013    3.2485    0.0000 C   0  0  0  0  0  0  0  0  0
   -5.6013    2.4235    0.0000 C   0  0  0  0  0  0  0  0  0
  1  2  1  0  0  0  0
  1 11  1  0  0  0  0
  2  3  1  0  0  0  0
  3  4  2  0  0  0  0
  3  5  1  0  0  0  0
  5  6  1  0  0  0  0
  6  7  4  0  0  0  0
  6 11  4  0  0  0  0
  7  8  4  0  0  0  0
  8  9  4  0  0  0  0
  8 12  1  0  0  0  0
  9 10  4  0  0  0  0
 10 11  4  0  0  0  0
 12 13  1  0  0  0  0
 13 14  1  0  0  0  0
 13 18  1  0  0  0  0
 14 15  1  0  0  0  0
 15 16  1  0  0  0  0
 16 17  1  0  0  0  0
 16 19  1  0  0  0  0
 17 18  1  0  0  0  0
 19 20  1  0  0  0  0
 20 21  1  0  0  0  0
 21 22  4  0  0  0  0
 21 31  4  0  0  0  0
 22 23  4  0  0  0  0
 22 27  4  0  0  0  0
 23 24  4  0  0  0  0
 23 29  4  0  0  0  0
 24 25  4  0  0  0  0
 25 26  4  0  0  0  0
 25 28  1  0  0  0  0
 26 27  4  0  0  0  0
 29 30  4  0  0  0  0
 30 31  4  0  0  0  0
M  END
>  <Name_Molregno>
514142

>  <5-HT1A>
5.8

>  <5-HT1B>
5

>  <5-HT1D>
5.9

$$$$
514143
  Marvin  02231216192D 0   1.00000     0.00000     0

 31 35  0  0  0  0  0  0  0  0999 V2000
   -8.4893   -2.6857    0.0000 O   0  0  0  0  0  0  0  0  0
   -9.2038   -2.2732    0.0000 C   0  0  0  0  0  0  0  0  0
   -9.2038   -1.4482    0.0000 C   0  0  0  0  0  0  0  0  0
   -9.9183   -1.0357    0.0000 O   0  0  0  0  0  0  0  0  0
   -8.4893   -1.0357    0.0000 N   0  0  0  0  0  0  0  0  0
   -7.7748   -1.4482    0.0000 C   0  0  0  0  0  0  0  0  0
   -7.0604   -1.0357    0.0000 C   0  0  0  0  0  0  0  0  0
   -6.3459   -1.4482    0.0000 C   0  0  0  0  0  0  0  0  0
   -6.3459   -2.2732    0.0000 C   0  0  0  0  0  0  0  0  0
   -7.0604   -2.6857    0.0000 C   0  0  0  0  0  0  0  0  0
   -7.7748   -2.2732    0.0000 C   0  0  0  0  0  0  0  0  0
   -5.6314   -1.0357    0.0000 C   0  0  0  0  0  0  0  0  0
   -5.6314   -0.2107    0.0000 C   0  0  0  0  0  0  0  0  0
   -4.9170    0.2018    0.0000 N   0  0  0  0  0  0  0  0  0
   -4.9170    1.0268    0.0000 C   0  0  0  0  0  0  0  0  0
   -4.2025    1.4393    0.0000 C   0  0  0  0  0  0  0  0  0
   -3.4880    1.0268    0.0000 C   0  0  0  0  0  0  0  0  0
   -2.7735    1.4393    0.0000 O   0  0  0  0  0  0  0  0  0
   -2.7735    2.2643    0.0000 C   0  0  0  0  0  0  0  0  0
   -2.0591    2.6768    0.0000 C   0  0  0  0  0  0  0  0  0
   -2.0591    3.5018    0.0000 C   0  0  0  0  0  0  0  0  0
   -1.3446    3.9143    0.0000 N   0  0  0  0  0  0  0  0  0
   -0.6301    3.5018    0.0000 C   0  0  0  0  0  0  0  0  0
   -0.6301    2.6768    0.0000 C   0  0  0  0  0  0  0  0  0
   -1.3446    2.2643    0.0000 C   0  0  0  0  0  0  0  0  0
    0.0843    3.9143    0.0000 C   0  0  0  0  0  0  0  0  0
   -2.7735    3.9143    0.0000 C   0  0  0  0  0  0  0  0  0
   -3.4880    3.5018    0.0000 C   0  0  0  0  0  0  0  0  0
   -3.4880    2.6768    0.0000 C   0  0  0  0  0  0  0  0  0
   -3.4880    0.2018    0.0000 C   0  0  0  0  0  0  0  0  0
   -4.2025   -0.2107    0.0000 C   0  0  0  0  0  0  0  0  0
  1  2  1  0  0  0  0
  1 11  1  0  0  0  0
  2  3  1  0  0  0  0
  3  4  2  0  0  0  0
  3  5  1  0  0  0  0
  5  6  1  0  0  0  0
  6  7  4  0  0  0  0
  6 11  4  0  0  0  0
  7  8  4  0  0  0  0
  8  9  4  0  0  0  0
  8 12  1  0  0  0  0
  9 10  4  0  0  0  0
 10 11  4  0  0  0  0
 12 13  1  0  0  0  0
 13 14  1  0  0  0  0
 14 15  1  0  0  0  0
 14 31  1  0  0  0  0
 15 16  1  0  0  0  0
 16 17  1  0  0  0  0
 17 18  1  0  0  0  0
 17 30  1  0  0  0  0
 18 19  1  0  0  0  0
 19 20  4  0  0  0  0
 19 29  4  0  0  0  0
 20 21  4  0  0  0  0
 20 25  4  0  0  0  0
 21 22  4  0  0  0  0
 21 27  4  0  0  0  0
 22 23  4  0  0  0  0
 23 24  4  0  0  0  0
 23 26  1  0  0  0  0
 24 25  4  0  0  0  0
 27 28  4  0  0  0  0
 28 29  4  0  0  0  0
 30 31  1  0  0  0  0
M  END
>  <Name_Molregno>
514143

>  <5-HT1A>
6.5

>  <5-HT1B>
7.6

>  <5-HT1D>
8.2

$$$$
514254
  Marvin  02231216192D 0   1.00000     0.00000     0

 32 36  0  0  0  0  0  0  0  0999 V2000
   -8.4507   -2.6793    0.0000 O   0  0  0  0  0  0  0  0  0
   -9.1652   -2.2668    0.0000 C   0  0  0  0  0  0  0  0  0
   -9.1652   -1.4418    0.0000 C   0  0  0  0  0  0  0  0  0
   -9.8797   -1.0293    0.0000 O   0  0  0  0  0  0  0  0  0
   -8.4507   -1.0293    0.0000 N   0  0  0  0  0  0  0  0  0
   -7.7363   -1.4418    0.0000 C   0  0  0  0  0  0  0  0  0
   -7.0218   -1.0293    0.0000 C   0  0  0  0  0  0  0  0  0
   -6.3073   -1.4418    0.0000 C   0  0  0  0  0  0  0  0  0
   -6.3073   -2.2668    0.0000 C   0  0  0  0  0  0  0  0  0
   -7.0218   -2.6793    0.0000 C   0  0  0  0  0  0  0  0  0
   -7.7363   -2.2668    0.0000 C   0  0  0  0  0  0  0  0  0
   -5.5928   -1.0293    0.0000 C   0  0  0  0  0  0  0  0  0
   -4.8784   -1.4418    0.0000 O   0  0  0  0  0  0  0  0  0
   -5.5928   -0.2043    0.0000 C   0  0  0  0  0  0  0  0  0
   -4.8784    0.2082    0.0000 N   0  0  0  0  0  0  0  0  0
   -4.8784    1.0332    0.0000 C   0  0  0  0  0  0  0  0  0
   -4.1639    1.4457    0.0000 C   0  0  0  0  0  0  0  0  0
   -3.4494    1.0332    0.0000 C   0  0  0  0  0  0  0  0  0
   -2.7350    1.4457    0.0000 O   0  0  0  0  0  0  0  0  0
   -2.7350    2.2707    0.0000 C   0  0  0  0  0  0  0  0  0
   -2.0205    2.6832    0.0000 C   0  0  0  0  0  0  0  0  0
   -2.0205    3.5082    0.0000 C   0  0  0  0  0  0  0  0  0
   -1.3060    3.9207    0.0000 N   0  0  0  0  0  0  0  0  0
   -0.5916    3.5082    0.0000 C   0  0  0  0  0  0  0  0  0
   -0.5916    2.6832    0.0000 C   0  0  0  0  0  0  0  0  0
   -1.3060    2.2707    0.0000 C   0  0  0  0  0  0  0  0  0
    0.1229    3.9207    0.0000 C   0  0  0  0  0  0  0  0  0
   -2.7350    3.9207    0.0000 C   0  0  0  0  0  0  0  0  0
   -3.4494    3.5082    0.0000 C   0  0  0  0  0  0  0  0  0
   -3.4494    2.6832    0.0000 C   0  0  0  0  0  0  0  0  0
   -3.4494    0.2082    0.0000 C   0  0  0  0  0  0  0  0  0
   -4.1639   -0.2043    0.0000 C   0  0  0  0  0  0  0  0  0
  1  2  1  0  0  0  0
  1 11  1  0  0  0  0
  2  3  1  0  0  0  0
  3  4  2  0  0  0  0
  3  5  1  0  0  0  0
  5  6  1  0  0  0  0
  6  7  4  0  0  0  0
  6 11  4  0  0  0  0
  7  8  4  0  0  0  0
  8  9  4  0  0  0  0
  8 12  1  0  0  0  0
  9 10  4  0  0  0  0
 10 11  4  0  0  0  0
 12 13  2  0  0  0  0
 12 14  1  0  0  0  0
 14 15  1  0  0  0  0
 15 16  1  0  0  0  0
 15 32  1  0  0  0  0
 16 17  1  0  0  0  0
 17 18  1  0  0  0  0
 18 19  1  0  0  0  0
 18 31  1  0  0  0  0
 19 20  1  0  0  0  0
 20 21  4  0  0  0  0
 20 30  4  0  0  0  0
 21 22  4  0  0  0  0
 21 26  4  0  0  0  0
 22 23  4  0  0  0  0
 22 28  4  0  0  0  0
 23 24  4  0  0  0  0
 24 25  4  0  0  0  0
 24 27  1  0  0  0  0
 25 26  4  0  0  0  0
 28 29  4  0  0  0  0
 29 30  4  0  0  0  0
 31 32  1  0  0  0  0
M  END
>  <Name_Molregno>
514254

>  <5-HT1A>
5

>  <5-HT1B>
5.3

>  <5-HT1D>
5.7

$$$$
514255
  Marvin  02231216192D 0   1.00000     0.00000     0

 33 37  0  0  0  0  0  0  0  0999 V2000
   -4.9347   -4.3130    0.0000 O   0  0  0  0  0  0  0  0  0
   -5.6491   -4.7255    0.0000 C   0  0  0  0  0  0  0  0  0
   -6.3636   -4.3130    0.0000 C   0  0  0  0  0  0  0  0  0
   -7.0781   -4.7255    0.0000 O   0  0  0  0  0  0  0  0  0
   -6.3636   -3.4880    0.0000 N   0  0  0  0  0  0  0  0  0
   -5.6491   -3.0755    0.0000 C   0  0  0  0  0  0  0  0  0
   -5.6491   -2.2505    0.0000 C   0  0  0  0  0  0  0  0  0
   -4.9347   -1.8380    0.0000 C   0  0  0  0  0  0  0  0  0
   -4.2202   -2.2505    0.0000 C   0  0  0  0  0  0  0  0  0
   -4.2202   -3.0755    0.0000 C   0  0  0  0  0  0  0  0  0
   -4.9347   -3.4880    0.0000 C   0  0  0  0  0  0  0  0  0
   -4.9347   -1.0130    0.0000 C   0  0  0  0  0  0  0  0  0
   -4.2202   -0.6005    0.0000 O   0  0  0  0  0  0  0  0  0
   -5.6491   -0.6005    0.0000 C   0  0  0  0  0  0  0  0  0
   -5.6491    0.2245    0.0000 N   0  0  0  0  0  0  0  0  0
   -6.3636    0.6370    0.0000 C   0  0  0  0  0  0  0  0  0
   -6.3636    1.4620    0.0000 C   0  0  0  0  0  0  0  0  0
   -5.6491    1.8745    0.0000 C   0  0  0  0  0  0  0  0  0
   -4.9347    1.4620    0.0000 C   0  0  0  0  0  0  0  0  0
   -4.9347    0.6370    0.0000 C   0  0  0  0  0  0  0  0  0
   -5.6491    2.6995    0.0000 C   0  0  0  0  0  0  0  0  0
   -4.9347    3.1120    0.0000 O   0  0  0  0  0  0  0  0  0
   -4.9347    3.9370    0.0000 C   0  0  0  0  0  0  0  0  0
   -4.2202    4.3495    0.0000 C   0  0  0  0  0  0  0  0  0
   -4.2202    5.1745    0.0000 C   0  0  0  0  0  0  0  0  0
   -3.5057    5.5870    0.0000 N   0  0  0  0  0  0  0  0  0
   -2.7913    5.1745    0.0000 C   0  0  0  0  0  0  0  0  0
   -2.7913    4.3495    0.0000 C   0  0  0  0  0  0  0  0  0
   -3.5057    3.9370    0.0000 C   0  0  0  0  0  0  0  0  0
   -2.0768    5.5870    0.0000 C   0  0  0  0  0  0  0  0  0
   -4.9347    5.5870    0.0000 C   0  0  0  0  0  0  0  0  0
   -5.6491    5.1745    0.0000 C   0  0  0  0  0  0  0  0  0
   -5.6491    4.3495    0.0000 C   0  0  0  0  0  0  0  0  0
  1  2  1  0  0  0  0
  1 11  1  0  0  0  0
  2  3  1  0  0  0  0
  3  4  2  0  0  0  0
  3  5  1  0  0  0  0
  5  6  1  0  0  0  0
  6  7  4  0  0  0  0
  6 11  4  0  0  0  0
  7  8  4  0  0  0  0
  8  9  4  0  0  0  0
  8 12  1  0  0  0  0
  9 10  4  0  0  0  0
 10 11  4  0  0  0  0
 12 13  2  0  0  0  0
 12 14  1  0  0  0  0
 14 15  1  0  0  0  0
 15 16  1  0  0  0  0
 15 20  1  0  0  0  0
 16 17  1  0  0  0  0
 17 18  1  0  0  0  0
 18 19  1  0  0  0  0
 18 21  1  0  0  0  0
 19 20  1  0  0  0  0
 21 22  1  0  0  0  0
 22 23  1  0  0  0  0
 23 24  4  0  0  0  0
 23 33  4  0  0  0  0
 24 25  4  0  0  0  0
 24 29  4  0  0  0  0
 25 26  4  0  0  0  0
 25 31  4  0  0  0  0
 26 27  4  0  0  0  0
 27 28  4  0  0  0  0
 27 30  1  0  0  0  0
 28 29  4  0  0  0  0
 31 32  4  0  0  0  0
 32 33  4  0  0  0  0
M  END
>  <Name_Molregno>
514255

>  <5-HT1A>
6.3

>  <5-HT1B>
6.2

>  <5-HT1D>
6.6

$$$$
515852
  Marvin  02231216192D 0   1.00000     0.00000     0

 24 28  0  0  1  0  0  0  0  0999 V2000
    3.5696   -0.3324    0.0000 O   0  0  0  0  0  0  0  0  0
    3.9434   -1.0678    0.0000 C   0  0  0  0  0  0  0  0  0
    3.3594   -1.6506    0.0000 C   0  0  0  0  0  0  0  0  0
    2.6247   -1.2753    0.0000 C   0  0  0  0  0  0  0  0  0
    2.7546   -0.4606    0.0000 C   0  0  0  0  0  0  0  0  0
    2.1140    0.0593    0.0000 C   0  0  0  0  0  0  0  0  0
    1.3435   -0.2355    0.0000 C   0  0  0  0  0  0  0  0  0
    1.2136   -1.0502    0.0000 C   0  0  0  0  0  0  0  0  0
    1.8542   -1.5701    0.0000 C   0  0  0  0  0  0  0  0  0
    1.7243   -2.3848    0.0000 N   0  0  0  0  0  0  0  0  0
    0.9537   -2.6797    0.0000 C   0  0  0  0  0  0  0  0  0
    0.3131   -2.1598    0.0000 N   0  0  0  0  0  0  0  0  0
    0.4431   -1.3451    0.0000 C   0  0  0  0  0  0  0  0  0
   -0.1975   -0.8252    0.0000 N   0  0  0  0  0  0  0  0  0
   -0.9680   -1.1201    0.0000 C   0  0  0  0  0  0  0  0  0
   -1.6086   -0.6002    0.0000 C   0  0  0  0  0  0  0  0  0
   -1.4787    0.2145    0.0000 N   0  0  0  0  0  0  0  0  0
   -0.7082    0.5094    0.0000 C   0  0  0  0  0  0  0  0  0
   -0.0676   -0.0105    0.0000 C   0  0  0  0  0  0  0  0  0
    0.8238   -3.4944    0.0000 N   0  0  0  0  0  0  0  0  0
    3.5721   -2.4477    0.0000 C   0  0  0  0  0  0  0  0  0
    4.3687   -2.6621    0.0000 C   0  0  0  0  0  0  0  0  0
    4.9527   -2.0793    0.0000 C   0  0  0  0  0  0  0  0  0
    4.7400   -1.2822    0.0000 C   0  0  0  0  0  0  0  0  0
  1  2  1  0  0  0  0
  1  5  1  0  0  0  0
  2  3  1  0  0  0  0
  2 24  1  0  0  0  0
  3  4  1  0  0  0  0
  3 21  1  0  0  0  0
  4  5  2  0  0  0  0
  4  9  1  0  0  0  0
  5  6  1  0  0  0  0
  6  7  1  0  0  0  0
  7  8  1  0  0  0  0
  8  9  4  0  0  0  0
  8 13  4  0  0  0  0
  9 10  4  0  0  0  0
 10 11  4  0  0  0  0
 11 12  4  0  0  0  0
 11 20  1  0  0  0  0
 12 13  4  0  0  0  0
 13 14  1  0  0  0  0
 14 15  1  0  0  0  0
 14 19  1  0  0  0  0
 15 16  1  0  0  0  0
 16 17  1  0  0  0  0
 17 18  1  0  0  0  0
 18 19  1  0  0  0  0
 21 22  1  0  0  0  0
 22 23  1  0  0  0  0
 23 24  1  0  0  0  0
M  END
>  <Name_Molregno>
515852

>  <5-HT1A>
9.18

>  <5-HT1B>
7.74

>  <5-HT2A>
8.89

>  <5-HT2C>
8.41

>  <5-HT3>
8.18

>  <5-HT5>
6.96

>  <5-HT6>
7.03

>  <5-HT7>
9.66

>  <Beta-1>
6.37

>  <Beta-2>
9.3

>  <DOPAMINE D1>
9.42

>  <DOPAMINE D2>
8.54

>  <DOPAMINE D3>
8.85

>  <DOPAMINE D5>
9.32

>  <Dopamine transporter>
8.05

>  <HISTAMINE H1>
7.05

>  <HISTAMINE H2>
5.91

>  <HISTAMINE H3>
6.03

>  <HISTAMINE H4>
8.24

>  <Muscarinic acetylcholine receptor M1>
7.6

>  <Muscarinic acetylcholine receptor M2>
7.44

>  <Muscarinic acetylcholine receptor M3>
9.38

>  <Muscarinic acetylcholine receptor M4>
9.18

>  <Muscarinic acetylcholine receptor M5>
9.38

>  <Norepinephrine transporter>
8.17

>  <Serotonin transporter>
8.49

$$$$
521630
  Marvin  02231216192D 0   1.00000     0.00000     0

 30 34  0  0  0  0  0  0  0  0999 V2000
   -3.8517   -2.7637    0.0000 O   0  0  0  0  0  0  0  0  0
   -4.5661   -3.1762    0.0000 C   0  0  0  0  0  0  0  0  0
   -4.5661   -4.0012    0.0000 C   0  0  0  0  0  0  0  0  0
   -5.2806   -4.4137    0.0000 O   0  0  0  0  0  0  0  0  0
   -3.8517   -4.4137    0.0000 N   0  0  0  0  0  0  0  0  0
   -3.1372   -4.0012    0.0000 C   0  0  0  0  0  0  0  0  0
   -3.1372   -3.1763    0.0000 C   0  0  0  0  0  0  0  0  0
   -2.4227   -2.7638    0.0000 C   0  0  0  0  0  0  0  0  0
   -1.7082   -3.1763    0.0000 C   0  0  0  0  0  0  0  0  0
   -1.7082   -4.0013    0.0000 C   0  0  0  0  0  0  0  0  0
   -2.4227   -4.4138    0.0000 C   0  0  0  0  0  0  0  0  0
   -2.4227   -1.9387    0.0000 C   0  0  0  0  0  0  0  0  0
   -3.1372   -1.5262    0.0000 C   0  0  0  0  0  0  0  0  0
   -3.1372   -0.7012    0.0000 N   0  0  0  0  0  0  0  0  0
   -3.8517   -0.2887    0.0000 C   0  0  0  0  0  0  0  0  0
   -3.8517    0.5363    0.0000 C   0  0  0  0  0  0  0  0  0
   -3.1372    0.9488    0.0000 N   0  0  0  0  0  0  0  0  0
   -2.4227    0.5363    0.0000 C   0  0  0  0  0  0  0  0  0
   -2.4227   -0.2887    0.0000 C   0  0  0  0  0  0  0  0  0
   -3.1372    1.7738    0.0000 C   0  0  0  0  0  0  0  0  0
   -2.4227    2.1863    0.0000 C   0  0  0  0  0  0  0  0  0
   -2.4227    3.0113    0.0000 C   0  0  0  0  0  0  0  0  0
   -1.7082    3.4238    0.0000 N   0  0  0  0  0  0  0  0  0
   -0.9938    3.0113    0.0000 C   0  0  0  0  0  0  0  0  0
   -0.9938    2.1863    0.0000 C   0  0  0  0  0  0  0  0  0
   -1.7082    1.7738    0.0000 C   0  0  0  0  0  0  0  0  0
   -0.2793    3.4238    0.0000 C   0  0  0  0  0  0  0  0  0
   -3.1372    3.4238    0.0000 C   0  0  0  0  0  0  0  0  0
   -3.8517    3.0113    0.0000 C   0  0  0  0  0  0  0  0  0
   -3.8517    2.1863    0.0000 C   0  0  0  0  0  0  0  0  0
  1  2  1  0  0  0  0
  1  7  1  0  0  0  0
  2  3  1  0  0  0  0
  3  4  2  0  0  0  0
  3  5  1  0  0  0  0
  5  6  1  0  0  0  0
  6  7  4  0  0  0  0
  6 11  4  0  0  0  0
  7  8  4  0  0  0  0
  8  9  4  0  0  0  0
  8 12  1  0  0  0  0
  9 10  4  0  0  0  0
 10 11  4  0  0  0  0
 12 13  1  0  0  0  0
 13 14  1  0  0  0  0
 14 15  1  0  0  0  0
 14 19  1  0  0  0  0
 15 16  1  0  0  0  0
 16 17  1  0  0  0  0
 17 18  1  0  0  0  0
 17 20  1  0  0  0  0
 18 19  1  0  0  0  0
 20 21  4  0  0  0  0
 20 30  4  0  0  0  0
 21 22  4  0  0  0  0
 21 26  4  0  0  0  0
 22 23  4  0  0  0  0
 22 28  4  0  0  0  0
 23 24  4  0  0  0  0
 24 25  4  0  0  0  0
 24 27  1  0  0  0  0
 25 26  4  0  0  0  0
 28 29  4  0  0  0  0
 29 30  4  0  0  0  0
M  END
>  <Name_Molregno>
521630

>  <5-HT1A>
9.6

>  <5-HT1B>
9

>  <5-HT1D>
10.3

>  <Serotonin transporter>
6.5

$$$$
521709
  Marvin  02231216192D 0   1.00000     0.00000     0

 31 35  0  0  0  0  0  0  0  0999 V2000
   -3.6580   -2.6444    0.0000 O   0  0  0  0  0  0  0  0  0
   -4.3724   -3.0569    0.0000 C   0  0  0  0  0  0  0  0  0
   -4.3724   -3.8819    0.0000 C   0  0  0  0  0  0  0  0  0
   -5.0869   -4.2944    0.0000 O   0  0  0  0  0  0  0  0  0
   -3.6580   -4.2944    0.0000 N   0  0  0  0  0  0  0  0  0
   -2.9435   -3.8819    0.0000 C   0  0  0  0  0  0  0  0  0
   -2.9435   -3.0569    0.0000 C   0  0  0  0  0  0  0  0  0
   -2.2290   -2.6444    0.0000 C   0  0  0  0  0  0  0  0  0
   -1.5145   -3.0569    0.0000 C   0  0  0  0  0  0  0  0  0
   -1.5145   -3.8819    0.0000 C   0  0  0  0  0  0  0  0  0
   -2.2290   -4.2944    0.0000 C   0  0  0  0  0  0  0  0  0
   -2.2290   -1.8194    0.0000 C   0  0  0  0  0  0  0  0  0
   -2.9435   -1.4069    0.0000 C   0  0  0  0  0  0  0  0  0
   -2.9435   -0.5819    0.0000 N   0  0  0  0  0  0  0  0  0
   -3.6580   -0.1694    0.0000 C   0  0  0  0  0  0  0  0  0
   -3.6580    0.6556    0.0000 C   0  0  0  0  0  0  0  0  0
   -2.9435    1.0681    0.0000 N   0  0  0  0  0  0  0  0  0
   -2.2290    0.6556    0.0000 C   0  0  0  0  0  0  0  0  0
   -2.2290   -0.1694    0.0000 C   0  0  0  0  0  0  0  0  0
   -2.9435    1.8931    0.0000 C   0  0  0  0  0  0  0  0  0
   -2.2290    2.3056    0.0000 C   0  0  0  0  0  0  0  0  0
   -2.2290    3.1306    0.0000 C   0  0  0  0  0  0  0  0  0
   -1.5145    3.5431    0.0000 N   0  0  0  0  0  0  0  0  0
   -0.8001    3.1306    0.0000 C   0  0  0  0  0  0  0  0  0
   -0.8001    2.3056    0.0000 C   0  0  0  0  0  0  0  0  0
   -1.5145    1.8931    0.0000 C   0  0  0  0  0  0  0  0  0
   -0.0856    3.5431    0.0000 C   0  0  0  0  0  0  0  0  0
   -2.9435    3.5431    0.0000 C   0  0  0  0  0  0  0  0  0
   -3.6580    3.1306    0.0000 C   0  0  0  0  0  0  0  0  0
   -3.6580    2.3056    0.0000 C   0  0  0  0  0  0  0  0  0
   -3.6580   -5.1194    0.0000 C   0  0  0  0  0  0  0  0  0
  1  2  1  0  0  0  0
  1  7  1  0  0  0  0
  2  3  1  0  0  0  0
  3  4  2  0  0  0  0
  3  5  1  0  0  0  0
  5  6  1  0  0  0  0
  5 31  1  0  0  0  0
  6  7  4  0  0  0  0
  6 11  4  0  0  0  0
  7  8  4  0  0  0  0
  8  9  4  0  0  0  0
  8 12  1  0  0  0  0
  9 10  4  0  0  0  0
 10 11  4  0  0  0  0
 12 13  1  0  0  0  0
 13 14  1  0  0  0  0
 14 15  1  0  0  0  0
 14 19  1  0  0  0  0
 15 16  1  0  0  0  0
 16 17  1  0  0  0  0
 17 18  1  0  0  0  0
 17 20  1  0  0  0  0
 18 19  1  0  0  0  0
 20 21  4  0  0  0  0
 20 30  4  0  0  0  0
 21 22  4  0  0  0  0
 21 26  4  0  0  0  0
 22 23  4  0  0  0  0
 22 28  4  0  0  0  0
 23 24  4  0  0  0  0
 24 25  4  0  0  0  0
 24 27  1  0  0  0  0
 25 26  4  0  0  0  0
 28 29  4  0  0  0  0
 29 30  4  0  0  0  0
M  END
>  <Name_Molregno>
521709

>  <5-HT1A>
9.8

>  <5-HT1B>
8.4

>  <5-HT1D>
9.5

>  <Serotonin transporter>
8

$$$$
521710
  Marvin  02231216192D 0   1.00000     0.00000     0

 30 34  0  0  0  0  0  0  0  0999 V2000
    2.9154   -3.6432    0.0000 O   0  0  0  0  0  0  0  0  0
    2.9154   -4.4683    0.0000 C   0  0  0  0  0  0  0  0  0
    3.6299   -4.8807    0.0000 C   0  0  0  0  0  0  0  0  0
    3.6299   -5.7058    0.0000 O   0  0  0  0  0  0  0  0  0
    4.3444   -4.4683    0.0000 N   0  0  0  0  0  0  0  0  0
    4.3444   -3.6433    0.0000 C   0  0  0  0  0  0  0  0  0
    3.6299   -3.2308    0.0000 C   0  0  0  0  0  0  0  0  0
    3.6299   -2.4057    0.0000 C   0  0  0  0  0  0  0  0  0
    4.3444   -1.9933    0.0000 C   0  0  0  0  0  0  0  0  0
    5.0588   -2.4058    0.0000 C   0  0  0  0  0  0  0  0  0
    5.0588   -3.2308    0.0000 C   0  0  0  0  0  0  0  0  0
    4.3444   -1.1682    0.0000 C   0  0  0  0  0  0  0  0  0
    3.6299   -0.7557    0.0000 C   0  0  0  0  0  0  0  0  0
    3.6299    0.0693    0.0000 N   0  0  0  0  0  0  0  0  0
    2.9154    0.4818    0.0000 C   0  0  0  0  0  0  0  0  0
    2.9154    1.3068    0.0000 C   0  0  0  0  0  0  0  0  0
    3.6299    1.7193    0.0000 N   0  0  0  0  0  0  0  0  0
    4.3444    1.3068    0.0000 C   0  0  0  0  0  0  0  0  0
    4.3444    0.4818    0.0000 C   0  0  0  0  0  0  0  0  0
    3.6299    2.5443    0.0000 C   0  0  0  0  0  0  0  0  0
    4.3444    2.9568    0.0000 C   0  0  0  0  0  0  0  0  0
    4.3444    3.7818    0.0000 C   0  0  0  0  0  0  0  0  0
    5.0588    4.1943    0.0000 N   0  0  0  0  0  0  0  0  0
    5.7733    3.7818    0.0000 C   0  0  0  0  0  0  0  0  0
    5.7733    2.9568    0.0000 C   0  0  0  0  0  0  0  0  0
    5.0588    2.5443    0.0000 C   0  0  0  0  0  0  0  0  0
    6.4878    4.1943    0.0000 C   0  0  0  0  0  0  0  0  0
    3.6299    4.1943    0.0000 C   0  0  0  0  0  0  0  0  0
    2.9154    3.7818    0.0000 C   0  0  0  0  0  0  0  0  0
    2.9154    2.9568    0.0000 C   0  0  0  0  0  0  0  0  0
  1  2  1  0  0  0  0
  1  7  1  0  0  0  0
  2  3  1  0  0  0  0
  3  4  2  0  0  0  0
  3  5  1  0  0  0  0
  5  6  1  0  0  0  0
  6  7  4  0  0  0  0
  6 11  4  0  0  0  0
  7  8  4  0  0  0  0
  8  9  4  0  0  0  0
  9 10  4  0  0  0  0
  9 12  1  0  0  0  0
 10 11  4  0  0  0  0
 12 13  1  0  0  0  0
 13 14  1  0  0  0  0
 14 15  1  0  0  0  0
 14 19  1  0  0  0  0
 15 16  1  0  0  0  0
 16 17  1  0  0  0  0
 17 18  1  0  0  0  0
 17 20  1  0  0  0  0
 18 19  1  0  0  0  0
 20 21  4  0  0  0  0
 20 30  4  0  0  0  0
 21 22  4  0  0  0  0
 21 26  4  0  0  0  0
 22 23  4  0  0  0  0
 22 28  4  0  0  0  0
 23 24  4  0  0  0  0
 24 25  4  0  0  0  0
 24 27  1  0  0  0  0
 25 26  4  0  0  0  0
 28 29  4  0  0  0  0
 29 30  4  0  0  0  0
M  END
>  <Name_Molregno>
521710

>  <5-HT1A>
9.6

>  <5-HT1B>
7.5

>  <5-HT1D>
9.1

>  <Serotonin transporter>
7

$$$$
521712
  Marvin  02231216192D 0   1.00000     0.00000     0

 32 36  0  0  0  0  0  0  0  0999 V2000
   -3.4812   -1.5132    0.0000 O   0  0  0  0  0  0  0  0  0
   -4.1957   -1.9257    0.0000 C   0  0  0  0  0  0  0  0  0
   -4.1957   -2.7507    0.0000 C   0  0  0  0  0  0  0  0  0
   -4.9102   -3.1632    0.0000 O   0  0  0  0  0  0  0  0  0
   -3.4812   -3.1632    0.0000 N   0  0  0  0  0  0  0  0  0
   -2.7667   -2.7507    0.0000 C   0  0  0  0  0  0  0  0  0
   -2.7667   -1.9257    0.0000 C   0  0  0  0  0  0  0  0  0
   -2.0523   -1.5132    0.0000 C   0  0  0  0  0  0  0  0  0
   -1.3378   -1.9257    0.0000 C   0  0  0  0  0  0  0  0  0
   -1.3378   -2.7507    0.0000 C   0  0  0  0  0  0  0  0  0
   -2.0523   -3.1632    0.0000 C   0  0  0  0  0  0  0  0  0
   -2.0523   -0.6882    0.0000 C   0  0  0  0  0  0  0  0  0
   -2.7667   -0.2757    0.0000 C   0  0  0  0  0  0  0  0  0
   -2.7667    0.5493    0.0000 N   0  0  0  0  0  0  0  0  0
   -3.4812    0.9618    0.0000 C   0  0  0  0  0  0  0  0  0
   -3.4812    1.7868    0.0000 C   0  0  0  0  0  0  0  0  0
   -2.7667    2.1993    0.0000 N   0  0  0  0  0  0  0  0  0
   -2.0523    1.7868    0.0000 C   0  0  0  0  0  0  0  0  0
   -2.0523    0.9618    0.0000 C   0  0  0  0  0  0  0  0  0
   -2.7667    3.0243    0.0000 C   0  0  0  0  0  0  0  0  0
   -2.0523    3.4368    0.0000 C   0  0  0  0  0  0  0  0  0
   -2.0523    4.2618    0.0000 C   0  0  0  0  0  0  0  0  0
   -1.3378    4.6743    0.0000 N   0  0  0  0  0  0  0  0  0
   -0.6233    4.2618    0.0000 C   0  0  0  0  0  0  0  0  0
   -0.6233    3.4368    0.0000 C   0  0  0  0  0  0  0  0  0
   -1.3378    3.0243    0.0000 C   0  0  0  0  0  0  0  0  0
    0.0911    4.6743    0.0000 C   0  0  0  0  0  0  0  0  0
   -2.7667    4.6743    0.0000 C   0  0  0  0  0  0  0  0  0
   -3.4812    4.2618    0.0000 C   0  0  0  0  0  0  0  0  0
   -3.4812    3.4368    0.0000 C   0  0  0  0  0  0  0  0  0
   -3.4812   -3.9882    0.0000 C   0  0  0  0  0  0  0  0  0
   -2.7667   -4.4007    0.0000 C   0  0  0  0  0  0  0  0  0
  1  2  1  0  0  0  0
  1  7  1  0  0  0  0
  2  3  1  0  0  0  0
  3  4  2  0  0  0  0
  3  5  1  0  0  0  0
  5  6  1  0  0  0  0
  5 31  1  0  0  0  0
  6  7  4  0  0  0  0
  6 11  4  0  0  0  0
  7  8  4  0  0  0  0
  8  9  4  0  0  0  0
  8 12  1  0  0  0  0
  9 10  4  0  0  0  0
 10 11  4  0  0  0  0
 12 13  1  0  0  0  0
 13 14  1  0  0  0  0
 14 15  1  0  0  0  0
 14 19  1  0  0  0  0
 15 16  1  0  0  0  0
 16 17  1  0  0  0  0
 17 18  1  0  0  0  0
 17 20  1  0  0  0  0
 18 19  1  0  0  0  0
 20 21  4  0  0  0  0
 20 30  4  0  0  0  0
 21 22  4  0  0  0  0
 21 26  4  0  0  0  0
 22 23  4  0  0  0  0
 22 28  4  0  0  0  0
 23 24  4  0  0  0  0
 24 25  4  0  0  0  0
 24 27  1  0  0  0  0
 25 26  4  0  0  0  0
 28 29  4  0  0  0  0
 29 30  4  0  0  0  0
 31 32  1  0  0  0  0
M  END
>  <Name_Molregno>
521712

>  <5-HT1A>
9.9

>  <5-HT1B>
8.4

>  <5-HT1D>
9.7

>  <Serotonin transporter>
7.7

$$$$
521779
  Marvin  02231216192D 0   1.00000     0.00000     0

 33 37  0  0  0  0  0  0  0  0999 V2000
   -3.2919   -2.3753    0.0000 O   0  0  0  0  0  0  0  0  0
   -4.0064   -2.7878    0.0000 C   0  0  0  0  0  0  0  0  0
   -4.0064   -3.6128    0.0000 C   0  0  0  0  0  0  0  0  0
   -4.7208   -4.0253    0.0000 O   0  0  0  0  0  0  0  0  0
   -3.2919   -4.0253    0.0000 N   0  0  0  0  0  0  0  0  0
   -2.5774   -3.6128    0.0000 C   0  0  0  0  0  0  0  0  0
   -2.5774   -2.7878    0.0000 C   0  0  0  0  0  0  0  0  0
   -1.8629   -2.3753    0.0000 C   0  0  0  0  0  0  0  0  0
   -1.1485   -2.7878    0.0000 C   0  0  0  0  0  0  0  0  0
   -1.1485   -3.6128    0.0000 C   0  0  0  0  0  0  0  0  0
   -1.8629   -4.0253    0.0000 C   0  0  0  0  0  0  0  0  0
   -1.8629   -1.5503    0.0000 C   0  0  0  0  0  0  0  0  0
   -2.5774   -1.1378    0.0000 C   0  0  0  0  0  0  0  0  0
   -2.5774   -0.3128    0.0000 N   0  0  0  0  0  0  0  0  0
   -3.2919    0.0997    0.0000 C   0  0  0  0  0  0  0  0  0
   -3.2919    0.9247    0.0000 C   0  0  0  0  0  0  0  0  0
   -2.5774    1.3372    0.0000 N   0  0  0  0  0  0  0  0  0
   -1.8629    0.9247    0.0000 C   0  0  0  0  0  0  0  0  0
   -1.8629    0.0997    0.0000 C   0  0  0  0  0  0  0  0  0
   -2.5774    2.1622    0.0000 C   0  0  0  0  0  0  0  0  0
   -1.8629    2.5747    0.0000 C   0  0  0  0  0  0  0  0  0
   -1.8629    3.3997    0.0000 C   0  0  0  0  0  0  0  0  0
   -1.1485    3.8122    0.0000 N   0  0  0  0  0  0  0  0  0
   -0.4340    3.3997    0.0000 C   0  0  0  0  0  0  0  0  0
   -0.4340    2.5747    0.0000 C   0  0  0  0  0  0  0  0  0
   -1.1485    2.1622    0.0000 C   0  0  0  0  0  0  0  0  0
    0.2805    3.8122    0.0000 C   0  0  0  0  0  0  0  0  0
   -2.5774    3.8122    0.0000 C   0  0  0  0  0  0  0  0  0
   -3.2919    3.3997    0.0000 C   0  0  0  0  0  0  0  0  0
   -3.2919    2.5747    0.0000 C   0  0  0  0  0  0  0  0  0
   -3.2919   -4.8503    0.0000 C   0  0  0  0  0  0  0  0  0
   -2.5774   -5.2628    0.0000 C   0  0  0  0  0  0  0  0  0
   -4.0064   -5.2628    0.0000 C   0  0  0  0  0  0  0  0  0
  1  2  1  0  0  0  0
  1  7  1  0  0  0  0
  2  3  1  0  0  0  0
  3  4  2  0  0  0  0
  3  5  1  0  0  0  0
  5  6  1  0  0  0  0
  5 31  1  0  0  0  0
  6  7  4  0  0  0  0
  6 11  4  0  0  0  0
  7  8  4  0  0  0  0
  8  9  4  0  0  0  0
  8 12  1  0  0  0  0
  9 10  4  0  0  0  0
 10 11  4  0  0  0  0
 12 13  1  0  0  0  0
 13 14  1  0  0  0  0
 14 15  1  0  0  0  0
 14 19  1  0  0  0  0
 15 16  1  0  0  0  0
 16 17  1  0  0  0  0
 17 18  1  0  0  0  0
 17 20  1  0  0  0  0
 18 19  1  0  0  0  0
 20 21  4  0  0  0  0
 20 30  4  0  0  0  0
 21 22  4  0  0  0  0
 21 26  4  0  0  0  0
 22 23  4  0  0  0  0
 22 28  4  0  0  0  0
 23 24  4  0  0  0  0
 24 25  4  0  0  0  0
 24 27  1  0  0  0  0
 25 26  4  0  0  0  0
 28 29  4  0  0  0  0
 29 30  4  0  0  0  0
 31 32  1  0  0  0  0
 31 33  1  0  0  0  0
M  END
>  <Name_Molregno>
521779

>  <5-HT1A>
9.2

>  <5-HT1B>
8.3

>  <5-HT1D>
9.6

>  <Serotonin transporter>
6.8

$$$$
521780
  Marvin  02231216192D 0   1.00000     0.00000     0

 33 38  0  0  0  0  0  0  0  0999 V2000
   -3.2738   -2.3775    0.0000 O   0  0  0  0  0  0  0  0  0
   -3.9883   -2.7900    0.0000 C   0  0  0  0  0  0  0  0  0
   -3.9883   -3.6150    0.0000 C   0  0  0  0  0  0  0  0  0
   -4.7027   -4.0275    0.0000 O   0  0  0  0  0  0  0  0  0
   -3.2738   -4.0275    0.0000 N   0  0  0  0  0  0  0  0  0
   -2.5593   -3.6150    0.0000 C   0  0  0  0  0  0  0  0  0
   -2.5593   -2.7900    0.0000 C   0  0  0  0  0  0  0  0  0
   -1.8448   -2.3775    0.0000 C   0  0  0  0  0  0  0  0  0
   -1.1304   -2.7900    0.0000 C   0  0  0  0  0  0  0  0  0
   -1.1304   -3.6150    0.0000 C   0  0  0  0  0  0  0  0  0
   -1.8448   -4.0275    0.0000 C   0  0  0  0  0  0  0  0  0
   -1.8448   -1.5525    0.0000 C   0  0  0  0  0  0  0  0  0
   -2.5593   -1.1400    0.0000 C   0  0  0  0  0  0  0  0  0
   -2.5593   -0.3150    0.0000 N   0  0  0  0  0  0  0  0  0
   -3.2738    0.0975    0.0000 C   0  0  0  0  0  0  0  0  0
   -3.2738    0.9225    0.0000 C   0  0  0  0  0  0  0  0  0
   -2.5593    1.3350    0.0000 N   0  0  0  0  0  0  0  0  0
   -1.8448    0.9225    0.0000 C   0  0  0  0  0  0  0  0  0
   -1.8448    0.0975    0.0000 C   0  0  0  0  0  0  0  0  0
   -2.5593    2.1600    0.0000 C   0  0  0  0  0  0  0  0  0
   -1.8448    2.5725    0.0000 C   0  0  0  0  0  0  0  0  0
   -1.8448    3.3975    0.0000 C   0  0  0  0  0  0  0  0  0
   -1.1304    3.8100    0.0000 N   0  0  0  0  0  0  0  0  0
   -0.4159    3.3975    0.0000 C   0  0  0  0  0  0  0  0  0
   -0.4159    2.5725    0.0000 C   0  0  0  0  0  0  0  0  0
   -1.1304    2.1600    0.0000 C   0  0  0  0  0  0  0  0  0
    0.2986    3.8100    0.0000 C   0  0  0  0  0  0  0  0  0
   -2.5593    3.8100    0.0000 C   0  0  0  0  0  0  0  0  0
   -3.2738    3.3975    0.0000 C   0  0  0  0  0  0  0  0  0
   -3.2738    2.5725    0.0000 C   0  0  0  0  0  0  0  0  0
   -3.2738   -4.8525    0.0000 C   0  0  0  0  0  0  0  0  0
   -2.8613   -5.5670    0.0000 C   0  0  0  0  0  0  0  0  0
   -3.6863   -5.5670    0.0000 C   0  0  0  0  0  0  0  0  0
  1  2  1  0  0  0  0
  1  7  1  0  0  0  0
  2  3  1  0  0  0  0
  3  4  2  0  0  0  0
  3  5  1  0  0  0  0
  5  6  1  0  0  0  0
  5 31  1  0  0  0  0
  6  7  4  0  0  0  0
  6 11  4  0  0  0  0
  7  8  4  0  0  0  0
  8  9  4  0  0  0  0
  8 12  1  0  0  0  0
  9 10  4  0  0  0  0
 10 11  4  0  0  0  0
 12 13  1  0  0  0  0
 13 14  1  0  0  0  0
 14 15  1  0  0  0  0
 14 19  1  0  0  0  0
 15 16  1  0  0  0  0
 16 17  1  0  0  0  0
 17 18  1  0  0  0  0
 17 20  1  0  0  0  0
 18 19  1  0  0  0  0
 20 21  4  0  0  0  0
 20 30  4  0  0  0  0
 21 22  4  0  0  0  0
 21 26  4  0  0  0  0
 22 23  4  0  0  0  0
 22 28  4  0  0  0  0
 23 24  4  0  0  0  0
 24 25  4  0  0  0  0
 24 27  1  0  0  0  0
 25 26  4  0  0  0  0
 28 29  4  0  0  0  0
 29 30  4  0  0  0  0
 31 32  1  0  0  0  0
 31 33  1  0  0  0  0
 32 33  1  0  0  0  0
M  END
>  <Name_Molregno>
521780

>  <5-HT1A>
10

>  <5-HT1B>
8.3

>  <5-HT1D>
9.8

>  <Serotonin transporter>
6.9

$$$$
521781
  Marvin  02231216192D 0   1.00000     0.00000     0

 34 39  0  0  0  0  0  0  0  0999 V2000
   -3.7145   -2.1668    0.0000 O   0  0  0  0  0  0  0  0  0
   -4.4289   -2.5793    0.0000 C   0  0  0  0  0  0  0  0  0
   -4.4289   -3.4043    0.0000 C   0  0  0  0  0  0  0  0  0
   -5.1434   -3.8168    0.0000 O   0  0  0  0  0  0  0  0  0
   -3.7145   -3.8168    0.0000 N   0  0  0  0  0  0  0  0  0
   -3.0000   -3.4043    0.0000 C   0  0  0  0  0  0  0  0  0
   -3.0000   -2.5793    0.0000 C   0  0  0  0  0  0  0  0  0
   -2.2855   -2.1668    0.0000 C   0  0  0  0  0  0  0  0  0
   -1.5711   -2.5793    0.0000 C   0  0  0  0  0  0  0  0  0
   -1.5711   -3.4043    0.0000 C   0  0  0  0  0  0  0  0  0
   -2.2855   -3.8168    0.0000 C   0  0  0  0  0  0  0  0  0
   -2.2855   -1.3418    0.0000 C   0  0  0  0  0  0  0  0  0
   -1.5711   -0.9293    0.0000 C   0  0  0  0  0  0  0  0  0
   -1.5711   -0.1043    0.0000 N   0  0  0  0  0  0  0  0  0
   -2.2855    0.3082    0.0000 C   0  0  0  0  0  0  0  0  0
   -2.2855    1.1332    0.0000 C   0  0  0  0  0  0  0  0  0
   -1.5711    1.5457    0.0000 N   0  0  0  0  0  0  0  0  0
   -0.8566    1.1332    0.0000 C   0  0  0  0  0  0  0  0  0
   -0.8566    0.3082    0.0000 C   0  0  0  0  0  0  0  0  0
   -1.5711    2.3707    0.0000 C   0  0  0  0  0  0  0  0  0
   -0.8566    2.7832    0.0000 C   0  0  0  0  0  0  0  0  0
   -0.8566    3.6082    0.0000 C   0  0  0  0  0  0  0  0  0
   -0.1421    4.0207    0.0000 N   0  0  0  0  0  0  0  0  0
    0.5724    3.6082    0.0000 C   0  0  0  0  0  0  0  0  0
    0.5724    2.7832    0.0000 C   0  0  0  0  0  0  0  0  0
   -0.1421    2.3707    0.0000 C   0  0  0  0  0  0  0  0  0
    1.2868    4.0207    0.0000 C   0  0  0  0  0  0  0  0  0
   -1.5711    4.0207    0.0000 C   0  0  0  0  0  0  0  0  0
   -2.2855    3.6082    0.0000 C   0  0  0  0  0  0  0  0  0
   -2.2855    2.7832    0.0000 C   0  0  0  0  0  0  0  0  0
   -3.7145   -4.6418    0.0000 C   0  0  0  0  0  0  0  0  0
   -4.4289   -5.0543    0.0000 C   0  0  0  0  0  0  0  0  0
   -4.8414   -5.7688    0.0000 C   0  0  0  0  0  0  0  0  0
   -5.2539   -5.0543    0.0000 C   0  0  0  0  0  0  0  0  0
  1  2  1  0  0  0  0
  1  7  1  0  0  0  0
  2  3  1  0  0  0  0
  3  4  2  0  0  0  0
  3  5  1  0  0  0  0
  5  6  1  0  0  0  0
  5 31  1  0  0  0  0
  6  7  4  0  0  0  0
  6 11  4  0  0  0  0
  7  8  4  0  0  0  0
  8  9  4  0  0  0  0
  8 12  1  0  0  0  0
  9 10  4  0  0  0  0
 10 11  4  0  0  0  0
 12 13  1  0  0  0  0
 13 14  1  0  0  0  0
 14 15  1  0  0  0  0
 14 19  1  0  0  0  0
 15 16  1  0  0  0  0
 16 17  1  0  0  0  0
 17 18  1  0  0  0  0
 17 20  1  0  0  0  0
 18 19  1  0  0  0  0
 20 21  4  0  0  0  0
 20 30  4  0  0  0  0
 21 22  4  0  0  0  0
 21 26  4  0  0  0  0
 22 23  4  0  0  0  0
 22 28  4  0  0  0  0
 23 24  4  0  0  0  0
 24 25  4  0  0  0  0
 24 27  1  0  0  0  0
 25 26  4  0  0  0  0
 28 29  4  0  0  0  0
 29 30  4  0  0  0  0
 31 32  1  0  0  0  0
 32 33  1  0  0  0  0
 32 34  1  0  0  0  0
 33 34  1  0  0  0  0
M  END
>  <Name_Molregno>
521781

>  <5-HT1A>
9.2

>  <5-HT1B>
8.2

>  <5-HT1D>
9.5

>  <Serotonin transporter>
6.7

$$$$
521782
  Marvin  02231216192D 0   1.00000     0.00000     0

 34 38  0  0  0  0  0  0  0  0999 V2000
    4.1617   -6.0908    0.0000 F   0  0  0  0  0  0  0  0  0
    4.1617   -5.2658    0.0000 C   0  0  0  0  0  0  0  0  0
    3.4472   -4.8533    0.0000 F   0  0  0  0  0  0  0  0  0
    4.8761   -4.8533    0.0000 C   0  0  0  0  0  0  0  0  0
    4.8761   -4.0283    0.0000 N   0  0  0  0  0  0  0  0  0
    5.5906   -3.6158    0.0000 C   0  0  0  0  0  0  0  0  0
    5.5906   -2.7908    0.0000 C   0  0  0  0  0  0  0  0  0
    4.8761   -2.3783    0.0000 O   0  0  0  0  0  0  0  0  0
    4.1617   -2.7908    0.0000 C   0  0  0  0  0  0  0  0  0
    4.1617   -3.6158    0.0000 C   0  0  0  0  0  0  0  0  0
    3.4472   -4.0283    0.0000 O   0  0  0  0  0  0  0  0  0
    6.3051   -2.3783    0.0000 C   0  0  0  0  0  0  0  0  0
    7.0195   -2.7908    0.0000 C   0  0  0  0  0  0  0  0  0
    7.0195   -3.6158    0.0000 C   0  0  0  0  0  0  0  0  0
    6.3051   -4.0283    0.0000 C   0  0  0  0  0  0  0  0  0
    6.3051   -1.5533    0.0000 C   0  0  0  0  0  0  0  0  0
    5.5906   -1.1408    0.0000 C   0  0  0  0  0  0  0  0  0
    5.5906   -0.3158    0.0000 N   0  0  0  0  0  0  0  0  0
    4.8761    0.0967    0.0000 C   0  0  0  0  0  0  0  0  0
    4.8761    0.9217    0.0000 C   0  0  0  0  0  0  0  0  0
    5.5906    1.3342    0.0000 N   0  0  0  0  0  0  0  0  0
    6.3051    0.9217    0.0000 C   0  0  0  0  0  0  0  0  0
    6.3051    0.0967    0.0000 C   0  0  0  0  0  0  0  0  0
    5.5906    2.1592    0.0000 C   0  0  0  0  0  0  0  0  0
    6.3051    2.5717    0.0000 C   0  0  0  0  0  0  0  0  0
    6.3051    3.3967    0.0000 C   0  0  0  0  0  0  0  0  0
    7.0195    3.8092    0.0000 N   0  0  0  0  0  0  0  0  0
    7.7340    3.3967    0.0000 C   0  0  0  0  0  0  0  0  0
    7.7340    2.5717    0.0000 C   0  0  0  0  0  0  0  0  0
    7.0195    2.1592    0.0000 C   0  0  0  0  0  0  0  0  0
    8.4485    3.8092    0.0000 C   0  0  0  0  0  0  0  0  0
    5.5906    3.8092    0.0000 C   0  0  0  0  0  0  0  0  0
    4.8761    3.3967    0.0000 C   0  0  0  0  0  0  0  0  0
    4.8761    2.5717    0.0000 C   0  0  0  0  0  0  0  0  0
  1  2  1  0  0  0  0
  2  3  1  0  0  0  0
  2  4  1  0  0  0  0
  4  5  1  0  0  0  0
  5  6  1  0  0  0  0
  5 10  1  0  0  0  0
  6  7  4  0  0  0  0
  6 15  4  0  0  0  0
  7  8  1  0  0  0  0
  7 12  4  0  0  0  0
  8  9  1  0  0  0  0
  9 10  1  0  0  0  0
 10 11  2  0  0  0  0
 12 13  4  0  0  0  0
 12 16  1  0  0  0  0
 13 14  4  0  0  0  0
 14 15  4  0  0  0  0
 16 17  1  0  0  0  0
 17 18  1  0  0  0  0
 18 19  1  0  0  0  0
 18 23  1  0  0  0  0
 19 20  1  0  0  0  0
 20 21  1  0  0  0  0
 21 22  1  0  0  0  0
 21 24  1  0  0  0  0
 22 23  1  0  0  0  0
 24 25  4  0  0  0  0
 24 34  4  0  0  0  0
 25 26  4  0  0  0  0
 25 30  4  0  0  0  0
 26 27  4  0  0  0  0
 26 32  4  0  0  0  0
 27 28  4  0  0  0  0
 28 29  4  0  0  0  0
 28 31  1  0  0  0  0
 29 30  4  0  0  0  0
 32 33  4  0  0  0  0
 33 34  4  0  0  0  0
M  END
>  <Name_Molregno>
521782

>  <5-HT1A>
9.3

>  <5-HT1B>
7.8

>  <5-HT1D>
9.4

>  <Serotonin transporter>
7.2

$$$$
521849
  Marvin  02231216192D 0   1.00000     0.00000     0

 32 36  0  0  1  0  0  0  0  0999 V2000
   -3.0932   -3.9673    0.0000 O   0  0  0  0  0  0  0  0  0
   -3.8077   -4.3798    0.0000 C   0  0  0  0  0  0  0  0  0
   -3.8077   -5.2048    0.0000 C   0  0  0  0  0  0  0  0  0
   -4.5221   -5.6173    0.0000 O   0  0  0  0  0  0  0  0  0
   -3.0932   -5.6173    0.0000 N   0  0  0  0  0  0  0  0  0
   -2.3787   -5.2048    0.0000 C   0  0  0  0  0  0  0  0  0
   -2.3787   -4.3798    0.0000 C   0  0  0  0  0  0  0  0  0
   -1.6643   -3.9673    0.0000 C   0  0  0  0  0  0  0  0  0
   -0.9498   -4.3798    0.0000 C   0  0  0  0  0  0  0  0  0
   -0.9498   -5.2048    0.0000 C   0  0  0  0  0  0  0  0  0
   -1.6643   -5.6173    0.0000 C   0  0  0  0  0  0  0  0  0
   -1.6643   -3.1423    0.0000 C   0  0  0  0  0  0  0  0  0
   -2.3787   -2.7298    0.0000 C   0  0  0  0  0  0  0  0  0
   -2.3787   -1.9048    0.0000 N   0  0  0  0  0  0  0  0  0
   -3.0932   -1.4923    0.0000 C   0  0  0  0  0  0  0  0  0
   -3.0932   -0.6673    0.0000 C   0  0  0  0  0  0  0  0  0
   -2.3787   -0.2548    0.0000 N   0  0  0  0  0  0  0  0  0
   -1.6643   -0.6673    0.0000 C   0  0  0  0  0  0  0  0  0
   -1.6643   -1.4923    0.0000 C   0  0  0  0  0  0  0  0  0
   -0.9498   -1.9048    0.0000 C   0  0  0  0  0  0  0  0  0
   -2.3787    0.5702    0.0000 C   0  0  0  0  0  0  0  0  0
   -1.6643    0.9827    0.0000 C   0  0  0  0  0  0  0  0  0
   -1.6643    1.8077    0.0000 C   0  0  0  0  0  0  0  0  0
   -0.9498    2.2202    0.0000 N   0  0  0  0  0  0  0  0  0
   -0.2353    1.8077    0.0000 C   0  0  0  0  0  0  0  0  0
   -0.2353    0.9827    0.0000 C   0  0  0  0  0  0  0  0  0
   -0.9498    0.5702    0.0000 C   0  0  0  0  0  0  0  0  0
    0.4791    2.2202    0.0000 C   0  0  0  0  0  0  0  0  0
   -2.3787    2.2202    0.0000 C   0  0  0  0  0  0  0  0  0
   -3.0932    1.8077    0.0000 C   0  0  0  0  0  0  0  0  0
   -3.0932    0.9827    0.0000 C   0  0  0  0  0  0  0  0  0
   -3.0932   -6.4423    0.0000 C   0  0  0  0  0  0  0  0  0
  1  2  1  0  0  0  0
  1  7  1  0  0  0  0
  2  3  1  0  0  0  0
  3  4  2  0  0  0  0
  3  5  1  0  0  0  0
  5  6  1  0  0  0  0
  5 32  1  0  0  0  0
  6  7  4  0  0  0  0
  6 11  4  0  0  0  0
  7  8  4  0  0  0  0
  8  9  4  0  0  0  0
  8 12  1  0  0  0  0
  9 10  4  0  0  0  0
 10 11  4  0  0  0  0
 12 13  1  0  0  0  0
 13 14  1  0  0  0  0
 14 15  1  0  0  0  0
 14 19  1  0  0  0  0
 15 16  1  0  0  0  0
 16 17  1  0  0  0  0
 17 18  1  0  0  0  0
 17 21  1  0  0  0  0
 18 19  1  0  0  0  0
 19 20  1  0  0  0  0
 21 22  4  0  0  0  0
 21 31  4  0  0  0  0
 22 23  4  0  0  0  0
 22 27  4  0  0  0  0
 23 24  4  0  0  0  0
 23 29  4  0  0  0  0
 24 25  4  0  0  0  0
 25 26  4  0  0  0  0
 25 28  1  0  0  0  0
 26 27  4  0  0  0  0
 29 30  4  0  0  0  0
 30 31  4  0  0  0  0
M  END
>  <Name_Molregno>
521849

>  <5-HT1A>
9.45

>  <5-HT1B>
8.2

>  <5-HT1D>
9.1

>  <Serotonin transporter>
8.1

$$$$
521851
  Marvin  02231216192D 0   1.00000     0.00000     0

 32 36  0  0  0  0  0  0  0  0999 V2000
   -4.5546    1.1256    0.0000 F   0  0  0  0  0  0  0  0  0
   -3.8402    0.7131    0.0000 C   0  0  0  0  0  0  0  0  0
   -3.8402   -0.1119    0.0000 C   0  0  0  0  0  0  0  0  0
   -3.1257   -0.5244    0.0000 C   0  0  0  0  0  0  0  0  0
   -3.1257   -1.3494    0.0000 N   0  0  0  0  0  0  0  0  0
   -2.4112   -1.7619    0.0000 C   0  0  0  0  0  0  0  0  0
   -2.4112   -2.5869    0.0000 C   0  0  0  0  0  0  0  0  0
   -3.1257   -2.9994    0.0000 N   0  0  0  0  0  0  0  0  0
   -3.8402   -2.5869    0.0000 C   0  0  0  0  0  0  0  0  0
   -3.8402   -1.7619    0.0000 C   0  0  0  0  0  0  0  0  0
   -3.1257   -3.8244    0.0000 C   0  0  0  0  0  0  0  0  0
   -3.8402   -4.2369    0.0000 C   0  0  0  0  0  0  0  0  0
   -3.8402   -5.0619    0.0000 C   0  0  0  0  0  0  0  0  0
   -3.1257   -5.4744    0.0000 C   0  0  0  0  0  0  0  0  0
   -2.4112   -5.0619    0.0000 O   0  0  0  0  0  0  0  0  0
   -1.6968   -5.4744    0.0000 C   0  0  0  0  0  0  0  0  0
   -1.6968   -6.2994    0.0000 C   0  0  0  0  0  0  0  0  0
   -0.9823   -6.7119    0.0000 O   0  0  0  0  0  0  0  0  0
   -2.4112   -6.7119    0.0000 N   0  0  0  0  0  0  0  0  0
   -3.1257   -6.2994    0.0000 C   0  0  0  0  0  0  0  0  0
   -3.8402   -6.7119    0.0000 C   0  0  0  0  0  0  0  0  0
   -4.5546   -6.2994    0.0000 C   0  0  0  0  0  0  0  0  0
   -4.5546   -5.4744    0.0000 C   0  0  0  0  0  0  0  0  0
   -2.4112   -7.5369    0.0000 C   0  0  0  0  0  0  0  0  0
   -2.4112   -0.1119    0.0000 C   0  0  0  0  0  0  0  0  0
   -2.4112    0.7131    0.0000 C   0  0  0  0  0  0  0  0  0
   -1.6968    1.1256    0.0000 N   0  0  0  0  0  0  0  0  0
   -0.9823    0.7131    0.0000 C   0  0  0  0  0  0  0  0  0
   -0.9823   -0.1119    0.0000 C   0  0  0  0  0  0  0  0  0
   -1.6968   -0.5244    0.0000 C   0  0  0  0  0  0  0  0  0
   -0.2678    1.1256    0.0000 C   0  0  0  0  0  0  0  0  0
   -3.1257    1.1256    0.0000 C   0  0  0  0  0  0  0  0  0
  1  2  1  0  0  0  0
  2  3  4  0  0  0  0
  2 32  4  0  0  0  0
  3  4  4  0  0  0  0
  4  5  1  0  0  0  0
  4 25  4  0  0  0  0
  5  6  1  0  0  0  0
  5 10  1  0  0  0  0
  6  7  1  0  0  0  0
  7  8  1  0  0  0  0
  8  9  1  0  0  0  0
  8 11  1  0  0  0  0
  9 10  1  0  0  0  0
 11 12  1  0  0  0  0
 12 13  1  0  0  0  0
 13 14  4  0  0  0  0
 13 23  4  0  0  0  0
 14 15  1  0  0  0  0
 14 20  4  0  0  0  0
 15 16  1  0  0  0  0
 16 17  1  0  0  0  0
 17 18  2  0  0  0  0
 17 19  1  0  0  0  0
 19 20  1  0  0  0  0
 19 24  1  0  0  0  0
 20 21  4  0  0  0  0
 21 22  4  0  0  0  0
 22 23  4  0  0  0  0
 25 26  4  0  0  0  0
 25 30  4  0  0  0  0
 26 27  4  0  0  0  0
 26 32  4  0  0  0  0
 27 28  4  0  0  0  0
 28 29  4  0  0  0  0
 28 31  1  0  0  0  0
 29 30  4  0  0  0  0
M  END
>  <Name_Molregno>
521851

>  <5-HT1A>
9.7

>  <5-HT1B>
8.6

>  <5-HT1D>
10.1

>  <Serotonin transporter>
8.1

$$$$
521852
  Marvin  02231216192D 0   1.00000     0.00000     0

 33 37  0  0  1  0  0  0  0  0999 V2000
    0.9646    1.0748    0.0000 F   0  0  0  0  0  0  0  0  0
    1.6791    0.6623    0.0000 C   0  0  0  0  0  0  0  0  0
    1.6791   -0.1627    0.0000 C   0  0  0  0  0  0  0  0  0
    2.3936   -0.5752    0.0000 C   0  0  0  0  0  0  0  0  0
    2.3936   -1.4002    0.0000 N   0  0  0  0  0  0  0  0  0
    3.1080   -1.8127    0.0000 C   0  0  0  0  0  0  0  0  0
    3.1080   -2.6377    0.0000 C   0  0  0  0  0  0  0  0  0
    2.3936   -3.0502    0.0000 N   0  0  0  0  0  0  0  0  0
    1.6791   -2.6377    0.0000 C   0  0  0  0  0  0  0  0  0
    1.6791   -1.8127    0.0000 C   0  0  0  0  0  0  0  0  0
    2.3936   -3.8752    0.0000 C   0  0  0  0  0  0  0  0  0
    1.6791   -4.2877    0.0000 C   0  0  0  0  0  0  0  0  0
    1.6791   -5.1127    0.0000 C   0  0  0  0  0  0  0  0  0
    2.3936   -5.5252    0.0000 C   0  0  0  0  0  0  0  0  0
    3.1080   -5.1127    0.0000 O   0  0  0  0  0  0  0  0  0
    3.8225   -5.5252    0.0000 C   0  0  0  0  0  0  0  0  0
    3.8225   -6.3502    0.0000 C   0  0  0  0  0  0  0  0  0
    4.5370   -6.7627    0.0000 O   0  0  0  0  0  0  0  0  0
    3.1080   -6.7627    0.0000 N   0  0  0  0  0  0  0  0  0
    2.3936   -6.3502    0.0000 C   0  0  0  0  0  0  0  0  0
    1.6791   -6.7627    0.0000 C   0  0  0  0  0  0  0  0  0
    0.9646   -6.3502    0.0000 C   0  0  0  0  0  0  0  0  0
    0.9646   -5.5252    0.0000 C   0  0  0  0  0  0  0  0  0
    3.1080   -7.5877    0.0000 C   0  0  0  0  0  0  0  0  0
    3.8225   -3.0502    0.0000 C   0  0  0  0  0  0  0  0  0
    3.1080   -0.1627    0.0000 C   0  0  0  0  0  0  0  0  0
    3.1080    0.6623    0.0000 C   0  0  0  0  0  0  0  0  0
    3.8225    1.0748    0.0000 N   0  0  0  0  0  0  0  0  0
    4.5370    0.6623    0.0000 C   0  0  0  0  0  0  0  0  0
    4.5370   -0.1627    0.0000 C   0  0  0  0  0  0  0  0  0
    3.8225   -0.5752    0.0000 C   0  0  0  0  0  0  0  0  0
    5.2515    1.0748    0.0000 C   0  0  0  0  0  0  0  0  0
    2.3936    1.0748    0.0000 C   0  0  0  0  0  0  0  0  0
  1  2  1  0  0  0  0
  2  3  4  0  0  0  0
  2 33  4  0  0  0  0
  3  4  4  0  0  0  0
  4  5  1  0  0  0  0
  4 26  4  0  0  0  0
  5  6  1  0  0  0  0
  5 10  1  0  0  0  0
  6  7  1  0  0  0  0
  7  8  1  0  0  0  0
  7 25  1  0  0  0  0
  8  9  1  0  0  0  0
  8 11  1  0  0  0  0
  9 10  1  0  0  0  0
 11 12  1  0  0  0  0
 12 13  1  0  0  0  0
 13 14  4  0  0  0  0
 13 23  4  0  0  0  0
 14 15  1  0  0  0  0
 14 20  4  0  0  0  0
 15 16  1  0  0  0  0
 16 17  1  0  0  0  0
 17 18  2  0  0  0  0
 17 19  1  0  0  0  0
 19 20  1  0  0  0  0
 19 24  1  0  0  0  0
 20 21  4  0  0  0  0
 21 22  4  0  0  0  0
 22 23  4  0  0  0  0
 26 27  4  0  0  0  0
 26 31  4  0  0  0  0
 27 28  4  0  0  0  0
 27 33  4  0  0  0  0
 28 29  4  0  0  0  0
 29 30  4  0  0  0  0
 29 32  1  0  0  0  0
 30 31  4  0  0  0  0
M  END
>  <Name_Molregno>
521852

>  <5-HT1A>
9.7

>  <5-HT1B>
8.7

>  <5-HT1D>
9.5

>  <Serotonin transporter>
8.7

$$$$
521920
  Marvin  02231216192D 0   1.00000     0.00000     0

 33 37  0  0  0  0  0  0  0  0999 V2000
   -5.0946    3.2578    0.0000 F   0  0  0  0  0  0  0  0  0
   -4.3801    2.8453    0.0000 C   0  0  0  0  0  0  0  0  0
   -4.3801    2.0203    0.0000 C   0  0  0  0  0  0  0  0  0
   -3.6656    1.6078    0.0000 C   0  0  0  0  0  0  0  0  0
   -3.6656    0.7828    0.0000 N   0  0  0  0  0  0  0  0  0
   -2.9511    0.3703    0.0000 C   0  0  0  0  0  0  0  0  0
   -2.9511   -0.4547    0.0000 C   0  0  0  0  0  0  0  0  0
   -3.6656   -0.8672    0.0000 N   0  0  0  0  0  0  0  0  0
   -4.3801   -0.4547    0.0000 C   0  0  0  0  0  0  0  0  0
   -4.3801    0.3703    0.0000 C   0  0  0  0  0  0  0  0  0
   -3.6656   -1.6922    0.0000 C   0  0  0  0  0  0  0  0  0
   -4.3801   -2.1047    0.0000 C   0  0  0  0  0  0  0  0  0
   -4.3801   -2.9297    0.0000 C   0  0  0  0  0  0  0  0  0
   -5.0946   -3.3422    0.0000 C   0  0  0  0  0  0  0  0  0
   -5.0946   -4.1672    0.0000 C   0  0  0  0  0  0  0  0  0
   -4.3801   -4.5797    0.0000 O   0  0  0  0  0  0  0  0  0
   -4.3801   -5.4047    0.0000 C   0  0  0  0  0  0  0  0  0
   -5.0946   -5.8172    0.0000 C   0  0  0  0  0  0  0  0  0
   -5.0946   -6.6422    0.0000 O   0  0  0  0  0  0  0  0  0
   -5.8090   -5.4047    0.0000 N   0  0  0  0  0  0  0  0  0
   -5.8090   -4.5797    0.0000 C   0  0  0  0  0  0  0  0  0
   -6.5235   -4.1672    0.0000 C   0  0  0  0  0  0  0  0  0
   -6.5235   -3.3422    0.0000 C   0  0  0  0  0  0  0  0  0
   -5.8090   -2.9297    0.0000 C   0  0  0  0  0  0  0  0  0
   -6.5235   -5.8172    0.0000 C   0  0  0  0  0  0  0  0  0
   -2.9511    2.0203    0.0000 C   0  0  0  0  0  0  0  0  0
   -2.9511    2.8453    0.0000 C   0  0  0  0  0  0  0  0  0
   -2.2367    3.2578    0.0000 N   0  0  0  0  0  0  0  0  0
   -1.5222    2.8453    0.0000 C   0  0  0  0  0  0  0  0  0
   -1.5222    2.0203    0.0000 C   0  0  0  0  0  0  0  0  0
   -2.2367    1.6078    0.0000 C   0  0  0  0  0  0  0  0  0
   -0.8077    3.2578    0.0000 C   0  0  0  0  0  0  0  0  0
   -3.6656    3.2578    0.0000 C   0  0  0  0  0  0  0  0  0
  1  2  1  0  0  0  0
  2  3  4  0  0  0  0
  2 33  4  0  0  0  0
  3  4  4  0  0  0  0
  4  5  1  0  0  0  0
  4 26  4  0  0  0  0
  5  6  1  0  0  0  0
  5 10  1  0  0  0  0
  6  7  1  0  0  0  0
  7  8  1  0  0  0  0
  8  9  1  0  0  0  0
  8 11  1  0  0  0  0
  9 10  1  0  0  0  0
 11 12  1  0  0  0  0
 12 13  1  0  0  0  0
 13 14  1  0  0  0  0
 14 15  4  0  0  0  0
 14 24  4  0  0  0  0
 15 16  1  0  0  0  0
 15 21  4  0  0  0  0
 16 17  1  0  0  0  0
 17 18  1  0  0  0  0
 18 19  2  0  0  0  0
 18 20  1  0  0  0  0
 20 21  1  0  0  0  0
 20 25  1  0  0  0  0
 21 22  4  0  0  0  0
 22 23  4  0  0  0  0
 23 24  4  0  0  0  0
 26 27  4  0  0  0  0
 26 31  4  0  0  0  0
 27 28  4  0  0  0  0
 27 33  4  0  0  0  0
 28 29  4  0  0  0  0
 29 30  4  0  0  0  0
 29 32  1  0  0  0  0
 30 31  4  0  0  0  0
M  END
>  <Name_Molregno>
521920

>  <5-HT1A>
8.2

>  <5-HT1B>
6.1

>  <5-HT1D>
7.8

>  <Serotonin transporter>
9.5

$$$$
521921
  Marvin  02231216192D 0   1.00000     0.00000     0

 34 38  0  0  1  0  0  0  0  0999 V2000
   -5.1603    3.2583    0.0000 F   0  0  0  0  0  0  0  0  0
   -4.4458    2.8458    0.0000 C   0  0  0  0  0  0  0  0  0
   -4.4458    2.0208    0.0000 C   0  0  0  0  0  0  0  0  0
   -3.7314    1.6083    0.0000 C   0  0  0  0  0  0  0  0  0
   -3.7314    0.7833    0.0000 N   0  0  0  0  0  0  0  0  0
   -3.0169    0.3708    0.0000 C   0  0  0  0  0  0  0  0  0
   -3.0169   -0.4542    0.0000 C   0  0  0  0  0  0  0  0  0
   -3.7314   -0.8667    0.0000 N   0  0  0  0  0  0  0  0  0
   -4.4458   -0.4542    0.0000 C   0  0  0  0  0  0  0  0  0
   -4.4458    0.3708    0.0000 C   0  0  0  0  0  0  0  0  0
   -3.7314   -1.6917    0.0000 C   0  0  0  0  0  0  0  0  0
   -4.4458   -2.1042    0.0000 C   0  0  0  0  0  0  0  0  0
   -4.4458   -2.9292    0.0000 C   0  0  0  0  0  0  0  0  0
   -5.1603   -3.3417    0.0000 C   0  0  0  0  0  0  0  0  0
   -5.1603   -4.1667    0.0000 C   0  0  0  0  0  0  0  0  0
   -4.4458   -4.5792    0.0000 O   0  0  0  0  0  0  0  0  0
   -4.4458   -5.4042    0.0000 C   0  0  0  0  0  0  0  0  0
   -5.1603   -5.8167    0.0000 C   0  0  0  0  0  0  0  0  0
   -5.1603   -6.6417    0.0000 O   0  0  0  0  0  0  0  0  0
   -5.8748   -5.4042    0.0000 N   0  0  0  0  0  0  0  0  0
   -5.8748   -4.5792    0.0000 C   0  0  0  0  0  0  0  0  0
   -6.5893   -4.1667    0.0000 C   0  0  0  0  0  0  0  0  0
   -6.5893   -3.3417    0.0000 C   0  0  0  0  0  0  0  0  0
   -5.8748   -2.9292    0.0000 C   0  0  0  0  0  0  0  0  0
   -6.5893   -5.8167    0.0000 C   0  0  0  0  0  0  0  0  0
   -2.3024   -0.8667    0.0000 C   0  0  0  0  0  0  0  0  0
   -3.0169    2.0208    0.0000 C   0  0  0  0  0  0  0  0  0
   -3.0169    2.8458    0.0000 C   0  0  0  0  0  0  0  0  0
   -2.3024    3.2583    0.0000 N   0  0  0  0  0  0  0  0  0
   -1.5880    2.8458    0.0000 C   0  0  0  0  0  0  0  0  0
   -1.5880    2.0208    0.0000 C   0  0  0  0  0  0  0  0  0
   -2.3024    1.6083    0.0000 C   0  0  0  0  0  0  0  0  0
   -0.8735    3.2583    0.0000 C   0  0  0  0  0  0  0  0  0
   -3.7314    3.2583    0.0000 C   0  0  0  0  0  0  0  0  0
  1  2  1  0  0  0  0
  2  3  4  0  0  0  0
  2 34  4  0  0  0  0
  3  4  4  0  0  0  0
  4  5  1  0  0  0  0
  4 27  4  0  0  0  0
  5  6  1  0  0  0  0
  5 10  1  0  0  0  0
  6  7  1  0  0  0  0
  7  8  1  0  0  0  0
  7 26  1  0  0  0  0
  8  9  1  0  0  0  0
  8 11  1  0  0  0  0
  9 10  1  0  0  0  0
 11 12  1  0  0  0  0
 12 13  1  0  0  0  0
 13 14  1  0  0  0  0
 14 15  4  0  0  0  0
 14 24  4  0  0  0  0
 15 16  1  0  0  0  0
 15 21  4  0  0  0  0
 16 17  1  0  0  0  0
 17 18  1  0  0  0  0
 18 19  2  0  0  0  0
 18 20  1  0  0  0  0
 20 21  1  0  0  0  0
 20 25  1  0  0  0  0
 21 22  4  0  0  0  0
 22 23  4  0  0  0  0
 23 24  4  0  0  0  0
 27 28  4  0  0  0  0
 27 32  4  0  0  0  0
 28 29  4  0  0  0  0
 28 34  4  0  0  0  0
 29 30  4  0  0  0  0
 30 31  4  0  0  0  0
 30 33  1  0  0  0  0
 31 32  4  0  0  0  0
M  END
>  <Name_Molregno>
521921

>  <5-HT1A>
8.8

>  <5-HT1B>
6.8

>  <5-HT1D>
8.4

>  <Serotonin transporter>
9.1

$$$$
544880
  Marvin  02231216192D 0   1.00000     0.00000     0

 32 36  0  0  0  0  0  0  0  0999 V2000
   -0.5061    0.7118    0.0000 O   0  0  0  0  0  0  0  0  0
   -0.0936   -0.0027    0.0000 C   0  0  0  0  0  0  0  0  0
   -0.5061   -0.7172    0.0000 N   0  0  0  0  0  0  0  0  0
   -1.3311   -0.7172    0.0000 C   0  0  0  0  0  0  0  0  0
   -1.7436   -1.4316    0.0000 C   0  0  0  0  0  0  0  0  0
   -2.5686   -1.4316    0.0000 C   0  0  0  0  0  0  0  0  0
   -2.9811   -0.7172    0.0000 C   0  0  0  0  0  0  0  0  0
   -2.5686   -0.0027    0.0000 C   0  0  0  0  0  0  0  0  0
   -1.7436   -0.0027    0.0000 C   0  0  0  0  0  0  0  0  0
   -3.8061   -0.7172    0.0000 C   0  0  0  0  0  0  0  0  0
   -4.2186   -0.0027    0.0000 C   0  0  0  0  0  0  0  0  0
   -5.0436   -0.0027    0.0000 N   0  0  0  0  0  0  0  0  0
   -5.4561    0.7118    0.0000 C   0  0  0  0  0  0  0  0  0
   -6.2811    0.7118    0.0000 C   0  0  0  0  0  0  0  0  0
   -6.6936   -0.0027    0.0000 C   0  0  0  0  0  0  0  0  0
   -6.2811   -0.7172    0.0000 C   0  0  0  0  0  0  0  0  0
   -6.6936   -1.4316    0.0000 C   0  0  0  0  0  0  0  0  0
   -7.5186   -1.4316    0.0000 C   0  0  0  0  0  0  0  0  0
   -7.9311   -0.7172    0.0000 C   0  0  0  0  0  0  0  0  0
   -7.5186   -0.0027    0.0000 C   0  0  0  0  0  0  0  0  0
   -7.9311   -2.1461    0.0000 C   0  0  0  0  0  0  0  0  0
   -8.3436   -2.8606    0.0000 N   0  0  0  0  0  0  0  0  0
   -5.4561   -0.7172    0.0000 C   0  0  0  0  0  0  0  0  0
    0.7314   -0.0027    0.0000 C   0  0  0  0  0  0  0  0  0
    1.2163   -0.6701    0.0000 N   0  0  0  0  0  0  0  0  0
    2.0009   -0.4152    0.0000 C   0  0  0  0  0  0  0  0  0
    2.0009    0.4098    0.0000 C   0  0  0  0  0  0  0  0  0
    1.2163    0.6647    0.0000 C   0  0  0  0  0  0  0  0  0
    2.7154    0.8223    0.0000 C   0  0  0  0  0  0  0  0  0
    3.4298    0.4098    0.0000 C   0  0  0  0  0  0  0  0  0
    3.4298   -0.4152    0.0000 C   0  0  0  0  0  0  0  0  0
    2.7154   -0.8277    0.0000 C   0  0  0  0  0  0  0  0  0
  1  2  2  0  0  0  0
  2  3  1  0  0  0  0
  2 24  1  0  0  0  0
  3  4  1  0  0  0  0
  4  5  1  0  0  0  0
  4  9  1  0  0  0  0
  5  6  1  0  0  0  0
  6  7  1  0  0  0  0
  7  8  1  0  0  0  0
  7 10  1  0  0  0  0
  8  9  1  0  0  0  0
 10 11  1  0  0  0  0
 11 12  1  0  0  0  0
 12 13  1  0  0  0  0
 12 23  1  0  0  0  0
 13 14  1  0  0  0  0
 14 15  1  0  0  0  0
 15 16  4  0  0  0  0
 15 20  4  0  0  0  0
 16 17  4  0  0  0  0
 16 23  1  0  0  0  0
 17 18  4  0  0  0  0
 18 19  4  0  0  0  0
 18 21  1  0  0  0  0
 19 20  4  0  0  0  0
 21 22  3  0  0  0  0
 24 25  4  0  0  0  0
 24 28  4  0  0  0  0
 25 26  4  0  0  0  0
 26 27  4  0  0  0  0
 26 32  4  0  0  0  0
 27 28  4  0  0  0  0
 27 29  4  0  0  0  0
 29 30  4  0  0  0  0
 30 31  4  0  0  0  0
 31 32  4  0  0  0  0
M  STY  1   1 DAT
M  SAL   1  1  25
M  SDT   1 MRV_IMPLICIT_H                                        
M  SDD   1     0.0000    0.0000    DR    ALL  0       0  
M  SED   1 IMPL_H1
M  END
>  <Name_Molregno>
544880

>  <5-HT1B>
6.2

>  <5-HT1D>
7

>  <DOPAMINE D2>
7

>  <DOPAMINE D3>
8.7

$$$$
544978
  Marvin  02231216192D 0   1.00000     0.00000     0

 33 37  0  0  0  0  0  0  0  0999 V2000
    4.9151   -0.5168    0.0000 O   0  0  0  0  0  0  0  0  0
    4.9151    0.3082    0.0000 C   0  0  0  0  0  0  0  0  0
    4.2006    0.7207    0.0000 N   0  0  0  0  0  0  0  0  0
    3.4862    0.3082    0.0000 C   0  0  0  0  0  0  0  0  0
    3.4862   -0.5168    0.0000 C   0  0  0  0  0  0  0  0  0
    2.7717   -0.9293    0.0000 C   0  0  0  0  0  0  0  0  0
    2.0572   -0.5168    0.0000 C   0  0  0  0  0  0  0  0  0
    2.0572    0.3082    0.0000 C   0  0  0  0  0  0  0  0  0
    2.7717    0.7207    0.0000 C   0  0  0  0  0  0  0  0  0
    1.3427   -0.9293    0.0000 C   0  0  0  0  0  0  0  0  0
    0.6283   -0.5168    0.0000 C   0  0  0  0  0  0  0  0  0
   -0.0862   -0.9293    0.0000 N   0  0  0  0  0  0  0  0  0
   -0.0862   -1.7543    0.0000 C   0  0  0  0  0  0  0  0  0
   -0.8007   -2.1668    0.0000 C   0  0  0  0  0  0  0  0  0
   -1.5151   -1.7543    0.0000 C   0  0  0  0  0  0  0  0  0
   -2.2296   -2.1668    0.0000 C   0  0  0  0  0  0  0  0  0
   -2.9441   -1.7543    0.0000 C   0  0  0  0  0  0  0  0  0
   -2.9441   -0.9293    0.0000 C   0  0  0  0  0  0  0  0  0
   -2.2296   -0.5168    0.0000 C   0  0  0  0  0  0  0  0  0
   -1.5151   -0.9293    0.0000 C   0  0  0  0  0  0  0  0  0
   -0.8007   -0.5168    0.0000 C   0  0  0  0  0  0  0  0  0
   -3.6586   -2.1668    0.0000 C   0  0  0  0  0  0  0  0  0
   -4.3730   -2.5793    0.0000 N   0  0  0  0  0  0  0  0  0
    5.6296    0.7207    0.0000 C   0  0  0  0  0  0  0  0  0
    6.3440    0.3082    0.0000 C   0  0  0  0  0  0  0  0  0
    7.0585    0.7207    0.0000 C   0  0  0  0  0  0  0  0  0
    7.0585    1.5457    0.0000 C   0  0  0  0  0  0  0  0  0
    6.3440    1.9582    0.0000 C   0  0  0  0  0  0  0  0  0
    5.6296    1.5457    0.0000 C   0  0  0  0  0  0  0  0  0
    7.7730    1.9582    0.0000 C   0  0  0  0  0  0  0  0  0
    8.4875    1.5457    0.0000 C   0  0  0  0  0  0  0  0  0
    8.4875    0.7207    0.0000 C   0  0  0  0  0  0  0  0  0
    7.7730    0.3082    0.0000 C   0  0  0  0  0  0  0  0  0
  1  2  2  0  0  0  0
  2  3  1  0  0  0  0
  2 24  1  0  0  0  0
  3  4  1  0  0  0  0
  4  5  1  0  0  0  0
  4  9  1  0  0  0  0
  5  6  1  0  0  0  0
  6  7  1  0  0  0  0
  7  8  1  0  0  0  0
  7 10  1  0  0  0  0
  8  9  1  0  0  0  0
 10 11  1  0  0  0  0
 11 12  1  0  0  0  0
 12 13  1  0  0  0  0
 12 21  1  0  0  0  0
 13 14  1  0  0  0  0
 14 15  1  0  0  0  0
 15 16  4  0  0  0  0
 15 20  4  0  0  0  0
 16 17  4  0  0  0  0
 17 18  4  0  0  0  0
 17 22  1  0  0  0  0
 18 19  4  0  0  0  0
 19 20  4  0  0  0  0
 20 21  1  0  0  0  0
 22 23  3  0  0  0  0
 24 25  4  0  0  0  0
 24 29  4  0  0  0  0
 25 26  4  0  0  0  0
 26 27  4  0  0  0  0
 26 33  4  0  0  0  0
 27 28  4  0  0  0  0
 27 30  4  0  0  0  0
 28 29  4  0  0  0  0
 30 31  4  0  0  0  0
 31 32  4  0  0  0  0
 32 33  4  0  0  0  0
M  END
>  <Name_Molregno>
544978

>  <5-HT1B>
5

>  <5-HT1D>
7

>  <DOPAMINE D2>
5.8

>  <DOPAMINE D3>
8

$$$$
545009
  Marvin  02231216192D 0   1.00000     0.00000     0

 32 35  0  0  0  0  0  0  0  0999 V2000
    0.9192   -3.6514    0.0000 F   0  0  0  0  0  0  0  0  0
    1.6337   -3.2389    0.0000 C   0  0  0  0  0  0  0  0  0
    1.6337   -2.4139    0.0000 C   0  0  0  0  0  0  0  0  0
    2.3482   -2.0014    0.0000 C   0  0  0  0  0  0  0  0  0
    3.0626   -2.4139    0.0000 C   0  0  0  0  0  0  0  0  0
    3.0626   -3.2389    0.0000 C   0  0  0  0  0  0  0  0  0
    2.3482   -3.6514    0.0000 C   0  0  0  0  0  0  0  0  0
    3.7771   -2.0014    0.0000 C   0  0  0  0  0  0  0  0  0
    4.4916   -2.4139    0.0000 C   0  0  0  0  0  0  0  0  0
    5.2060   -2.0014    0.0000 C   0  0  0  0  0  0  0  0  0
    5.9205   -2.4139    0.0000 O   0  0  0  0  0  0  0  0  0
    5.2060   -1.1764    0.0000 N   0  0  0  0  0  0  0  0  0
    5.9205   -0.7639    0.0000 C   0  0  0  0  0  0  0  0  0
    5.9205    0.0611    0.0000 C   0  0  0  0  0  0  0  0  0
    6.6350    0.4736    0.0000 C   0  0  0  0  0  0  0  0  0
    7.3495    0.0611    0.0000 C   0  0  0  0  0  0  0  0  0
    7.3495   -0.7639    0.0000 C   0  0  0  0  0  0  0  0  0
    6.6350   -1.1764    0.0000 C   0  0  0  0  0  0  0  0  0
    8.0639    0.4736    0.0000 C   0  0  0  0  0  0  0  0  0
    8.0639    1.2986    0.0000 C   0  0  0  0  0  0  0  0  0
    8.7784    1.7111    0.0000 N   0  0  0  0  0  0  0  0  0
    8.7784    2.5361    0.0000 C   0  0  0  0  0  0  0  0  0
    9.4929    2.9486    0.0000 C   0  0  0  0  0  0  0  0  0
   10.2073    2.5361    0.0000 C   0  0  0  0  0  0  0  0  0
   10.9218    2.9486    0.0000 C   0  0  0  0  0  0  0  0  0
   11.6363    2.5361    0.0000 C   0  0  0  0  0  0  0  0  0
   11.6363    1.7111    0.0000 C   0  0  0  0  0  0  0  0  0
   10.9218    1.2986    0.0000 C   0  0  0  0  0  0  0  0  0
   10.2073    1.7111    0.0000 C   0  0  0  0  0  0  0  0  0
    9.4929    1.2986    0.0000 C   0  0  0  0  0  0  0  0  0
   12.3508    2.9486    0.0000 C   0  0  0  0  0  0  0  0  0
   13.0652    3.3611    0.0000 N   0  0  0  0  0  0  0  0  0
  1  2  1  0  0  0  0
  2  3  4  0  0  0  0
  2  7  4  0  0  0  0
  3  4  4  0  0  0  0
  4  5  4  0  0  0  0
  5  6  4  0  0  0  0
  5  8  1  0  0  0  0
  6  7  4  0  0  0  0
  8  9  2  0  0  0  0
  9 10  1  0  0  0  0
 10 11  2  0  0  0  0
 10 12  1  0  0  0  0
 12 13  1  0  0  0  0
 13 14  1  0  0  0  0
 13 18  1  0  0  0  0
 14 15  1  0  0  0  0
 15 16  1  0  0  0  0
 16 17  1  0  0  0  0
 16 19  1  0  0  0  0
 17 18  1  0  0  0  0
 19 20  1  0  0  0  0
 20 21  1  0  0  0  0
 21 22  1  0  0  0  0
 21 30  1  0  0  0  0
 22 23  1  0  0  0  0
 23 24  1  0  0  0  0
 24 25  4  0  0  0  0
 24 29  4  0  0  0  0
 25 26  4  0  0  0  0
 26 27  4  0  0  0  0
 26 31  1  0  0  0  0
 27 28  4  0  0  0  0
 28 29  4  0  0  0  0
 29 30  1  0  0  0  0
 31 32  3  0  0  0  0
M  END
>  <Name_Molregno>
545009

>  <5-HT1B>
5

>  <5-HT1D>
6.2

>  <DOPAMINE D2>
6.7

>  <DOPAMINE D3>
8.5

$$$$
545026
  Marvin  02231216192D 0   1.00000     0.00000     0

 30 33  0  0  0  0  0  0  0  0999 V2000
   -3.1708   -0.4729    0.0000 O   0  0  0  0  0  0  0  0  0
   -3.1708   -1.2979    0.0000 C   0  0  0  0  0  0  0  0  0
   -2.4563   -1.7104    0.0000 N   0  0  0  0  0  0  0  0  0
   -1.7419   -1.2979    0.0000 C   0  0  0  0  0  0  0  0  0
   -1.0274   -1.7104    0.0000 C   0  0  0  0  0  0  0  0  0
   -0.3129   -1.2979    0.0000 C   0  0  0  0  0  0  0  0  0
    0.4015   -1.7104    0.0000 C   0  0  0  0  0  0  0  0  0
    1.1160   -1.2979    0.0000 N   0  0  0  0  0  0  0  0  0
    1.8305   -1.7104    0.0000 C   0  0  0  0  0  0  0  0  0
    2.5450   -1.2979    0.0000 C   0  0  0  0  0  0  0  0  0
    2.5450   -0.4729    0.0000 C   0  0  0  0  0  0  0  0  0
    1.8305   -0.0604    0.0000 C   0  0  0  0  0  0  0  0  0
    1.8305    0.7646    0.0000 C   0  0  0  0  0  0  0  0  0
    2.5450    1.1771    0.0000 C   0  0  0  0  0  0  0  0  0
    3.2594    0.7646    0.0000 C   0  0  0  0  0  0  0  0  0
    3.2594   -0.0604    0.0000 C   0  0  0  0  0  0  0  0  0
    2.5450    2.0021    0.0000 C   0  0  0  0  0  0  0  0  0
    2.5450    2.8271    0.0000 N   0  0  0  0  0  0  0  0  0
    1.1160   -0.4729    0.0000 C   0  0  0  0  0  0  0  0  0
   -3.8853   -1.7104    0.0000 C   0  0  0  0  0  0  0  0  0
   -4.5997   -1.2979    0.0000 C   0  0  0  0  0  0  0  0  0
   -5.3142   -1.7104    0.0000 C   0  0  0  0  0  0  0  0  0
   -6.0679   -1.3749    0.0000 C   0  0  0  0  0  0  0  0  0
   -6.6199   -1.9880    0.0000 C   0  0  0  0  0  0  0  0  0
   -6.2074   -2.7025    0.0000 N   0  0  0  0  0  0  0  0  0
   -5.4005   -2.5309    0.0000 C   0  0  0  0  0  0  0  0  0
   -7.4269   -1.8165    0.0000 C   0  0  0  0  0  0  0  0  0
   -7.6818   -1.0318    0.0000 C   0  0  0  0  0  0  0  0  0
   -7.1298   -0.4187    0.0000 C   0  0  0  0  0  0  0  0  0
   -6.3228   -0.5903    0.0000 C   0  0  0  0  0  0  0  0  0
  1  2  2  0  0  0  0
  2  3  1  0  0  0  0
  2 20  1  0  0  0  0
  3  4  1  0  0  0  0
  4  5  1  0  0  0  0
  5  6  1  0  0  0  0
  6  7  1  0  0  0  0
  7  8  1  0  0  0  0
  8  9  1  0  0  0  0
  8 19  1  0  0  0  0
  9 10  1  0  0  0  0
 10 11  1  0  0  0  0
 11 12  4  0  0  0  0
 11 16  4  0  0  0  0
 12 13  4  0  0  0  0
 12 19  1  0  0  0  0
 13 14  4  0  0  0  0
 14 15  4  0  0  0  0
 14 17  1  0  0  0  0
 15 16  4  0  0  0  0
 17 18  3  0  0  0  0
 20 21  2  0  0  0  0
 21 22  1  0  0  0  0
 22 23  4  0  0  0  0
 22 26  4  0  0  0  0
 23 24  4  0  0  0  0
 23 30  4  0  0  0  0
 24 25  4  0  0  0  0
 24 27  4  0  0  0  0
 25 26  4  0  0  0  0
 27 28  4  0  0  0  0
 28 29  4  0  0  0  0
 29 30  4  0  0  0  0
M  STY  1   1 DAT
M  SAL   1  1  25
M  SDT   1 MRV_IMPLICIT_H                                        
M  SDD   1     0.0000    0.0000    DR    ALL  0       0  
M  SED   1 IMPL_H1
M  END
>  <Name_Molregno>
545026

>  <5-HT1B>
6.8

>  <5-HT1D>
6.6

>  <DOPAMINE D2>
6.1

>  <DOPAMINE D3>
7.9

$$$$
545036
  Marvin  02231216192D 0   1.00000     0.00000     0

 31 34  0  0  0  0  0  0  0  0999 V2000
    0.9434   -1.7541    0.0000 O   0  0  0  0  0  0  0  0  0
    0.2289   -1.3416    0.0000 C   0  0  0  0  0  0  0  0  0
    0.2289   -0.5166    0.0000 N   0  0  0  0  0  0  0  0  0
    0.9434   -0.1041    0.0000 C   0  0  0  0  0  0  0  0  0
    0.9434    0.7209    0.0000 C   0  0  0  0  0  0  0  0  0
    1.6578    1.1334    0.0000 C   0  0  0  0  0  0  0  0  0
    2.3723    0.7209    0.0000 C   0  0  0  0  0  0  0  0  0
    2.3723   -0.1041    0.0000 C   0  0  0  0  0  0  0  0  0
    1.6578   -0.5166    0.0000 C   0  0  0  0  0  0  0  0  0
    3.0868    1.1334    0.0000 C   0  0  0  0  0  0  0  0  0
    3.8012    0.7209    0.0000 C   0  0  0  0  0  0  0  0  0
    4.5157    1.1334    0.0000 N   0  0  0  0  0  0  0  0  0
    4.5157    1.9584    0.0000 C   0  0  0  0  0  0  0  0  0
    5.2302    2.3709    0.0000 C   0  0  0  0  0  0  0  0  0
    5.9447    1.9584    0.0000 C   0  0  0  0  0  0  0  0  0
    6.6591    2.3709    0.0000 C   0  0  0  0  0  0  0  0  0
    7.3736    1.9584    0.0000 C   0  0  0  0  0  0  0  0  0
    7.3736    1.1334    0.0000 C   0  0  0  0  0  0  0  0  0
    6.6591    0.7209    0.0000 C   0  0  0  0  0  0  0  0  0
    5.9447    1.1334    0.0000 C   0  0  0  0  0  0  0  0  0
    5.2302    0.7209    0.0000 C   0  0  0  0  0  0  0  0  0
    8.0881    2.3709    0.0000 C   0  0  0  0  0  0  0  0  0
    8.8025    2.7834    0.0000 N   0  0  0  0  0  0  0  0  0
   -0.4856   -1.7541    0.0000 C   0  0  0  0  0  0  0  0  0
   -0.4856   -2.5791    0.0000 C   0  0  0  0  0  0  0  0  0
   -1.2001   -2.9916    0.0000 C   0  0  0  0  0  0  0  0  0
   -1.2001   -3.8166    0.0000 C   0  0  0  0  0  0  0  0  0
   -1.9145   -4.2291    0.0000 C   0  0  0  0  0  0  0  0  0
   -2.6290   -3.8166    0.0000 C   0  0  0  0  0  0  0  0  0
   -2.6290   -2.9916    0.0000 C   0  0  0  0  0  0  0  0  0
   -1.9145   -2.5791    0.0000 C   0  0  0  0  0  0  0  0  0
  1  2  2  0  0  0  0
  2  3  1  0  0  0  0
  2 24  1  0  0  0  0
  3  4  1  0  0  0  0
  4  5  1  0  0  0  0
  4  9  1  0  0  0  0
  5  6  1  0  0  0  0
  6  7  1  0  0  0  0
  7  8  1  0  0  0  0
  7 10  1  0  0  0  0
  8  9  1  0  0  0  0
 10 11  1  0  0  0  0
 11 12  1  0  0  0  0
 12 13  1  0  0  0  0
 12 21  1  0  0  0  0
 13 14  1  0  0  0  0
 14 15  1  0  0  0  0
 15 16  4  0  0  0  0
 15 20  4  0  0  0  0
 16 17  4  0  0  0  0
 17 18  4  0  0  0  0
 17 22  1  0  0  0  0
 18 19  4  0  0  0  0
 19 20  4  0  0  0  0
 20 21  1  0  0  0  0
 22 23  3  0  0  0  0
 24 25  2  0  0  0  0
 25 26  1  0  0  0  0
 26 27  4  0  0  0  0
 26 31  4  0  0  0  0
 27 28  4  0  0  0  0
 28 29  4  0  0  0  0
 29 30  4  0  0  0  0
 30 31  4  0  0  0  0
M  END
>  <Name_Molregno>
545036

>  <5-HT1B>
6

>  <5-HT1D>
6.5

>  <DOPAMINE D2>
6.7

>  <DOPAMINE D3>
8.5

$$$$
545046
  Marvin  02231216192D 0   1.00000     0.00000     0

 31 34  0  0  0  0  0  0  0  0999 V2000
    0.2287   -0.0093    0.0000 O   0  0  0  0  0  0  0  0  0
    0.2287    0.8157    0.0000 C   0  0  0  0  0  0  0  0  0
    0.9431    1.2282    0.0000 N   0  0  0  0  0  0  0  0  0
    1.6576    0.8157    0.0000 C   0  0  0  0  0  0  0  0  0
    2.3721    1.2282    0.0000 C   0  0  0  0  0  0  0  0  0
    3.0865    0.8157    0.0000 C   0  0  0  0  0  0  0  0  0
    3.0865   -0.0093    0.0000 C   0  0  0  0  0  0  0  0  0
    2.3721   -0.4218    0.0000 C   0  0  0  0  0  0  0  0  0
    1.6576   -0.0093    0.0000 C   0  0  0  0  0  0  0  0  0
    3.8010   -0.4218    0.0000 C   0  0  0  0  0  0  0  0  0
    3.8010   -1.2468    0.0000 C   0  0  0  0  0  0  0  0  0
    4.5155   -1.6593    0.0000 N   0  0  0  0  0  0  0  0  0
    4.5155   -2.4843    0.0000 C   0  0  0  0  0  0  0  0  0
    5.2300   -2.8968    0.0000 C   0  0  0  0  0  0  0  0  0
    5.9444   -2.4843    0.0000 C   0  0  0  0  0  0  0  0  0
    5.9444   -1.6593    0.0000 C   0  0  0  0  0  0  0  0  0
    6.6589   -1.2468    0.0000 C   0  0  0  0  0  0  0  0  0
    7.3734   -1.6593    0.0000 C   0  0  0  0  0  0  0  0  0
    7.3734   -2.4843    0.0000 C   0  0  0  0  0  0  0  0  0
    6.6589   -2.8968    0.0000 C   0  0  0  0  0  0  0  0  0
    8.0878   -1.2468    0.0000 C   0  0  0  0  0  0  0  0  0
    8.8023   -0.8343    0.0000 N   0  0  0  0  0  0  0  0  0
    5.2300   -1.2468    0.0000 C   0  0  0  0  0  0  0  0  0
   -0.4858    1.2282    0.0000 C   0  0  0  0  0  0  0  0  0
   -1.2003    0.8157    0.0000 C   0  0  0  0  0  0  0  0  0
   -1.9148    1.2282    0.0000 C   0  0  0  0  0  0  0  0  0
   -2.6292    0.8157    0.0000 C   0  0  0  0  0  0  0  0  0
   -3.3437    1.2282    0.0000 C   0  0  0  0  0  0  0  0  0
   -3.3437    2.0532    0.0000 C   0  0  0  0  0  0  0  0  0
   -2.6292    2.4657    0.0000 C   0  0  0  0  0  0  0  0  0
   -1.9148    2.0532    0.0000 C   0  0  0  0  0  0  0  0  0
  1  2  2  0  0  0  0
  2  3  1  0  0  0  0
  2 24  1  0  0  0  0
  3  4  1  0  0  0  0
  4  5  1  0  0  0  0
  4  9  1  0  0  0  0
  5  6  1  0  0  0  0
  6  7  1  0  0  0  0
  7  8  1  0  0  0  0
  7 10  1  0  0  0  0
  8  9  1  0  0  0  0
 10 11  1  0  0  0  0
 11 12  1  0  0  0  0
 12 13  1  0  0  0  0
 12 23  1  0  0  0  0
 13 14  1  0  0  0  0
 14 15  1  0  0  0  0
 15 16  4  0  0  0  0
 15 20  4  0  0  0  0
 16 17  4  0  0  0  0
 16 23  1  0  0  0  0
 17 18  4  0  0  0  0
 18 19  4  0  0  0  0
 18 21  1  0  0  0  0
 19 20  4  0  0  0  0
 21 22  3  0  0  0  0
 24 25  2  0  0  0  0
 25 26  1  0  0  0  0
 26 27  4  0  0  0  0
 26 31  4  0  0  0  0
 27 28  4  0  0  0  0
 28 29  4  0  0  0  0
 29 30  4  0  0  0  0
 30 31  4  0  0  0  0
M  END
>  <Name_Molregno>
545046

>  <5-HT1B>
6.8

>  <5-HT1D>
7

>  <DOPAMINE D2>
6.8

>  <DOPAMINE D3>
8.9

$$$$
545052
  Marvin  02231216192D 0   1.00000     0.00000     0

 36 39  0  0  0  0  0  0  0  0999 V2000
  -10.6561    0.6018    0.0000 S   0  0  0  0  0  0  0  0  0
   -9.9416    0.1893    0.0000 O   0  0  0  0  0  0  0  0  0
   -9.2272    0.6018    0.0000 C   0  0  0  0  0  0  0  0  0
   -8.5127    0.1893    0.0000 C   0  0  0  0  0  0  0  0  0
   -7.7982    0.6018    0.0000 C   0  0  0  0  0  0  0  0  0
   -7.7982    1.4268    0.0000 C   0  0  0  0  0  0  0  0  0
   -7.0837    1.8393    0.0000 C   0  0  0  0  0  0  0  0  0
   -6.3693    1.4268    0.0000 C   0  0  0  0  0  0  0  0  0
   -6.3693    0.6018    0.0000 N   0  0  0  0  0  0  0  0  0
   -7.0837    0.1893    0.0000 C   0  0  0  0  0  0  0  0  0
   -5.6548    0.1893    0.0000 C   0  0  0  0  0  0  0  0  0
   -4.9403    0.6018    0.0000 C   0  0  0  0  0  0  0  0  0
   -4.2259    0.1893    0.0000 C   0  0  0  0  0  0  0  0  0
   -3.5114    0.6018    0.0000 C   0  0  0  0  0  0  0  0  0
   -2.7969    0.1893    0.0000 N   0  0  0  0  0  0  0  0  0
   -2.0824    0.6018    0.0000 C   0  0  0  0  0  0  0  0  0
   -2.0824    1.4268    0.0000 O   0  0  0  0  0  0  0  0  0
   -1.3680    0.1893    0.0000 C   0  0  0  0  0  0  0  0  0
   -1.3680   -0.6357    0.0000 C   0  0  0  0  0  0  0  0  0
   -0.6535   -1.0482    0.0000 C   0  0  0  0  0  0  0  0  0
   -0.5673   -1.8686    0.0000 C   0  0  0  0  0  0  0  0  0
    0.2397   -2.0402    0.0000 C   0  0  0  0  0  0  0  0  0
    0.6522   -1.3257    0.0000 N   0  0  0  0  0  0  0  0  0
    0.1002   -0.7126    0.0000 C   0  0  0  0  0  0  0  0  0
    0.4946   -2.8248    0.0000 C   0  0  0  0  0  0  0  0  0
   -0.0574   -3.4379    0.0000 C   0  0  0  0  0  0  0  0  0
   -0.8644   -3.2664    0.0000 C   0  0  0  0  0  0  0  0  0
   -1.1193   -2.4817    0.0000 C   0  0  0  0  0  0  0  0  0
   -8.5127    1.8393    0.0000 C   0  0  0  0  0  0  0  0  0
   -9.2272    1.4268    0.0000 C   0  0  0  0  0  0  0  0  0
  -10.2436    1.3163    0.0000 O   0  0  0  0  0  0  0  0  0
  -11.0686   -0.1126    0.0000 O   0  0  0  0  0  0  0  0  0
  -11.3706    1.0143    0.0000 C   0  0  0  0  0  0  0  0  0
  -12.0850    1.4268    0.0000 F   0  0  0  0  0  0  0  0  0
  -10.9581    1.7288    0.0000 F   0  0  0  0  0  0  0  0  0
  -11.7831    0.2999    0.0000 F   0  0  0  0  0  0  0  0  0
  1  2  1  0  0  0  0
  1 31  2  0  0  0  0
  1 32  2  0  0  0  0
  1 33  1  0  0  0  0
  2  3  1  0  0  0  0
  3  4  4  0  0  0  0
  3 30  4  0  0  0  0
  4  5  4  0  0  0  0
  5  6  4  0  0  0  0
  5 10  1  0  0  0  0
  6  7  1  0  0  0  0
  6 29  4  0  0  0  0
  7  8  1  0  0  0  0
  8  9  1  0  0  0  0
  9 10  1  0  0  0  0
  9 11  1  0  0  0  0
 11 12  1  0  0  0  0
 12 13  1  0  0  0  0
 13 14  1  0  0  0  0
 14 15  1  0  0  0  0
 15 16  1  0  0  0  0
 16 17  2  0  0  0  0
 16 18  1  0  0  0  0
 18 19  2  0  0  0  0
 19 20  1  0  0  0  0
 20 21  4  0  0  0  0
 20 24  4  0  0  0  0
 21 22  4  0  0  0  0
 21 28  4  0  0  0  0
 22 23  4  0  0  0  0
 22 25  4  0  0  0  0
 23 24  4  0  0  0  0
 25 26  4  0  0  0  0
 26 27  4  0  0  0  0
 27 28  4  0  0  0  0
 29 30  4  0  0  0  0
 33 34  1  0  0  0  0
 33 35  1  0  0  0  0
 33 36  1  0  0  0  0
M  STY  1   1 DAT
M  SAL   1  1  23
M  SDT   1 MRV_IMPLICIT_H                                        
M  SDD   1     0.0000    0.0000    DR    ALL  0       0  
M  SED   1 IMPL_H1
M  END
>  <Name_Molregno>
545052

>  <5-HT1B>
7

>  <5-HT1D>
7.2

>  <DOPAMINE D2>
6.2

>  <DOPAMINE D3>
8.4

$$$$
545108
  Marvin  02231216192D 0   1.00000     0.00000     0

 35 38  0  0  0  0  0  0  0  0999 V2000
    0.5158   -1.2108    0.0000 S   0  0  0  0  0  0  0  0  0
   -0.1987   -0.7983    0.0000 O   0  0  0  0  0  0  0  0  0
    0.1033   -1.9253    0.0000 O   0  0  0  0  0  0  0  0  0
    0.9283   -0.4964    0.0000 C   0  0  0  0  0  0  0  0  0
    1.2302   -1.6233    0.0000 C   0  0  0  0  0  0  0  0  0
    1.9447   -1.2108    0.0000 C   0  0  0  0  0  0  0  0  0
    2.6592   -1.6233    0.0000 C   0  0  0  0  0  0  0  0  0
    2.6592   -2.4483    0.0000 C   0  0  0  0  0  0  0  0  0
    1.9447   -2.8608    0.0000 C   0  0  0  0  0  0  0  0  0
    1.2302   -2.4483    0.0000 C   0  0  0  0  0  0  0  0  0
    3.3736   -1.2108    0.0000 C   0  0  0  0  0  0  0  0  0
    4.0881   -1.6233    0.0000 C   0  0  0  0  0  0  0  0  0
    4.8026   -1.2108    0.0000 C   0  0  0  0  0  0  0  0  0
    5.5171   -1.6233    0.0000 O   0  0  0  0  0  0  0  0  0
    4.8026   -0.3858    0.0000 N   0  0  0  0  0  0  0  0  0
    5.5171    0.0267    0.0000 C   0  0  0  0  0  0  0  0  0
    5.5171    0.8517    0.0000 C   0  0  0  0  0  0  0  0  0
    6.2315    1.2642    0.0000 C   0  0  0  0  0  0  0  0  0
    6.9460    0.8517    0.0000 C   0  0  0  0  0  0  0  0  0
    6.9460    0.0267    0.0000 C   0  0  0  0  0  0  0  0  0
    6.2315   -0.3858    0.0000 C   0  0  0  0  0  0  0  0  0
    7.6605    1.2642    0.0000 C   0  0  0  0  0  0  0  0  0
    7.6605    2.0892    0.0000 C   0  0  0  0  0  0  0  0  0
    8.3749    2.5017    0.0000 N   0  0  0  0  0  0  0  0  0
    8.3749    3.3267    0.0000 C   0  0  0  0  0  0  0  0  0
    9.0894    3.7392    0.0000 C   0  0  0  0  0  0  0  0  0
    9.8039    3.3267    0.0000 C   0  0  0  0  0  0  0  0  0
   10.5184    3.7392    0.0000 C   0  0  0  0  0  0  0  0  0
   11.2328    3.3267    0.0000 C   0  0  0  0  0  0  0  0  0
   11.2328    2.5017    0.0000 C   0  0  0  0  0  0  0  0  0
   10.5184    2.0892    0.0000 C   0  0  0  0  0  0  0  0  0
    9.8039    2.5017    0.0000 C   0  0  0  0  0  0  0  0  0
    9.0894    2.0892    0.0000 C   0  0  0  0  0  0  0  0  0
   11.9473    3.7392    0.0000 C   0  0  0  0  0  0  0  0  0
   12.6618    4.1517    0.0000 N   0  0  0  0  0  0  0  0  0
  1  2  2  0  0  0  0
  1  3  2  0  0  0  0
  1  4  1  0  0  0  0
  1  5  1  0  0  0  0
  5  6  4  0  0  0  0
  5 10  4  0  0  0  0
  6  7  4  0  0  0  0
  7  8  4  0  0  0  0
  7 11  1  0  0  0  0
  8  9  4  0  0  0  0
  9 10  4  0  0  0  0
 11 12  2  0  0  0  0
 12 13  1  0  0  0  0
 13 14  2  0  0  0  0
 13 15  1  0  0  0  0
 15 16  1  0  0  0  0
 16 17  1  0  0  0  0
 16 21  1  0  0  0  0
 17 18  1  0  0  0  0
 18 19  1  0  0  0  0
 19 20  1  0  0  0  0
 19 22  1  0  0  0  0
 20 21  1  0  0  0  0
 22 23  1  0  0  0  0
 23 24  1  0  0  0  0
 24 25  1  0  0  0  0
 24 33  1  0  0  0  0
 25 26  1  0  0  0  0
 26 27  1  0  0  0  0
 27 28  4  0  0  0  0
 27 32  4  0  0  0  0
 28 29  4  0  0  0  0
 29 30  4  0  0  0  0
 29 34  1  0  0  0  0
 30 31  4  0  0  0  0
 31 32  4  0  0  0  0
 32 33  1  0  0  0  0
 34 35  3  0  0  0  0
M  END
>  <Name_Molregno>
545108

>  <5-HT1B>
5.2

>  <5-HT1D>
5.4

>  <DOPAMINE D2>
6.5

>  <DOPAMINE D3>
8.3

$$$$
591110
  Marvin  02231216192D 0   1.00000     0.00000     0

 27 31  0  0  1  0  0  0  0  0999 V2000
    0.4188    1.2437    0.0000 O   0  0  0  0  0  0  0  0  0
   -0.3658    0.9887    0.0000 C   0  0  0  0  0  0  0  0  0
   -0.3658    0.1637    0.0000 C   0  0  0  0  0  0  0  0  0
    0.4188   -0.0912    0.0000 O   0  0  0  0  0  0  0  0  0
    0.9037    0.5762    0.0000 C   0  0  0  0  0  0  0  0  0
   -1.0803   -0.2488    0.0000 C   0  0  0  0  0  0  0  0  0
   -1.7947    0.1637    0.0000 C   0  0  0  0  0  0  0  0  0
   -2.5092   -0.2488    0.0000 C   0  0  0  0  0  0  0  0  0
   -3.2237    0.1637    0.0000 C   0  0  0  0  0  0  0  0  0
   -3.9382   -0.2488    0.0000 N   0  0  0  0  0  0  0  0  0
   -4.6526    0.1637    0.0000 C   0  0  0  0  0  0  0  0  0
   -4.6526    0.9887    0.0000 C   0  0  0  0  0  0  0  0  0
   -3.9382    1.4012    0.0000 C   0  0  0  0  0  0  0  0  0
   -3.9382    2.2262    0.0000 C   0  0  0  0  0  0  0  0  0
   -3.2237    2.6387    0.0000 C   0  0  0  0  0  0  0  0  0
   -3.2237    3.4637    0.0000 C   0  0  0  0  0  0  0  0  0
   -3.9382    3.8762    0.0000 O   0  0  0  0  0  0  0  0  0
   -2.5092    3.8762    0.0000 C   0  0  0  0  0  0  0  0  0
   -2.5092    2.2262    0.0000 C   0  0  0  0  0  0  0  0  0
   -2.5092    1.4012    0.0000 C   0  0  0  0  0  0  0  0  0
   -3.2237    0.9887    0.0000 C   0  0  0  0  0  0  0  0  0
   -1.7947    0.9887    0.0000 C   0  0  0  0  0  0  0  0  0
   -1.0803    1.4012    0.0000 C   0  0  0  0  0  0  0  0  0
   -1.7947    2.6387    0.0000 C   0  0  0  0  0  0  0  0  0
   -1.0803    2.2262    0.0000 O   0  0  0  0  0  0  0  0  0
   -1.7947    3.4637    0.0000 C   0  0  0  0  0  0  0  0  0
   -3.9382   -1.0738    0.0000 C   0  0  0  0  0  0  0  0  0
  1  2  1  0  0  0  0
  1  5  1  0  0  0  0
  2  3  4  0  0  0  0
  2 23  4  0  0  0  0
  3  4  1  0  0  0  0
  3  6  4  0  0  0  0
  4  5  1  0  0  0  0
  6  7  4  0  0  0  0
  7  8  1  0  0  0  0
  7 22  4  0  0  0  0
  8  9  1  0  0  0  0
  9 10  1  0  0  0  0
  9 21  1  0  0  0  0
 10 11  1  0  0  0  0
 10 27  1  0  0  0  0
 11 12  1  0  0  0  0
 12 13  1  0  0  0  0
 13 14  4  0  0  0  0
 13 21  4  0  0  0  0
 14 15  4  0  0  0  0
 15 16  1  0  0  0  0
 15 19  4  0  0  0  0
 16 17  2  0  0  0  0
 16 18  1  0  0  0  0
 19 20  4  0  0  0  0
 19 24  1  0  0  0  0
 20 21  4  0  0  0  0
 20 22  1  0  0  0  0
 22 23  4  0  0  0  0
 24 25  2  0  0  0  0
 24 26  1  0  0  0  0
M  END
>  <Name_Molregno>
591110

>  <5-HT1B>
7

>  <5-HT1D>
7.31

>  <5-HT1E>
5

>  <5-HT2A>
6.08

>  <5-HT2C>
5.97

>  <5-HT3>
5

>  <5-HT5>
5.65

>  <5-HT6>
6.59

>  <5-HT7>
7.17

>  <Alpha-1A>
8.7

>  <Alpha-1B>
5.92

>  <Alpha-2A>
5.89

>  <Alpha-2B>
6.6

>  <Alpha-2C>
6.74

>  <Beta-1>
5.07

>  <Beta-2>
5

>  <DOPAMINE D1>
6.05

>  <DOPAMINE D2>
6.07

>  <DOPAMINE D3>
6.51

>  <DOPAMINE D4>
6.58

>  <DOPAMINE D5>
5.62

>  <Dopamine transporter>
5

>  <HISTAMINE H1>
5

>  <HISTAMINE H2>
6.17

>  <HISTAMINE H3>
5

>  <HISTAMINE H4>
5

>  <Muscarinic acetylcholine receptor M1>
5

>  <Muscarinic acetylcholine receptor M2>
5

>  <Muscarinic acetylcholine receptor M3>
5

>  <Muscarinic acetylcholine receptor M4>
5

>  <Norepinephrine transporter>
5

>  <Serotonin transporter>
6.61

$$$$
593611
  Marvin  02231216192D 0   1.00000     0.00000     0

 23 25  0  0  1  0  0  0  0  0999 V2000
    2.4953   -1.7278    0.0000 O   0  0  0  0  0  0  0  0  0
    2.4953   -2.5528    0.0000 C   0  0  0  0  0  0  0  0  0
    1.7808   -2.9653    0.0000 C   0  0  0  0  0  0  0  0  0
    1.0664   -2.5528    0.0000 N   0  0  0  0  0  0  0  0  0
    1.0664   -1.7278    0.0000 C   0  0  0  0  0  0  0  0  0
    1.7808   -1.3153    0.0000 C   0  0  0  0  0  0  0  0  0
    1.7808   -0.4903    0.0000 C   0  0  0  0  0  0  0  0  0
    2.4953   -0.0778    0.0000 O   0  0  0  0  0  0  0  0  0
    2.4953    0.7472    0.0000 C   0  0  0  0  0  0  0  0  0
    1.7808    1.1597    0.0000 C   0  0  0  0  0  0  0  0  0
    1.7808    1.9847    0.0000 C   0  0  0  0  0  0  0  0  0
    2.4953    2.3972    0.0000 C   0  0  0  0  0  0  0  0  0
    3.2098    1.9847    0.0000 C   0  0  0  0  0  0  0  0  0
    3.2098    1.1597    0.0000 C   0  0  0  0  0  0  0  0  0
    3.9242    0.7472    0.0000 O   0  0  0  0  0  0  0  0  0
    3.9242   -0.0778    0.0000 C   0  0  0  0  0  0  0  0  0
    4.6387   -0.4903    0.0000 C   0  0  0  0  0  0  0  0  0
    1.0664   -0.0778    0.0000 C   0  0  0  0  0  0  0  0  0
    0.3519   -0.4903    0.0000 C   0  0  0  0  0  0  0  0  0
   -0.3626   -0.0778    0.0000 C   0  0  0  0  0  0  0  0  0
   -0.3626    0.7472    0.0000 C   0  0  0  0  0  0  0  0  0
    0.3519    1.1597    0.0000 C   0  0  0  0  0  0  0  0  0
    1.0664    0.7472    0.0000 C   0  0  0  0  0  0  0  0  0
  1  2  1  0  0  0  0
  1  6  1  0  0  0  0
  2  3  1  0  0  0  0
  3  4  1  0  0  0  0
  4  5  1  0  0  0  0
  5  6  1  0  0  0  0
  6  7  1  0  0  0  0
  7  8  1  0  0  0  0
  7 18  1  0  0  0  0
  8  9  1  0  0  0  0
  9 10  4  0  0  0  0
  9 14  4  0  0  0  0
 10 11  4  0  0  0  0
 11 12  4  0  0  0  0
 12 13  4  0  0  0  0
 13 14  4  0  0  0  0
 14 15  1  0  0  0  0
 15 16  1  0  0  0  0
 16 17  1  0  0  0  0
 18 19  4  0  0  0  0
 18 23  4  0  0  0  0
 19 20  4  0  0  0  0
 20 21  4  0  0  0  0
 21 22  4  0  0  0  0
 22 23  4  0  0  0  0
M  END
>  <Name_Molregno>
593611

>  <5-HT1A>
5

>  <5-HT1B>
5

>  <5-HT1D>
5

>  <5-HT2A>
5

>  <5-HT2C>
6.34

>  <Alpha-1A>
5

>  <Alpha-2A>
5

>  <DOPAMINE D2>
5

>  <DOPAMINE D3>
5

>  <Dopamine transporter>
5.12

>  <Norepinephrine transporter>
8.27

>  <Serotonin transporter>
6.28

$$$$
594448
  Marvin  02231216192D 0   1.00000     0.00000     0

 24 27  0  0  1  0  0  0  0  0999 V2000
   -0.1249   -0.5370    0.0000 O   0  0  0  0  0  0  0  0  0
    0.6852   -0.6929    0.0000 C   0  0  0  0  0  0  0  0  0
   -0.3950    0.2426    0.0000 C   0  0  0  0  0  0  0  0  0
   -1.2051    0.3985    0.0000 C   0  0  0  0  0  0  0  0  0
   -1.4751    1.1780    0.0000 C   0  0  0  0  0  0  0  0  0
   -2.2853    1.3340    0.0000 C   0  0  0  0  0  0  0  0  0
   -2.8254    0.7103    0.0000 C   0  0  0  0  0  0  0  0  0
   -2.5553   -0.0692    0.0000 N   0  0  0  0  0  0  0  0  0
   -1.7452   -0.2251    0.0000 C   0  0  0  0  0  0  0  0  0
   -3.0954   -0.6929    0.0000 C   0  0  0  0  0  0  0  0  0
   -3.9055   -0.5370    0.0000 C   0  0  0  0  0  0  0  0  0
   -4.1756    0.2426    0.0000 C   0  0  0  0  0  0  0  0  0
   -4.9857    0.3985    0.0000 C   0  0  0  0  0  0  0  0  0
   -5.2558    1.1780    0.0000 C   0  0  0  0  0  0  0  0  0
   -6.0659    1.3340    0.0000 O   0  0  0  0  0  0  0  0  0
   -6.6060    0.7103    0.0000 C   0  0  0  0  0  0  0  0  0
   -4.7157    1.8017    0.0000 C   0  0  0  0  0  0  0  0  0
   -4.9857    2.5812    0.0000 O   0  0  0  0  0  0  0  0  0
   -3.9055    1.6458    0.0000 C   0  0  0  0  0  0  0  0  0
   -3.6355    0.8662    0.0000 C   0  0  0  0  0  0  0  0  0
   -0.9351    1.8017    0.0000 C   0  0  0  0  0  0  0  0  0
   -0.1249    1.6458    0.0000 C   0  0  0  0  0  0  0  0  0
    0.1451    0.8662    0.0000 C   0  0  0  0  0  0  0  0  0
    0.9553    0.7103    0.0000 O   0  0  0  0  0  0  0  0  0
  1  2  1  0  0  0  0
  1  3  1  0  0  0  0
  3  4  4  0  0  0  0
  3 23  4  0  0  0  0
  4  5  4  0  0  0  0
  4  9  1  0  0  0  0
  5  6  1  0  0  0  0
  5 21  4  0  0  0  0
  6  7  1  0  0  0  0
  7  8  1  0  0  0  0
  7 20  1  0  0  0  0
  8  9  1  0  0  0  0
  8 10  1  0  0  0  0
 10 11  1  0  0  0  0
 11 12  1  0  0  0  0
 12 13  4  0  0  0  0
 12 20  4  0  0  0  0
 13 14  4  0  0  0  0
 14 15  1  0  0  0  0
 14 17  4  0  0  0  0
 15 16  1  0  0  0  0
 17 18  1  0  0  0  0
 17 19  4  0  0  0  0
 19 20  4  0  0  0  0
 21 22  4  0  0  0  0
 22 23  4  0  0  0  0
 23 24  1  0  0  0  0
M  END
>  <Name_Molregno>
594448

>  <5-HT1A>
6.84

>  <5-HT1B>
5.16

>  <5-HT1D>
5

>  <5-HT1E>
5

>  <5-HT2A>
5

>  <5-HT3>
5

>  <5-HT5>
5

>  <5-HT6>
5

>  <5-HT7>
5

>  <Alpha-1A>
5

>  <Alpha-1B>
5

>  <Alpha-2A>
5

>  <Alpha-2B>
5.16

>  <Alpha-2C>
6.67

>  <Beta-1>
5

>  <Beta-2>
5

>  <DOPAMINE D1>
8.23

>  <DOPAMINE D2>
6.01

>  <DOPAMINE D4>
5.43

>  <DOPAMINE D5>
8.36

>  <Dopamine transporter>
5

>  <HISTAMINE H1>
5

>  <HISTAMINE H2>
5

>  <HISTAMINE H4>
5

>  <Muscarinic acetylcholine receptor M2>
5

>  <Muscarinic acetylcholine receptor M5>
5

>  <Norepinephrine transporter>
5

>  <Serotonin transporter>
5

$$$$
594617
  Marvin  02231216192D 0   1.00000     0.00000     0

 26 29  0  0  1  0  0  0  0  0999 V2000
   -0.4854   -0.6621    0.0000 I   0  0  0  0  0  0  0  0  0
    0.2291   -1.0746    0.0000 C   0  0  0  0  0  0  0  0  0
    0.9436   -0.6621    0.0000 C   0  0  0  0  0  0  0  0  0
    1.6580   -1.0746    0.0000 C   0  0  0  0  0  0  0  0  0
    1.6580   -1.8996    0.0000 C   0  0  0  0  0  0  0  0  0
    0.9436   -2.3121    0.0000 C   0  0  0  0  0  0  0  0  0
    0.2291   -1.8996    0.0000 C   0  0  0  0  0  0  0  0  0
   -0.4854   -2.3121    0.0000 S   0  0  0  0  0  0  0  0  0
   -0.8979   -1.5976    0.0000 O   0  0  0  0  0  0  0  0  0
   -0.0729   -3.0266    0.0000 O   0  0  0  0  0  0  0  0  0
   -1.1998   -2.7246    0.0000 N   0  0  0  0  0  0  0  0  0
   -1.9143   -2.3121    0.0000 C   0  0  0  0  0  0  0  0  0
   -2.6288   -2.7246    0.0000 C   0  0  0  0  0  0  0  0  0
   -3.3433   -2.3121    0.0000 C   0  0  0  0  0  0  0  0  0
   -3.3433   -1.4871    0.0000 C   0  0  0  0  0  0  0  0  0
   -4.1279   -1.2321    0.0000 N   0  0  0  0  0  0  0  0  0
   -4.6128   -1.8996    0.0000 C   0  0  0  0  0  0  0  0  0
   -4.1279   -2.5670    0.0000 C   0  0  0  0  0  0  0  0  0
   -4.3828   -3.3516    0.0000 C   0  0  0  0  0  0  0  0  0
   -5.1898   -3.5232    0.0000 C   0  0  0  0  0  0  0  0  0
   -5.5254   -4.2768    0.0000 N   0  0  0  0  0  0  0  0  0
   -6.3458   -4.1906    0.0000 C   0  0  0  0  0  0  0  0  0
   -6.5174   -3.3836    0.0000 C   0  0  0  0  0  0  0  0  0
   -5.8029   -2.9711    0.0000 C   0  0  0  0  0  0  0  0  0
   -2.6288   -1.0746    0.0000 C   0  0  0  0  0  0  0  0  0
   -1.9143   -1.4871    0.0000 C   0  0  0  0  0  0  0  0  0
  1  2  1  0  0  0  0
  2  3  4  0  0  0  0
  2  7  4  0  0  0  0
  3  4  4  0  0  0  0
  4  5  4  0  0  0  0
  5  6  4  0  0  0  0
  6  7  4  0  0  0  0
  7  8  1  0  0  0  0
  8  9  2  0  0  0  0
  8 10  2  0  0  0  0
  8 11  1  0  0  0  0
 11 12  1  0  0  0  0
 12 13  4  0  0  0  0
 12 26  4  0  0  0  0
 13 14  4  0  0  0  0
 14 15  4  0  0  0  0
 14 18  4  0  0  0  0
 15 16  4  0  0  0  0
 15 25  4  0  0  0  0
 16 17  4  0  0  0  0
 17 18  4  0  0  0  0
 18 19  1  0  0  0  0
 19 20  1  0  0  0  0
 20 21  1  0  0  0  0
 20 24  1  0  0  0  0
 21 22  1  0  0  0  0
 22 23  1  0  0  0  0
 23 24  1  0  0  0  0
 25 26  4  0  0  0  0
M  STY  1   1 DAT
M  SAL   1  1  16
M  SDT   1 MRV_IMPLICIT_H                                        
M  SDD   1     0.0000    0.0000    DR    ALL  0       0  
M  SED   1 IMPL_H1
M  END
>  <Name_Molregno>
594617

>  <5-HT1A>
6.63

>  <5-HT1B>
8.03

>  <5-HT1D>
7.19

>  <5-HT2C>
6.63

>  <5-HT6>
9

>  <5-HT7>
6.48

>  <DOPAMINE D2>
5.7

>  <DOPAMINE D3>
5.3

>  <DOPAMINE D4>
5.3

$$$$
609001
  Marvin  02231216192D 0   1.00000     0.00000     0

 26 29  0  0  1  0  0  0  0  0999 V2000
   -0.4854   -0.6621    0.0000 Cl  0  0  0  0  0  0  0  0  0
    0.2291   -1.0746    0.0000 C   0  0  0  0  0  0  0  0  0
    0.9436   -0.6621    0.0000 C   0  0  0  0  0  0  0  0  0
    1.6580   -1.0746    0.0000 C   0  0  0  0  0  0  0  0  0
    1.6580   -1.8996    0.0000 C   0  0  0  0  0  0  0  0  0
    0.9436   -2.3121    0.0000 C   0  0  0  0  0  0  0  0  0
    0.2291   -1.8996    0.0000 C   0  0  0  0  0  0  0  0  0
   -0.4854   -2.3121    0.0000 S   0  0  0  0  0  0  0  0  0
   -0.8979   -1.5976    0.0000 O   0  0  0  0  0  0  0  0  0
   -0.0729   -3.0266    0.0000 O   0  0  0  0  0  0  0  0  0
   -1.1998   -2.7246    0.0000 N   0  0  0  0  0  0  0  0  0
   -1.9143   -2.3121    0.0000 C   0  0  0  0  0  0  0  0  0
   -2.6288   -2.7246    0.0000 C   0  0  0  0  0  0  0  0  0
   -3.3433   -2.3121    0.0000 C   0  0  0  0  0  0  0  0  0
   -3.3433   -1.4871    0.0000 C   0  0  0  0  0  0  0  0  0
   -4.1279   -1.2321    0.0000 N   0  0  0  0  0  0  0  0  0
   -4.6128   -1.8996    0.0000 C   0  0  0  0  0  0  0  0  0
   -4.1279   -2.5670    0.0000 C   0  0  0  0  0  0  0  0  0
   -4.3828   -3.3516    0.0000 C   0  0  0  0  0  0  0  0  0
   -5.1898   -3.5232    0.0000 C   0  0  0  0  0  0  0  0  0
   -5.5254   -4.2768    0.0000 N   0  0  0  0  0  0  0  0  0
   -6.3458   -4.1906    0.0000 C   0  0  0  0  0  0  0  0  0
   -6.5174   -3.3836    0.0000 C   0  0  0  0  0  0  0  0  0
   -5.8029   -2.9711    0.0000 C   0  0  0  0  0  0  0  0  0
   -2.6288   -1.0746    0.0000 C   0  0  0  0  0  0  0  0  0
   -1.9143   -1.4871    0.0000 C   0  0  0  0  0  0  0  0  0
  1  2  1  0  0  0  0
  2  3  4  0  0  0  0
  2  7  4  0  0  0  0
  3  4  4  0  0  0  0
  4  5  4  0  0  0  0
  5  6  4  0  0  0  0
  6  7  4  0  0  0  0
  7  8  1  0  0  0  0
  8  9  2  0  0  0  0
  8 10  2  0  0  0  0
  8 11  1  0  0  0  0
 11 12  1  0  0  0  0
 12 13  4  0  0  0  0
 12 26  4  0  0  0  0
 13 14  4  0  0  0  0
 14 15  4  0  0  0  0
 14 18  4  0  0  0  0
 15 16  4  0  0  0  0
 15 25  4  0  0  0  0
 16 17  4  0  0  0  0
 17 18  4  0  0  0  0
 18 19  1  0  0  0  0
 19 20  1  0  0  0  0
 20 21  1  0  0  0  0
 20 24  1  0  0  0  0
 21 22  1  0  0  0  0
 22 23  1  0  0  0  0
 23 24  1  0  0  0  0
 25 26  4  0  0  0  0
M  STY  1   1 DAT
M  SAL   1  1  16
M  SDT   1 MRV_IMPLICIT_H                                        
M  SDD   1     0.0000    0.0000    DR    ALL  0       0  
M  SED   1 IMPL_H1
M  END
>  <Name_Molregno>
609001

>  <5-HT1A>
6.26

>  <5-HT1B>
7.06

>  <5-HT1D>
6

>  <5-HT2C>
6.25

>  <5-HT6>
8.52

>  <DOPAMINE D2>
5.3

>  <DOPAMINE D3>
5.3

>  <DOPAMINE D4>
5.3

$$$$
610059
  Marvin  02231216192D 0   1.00000     0.00000     0

 27 30  0  0  1  0  0  0  0  0999 V2000
   -0.5134   -0.5339    0.0000 Cl  0  0  0  0  0  0  0  0  0
    0.2011   -0.9464    0.0000 C   0  0  0  0  0  0  0  0  0
    0.9155   -0.5339    0.0000 C   0  0  0  0  0  0  0  0  0
    1.6300   -0.9464    0.0000 C   0  0  0  0  0  0  0  0  0
    1.6300   -1.7714    0.0000 C   0  0  0  0  0  0  0  0  0
    0.9155   -2.1839    0.0000 C   0  0  0  0  0  0  0  0  0
    0.2011   -1.7714    0.0000 C   0  0  0  0  0  0  0  0  0
   -0.5134   -2.1839    0.0000 S   0  0  0  0  0  0  0  0  0
   -0.9259   -1.4694    0.0000 O   0  0  0  0  0  0  0  0  0
   -0.1009   -2.8983    0.0000 O   0  0  0  0  0  0  0  0  0
   -1.2279   -2.5964    0.0000 N   0  0  0  0  0  0  0  0  0
   -1.9424   -2.1839    0.0000 C   0  0  0  0  0  0  0  0  0
   -2.6568   -2.5964    0.0000 C   0  0  0  0  0  0  0  0  0
   -3.3713   -2.1839    0.0000 C   0  0  0  0  0  0  0  0  0
   -3.3713   -1.3589    0.0000 C   0  0  0  0  0  0  0  0  0
   -4.1559   -1.1039    0.0000 N   0  0  0  0  0  0  0  0  0
   -4.6408   -1.7714    0.0000 C   0  0  0  0  0  0  0  0  0
   -4.1559   -2.4388    0.0000 C   0  0  0  0  0  0  0  0  0
   -4.4109   -3.2234    0.0000 C   0  0  0  0  0  0  0  0  0
   -5.2178   -3.3950    0.0000 C   0  0  0  0  0  0  0  0  0
   -5.5534   -4.1486    0.0000 N   0  0  0  0  0  0  0  0  0
   -6.3739   -4.0624    0.0000 C   0  0  0  0  0  0  0  0  0
   -6.5454   -3.2554    0.0000 C   0  0  0  0  0  0  0  0  0
   -5.8309   -2.8429    0.0000 C   0  0  0  0  0  0  0  0  0
   -5.1409   -4.8631    0.0000 C   0  0  0  0  0  0  0  0  0
   -2.6568   -0.9464    0.0000 C   0  0  0  0  0  0  0  0  0
   -1.9424   -1.3589    0.0000 C   0  0  0  0  0  0  0  0  0
  1  2  1  0  0  0  0
  2  3  4  0  0  0  0
  2  7  4  0  0  0  0
  3  4  4  0  0  0  0
  4  5  4  0  0  0  0
  5  6  4  0  0  0  0
  6  7  4  0  0  0  0
  7  8  1  0  0  0  0
  8  9  2  0  0  0  0
  8 10  2  0  0  0  0
  8 11  1  0  0  0  0
 11 12  1  0  0  0  0
 12 13  4  0  0  0  0
 12 27  4  0  0  0  0
 13 14  4  0  0  0  0
 14 15  4  0  0  0  0
 14 18  4  0  0  0  0
 15 16  4  0  0  0  0
 15 26  4  0  0  0  0
 16 17  4  0  0  0  0
 17 18  4  0  0  0  0
 18 19  1  0  0  0  0
 19 20  1  0  0  0  0
 20 21  1  0  0  0  0
 20 24  1  0  0  0  0
 21 22  1  0  0  0  0
 21 25  1  0  0  0  0
 22 23  1  0  0  0  0
 23 24  1  0  0  0  0
 26 27  4  0  0  0  0
M  STY  1   1 DAT
M  SAL   1  1  16
M  SDT   1 MRV_IMPLICIT_H                                        
M  SDD   1     0.0000    0.0000    DR    ALL  0       0  
M  SED   1 IMPL_H1
M  END
>  <Name_Molregno>
610059

>  <5-HT1A>
6.77

>  <5-HT1B>
7.82

>  <5-HT1D>
7.53

>  <5-HT2A>
6.44

>  <5-HT2C>
6.54

>  <5-HT6>
8.33

>  <5-HT7>
7.13

>  <DOPAMINE D2>
5.7

>  <DOPAMINE D3>
6

>  <DOPAMINE D4>
5.3

$$$$
610060
  Marvin  02231216192D 0   1.00000     0.00000     0

 27 30  0  0  1  0  0  0  0  0999 V2000
    9.2263   -0.0100    0.0000 Cl  0  0  0  0  0  0  0  0  0
    8.5119    0.4025    0.0000 C   0  0  0  0  0  0  0  0  0
    7.7974   -0.0100    0.0000 C   0  0  0  0  0  0  0  0  0
    7.0829    0.4025    0.0000 C   0  0  0  0  0  0  0  0  0
    6.3685   -0.0100    0.0000 S   0  0  0  0  0  0  0  0  0
    5.9560    0.7045    0.0000 O   0  0  0  0  0  0  0  0  0
    6.7810   -0.7245    0.0000 O   0  0  0  0  0  0  0  0  0
    5.6540   -0.4225    0.0000 N   0  0  0  0  0  0  0  0  0
    4.9395   -0.0100    0.0000 C   0  0  0  0  0  0  0  0  0
    4.2250   -0.4225    0.0000 C   0  0  0  0  0  0  0  0  0
    3.5106   -0.0100    0.0000 C   0  0  0  0  0  0  0  0  0
    3.5106    0.8150    0.0000 C   0  0  0  0  0  0  0  0  0
    2.7260    1.0699    0.0000 N   0  0  0  0  0  0  0  0  0
    2.2410    0.4025    0.0000 C   0  0  0  0  0  0  0  0  0
    2.7260   -0.2649    0.0000 C   0  0  0  0  0  0  0  0  0
    2.4710   -1.0496    0.0000 C   0  0  0  0  0  0  0  0  0
    1.6640   -1.2211    0.0000 C   0  0  0  0  0  0  0  0  0
    1.3285   -1.9748    0.0000 N   0  0  0  0  0  0  0  0  0
    0.5080   -1.8885    0.0000 C   0  0  0  0  0  0  0  0  0
    0.3365   -1.0816    0.0000 C   0  0  0  0  0  0  0  0  0
    1.0509   -0.6691    0.0000 C   0  0  0  0  0  0  0  0  0
    1.7410   -2.6892    0.0000 C   0  0  0  0  0  0  0  0  0
    4.2250    1.2275    0.0000 C   0  0  0  0  0  0  0  0  0
    4.9395    0.8150    0.0000 C   0  0  0  0  0  0  0  0  0
    7.0829    1.2275    0.0000 C   0  0  0  0  0  0  0  0  0
    7.7974    1.6400    0.0000 C   0  0  0  0  0  0  0  0  0
    8.5119    1.2275    0.0000 C   0  0  0  0  0  0  0  0  0
  1  2  1  0  0  0  0
  2  3  4  0  0  0  0
  2 27  4  0  0  0  0
  3  4  4  0  0  0  0
  4  5  1  0  0  0  0
  4 25  4  0  0  0  0
  5  6  2  0  0  0  0
  5  7  2  0  0  0  0
  5  8  1  0  0  0  0
  8  9  1  0  0  0  0
  9 10  4  0  0  0  0
  9 24  4  0  0  0  0
 10 11  4  0  0  0  0
 11 12  4  0  0  0  0
 11 15  4  0  0  0  0
 12 13  4  0  0  0  0
 12 23  4  0  0  0  0
 13 14  4  0  0  0  0
 14 15  4  0  0  0  0
 15 16  1  0  0  0  0
 16 17  1  0  0  0  0
 17 18  1  0  0  0  0
 17 21  1  0  0  0  0
 18 19  1  0  0  0  0
 18 22  1  0  0  0  0
 19 20  1  0  0  0  0
 20 21  1  0  0  0  0
 23 24  4  0  0  0  0
 25 26  4  0  0  0  0
 26 27  4  0  0  0  0
M  STY  1   1 DAT
M  SAL   1  1  13
M  SDT   1 MRV_IMPLICIT_H                                        
M  SDD   1     0.0000    0.0000    DR    ALL  0       0  
M  SED   1 IMPL_H1
M  END
>  <Name_Molregno>
610060

>  <5-HT1A>
6.7

>  <5-HT1B>
8.37

>  <5-HT1D>
8.33

>  <5-HT2A>
6.57

>  <5-HT2C>
6.64

>  <5-HT6>
8.68

>  <5-HT7>
7.62

>  <DOPAMINE D2>
5.7

>  <DOPAMINE D3>
6.03

>  <DOPAMINE D4>
5.3

$$$$
5-Hydroxy-Tryptamine
  Marvin  02231216192D 0   1.00000     0.00000     0

 13 14  0  0  0  0  0  0  0  0999 V2000
    0.1644   -1.0899    0.0000 O   0  0  0  0  0  0  0  0  0
   -0.5501   -0.6774    0.0000 C   0  0  0  0  0  0  0  0  0
   -1.2645   -1.0899    0.0000 C   0  0  0  0  0  0  0  0  0
   -1.9790   -0.6774    0.0000 C   0  0  0  0  0  0  0  0  0
   -1.9790    0.1476    0.0000 C   0  0  0  0  0  0  0  0  0
   -2.7636    0.4026    0.0000 N   0  0  0  0  0  0  0  0  0
   -3.2486   -0.2649    0.0000 C   0  0  0  0  0  0  0  0  0
   -2.7636   -0.9323    0.0000 C   0  0  0  0  0  0  0  0  0
   -3.0186   -1.7169    0.0000 C   0  0  0  0  0  0  0  0  0
   -3.8255   -1.8885    0.0000 C   0  0  0  0  0  0  0  0  0
   -4.0805   -2.6731    0.0000 N   0  0  0  0  0  0  0  0  0
   -1.2645    0.5601    0.0000 C   0  0  0  0  0  0  0  0  0
   -0.5501    0.1476    0.0000 C   0  0  0  0  0  0  0  0  0
  1  2  1  0  0  0  0
  2  3  4  0  0  0  0
  2 13  4  0  0  0  0
  3  4  4  0  0  0  0
  4  5  4  0  0  0  0
  4  8  4  0  0  0  0
  5  6  4  0  0  0  0
  5 12  4  0  0  0  0
  6  7  4  0  0  0  0
  7  8  4  0  0  0  0
  8  9  1  0  0  0  0
  9 10  1  0  0  0  0
 10 11  1  0  0  0  0
 12 13  4  0  0  0  0
M  STY  1   1 DAT
M  SAL   1  1   6
M  SDT   1 MRV_IMPLICIT_H                                        
M  SDD   1     0.0000    0.0000    DR    ALL  0       0  
M  SED   1 IMPL_H1
M  END
>  <Name_Molregno>
5-Hydroxy-Tryptamine

>  <5-HT1A>
8.25

>  <5-HT1B>
8.48

>  <5-HT1D>
8.54

>  <5-HT1E>
8.23

>  <5-HT2A>
7.1

>  <5-HT2C>
7.9

>  <5-HT3>
5.99

>  <5-HT5>
6.9

>  <5-HT6>
7.1

>  <5-HT7>
8.48

>  <DOPAMINE D1>
5.01

>  <DOPAMINE D2>
5

>  <DOPAMINE D5>
5.52

>  <Dopamine transporter>
5

$$$$
9-OH-risperidone
  Marvin  02231216192D 0   1.00000     0.00000     0

 31 35  0  0  1  0  0  0  0  0999 V2000
    1.7758   -2.6889    0.0000 F   0  0  0  0  0  0  0  0  0
    2.0308   -1.9043    0.0000 C   0  0  0  0  0  0  0  0  0
    1.4788   -1.2912    0.0000 C   0  0  0  0  0  0  0  0  0
    1.7337   -0.5066    0.0000 C   0  0  0  0  0  0  0  0  0
    1.3212    0.2079    0.0000 O   0  0  0  0  0  0  0  0  0
    1.8732    0.8210    0.0000 N   0  0  0  0  0  0  0  0  0
    2.6269    0.4854    0.0000 C   0  0  0  0  0  0  0  0  0
    2.5407   -0.3350    0.0000 C   0  0  0  0  0  0  0  0  0
    3.0927   -0.9481    0.0000 C   0  0  0  0  0  0  0  0  0
    2.8378   -1.7327    0.0000 C   0  0  0  0  0  0  0  0  0
    3.3414    0.8979    0.0000 C   0  0  0  0  0  0  0  0  0
    3.3414    1.7229    0.0000 C   0  0  0  0  0  0  0  0  0
    4.0558    2.1354    0.0000 C   0  0  0  0  0  0  0  0  0
    4.7703    1.7229    0.0000 N   0  0  0  0  0  0  0  0  0
    4.7703    0.8979    0.0000 C   0  0  0  0  0  0  0  0  0
    4.0558    0.4854    0.0000 C   0  0  0  0  0  0  0  0  0
    5.4848    2.1354    0.0000 C   0  0  0  0  0  0  0  0  0
    6.1993    1.7229    0.0000 C   0  0  0  0  0  0  0  0  0
    6.9137    2.1354    0.0000 C   0  0  0  0  0  0  0  0  0
    7.6282    1.7229    0.0000 C   0  0  0  0  0  0  0  0  0
    7.6282    0.8979    0.0000 O   0  0  0  0  0  0  0  0  0
    8.3427    2.1354    0.0000 N   0  0  0  0  0  0  0  0  0
    8.3427    2.9604    0.0000 C   0  0  0  0  0  0  0  0  0
    7.6282    3.3729    0.0000 N   0  0  0  0  0  0  0  0  0
    6.9137    2.9604    0.0000 C   0  0  0  0  0  0  0  0  0
    6.1993    3.3729    0.0000 C   0  0  0  0  0  0  0  0  0
    9.0571    3.3729    0.0000 C   0  0  0  0  0  0  0  0  0
    9.0571    4.1979    0.0000 O   0  0  0  0  0  0  0  0  0
    9.7716    2.9604    0.0000 C   0  0  0  0  0  0  0  0  0
    9.7716    2.1354    0.0000 C   0  0  0  0  0  0  0  0  0
    9.0571    1.7229    0.0000 C   0  0  0  0  0  0  0  0  0
  1  2  1  0  0  0  0
  2  3  4  0  0  0  0
  2 10  4  0  0  0  0
  3  4  4  0  0  0  0
  4  5  4  0  0  0  0
  4  8  4  0  0  0  0
  5  6  4  0  0  0  0
  6  7  4  0  0  0  0
  7  8  4  0  0  0  0
  7 11  1  0  0  0  0
  8  9  4  0  0  0  0
  9 10  4  0  0  0  0
 11 12  1  0  0  0  0
 11 16  1  0  0  0  0
 12 13  1  0  0  0  0
 13 14  1  0  0  0  0
 14 15  1  0  0  0  0
 14 17  1  0  0  0  0
 15 16  1  0  0  0  0
 17 18  1  0  0  0  0
 18 19  1  0  0  0  0
 19 20  1  0  0  0  0
 19 25  2  0  0  0  0
 20 21  2  0  0  0  0
 20 22  1  0  0  0  0
 22 23  1  0  0  0  0
 22 31  1  0  0  0  0
 23 24  2  0  0  0  0
 23 27  1  0  0  0  0
 24 25  1  0  0  0  0
 25 26  1  0  0  0  0
 27 28  1  0  0  0  0
 27 29  1  0  0  0  0
 29 30  1  0  0  0  0
 30 31  1  0  0  0  0
M  END
>  <Name_Molregno>
9-OH-risperidone

>  <5-HT1A>
6.24

>  <5-HT1B>
7.51

>  <5-HT1D>
7.44

>  <5-HT1E>
5.49

>  <5-HT2A>
9

>  <5-HT2C>
7.32

>  <5-HT3>
5

>  <5-HT5>
6.56

>  <5-HT6>
5.62

>  <5-HT7>
8.57

>  <Alpha-1A>
8.6

>  <Alpha-1B>
9.15

>  <Alpha-2A>
7.92

>  <Alpha-2B>
7.63

>  <Alpha-2C>
8.2

>  <Beta-1>
5.15

>  <Beta-2>
5.15

>  <DOPAMINE D1>
7.39

>  <DOPAMINE D2>
8.61

>  <DOPAMINE D3>
9.07

>  <DOPAMINE D4>
7.4

>  <DOPAMINE D5>
7.54

>  <Dopamine transporter>
5

>  <HISTAMINE H1>
8.07

>  <HISTAMINE H2>
6.92

>  <HISTAMINE H4>
5.06

>  <Muscarinic acetylcholine receptor M1>
5

>  <Muscarinic acetylcholine receptor M2>
5

>  <Muscarinic acetylcholine receptor M3>
5

>  <Muscarinic acetylcholine receptor M4>
5

>  <Muscarinic acetylcholine receptor M5>
5

>  <Norepinephrine transporter>
5

>  <Serotonin transporter>
5.71

$$$$
Acetylsalicylic-acid
  Marvin  02231216192D 0   1.00000     0.00000     0

 13 13  0  0  0  0  0  0  0  0999 V2000
    0.0203    0.5019    0.0000 O   0  0  0  0  0  0  0  0  0
    0.7347    0.0894    0.0000 C   0  0  0  0  0  0  0  0  0
    1.4492    0.5019    0.0000 O   0  0  0  0  0  0  0  0  0
    0.7347   -0.7356    0.0000 C   0  0  0  0  0  0  0  0  0
   -0.6942    0.0894    0.0000 C   0  0  0  0  0  0  0  0  0
   -0.6942   -0.7356    0.0000 C   0  0  0  0  0  0  0  0  0
   -1.4087   -1.1481    0.0000 C   0  0  0  0  0  0  0  0  0
   -2.1232   -0.7356    0.0000 C   0  0  0  0  0  0  0  0  0
   -2.1232    0.0894    0.0000 C   0  0  0  0  0  0  0  0  0
   -1.4087    0.5019    0.0000 C   0  0  0  0  0  0  0  0  0
   -1.4087    1.3269    0.0000 C   0  0  0  0  0  0  0  0  0
   -2.1232    1.7394    0.0000 O   0  0  0  0  0  0  0  0  0
   -0.6942    1.7394    0.0000 O   0  0  0  0  0  0  0  0  0
  1  2  1  0  0  0  0
  1  5  1  0  0  0  0
  2  3  2  0  0  0  0
  2  4  1  0  0  0  0
  5  6  4  0  0  0  0
  5 10  4  0  0  0  0
  6  7  4  0  0  0  0
  7  8  4  0  0  0  0
  8  9  4  0  0  0  0
  9 10  4  0  0  0  0
 10 11  1  0  0  0  0
 11 12  1  0  0  0  0
 11 13  2  0  0  0  0
M  END
>  <Name_Molregno>
Acetylsalicylic-acid

>  <5-HT1A>
5

>  <5-HT1B>
5

>  <5-HT1D>
5

>  <5-HT2A>
5

>  <5-HT3>
5

>  <5-HT5>
5

>  <5-HT6>
5

>  <5-HT7>
5

>  <Alpha-1A>
5

>  <Alpha-1B>
5

>  <Alpha-2A>
5

>  <Alpha-2B>
5

>  <Alpha-2C>
5

>  <DOPAMINE D1>
5

>  <DOPAMINE D2>
5

>  <DOPAMINE D4>
5

>  <DOPAMINE D5>
5

>  <HISTAMINE H1>
5

>  <HISTAMINE H2>
5

>  <Muscarinic acetylcholine receptor M2>
5

>  <Muscarinic acetylcholine receptor M5>
5

$$$$
Amentoflavone
  Marvin  02231216192D 0   1.00000     0.00000     0

 40 45  0  0  0  0  0  0  0  0999 V2000
   -3.5941   -0.9772    0.0000 O   0  0  0  0  0  0  0  0  0
   -3.5941   -0.1522    0.0000 C   0  0  0  0  0  0  0  0  0
   -4.3085    0.2603    0.0000 C   0  0  0  0  0  0  0  0  0
   -5.0230   -0.1522    0.0000 C   0  0  0  0  0  0  0  0  0
   -5.7375    0.2603    0.0000 O   0  0  0  0  0  0  0  0  0
   -5.0230   -0.9772    0.0000 C   0  0  0  0  0  0  0  0  0
   -4.3085   -1.3897    0.0000 C   0  0  0  0  0  0  0  0  0
   -4.3085   -2.2147    0.0000 C   0  0  0  0  0  0  0  0  0
   -3.5941   -2.6272    0.0000 C   0  0  0  0  0  0  0  0  0
   -3.5941   -3.4522    0.0000 C   0  0  0  0  0  0  0  0  0
   -4.3085   -3.8647    0.0000 C   0  0  0  0  0  0  0  0  0
   -4.3085   -4.6897    0.0000 O   0  0  0  0  0  0  0  0  0
   -5.0230   -3.4522    0.0000 C   0  0  0  0  0  0  0  0  0
   -5.0230   -2.6272    0.0000 C   0  0  0  0  0  0  0  0  0
   -4.3085    1.0853    0.0000 C   0  0  0  0  0  0  0  0  0
   -5.0230    1.4978    0.0000 O   0  0  0  0  0  0  0  0  0
   -3.5941    1.4978    0.0000 C   0  0  0  0  0  0  0  0  0
   -2.8796    1.0853    0.0000 C   0  0  0  0  0  0  0  0  0
   -2.1651    1.4978    0.0000 O   0  0  0  0  0  0  0  0  0
   -2.8796    0.2603    0.0000 C   0  0  0  0  0  0  0  0  0
   -2.1651   -0.1522    0.0000 C   0  0  0  0  0  0  0  0  0
   -1.4507    0.2603    0.0000 C   0  0  0  0  0  0  0  0  0
   -0.7362   -0.1522    0.0000 C   0  0  0  0  0  0  0  0  0
   -0.7362   -0.9772    0.0000 C   0  0  0  0  0  0  0  0  0
   -1.4507   -1.3897    0.0000 C   0  0  0  0  0  0  0  0  0
   -2.1651   -0.9772    0.0000 C   0  0  0  0  0  0  0  0  0
   -2.8796   -1.3897    0.0000 O   0  0  0  0  0  0  0  0  0
   -0.0217    0.2603    0.0000 C   0  0  0  0  0  0  0  0  0
    0.6928   -0.1522    0.0000 O   0  0  0  0  0  0  0  0  0
    1.4072    0.2603    0.0000 C   0  0  0  0  0  0  0  0  0
    1.4072    1.0853    0.0000 C   0  0  0  0  0  0  0  0  0
    0.6928    1.4978    0.0000 C   0  0  0  0  0  0  0  0  0
    0.6928    2.3228    0.0000 O   0  0  0  0  0  0  0  0  0
   -0.0217    1.0853    0.0000 C   0  0  0  0  0  0  0  0  0
    2.1217    1.4978    0.0000 C   0  0  0  0  0  0  0  0  0
    2.1217    2.3228    0.0000 O   0  0  0  0  0  0  0  0  0
    2.8362    1.0853    0.0000 C   0  0  0  0  0  0  0  0  0
    2.8362    0.2603    0.0000 C   0  0  0  0  0  0  0  0  0
    3.5506   -0.1522    0.0000 O   0  0  0  0  0  0  0  0  0
    2.1217   -0.1522    0.0000 C   0  0  0  0  0  0  0  0  0
  1  2  1  0  0  0  0
  1  7  1  0  0  0  0
  2  3  4  0  0  0  0
  2 20  4  0  0  0  0
  3  4  1  0  0  0  0
  3 15  4  0  0  0  0
  4  5  2  0  0  0  0
  4  6  1  0  0  0  0
  6  7  2  0  0  0  0
  7  8  1  0  0  0  0
  8  9  4  0  0  0  0
  8 14  4  0  0  0  0
  9 10  4  0  0  0  0
 10 11  4  0  0  0  0
 11 12  1  0  0  0  0
 11 13  4  0  0  0  0
 13 14  4  0  0  0  0
 15 16  1  0  0  0  0
 15 17  4  0  0  0  0
 17 18  4  0  0  0  0
 18 19  1  0  0  0  0
 18 20  4  0  0  0  0
 20 21  1  0  0  0  0
 21 22  4  0  0  0  0
 21 26  4  0  0  0  0
 22 23  4  0  0  0  0
 23 24  4  0  0  0  0
 23 28  1  0  0  0  0
 24 25  4  0  0  0  0
 25 26  4  0  0  0  0
 26 27  1  0  0  0  0
 28 29  1  0  0  0  0
 28 34  2  0  0  0  0
 29 30  1  0  0  0  0
 30 31  4  0  0  0  0
 30 40  4  0  0  0  0
 31 32  1  0  0  0  0
 31 35  4  0  0  0  0
 32 33  2  0  0  0  0
 32 34  1  0  0  0  0
 35 36  1  0  0  0  0
 35 37  4  0  0  0  0
 37 38  4  0  0  0  0
 38 39  1  0  0  0  0
 38 40  4  0  0  0  0
M  END
>  <Name_Molregno>
Amentoflavone

>  <5-HT1A>
5

>  <5-HT1B>
5.39

>  <5-HT1D>
5

>  <5-HT2C>
5.59

>  <5-HT3>
5

>  <5-HT5>
5

>  <5-HT6>
5

>  <5-HT7>
5

>  <Alpha-1A>
5

>  <Alpha-1B>
5

>  <Alpha-2A>
5

>  <Alpha-2B>
5

>  <Alpha-2C>
5

>  <DOPAMINE D1>
5

>  <DOPAMINE D5>
5

>  <Muscarinic acetylcholine receptor M1>
5

>  <Muscarinic acetylcholine receptor M2>
5

>  <Muscarinic acetylcholine receptor M3>
5

>  <Muscarinic acetylcholine receptor M4>
5

>  <Muscarinic acetylcholine receptor M5>
5

>  <Norepinephrine transporter>
5

>  <Serotonin transporter>
5

$$$$
APOMORPHINE
  Marvin  02231216192D 0   1.00000     0.00000     0

 20 23  0  0  1  0  0  0  0  0999 V2000
    3.2214   -1.7908    0.0000 O   0  0  0  0  0  0  0  0  0
    3.2214   -0.9658    0.0000 C   0  0  0  0  0  0  0  0  0
    2.5070   -0.5533    0.0000 C   0  0  0  0  0  0  0  0  0
    2.5070    0.2717    0.0000 C   0  0  0  0  0  0  0  0  0
    1.7925    0.6842    0.0000 C   0  0  0  0  0  0  0  0  0
    1.0780    0.2717    0.0000 C   0  0  0  0  0  0  0  0  0
    0.3635    0.6842    0.0000 N   0  0  0  0  0  0  0  0  0
   -0.3509    0.2717    0.0000 C   0  0  0  0  0  0  0  0  0
   -0.3509   -0.5533    0.0000 C   0  0  0  0  0  0  0  0  0
    0.3635   -0.9658    0.0000 C   0  0  0  0  0  0  0  0  0
    1.0780   -0.5533    0.0000 C   0  0  0  0  0  0  0  0  0
    1.7925   -0.9658    0.0000 C   0  0  0  0  0  0  0  0  0
    1.7925   -1.7908    0.0000 C   0  0  0  0  0  0  0  0  0
    1.0780   -2.2033    0.0000 C   0  0  0  0  0  0  0  0  0
    0.3635   -1.7908    0.0000 C   0  0  0  0  0  0  0  0  0
    0.3635    1.5092    0.0000 C   0  0  0  0  0  0  0  0  0
    3.2214    0.6842    0.0000 C   0  0  0  0  0  0  0  0  0
    3.9359    0.2717    0.0000 C   0  0  0  0  0  0  0  0  0
    3.9359   -0.5533    0.0000 C   0  0  0  0  0  0  0  0  0
    4.6504   -0.9658    0.0000 O   0  0  0  0  0  0  0  0  0
  1  2  1  0  0  0  0
  2  3  4  0  0  0  0
  2 19  4  0  0  0  0
  3  4  4  0  0  0  0
  3 12  1  0  0  0  0
  4  5  1  0  0  0  0
  4 17  4  0  0  0  0
  5  6  1  0  0  0  0
  6  7  1  0  0  0  0
  6 11  1  0  0  0  0
  7  8  1  0  0  0  0
  7 16  1  0  0  0  0
  8  9  1  0  0  0  0
  9 10  1  0  0  0  0
 10 11  4  0  0  0  0
 10 15  4  0  0  0  0
 11 12  4  0  0  0  0
 12 13  4  0  0  0  0
 13 14  4  0  0  0  0
 14 15  4  0  0  0  0
 17 18  4  0  0  0  0
 18 19  4  0  0  0  0
 19 20  1  0  0  0  0
M  END
>  <Name_Molregno>
APOMORPHINE

>  <5-HT1A>
6.12

>  <5-HT1B>
5.53

>  <5-HT1D>
5.91

>  <5-HT2A>
6.63

>  <5-HT2C>
6.99

>  <Alpha-1A>
5.7

>  <Alpha-1B>
6.17

>  <Alpha-2A>
6.85

>  <Alpha-2B>
7.18

>  <Alpha-2C>
7.44

>  <Beta-1>
5

>  <Beta-2>
5

>  <DOPAMINE D1>
6.4

>  <DOPAMINE D2>
7.34

>  <DOPAMINE D3>
7.65

>  <DOPAMINE D4>
7.92

>  <DOPAMINE D5>
7.14

$$$$
ARIPIPRAZOLE
  Marvin  02231216192D 0   1.00000     0.00000     0

 30 33  0  0  0  0  0  0  0  0999 V2000
   -8.7485    0.0493    0.0000 Cl  0  0  0  0  0  0  0  0  0
   -8.7485   -0.7757    0.0000 C   0  0  0  0  0  0  0  0  0
   -8.0340   -1.1882    0.0000 C   0  0  0  0  0  0  0  0  0
   -7.3195   -0.7757    0.0000 N   0  0  0  0  0  0  0  0  0
   -7.3195    0.0493    0.0000 C   0  0  0  0  0  0  0  0  0
   -6.6051    0.4618    0.0000 C   0  0  0  0  0  0  0  0  0
   -5.8906    0.0493    0.0000 N   0  0  0  0  0  0  0  0  0
   -5.8906   -0.7757    0.0000 C   0  0  0  0  0  0  0  0  0
   -6.6051   -1.1882    0.0000 C   0  0  0  0  0  0  0  0  0
   -5.1761    0.4618    0.0000 C   0  0  0  0  0  0  0  0  0
   -4.4616    0.0493    0.0000 C   0  0  0  0  0  0  0  0  0
   -3.7472    0.4618    0.0000 C   0  0  0  0  0  0  0  0  0
   -3.0327    0.0493    0.0000 C   0  0  0  0  0  0  0  0  0
   -2.3182    0.4618    0.0000 O   0  0  0  0  0  0  0  0  0
   -1.6038    0.0493    0.0000 C   0  0  0  0  0  0  0  0  0
   -0.8893    0.4618    0.0000 C   0  0  0  0  0  0  0  0  0
   -0.1748    0.0493    0.0000 C   0  0  0  0  0  0  0  0  0
    0.5397    0.4618    0.0000 N   0  0  0  0  0  0  0  0  0
    1.2541    0.0493    0.0000 C   0  0  0  0  0  0  0  0  0
    1.9686    0.4618    0.0000 O   0  0  0  0  0  0  0  0  0
    1.2541   -0.7757    0.0000 C   0  0  0  0  0  0  0  0  0
    0.5397   -1.1882    0.0000 C   0  0  0  0  0  0  0  0  0
   -0.1748   -0.7757    0.0000 C   0  0  0  0  0  0  0  0  0
   -0.8893   -1.1882    0.0000 C   0  0  0  0  0  0  0  0  0
   -1.6038   -0.7757    0.0000 C   0  0  0  0  0  0  0  0  0
   -8.0340   -2.0132    0.0000 C   0  0  0  0  0  0  0  0  0
   -8.7485   -2.4257    0.0000 C   0  0  0  0  0  0  0  0  0
   -9.4629   -2.0132    0.0000 C   0  0  0  0  0  0  0  0  0
   -9.4629   -1.1882    0.0000 C   0  0  0  0  0  0  0  0  0
  -10.1774   -0.7757    0.0000 Cl  0  0  0  0  0  0  0  0  0
  1  2  1  0  0  0  0
  2  3  4  0  0  0  0
  2 29  4  0  0  0  0
  3  4  1  0  0  0  0
  3 26  4  0  0  0  0
  4  5  1  0  0  0  0
  4  9  1  0  0  0  0
  5  6  1  0  0  0  0
  6  7  1  0  0  0  0
  7  8  1  0  0  0  0
  7 10  1  0  0  0  0
  8  9  1  0  0  0  0
 10 11  1  0  0  0  0
 11 12  1  0  0  0  0
 12 13  1  0  0  0  0
 13 14  1  0  0  0  0
 14 15  1  0  0  0  0
 15 16  4  0  0  0  0
 15 25  4  0  0  0  0
 16 17  4  0  0  0  0
 17 18  1  0  0  0  0
 17 23  4  0  0  0  0
 18 19  1  0  0  0  0
 19 20  2  0  0  0  0
 19 21  1  0  0  0  0
 21 22  1  0  0  0  0
 22 23  1  0  0  0  0
 23 24  4  0  0  0  0
 24 25  4  0  0  0  0
 26 27  4  0  0  0  0
 27 28  4  0  0  0  0
 28 29  4  0  0  0  0
 29 30  1  0  0  0  0
M  END
>  <Name_Molregno>
ARIPIPRAZOLE

>  <5-HT1A>
8.21

>  <5-HT1B>
6.08

>  <5-HT1D>
7.18

>  <5-HT1E>
5.1

>  <5-HT2A>
7.85

>  <5-HT2C>
7.48

>  <5-HT3>
6.25

>  <5-HT5>
5.91

>  <5-HT6>
6.32

>  <5-HT7>
7.81

>  <Alpha-1A>
7.59

>  <Alpha-1B>
7.46

>  <Alpha-2A>
7.13

>  <Alpha-2B>
6.99

>  <Alpha-2C>
7.42

>  <Beta-1>
6.85

>  <Beta-2>
6.79

>  <DOPAMINE D1>
6.06

>  <DOPAMINE D2>
8.72

>  <DOPAMINE D3>
8.45

>  <DOPAMINE D4>
6.51

>  <DOPAMINE D5>
5.69

>  <Dopamine transporter>
5.49

>  <HISTAMINE H1>
7.56

>  <HISTAMINE H2>
5

>  <HISTAMINE H4>
5

>  <Muscarinic acetylcholine receptor M1>
5.17

>  <Muscarinic acetylcholine receptor M2>
5.45

>  <Muscarinic acetylcholine receptor M3>
5.33

>  <Muscarinic acetylcholine receptor M4>
5.82

>  <Muscarinic acetylcholine receptor M5>
5.63

>  <Norepinephrine transporter>
5.68

>  <Serotonin transporter>
6.48

$$$$
Atomoxetine
  Marvin  02231216192D 0   1.00000     0.00000     0

 19 20  0  0  1  0  0  0  0  0999 V2000
   -0.2008    0.4420    0.0000 O   0  0  0  0  0  0  0  0  0
    0.5136    0.8545    0.0000 C   0  0  0  0  0  0  0  0  0
    1.2281    0.4420    0.0000 C   0  0  0  0  0  0  0  0  0
    1.9426    0.8545    0.0000 C   0  0  0  0  0  0  0  0  0
    2.6570    0.4420    0.0000 N   0  0  0  0  0  0  0  0  0
    2.6570   -0.3830    0.0000 C   0  0  0  0  0  0  0  0  0
    0.5136    1.6795    0.0000 C   0  0  0  0  0  0  0  0  0
   -0.2008    2.0920    0.0000 C   0  0  0  0  0  0  0  0  0
   -0.2008    2.9170    0.0000 C   0  0  0  0  0  0  0  0  0
    0.5136    3.3295    0.0000 C   0  0  0  0  0  0  0  0  0
    1.2281    2.9170    0.0000 C   0  0  0  0  0  0  0  0  0
    1.2281    2.0920    0.0000 C   0  0  0  0  0  0  0  0  0
   -0.2008   -0.3830    0.0000 C   0  0  0  0  0  0  0  0  0
    0.5136   -0.7955    0.0000 C   0  0  0  0  0  0  0  0  0
    0.5136   -1.6205    0.0000 C   0  0  0  0  0  0  0  0  0
   -0.2008   -2.0330    0.0000 C   0  0  0  0  0  0  0  0  0
   -0.9153   -1.6205    0.0000 C   0  0  0  0  0  0  0  0  0
   -0.9153   -0.7955    0.0000 C   0  0  0  0  0  0  0  0  0
   -1.6298   -0.3830    0.0000 C   0  0  0  0  0  0  0  0  0
  1  2  1  0  0  0  0
  1 13  1  0  0  0  0
  2  3  1  0  0  0  0
  2  7  1  0  0  0  0
  3  4  1  0  0  0  0
  4  5  1  0  0  0  0
  5  6  1  0  0  0  0
  7  8  4  0  0  0  0
  7 12  4  0  0  0  0
  8  9  4  0  0  0  0
  9 10  4  0  0  0  0
 10 11  4  0  0  0  0
 11 12  4  0  0  0  0
 13 14  4  0  0  0  0
 13 18  4  0  0  0  0
 14 15  4  0  0  0  0
 15 16  4  0  0  0  0
 16 17  4  0  0  0  0
 17 18  4  0  0  0  0
 18 19  1  0  0  0  0
M  END
>  <Name_Molregno>
Atomoxetine

>  <5-HT1A>
5.5

>  <5-HT1B>
6

>  <5-HT1D>
6

>  <5-HT2A>
6

>  <5-HT2C>
6

>  <5-HT6>
6

>  <5-HT7>
6

>  <Alpha-2A>
6

>  <DOPAMINE D2>
5.5

>  <Dopamine transporter>
5.88

>  <HISTAMINE H1>
5.63

>  <Muscarinic acetylcholine receptor M1>
6

>  <Muscarinic acetylcholine receptor M2>
6

>  <Norepinephrine transporter>
8.43

>  <Serotonin transporter>
7.42

$$$$
B-HT920
  Marvin  02231216192D 0   1.00000     0.00000     0

 14 15  0  0  0  0  0  0  0  0999 V2000
   -3.1193    0.1933    0.0000 S   0  0  0  0  0  0  0  0  0
   -2.3347   -0.0617    0.0000 C   0  0  0  0  0  0  0  0  0
   -1.6896    0.4527    0.0000 C   0  0  0  0  0  0  0  0  0
   -0.8853    0.2691    0.0000 C   0  0  0  0  0  0  0  0  0
   -0.5274   -0.4742    0.0000 N   0  0  0  0  0  0  0  0  0
   -0.8853   -1.2175    0.0000 C   0  0  0  0  0  0  0  0  0
   -1.6896   -1.4010    0.0000 C   0  0  0  0  0  0  0  0  0
   -2.3347   -0.8867    0.0000 C   0  0  0  0  0  0  0  0  0
   -3.1193   -1.1416    0.0000 N   0  0  0  0  0  0  0  0  0
   -3.6042   -0.4742    0.0000 C   0  0  0  0  0  0  0  0  0
   -4.4292   -0.4742    0.0000 N   0  0  0  0  0  0  0  0  0
    0.2976   -0.4742    0.0000 C   0  0  0  0  0  0  0  0  0
    0.7101   -1.1886    0.0000 C   0  0  0  0  0  0  0  0  0
    1.5351   -1.1886    0.0000 C   0  0  0  0  0  0  0  0  0
  1  2  4  0  0  0  0
  1 10  4  0  0  0  0
  2  3  1  0  0  0  0
  2  8  4  0  0  0  0
  3  4  1  0  0  0  0
  4  5  1  0  0  0  0
  5  6  1  0  0  0  0
  5 12  1  0  0  0  0
  6  7  1  0  0  0  0
  7  8  1  0  0  0  0
  8  9  4  0  0  0  0
  9 10  4  0  0  0  0
 10 11  1  0  0  0  0
 12 13  1  0  0  0  0
 13 14  2  0  0  0  0
M  END
>  <Name_Molregno>
B-HT920

>  <5-HT1A>
5.77

>  <5-HT1B>
5

>  <5-HT1D>
5

>  <5-HT2A>
5

>  <5-HT2C>
5

>  <Alpha-1A>
5

>  <Alpha-1B>
5.41

>  <Alpha-2A>
6.91

>  <Alpha-2B>
6.69

>  <Alpha-2C>
6.69

>  <Beta-1>
5

>  <Beta-2>
5

>  <DOPAMINE D1>
5

>  <DOPAMINE D2>
6.88

>  <DOPAMINE D3>
7.8

>  <DOPAMINE D4>
6.48

>  <DOPAMINE D5>
5.46

$$$$
BROMOCRIPTINE
  Marvin  02231216192D 0   1.00000     0.00000     0

 43 49  0  0  1  0  0  0  0  0999 V2000
    6.2699    4.4922    0.0000 Br  0  0  0  0  0  0  0  0  0
    6.7473    3.8193    0.0000 C   0  0  0  0  0  0  0  0  0
    7.5723    3.8193    0.0000 N   0  0  0  0  0  0  0  0  0
    7.8776    2.9622    0.0000 C   0  0  0  0  0  0  0  0  0
    7.1598    2.5497    0.0000 C   0  0  0  0  0  0  0  0  0
    6.4473    2.9622    0.0000 C   0  0  0  0  0  0  0  0  0
    5.7348    2.5497    0.0000 C   0  0  0  0  0  0  0  0  0
    5.7348    1.7247    0.0000 C   0  0  0  0  0  0  0  0  0
    5.0198    1.3130    0.0000 N   0  0  0  0  0  0  0  0  0
    5.0188    0.4880    0.0000 C   0  0  0  0  0  0  0  0  0
    5.7328    0.0747    0.0000 C   0  0  0  0  0  0  0  0  0
    6.4478    0.4863    0.0000 C   0  0  0  0  0  0  0  0  0
    6.4488    1.3113    0.0000 C   0  0  0  0  0  0  0  0  0
    7.1598    1.7247    0.0000 C   0  0  0  0  0  0  0  0  0
    7.8776    1.3122    0.0000 C   0  0  0  0  0  0  0  0  0
    8.5901    1.7247    0.0000 C   0  0  0  0  0  0  0  0  0
    8.5901    2.5497    0.0000 C   0  0  0  0  0  0  0  0  0
    5.7318   -0.7503    0.0000 C   0  0  0  0  0  0  0  0  0
    6.4458   -1.1637    0.0000 O   0  0  0  0  0  0  0  0  0
    5.0168   -1.1620    0.0000 N   0  0  0  0  0  0  0  0  0
    5.0159   -1.9870    0.0000 C   0  0  0  0  0  0  0  0  0
    5.1864   -2.7941    0.0000 O   0  0  0  0  0  0  0  0  0
    4.4715   -3.2058    0.0000 C   0  0  0  0  0  0  0  0  0
    5.1383   -3.6915    0.0000 O   0  0  0  0  0  0  0  0  0
    3.8590   -2.6530    0.0000 N   0  0  0  0  0  0  0  0  0
    3.0741   -2.9070    0.0000 C   0  0  0  0  0  0  0  0  0
    2.4617   -2.3543    0.0000 C   0  0  0  0  0  0  0  0  0
    1.6767   -2.6083    0.0000 C   0  0  0  0  0  0  0  0  0
    1.0643   -2.0555    0.0000 C   0  0  0  0  0  0  0  0  0
    1.5042   -3.4150    0.0000 C   0  0  0  0  0  0  0  0  0
    2.9016   -3.7138    0.0000 C   0  0  0  0  0  0  0  0  0
    2.1167   -3.9678    0.0000 O   0  0  0  0  0  0  0  0  0
    3.5140   -4.2665    0.0000 N   0  0  0  0  0  0  0  0  0
    4.2990   -4.0125    0.0000 C   0  0  0  0  0  0  0  0  0
    4.7831   -4.6806    0.0000 C   0  0  0  0  0  0  0  0  0
    4.2974   -5.3474    0.0000 C   0  0  0  0  0  0  0  0  0
    3.5131   -5.0915    0.0000 C   0  0  0  0  0  0  0  0  0
    4.1955   -1.8997    0.0000 C   0  0  0  0  0  0  0  0  0
    3.7838   -1.1848    0.0000 O   0  0  0  0  0  0  0  0  0
    5.8364   -1.9017    0.0000 C   0  0  0  0  0  0  0  0  0
    6.5514   -1.4901    0.0000 C   0  0  0  0  0  0  0  0  0
    6.3206   -2.5697    0.0000 C   0  0  0  0  0  0  0  0  0
    4.3058    1.7264    0.0000 C   0  0  0  0  0  0  0  0  0
  1  2  1  0  0  0  0
  2  3  4  0  0  0  0
  2  6  4  0  0  0  0
  3  4  4  0  0  0  0
  4  5  4  0  0  0  0
  4 17  4  0  0  0  0
  5  6  4  0  0  0  0
  5 14  4  0  0  0  0
  6  7  1  0  0  0  0
  7  8  1  0  0  0  0
  8  9  1  0  0  0  0
  8 13  1  0  0  0  0
  9 10  1  0  0  0  0
  9 43  1  0  0  0  0
 10 11  1  0  0  0  0
 11 12  1  0  0  0  0
 11 18  1  0  0  0  0
 12 13  2  0  0  0  0
 13 14  1  0  0  0  0
 14 15  4  0  0  0  0
 15 16  4  0  0  0  0
 16 17  4  0  0  0  0
 18 19  2  0  0  0  0
 18 20  1  0  0  0  0
 20 21  1  0  0  0  0
 21 22  1  0  0  0  0
 21 38  1  0  0  0  0
 21 40  1  0  0  0  0
 22 23  1  0  0  0  0
 23 24  1  0  0  0  0
 23 25  1  0  0  0  0
 23 34  1  0  0  0  0
 25 26  1  0  0  0  0
 25 38  1  0  0  0  0
 26 27  1  0  0  0  0
 26 31  1  0  0  0  0
 27 28  1  0  0  0  0
 28 29  1  0  0  0  0
 28 30  1  0  0  0  0
 31 32  2  0  0  0  0
 31 33  1  0  0  0  0
 33 34  1  0  0  0  0
 33 37  1  0  0  0  0
 34 35  1  0  0  0  0
 35 36  1  0  0  0  0
 36 37  1  0  0  0  0
 38 39  2  0  0  0  0
 40 41  1  0  0  0  0
 40 42  1  0  0  0  0
M  STY  1   1 DAT
M  SAL   1  1   3
M  SDT   1 MRV_IMPLICIT_H                                        
M  SDD   1     0.0000    0.0000    DR    ALL  0       0  
M  SED   1 IMPL_H1
M  END
>  <Name_Molregno>
BROMOCRIPTINE

>  <5-HT1A>
7.7

>  <5-HT1B>
6.45

>  <5-HT1D>
7.97

>  <5-HT2A>
6.97

>  <5-HT2C>
6.13

>  <5-HT6>
7.39

>  <Alpha-1A>
8.38

>  <Alpha-1B>
8.86

>  <Alpha-2A>
7.96

>  <Alpha-2B>
7.46

>  <Alpha-2C>
7.55

>  <Beta-1>
6.23

>  <Beta-2>
6.13

>  <DOPAMINE D1>
6

>  <DOPAMINE D2>
8.31

>  <DOPAMINE D3>
8.02

>  <DOPAMINE D4>
6.33

>  <DOPAMINE D5>
6.31

$$$$
BW-723C86
  Marvin  02231216192D 0   1.00000     0.00000     0

 20 22  0  0  1  0  0  0  0  0999 V2000
    5.9230   -0.7378    0.0000 S   0  0  0  0  0  0  0  0  0
    6.4751   -1.3509    0.0000 C   0  0  0  0  0  0  0  0  0
    6.0626   -2.0654    0.0000 C   0  0  0  0  0  0  0  0  0
    5.2556   -1.8938    0.0000 C   0  0  0  0  0  0  0  0  0
    5.1694   -1.0734    0.0000 C   0  0  0  0  0  0  0  0  0
    4.4549   -0.6609    0.0000 C   0  0  0  0  0  0  0  0  0
    3.7404   -1.0734    0.0000 O   0  0  0  0  0  0  0  0  0
    3.0259   -0.6609    0.0000 C   0  0  0  0  0  0  0  0  0
    2.3115   -1.0734    0.0000 C   0  0  0  0  0  0  0  0  0
    1.5970   -0.6609    0.0000 C   0  0  0  0  0  0  0  0  0
    1.5970    0.1641    0.0000 C   0  0  0  0  0  0  0  0  0
    0.8124    0.4191    0.0000 N   0  0  0  0  0  0  0  0  0
    0.3275   -0.2484    0.0000 C   0  0  0  0  0  0  0  0  0
    0.8124   -0.9158    0.0000 C   0  0  0  0  0  0  0  0  0
    0.5574   -1.7004    0.0000 C   0  0  0  0  0  0  0  0  0
   -0.2495   -1.8720    0.0000 C   0  0  0  0  0  0  0  0  0
   -0.5045   -2.6566    0.0000 N   0  0  0  0  0  0  0  0  0
   -0.8016   -1.2589    0.0000 C   0  0  0  0  0  0  0  0  0
    2.3115    0.5766    0.0000 C   0  0  0  0  0  0  0  0  0
    3.0259    0.1641    0.0000 C   0  0  0  0  0  0  0  0  0
  1  2  4  0  0  0  0
  1  5  4  0  0  0  0
  2  3  4  0  0  0  0
  3  4  4  0  0  0  0
  4  5  4  0  0  0  0
  5  6  1  0  0  0  0
  6  7  1  0  0  0  0
  7  8  1  0  0  0  0
  8  9  4  0  0  0  0
  8 20  4  0  0  0  0
  9 10  4  0  0  0  0
 10 11  4  0  0  0  0
 10 14  4  0  0  0  0
 11 12  4  0  0  0  0
 11 19  4  0  0  0  0
 12 13  4  0  0  0  0
 13 14  4  0  0  0  0
 14 15  1  0  0  0  0
 15 16  1  0  0  0  0
 16 17  1  0  0  0  0
 16 18  1  0  0  0  0
 19 20  4  0  0  0  0
M  STY  1   1 DAT
M  SAL   1  1  12
M  SDT   1 MRV_IMPLICIT_H                                        
M  SDD   1     0.0000    0.0000    DR    ALL  0       0  
M  SED   1 IMPL_H1
M  END
>  <Name_Molregno>
BW-723C86

>  <5-HT1B>
6.9

>  <5-HT1D>
6.33

>  <5-HT1E>
5.5

>  <5-HT2A>
6.99

>  <5-HT2C>
6.64

>  <5-HT6>
6.4

>  <5-HT7>
5.5

>  <DOPAMINE D4>
5

$$$$
Cabergoline
  Marvin  02231216192D 0   1.00000     0.00000     0

 33 36  0  0  1  0  0  0  0  0999 V2000
    0.1488   -3.1643    0.0000 O   0  0  0  0  0  0  0  0  0
   -0.5651   -2.7509    0.0000 C   0  0  0  0  0  0  0  0  0
   -1.2801   -3.1625    0.0000 N   0  0  0  0  0  0  0  0  0
   -1.2811   -3.9875    0.0000 C   0  0  0  0  0  0  0  0  0
   -1.9961   -4.3992    0.0000 C   0  0  0  0  0  0  0  0  0
   -1.9970   -5.2242    0.0000 C   0  0  0  0  0  0  0  0  0
   -2.7120   -5.6358    0.0000 N   0  0  0  0  0  0  0  0  0
   -2.7130   -6.4608    0.0000 C   0  0  0  0  0  0  0  0  0
   -3.4260   -5.2225    0.0000 C   0  0  0  0  0  0  0  0  0
   -1.9941   -2.7492    0.0000 C   0  0  0  0  0  0  0  0  0
   -2.7090   -3.1608    0.0000 O   0  0  0  0  0  0  0  0  0
   -1.9931   -1.9242    0.0000 N   0  0  0  0  0  0  0  0  0
   -2.7071   -1.5108    0.0000 C   0  0  0  0  0  0  0  0  0
   -3.4220   -1.9225    0.0000 C   0  0  0  0  0  0  0  0  0
   -0.5641   -1.9259    0.0000 C   0  0  0  0  0  0  0  0  0
    0.1508   -1.5143    0.0000 C   0  0  0  0  0  0  0  0  0
    0.1518   -0.6893    0.0000 C   0  0  0  0  0  0  0  0  0
   -0.5622   -0.2759    0.0000 C   0  0  0  0  0  0  0  0  0
   -1.2771   -0.6875    0.0000 N   0  0  0  0  0  0  0  0  0
   -1.2781   -1.5125    0.0000 C   0  0  0  0  0  0  0  0  0
   -1.9911   -0.2742    0.0000 C   0  0  0  0  0  0  0  0  0
   -2.7061   -0.6858    0.0000 C   0  0  0  0  0  0  0  0  0
   -3.4201   -0.2725    0.0000 C   0  0  0  0  0  0  0  0  0
   -0.5607    0.5482    0.0000 C   0  0  0  0  0  0  0  0  0
    0.1518    0.9607    0.0000 C   0  0  0  0  0  0  0  0  0
    0.8643    0.5482    0.0000 C   0  0  0  0  0  0  0  0  0
    0.8643   -0.2768    0.0000 C   0  0  0  0  0  0  0  0  0
    1.5822   -0.6893    0.0000 C   0  0  0  0  0  0  0  0  0
    2.2947   -0.2768    0.0000 C   0  0  0  0  0  0  0  0  0
    2.2947    0.5482    0.0000 C   0  0  0  0  0  0  0  0  0
    1.5822    0.9607    0.0000 C   0  0  0  0  0  0  0  0  0
    1.2768    1.8179    0.0000 N   0  0  0  0  0  0  0  0  0
    0.4518    1.8179    0.0000 C   0  0  0  0  0  0  0  0  0
  1  2  2  0  0  0  0
  2  3  1  0  0  0  0
  2 15  1  0  0  0  0
  3  4  1  0  0  0  0
  3 10  1  0  0  0  0
  4  5  1  0  0  0  0
  5  6  1  0  0  0  0
  6  7  1  0  0  0  0
  7  8  1  0  0  0  0
  7  9  1  0  0  0  0
 10 11  2  0  0  0  0
 10 12  1  0  0  0  0
 12 13  1  0  0  0  0
 13 14  1  0  0  0  0
 15 16  1  0  0  0  0
 15 20  1  0  0  0  0
 16 17  1  0  0  0  0
 17 18  1  0  0  0  0
 17 27  1  0  0  0  0
 18 19  1  0  0  0  0
 18 24  1  0  0  0  0
 19 20  1  0  0  0  0
 19 21  1  0  0  0  0
 21 22  1  0  0  0  0
 22 23  2  0  0  0  0
 24 25  1  0  0  0  0
 25 26  4  0  0  0  0
 25 33  4  0  0  0  0
 26 27  4  0  0  0  0
 26 31  4  0  0  0  0
 27 28  4  0  0  0  0
 28 29  4  0  0  0  0
 29 30  4  0  0  0  0
 30 31  4  0  0  0  0
 31 32  4  0  0  0  0
 32 33  4  0  0  0  0
M  STY  1   1 DAT
M  SAL   1  1  32
M  SDT   1 MRV_IMPLICIT_H                                        
M  SDD   1     0.0000    0.0000    DR    ALL  0       0  
M  SED   1 IMPL_H1
M  END
>  <Name_Molregno>
Cabergoline

>  <5-HT1A>
7.7

>  <5-HT1B>
6.32

>  <5-HT1D>
8.06

>  <5-HT2A>
8.21

>  <5-HT2C>
6.16

>  <Alpha-1A>
6.54

>  <Alpha-1B>
7.22

>  <Alpha-2A>
7.92

>  <Alpha-2B>
7.14

>  <Alpha-2C>
7.65

>  <Beta-1>
5

>  <Beta-2>
5

>  <DOPAMINE D1>
6.67

>  <DOPAMINE D2>
9.12

>  <DOPAMINE D3>
9.1

>  <DOPAMINE D4>
7.25

>  <DOPAMINE D5>
7.65

$$$$
Cathinone
  Marvin  02231216192D 0   1.00000     0.00000     0

 11 11  0  0  1  0  0  0  0  0999 V2000
    1.9974    0.2298    0.0000 O   0  0  0  0  0  0  0  0  0
    1.2829   -0.1827    0.0000 C   0  0  0  0  0  0  0  0  0
    0.5684    0.2298    0.0000 C   0  0  0  0  0  0  0  0  0
    0.5684    1.0548    0.0000 N   0  0  0  0  0  0  0  0  0
   -0.1461   -0.1827    0.0000 C   0  0  0  0  0  0  0  0  0
    1.2829   -1.0077    0.0000 C   0  0  0  0  0  0  0  0  0
    1.9974   -1.4202    0.0000 C   0  0  0  0  0  0  0  0  0
    1.9974   -2.2452    0.0000 C   0  0  0  0  0  0  0  0  0
    1.2829   -2.6577    0.0000 C   0  0  0  0  0  0  0  0  0
    0.5684   -2.2452    0.0000 C   0  0  0  0  0  0  0  0  0
    0.5684   -1.4202    0.0000 C   0  0  0  0  0  0  0  0  0
  1  2  2  0  0  0  0
  2  3  1  0  0  0  0
  2  6  1  0  0  0  0
  3  4  1  0  0  0  0
  3  5  1  0  0  0  0
  6  7  4  0  0  0  0
  6 11  4  0  0  0  0
  7  8  4  0  0  0  0
  8  9  4  0  0  0  0
  9 10  4  0  0  0  0
 10 11  4  0  0  0  0
M  END
>  <Name_Molregno>
Cathinone

>  <5-HT1A>
5

>  <5-HT1B>
5

>  <5-HT1D>
5

>  <5-HT1E>
5

>  <5-HT3>
5

>  <5-HT5>
5

>  <5-HT6>
5

>  <5-HT7>
5.57

>  <Alpha-1A>
5

>  <Alpha-1B>
5

>  <Alpha-2A>
5.17

>  <Alpha-2B>
6.04

>  <Alpha-2C>
6.12

>  <Beta-1>
5

>  <Beta-2>
5

>  <DOPAMINE D1>
5

>  <DOPAMINE D2>
5

>  <DOPAMINE D4>
5

>  <DOPAMINE D5>
5

>  <Dopamine transporter>
6.37

>  <HISTAMINE H1>
5

>  <HISTAMINE H2>
5

>  <HISTAMINE H4>
5

>  <Muscarinic acetylcholine receptor M1>
5

>  <Muscarinic acetylcholine receptor M2>
5

>  <Muscarinic acetylcholine receptor M3>
5

>  <Muscarinic acetylcholine receptor M4>
5

>  <Muscarinic acetylcholine receptor M5>
5

>  <Norepinephrine transporter>
6.76

>  <Serotonin transporter>
5.32

$$$$
CELECOXIB
  Marvin  02231216192D 0   1.00000     0.00000     0

 26 28  0  0  0  0  0  0  0  0999 V2000
   -2.2304    2.3034    0.0000 S   0  0  0  0  0  0  0  0  0
   -2.2304    3.1284    0.0000 O   0  0  0  0  0  0  0  0  0
   -3.0554    2.3034    0.0000 O   0  0  0  0  0  0  0  0  0
   -1.4054    2.3034    0.0000 N   0  0  0  0  0  0  0  0  0
   -2.2304    1.4784    0.0000 C   0  0  0  0  0  0  0  0  0
   -1.5159    1.0659    0.0000 C   0  0  0  0  0  0  0  0  0
   -1.5159    0.2409    0.0000 C   0  0  0  0  0  0  0  0  0
   -2.2304   -0.1716    0.0000 C   0  0  0  0  0  0  0  0  0
   -2.2304   -0.9966    0.0000 N   0  0  0  0  0  0  0  0  0
   -1.5629   -1.4815    0.0000 N   0  0  0  0  0  0  0  0  0
   -1.8179   -2.2662    0.0000 C   0  0  0  0  0  0  0  0  0
   -2.6429   -2.2662    0.0000 C   0  0  0  0  0  0  0  0  0
   -2.8978   -1.4815    0.0000 C   0  0  0  0  0  0  0  0  0
   -3.6824   -1.2266    0.0000 C   0  0  0  0  0  0  0  0  0
   -4.2955   -1.7786    0.0000 C   0  0  0  0  0  0  0  0  0
   -5.0802   -1.5237    0.0000 C   0  0  0  0  0  0  0  0  0
   -5.2517   -0.7167    0.0000 C   0  0  0  0  0  0  0  0  0
   -4.6386   -0.1647    0.0000 C   0  0  0  0  0  0  0  0  0
   -3.8540   -0.4196    0.0000 C   0  0  0  0  0  0  0  0  0
   -6.0363   -0.4618    0.0000 C   0  0  0  0  0  0  0  0  0
   -1.3330   -2.9336    0.0000 C   0  0  0  0  0  0  0  0  0
   -0.8480   -3.6010    0.0000 F   0  0  0  0  0  0  0  0  0
   -2.0004   -3.4185    0.0000 F   0  0  0  0  0  0  0  0  0
   -0.6655   -2.4487    0.0000 F   0  0  0  0  0  0  0  0  0
   -2.9448    0.2409    0.0000 C   0  0  0  0  0  0  0  0  0
   -2.9448    1.0659    0.0000 C   0  0  0  0  0  0  0  0  0
  1  2  2  0  0  0  0
  1  3  2  0  0  0  0
  1  4  1  0  0  0  0
  1  5  1  0  0  0  0
  5  6  4  0  0  0  0
  5 26  4  0  0  0  0
  6  7  4  0  0  0  0
  7  8  4  0  0  0  0
  8  9  1  0  0  0  0
  8 25  4  0  0  0  0
  9 10  4  0  0  0  0
  9 13  4  0  0  0  0
 10 11  4  0  0  0  0
 11 12  4  0  0  0  0
 11 21  1  0  0  0  0
 12 13  4  0  0  0  0
 13 14  1  0  0  0  0
 14 15  4  0  0  0  0
 14 19  4  0  0  0  0
 15 16  4  0  0  0  0
 16 17  4  0  0  0  0
 17 18  4  0  0  0  0
 17 20  1  0  0  0  0
 18 19  4  0  0  0  0
 21 22  1  0  0  0  0
 21 23  1  0  0  0  0
 21 24  1  0  0  0  0
 25 26  4  0  0  0  0
M  END
>  <Name_Molregno>
CELECOXIB

>  <5-HT1A>
5

>  <5-HT1B>
5

>  <5-HT1D>
5

>  <5-HT1E>
5

>  <5-HT2A>
5

>  <5-HT3>
5

>  <5-HT6>
5

>  <5-HT7>
5

>  <Alpha-1A>
5

>  <Alpha-1B>
5

>  <Alpha-2A>
5

>  <Alpha-2B>
5

>  <Alpha-2C>
5

>  <DOPAMINE D1>
5

>  <DOPAMINE D2>
5

>  <DOPAMINE D4>
5

>  <DOPAMINE D5>
5

>  <Dopamine transporter>
6.18

>  <HISTAMINE H1>
5

>  <HISTAMINE H2>
5

>  <Muscarinic acetylcholine receptor M2>
5

>  <Muscarinic acetylcholine receptor M5>
5

>  <Norepinephrine transporter>
5

>  <Serotonin transporter>
5

$$$$
CGS12066B
  Marvin  02231216192D 0   1.00000     0.00000     0

 24 27  0  0  0  0  0  0  0  0999 V2000
   -0.9796   -3.3948    0.0000 F   0  0  0  0  0  0  0  0  0
   -0.1550   -3.4206    0.0000 C   0  0  0  0  0  0  0  0  0
   -0.1808   -4.2452    0.0000 F   0  0  0  0  0  0  0  0  0
   -0.1293   -2.5960    0.0000 F   0  0  0  0  0  0  0  0  0
    0.6696   -3.4463    0.0000 C   0  0  0  0  0  0  0  0  0
    1.1042   -2.7451    0.0000 C   0  0  0  0  0  0  0  0  0
    1.9288   -2.7708    0.0000 C   0  0  0  0  0  0  0  0  0
    2.3634   -2.0696    0.0000 N   0  0  0  0  0  0  0  0  0
    3.1880   -2.0954    0.0000 C   0  0  0  0  0  0  0  0  0
    3.6226   -1.3941    0.0000 N   0  0  0  0  0  0  0  0  0
    3.2326   -0.6671    0.0000 C   0  0  0  0  0  0  0  0  0
    3.6672    0.0341    0.0000 C   0  0  0  0  0  0  0  0  0
    4.4918    0.0084    0.0000 N   0  0  0  0  0  0  0  0  0
    4.8818   -0.7186    0.0000 C   0  0  0  0  0  0  0  0  0
    4.4472   -1.4199    0.0000 C   0  0  0  0  0  0  0  0  0
    4.9264    0.7096    0.0000 C   0  0  0  0  0  0  0  0  0
    3.5780   -2.8224    0.0000 C   0  0  0  0  0  0  0  0  0
    3.1434   -3.5236    0.0000 N   0  0  0  0  0  0  0  0  0
    2.3188   -3.4979    0.0000 C   0  0  0  0  0  0  0  0  0
    1.8842   -4.1991    0.0000 C   0  0  0  0  0  0  0  0  0
    1.0596   -4.1733    0.0000 C   0  0  0  0  0  0  0  0  0
    3.6760   -4.1536    0.0000 C   0  0  0  0  0  0  0  0  0
    4.4398   -3.8418    0.0000 C   0  0  0  0  0  0  0  0  0
    4.3792   -3.0190    0.0000 C   0  0  0  0  0  0  0  0  0
  1  2  1  0  0  0  0
  2  3  1  0  0  0  0
  2  4  1  0  0  0  0
  2  5  1  0  0  0  0
  5  6  4  0  0  0  0
  5 21  4  0  0  0  0
  6  7  4  0  0  0  0
  7  8  4  0  0  0  0
  7 19  4  0  0  0  0
  8  9  4  0  0  0  0
  9 10  1  0  0  0  0
  9 17  4  0  0  0  0
 10 11  1  0  0  0  0
 10 15  1  0  0  0  0
 11 12  1  0  0  0  0
 12 13  1  0  0  0  0
 13 14  1  0  0  0  0
 13 16  1  0  0  0  0
 14 15  1  0  0  0  0
 17 18  4  0  0  0  0
 17 24  4  0  0  0  0
 18 19  4  0  0  0  0
 18 22  4  0  0  0  0
 19 20  4  0  0  0  0
 20 21  4  0  0  0  0
 22 23  4  0  0  0  0
 23 24  4  0  0  0  0
M  END
>  <Name_Molregno>
CGS12066B

>  <5-HT1A>
7.36

>  <5-HT1B>
9.2

>  <5-HT1D>
8.59

>  <5-HT2A>
5.37

>  <5-HT2C>
5.6

>  <DOPAMINE D1>
5.82

>  <DOPAMINE D2>
5.76

>  <DOPAMINE D3>
6.24

$$$$
CHLORIMIPRAMINE
  Marvin  02231216192D 0   1.00000     0.00000     0

 22 24  0  0  0  0  0  0  0  0999 V2000
   -3.6433    1.4834    0.0000 Cl  0  0  0  0  0  0  0  0  0
   -3.8269    0.6791    0.0000 C   0  0  0  0  0  0  0  0  0
   -3.2221    0.1179    0.0000 C   0  0  0  0  0  0  0  0  0
   -3.4057   -0.6864    0.0000 C   0  0  0  0  0  0  0  0  0
   -2.7241   -1.1511    0.0000 N   0  0  0  0  0  0  0  0  0
   -2.6624   -1.9738    0.0000 C   0  0  0  0  0  0  0  0  0
   -3.2672   -2.5350    0.0000 C   0  0  0  0  0  0  0  0  0
   -4.0830   -2.4120    0.0000 C   0  0  0  0  0  0  0  0  0
   -4.4955   -1.6975    0.0000 C   0  0  0  0  0  0  0  0  0
   -4.1941   -0.9296    0.0000 C   0  0  0  0  0  0  0  0  0
   -4.7988   -0.3684    0.0000 C   0  0  0  0  0  0  0  0  0
   -4.6153    0.4359    0.0000 C   0  0  0  0  0  0  0  0  0
   -3.0836   -3.3393    0.0000 C   0  0  0  0  0  0  0  0  0
   -2.2953   -3.5825    0.0000 C   0  0  0  0  0  0  0  0  0
   -1.6905   -3.0213    0.0000 C   0  0  0  0  0  0  0  0  0
   -1.8741   -2.2170    0.0000 C   0  0  0  0  0  0  0  0  0
   -2.0096   -0.7386    0.0000 C   0  0  0  0  0  0  0  0  0
   -1.2951   -1.1511    0.0000 C   0  0  0  0  0  0  0  0  0
   -0.5807   -0.7386    0.0000 C   0  0  0  0  0  0  0  0  0
    0.1338   -1.1511    0.0000 N   0  0  0  0  0  0  0  0  0
    0.8483   -0.7386    0.0000 C   0  0  0  0  0  0  0  0  0
    0.1338   -1.9761    0.0000 C   0  0  0  0  0  0  0  0  0
  1  2  1  0  0  0  0
  2  3  4  0  0  0  0
  2 12  4  0  0  0  0
  3  4  4  0  0  0  0
  4  5  1  0  0  0  0
  4 10  4  0  0  0  0
  5  6  1  0  0  0  0
  5 17  1  0  0  0  0
  6  7  4  0  0  0  0
  6 16  4  0  0  0  0
  7  8  1  0  0  0  0
  7 13  4  0  0  0  0
  8  9  1  0  0  0  0
  9 10  1  0  0  0  0
 10 11  4  0  0  0  0
 11 12  4  0  0  0  0
 13 14  4  0  0  0  0
 14 15  4  0  0  0  0
 15 16  4  0  0  0  0
 17 18  1  0  0  0  0
 18 19  1  0  0  0  0
 19 20  1  0  0  0  0
 20 21  1  0  0  0  0
 20 22  1  0  0  0  0
M  END
>  <Name_Molregno>
CHLORIMIPRAMINE

>  <5-HT1A>
5

>  <5-HT1B>
5

>  <5-HT1D>
5

>  <5-HT2A>
7.45

>  <5-HT2C>
7.19

>  <Alpha-1A>
8.49

>  <Alpha-2A>
6.28

>  <DOPAMINE D1>
6.66

>  <DOPAMINE D2>
6.95

>  <DOPAMINE D3>
7.41

>  <Dopamine transporter>
5.61

>  <Norepinephrine transporter>
7.37

>  <Serotonin transporter>
9.81

$$$$
CHLOROPHENYLPIPERAZINE
  Marvin  02231216192D 0   1.00000     0.00000     0

 13 14  0  0  0  0  0  0  0  0999 V2000
    1.2605    1.9269    0.0000 Cl  0  0  0  0  0  0  0  0  0
    1.2605    1.1019    0.0000 C   0  0  0  0  0  0  0  0  0
    1.9750    0.6894    0.0000 C   0  0  0  0  0  0  0  0  0
    1.9750   -0.1356    0.0000 C   0  0  0  0  0  0  0  0  0
    2.6894   -0.5481    0.0000 N   0  0  0  0  0  0  0  0  0
    3.4039   -0.1356    0.0000 C   0  0  0  0  0  0  0  0  0
    4.1184   -0.5481    0.0000 C   0  0  0  0  0  0  0  0  0
    4.1184   -1.3731    0.0000 N   0  0  0  0  0  0  0  0  0
    3.4039   -1.7856    0.0000 C   0  0  0  0  0  0  0  0  0
    2.6894   -1.3731    0.0000 C   0  0  0  0  0  0  0  0  0
    1.2605   -0.5481    0.0000 C   0  0  0  0  0  0  0  0  0
    0.5460   -0.1356    0.0000 C   0  0  0  0  0  0  0  0  0
    0.5460    0.6894    0.0000 C   0  0  0  0  0  0  0  0  0
  1  2  1  0  0  0  0
  2  3  4  0  0  0  0
  2 13  4  0  0  0  0
  3  4  4  0  0  0  0
  4  5  1  0  0  0  0
  4 11  4  0  0  0  0
  5  6  1  0  0  0  0
  5 10  1  0  0  0  0
  6  7  1  0  0  0  0
  7  8  1  0  0  0  0
  8  9  1  0  0  0  0
  9 10  1  0  0  0  0
 11 12  4  0  0  0  0
 12 13  4  0  0  0  0
M  END
>  <Name_Molregno>
CHLOROPHENYLPIPERAZINE

>  <5-HT1A>
6.88

>  <5-HT1B>
6.72

>  <5-HT1D>
6.23

>  <5-HT2A>
7.01

>  <5-HT2C>
7.55

>  <5-HT3>
6.37

>  <5-HT5>
5.87

>  <5-HT6>
5.7

>  <5-HT7>
6.79

>  <Alpha-1A>
5.86

>  <Alpha-1B>
6.04

>  <Alpha-2A>
6.84

>  <Alpha-2B>
6.98

>  <Alpha-2C>
6.91

>  <Beta-1>
5.63

>  <Beta-2>
5.46

>  <DOPAMINE D1>
5.15

>  <DOPAMINE D2>
5

>  <DOPAMINE D5>
5

>  <HISTAMINE H1>
6.49

>  <Norepinephrine transporter>
5.36

>  <Serotonin transporter>
6.13

$$$$
CHLORPROMAZINE
  Marvin  02231216192D 0   1.00000     0.00000     0

 21 23  0  0  0  0  0  0  0  0999 V2000
   -1.3730   -3.5598    0.0000 Cl  0  0  0  0  0  0  0  0  0
   -2.0875   -3.1473    0.0000 C   0  0  0  0  0  0  0  0  0
   -2.0875   -2.3223    0.0000 C   0  0  0  0  0  0  0  0  0
   -2.8019   -1.9098    0.0000 C   0  0  0  0  0  0  0  0  0
   -2.8019   -1.0848    0.0000 N   0  0  0  0  0  0  0  0  0
   -3.5164   -0.6723    0.0000 C   0  0  0  0  0  0  0  0  0
   -4.2309   -1.0848    0.0000 C   0  0  0  0  0  0  0  0  0
   -4.2309   -1.9098    0.0000 S   0  0  0  0  0  0  0  0  0
   -3.5164   -2.3223    0.0000 C   0  0  0  0  0  0  0  0  0
   -3.5164   -3.1473    0.0000 C   0  0  0  0  0  0  0  0  0
   -2.8019   -3.5598    0.0000 C   0  0  0  0  0  0  0  0  0
   -4.9453   -0.6723    0.0000 C   0  0  0  0  0  0  0  0  0
   -4.9453    0.1527    0.0000 C   0  0  0  0  0  0  0  0  0
   -4.2309    0.5652    0.0000 C   0  0  0  0  0  0  0  0  0
   -3.5164    0.1527    0.0000 C   0  0  0  0  0  0  0  0  0
   -2.0875   -0.6723    0.0000 C   0  0  0  0  0  0  0  0  0
   -1.3730   -1.0848    0.0000 C   0  0  0  0  0  0  0  0  0
   -0.6585   -0.6723    0.0000 C   0  0  0  0  0  0  0  0  0
    0.0560   -1.0848    0.0000 N   0  0  0  0  0  0  0  0  0
    0.7704   -0.6723    0.0000 C   0  0  0  0  0  0  0  0  0
    0.0560   -1.9098    0.0000 C   0  0  0  0  0  0  0  0  0
  1  2  1  0  0  0  0
  2  3  4  0  0  0  0
  2 11  4  0  0  0  0
  3  4  4  0  0  0  0
  4  5  1  0  0  0  0
  4  9  4  0  0  0  0
  5  6  1  0  0  0  0
  5 16  1  0  0  0  0
  6  7  4  0  0  0  0
  6 15  4  0  0  0  0
  7  8  1  0  0  0  0
  7 12  4  0  0  0  0
  8  9  1  0  0  0  0
  9 10  4  0  0  0  0
 10 11  4  0  0  0  0
 12 13  4  0  0  0  0
 13 14  4  0  0  0  0
 14 15  4  0  0  0  0
 16 17  1  0  0  0  0
 17 18  1  0  0  0  0
 18 19  1  0  0  0  0
 19 20  1  0  0  0  0
 19 21  1  0  0  0  0
M  END
>  <Name_Molregno>
CHLORPROMAZINE

>  <5-HT1A>
5.98

>  <5-HT1B>
5.83

>  <5-HT1D>
6.34

>  <5-HT1E>
6.46

>  <5-HT2A>
8.36

>  <5-HT2C>
7.74

>  <5-HT3>
6.01

>  <5-HT5>
6.93

>  <5-HT6>
7.59

>  <5-HT7>
7.54

>  <Alpha-1A>
9.55

>  <Alpha-1B>
9.09

>  <Alpha-2A>
6.71

>  <Alpha-2B>
7.81

>  <Alpha-2C>
7.36

>  <Beta-1>
5

>  <Beta-2>
5

>  <DOPAMINE D1>
7.1

>  <DOPAMINE D2>
8.51

>  <DOPAMINE D3>
8.58

>  <DOPAMINE D4>
8.03

>  <DOPAMINE D5>
6.82

>  <Dopamine transporter>
5

>  <HISTAMINE H1>
8.47

>  <HISTAMINE H2>
6.76

>  <HISTAMINE H3>
6

>  <HISTAMINE H4>
6.3

>  <Muscarinic acetylcholine receptor M1>
7.36

>  <Muscarinic acetylcholine receptor M2>
6.67

>  <Muscarinic acetylcholine receptor M3>
7.25

>  <Muscarinic acetylcholine receptor M4>
7.11

>  <Muscarinic acetylcholine receptor M5>
7.5

>  <Norepinephrine transporter>
5.61

>  <Serotonin transporter>
6.54

$$$$
cis-Thiothixene
  Marvin  02231216192D 0   1.00000     0.00000     0

 30 33  0  0  0  0  0  0  0  0999 V2000
    1.0940   -3.6931    0.0000 S   0  0  0  0  0  0  0  0  0
    1.8085   -3.2806    0.0000 C   0  0  0  0  0  0  0  0  0
    1.8085   -2.4556    0.0000 C   0  0  0  0  0  0  0  0  0
    2.5230   -2.0431    0.0000 C   0  0  0  0  0  0  0  0  0
    3.2375   -2.4556    0.0000 C   0  0  0  0  0  0  0  0  0
    3.9519   -2.0431    0.0000 S   0  0  0  0  0  0  0  0  0
    3.5394   -1.3286    0.0000 O   0  0  0  0  0  0  0  0  0
    4.3644   -2.7575    0.0000 O   0  0  0  0  0  0  0  0  0
    4.6664   -1.6306    0.0000 N   0  0  0  0  0  0  0  0  0
    5.3809   -2.0431    0.0000 C   0  0  0  0  0  0  0  0  0
    4.6664   -0.8056    0.0000 C   0  0  0  0  0  0  0  0  0
    3.2375   -3.2806    0.0000 C   0  0  0  0  0  0  0  0  0
    2.5230   -3.6931    0.0000 C   0  0  0  0  0  0  0  0  0
    1.0940   -2.0431    0.0000 C   0  0  0  0  0  0  0  0  0
    0.3796   -2.4556    0.0000 C   0  0  0  0  0  0  0  0  0
    0.3796   -3.2806    0.0000 C   0  0  0  0  0  0  0  0  0
   -0.3349   -3.6931    0.0000 C   0  0  0  0  0  0  0  0  0
   -1.0494   -3.2806    0.0000 C   0  0  0  0  0  0  0  0  0
   -1.0494   -2.4556    0.0000 C   0  0  0  0  0  0  0  0  0
   -0.3349   -2.0431    0.0000 C   0  0  0  0  0  0  0  0  0
    1.0940   -1.2181    0.0000 C   0  0  0  0  0  0  0  0  0
    0.3796   -0.8056    0.0000 C   0  0  0  0  0  0  0  0  0
   -0.3349   -1.2181    0.0000 C   0  0  0  0  0  0  0  0  0
   -1.0494   -0.8056    0.0000 N   0  0  0  0  0  0  0  0  0
   -1.7638   -1.2181    0.0000 C   0  0  0  0  0  0  0  0  0
   -2.4783   -0.8056    0.0000 C   0  0  0  0  0  0  0  0  0
   -2.4783    0.0194    0.0000 N   0  0  0  0  0  0  0  0  0
   -1.7638    0.4319    0.0000 C   0  0  0  0  0  0  0  0  0
   -1.0494    0.0194    0.0000 C   0  0  0  0  0  0  0  0  0
   -3.1928    0.4319    0.0000 C   0  0  0  0  0  0  0  0  0
  1  2  1  0  0  0  0
  1 16  1  0  0  0  0
  2  3  4  0  0  0  0
  2 13  4  0  0  0  0
  3  4  4  0  0  0  0
  3 14  1  0  0  0  0
  4  5  4  0  0  0  0
  5  6  1  0  0  0  0
  5 12  4  0  0  0  0
  6  7  2  0  0  0  0
  6  8  2  0  0  0  0
  6  9  1  0  0  0  0
  9 10  1  0  0  0  0
  9 11  1  0  0  0  0
 12 13  4  0  0  0  0
 14 15  1  0  0  0  0
 14 21  2  0  0  0  0
 15 16  4  0  0  0  0
 15 20  4  0  0  0  0
 16 17  4  0  0  0  0
 17 18  4  0  0  0  0
 18 19  4  0  0  0  0
 19 20  4  0  0  0  0
 21 22  1  0  0  0  0
 22 23  1  0  0  0  0
 23 24  1  0  0  0  0
 24 25  1  0  0  0  0
 24 29  1  0  0  0  0
 25 26  1  0  0  0  0
 26 27  1  0  0  0  0
 27 28  1  0  0  0  0
 27 30  1  0  0  0  0
 28 29  1  0  0  0  0
M  END
>  <Name_Molregno>
cis-Thiothixene

>  <5-HT1A>
6.39

>  <5-HT1B>
6.82

>  <5-HT1D>
6.18

>  <5-HT1E>
5

>  <5-HT2A>
7.42

>  <5-HT2C>
5.87

>  <5-HT3>
5.73

>  <5-HT5>
6.44

>  <5-HT6>
6.62

>  <5-HT7>
7.82

>  <Alpha-1A>
7.94

>  <Alpha-1B>
7.46

>  <Alpha-2A>
7.1

>  <Alpha-2B>
7.3

>  <Alpha-2C>
7.28

>  <Beta-1>
5

>  <Beta-2>
5

>  <DOPAMINE D1>
7.29

>  <DOPAMINE D2>
9.56

>  <DOPAMINE D3>
9.41

>  <DOPAMINE D4>
6.86

>  <DOPAMINE D5>
6.58

>  <Dopamine transporter>
5

>  <HISTAMINE H1>
8.23

>  <HISTAMINE H2>
6.39

>  <HISTAMINE H4>
5

>  <Muscarinic acetylcholine receptor M1>
5.3

>  <Muscarinic acetylcholine receptor M2>
5.34

>  <Muscarinic acetylcholine receptor M3>
5.27

>  <Muscarinic acetylcholine receptor M4>
5.4

>  <Muscarinic acetylcholine receptor M5>
5.32

>  <Norepinephrine transporter>
5

>  <Serotonin transporter>
5.41

$$$$
CITALOPRAM
  Marvin  02231216192D 0   1.00000     0.00000     0

 24 26  0  0  1  0  0  0  0  0999 V2000
   -2.6333   -5.3696    0.0000 F   0  0  0  0  0  0  0  0  0
   -2.2977   -4.6160    0.0000 C   0  0  0  0  0  0  0  0  0
   -2.7827   -3.9485    0.0000 C   0  0  0  0  0  0  0  0  0
   -2.4471   -3.1948    0.0000 C   0  0  0  0  0  0  0  0  0
   -1.6266   -3.1086    0.0000 C   0  0  0  0  0  0  0  0  0
   -1.1417   -3.7760    0.0000 C   0  0  0  0  0  0  0  0  0
   -1.4772   -4.5297    0.0000 C   0  0  0  0  0  0  0  0  0
   -1.2911   -2.3549    0.0000 C   0  0  0  0  0  0  0  0  0
   -0.8061   -1.6875    0.0000 O   0  0  0  0  0  0  0  0  0
   -1.2911   -1.0201    0.0000 C   0  0  0  0  0  0  0  0  0
   -2.0757   -1.2750    0.0000 C   0  0  0  0  0  0  0  0  0
   -2.0757   -2.1000    0.0000 C   0  0  0  0  0  0  0  0  0
   -2.7901   -2.5125    0.0000 C   0  0  0  0  0  0  0  0  0
   -3.5046   -2.1000    0.0000 C   0  0  0  0  0  0  0  0  0
   -3.5046   -1.2750    0.0000 C   0  0  0  0  0  0  0  0  0
   -2.7901   -0.8625    0.0000 C   0  0  0  0  0  0  0  0  0
   -4.2191   -0.8625    0.0000 C   0  0  0  0  0  0  0  0  0
   -4.9336   -0.4500    0.0000 N   0  0  0  0  0  0  0  0  0
   -0.5766   -2.7674    0.0000 C   0  0  0  0  0  0  0  0  0
    0.1379   -2.3549    0.0000 C   0  0  0  0  0  0  0  0  0
    0.8524   -2.7674    0.0000 C   0  0  0  0  0  0  0  0  0
    1.5668   -2.3549    0.0000 N   0  0  0  0  0  0  0  0  0
    1.5668   -1.5299    0.0000 C   0  0  0  0  0  0  0  0  0
    2.2813   -2.7674    0.0000 C   0  0  0  0  0  0  0  0  0
  1  2  1  0  0  0  0
  2  3  4  0  0  0  0
  2  7  4  0  0  0  0
  3  4  4  0  0  0  0
  4  5  4  0  0  0  0
  5  6  4  0  0  0  0
  5  8  1  0  0  0  0
  6  7  4  0  0  0  0
  8  9  1  0  0  0  0
  8 12  1  0  0  0  0
  8 19  1  0  0  0  0
  9 10  1  0  0  0  0
 10 11  1  0  0  0  0
 11 12  4  0  0  0  0
 11 16  4  0  0  0  0
 12 13  4  0  0  0  0
 13 14  4  0  0  0  0
 14 15  4  0  0  0  0
 15 16  4  0  0  0  0
 15 17  1  0  0  0  0
 17 18  3  0  0  0  0
 19 20  1  0  0  0  0
 20 21  1  0  0  0  0
 21 22  1  0  0  0  0
 22 23  1  0  0  0  0
 22 24  1  0  0  0  0
M  END
>  <Name_Molregno>
CITALOPRAM

>  <5-HT1A>
5

>  <5-HT1B>
5

>  <5-HT1D>
5

>  <5-HT2A>
5.1

>  <5-HT2C>
6.21

>  <Alpha-1A>
5

>  <Alpha-2A>
5

>  <DOPAMINE D2>
5

>  <DOPAMINE D3>
5

>  <Dopamine transporter>
5

>  <Muscarinic acetylcholine receptor M1>
5.88

>  <Norepinephrine transporter>
5.17

>  <Serotonin transporter>
8.45

$$$$
CLOZAPINE
  Marvin  02231216192D 0   1.00000     0.00000     0

 23 26  0  0  0  0  0  0  0  0999 V2000
   -0.5622   -2.2603    0.0000 Cl  0  0  0  0  0  0  0  0  0
    0.2262   -2.5035    0.0000 C   0  0  0  0  0  0  0  0  0
    0.8309   -1.9424    0.0000 C   0  0  0  0  0  0  0  0  0
    1.6193   -2.1855    0.0000 C   0  0  0  0  0  0  0  0  0
    2.1337   -1.5405    0.0000 N   0  0  0  0  0  0  0  0  0
    2.9587   -1.5405    0.0000 C   0  0  0  0  0  0  0  0  0
    3.3166   -0.7972    0.0000 N   0  0  0  0  0  0  0  0  0
    2.8519   -0.1156    0.0000 C   0  0  0  0  0  0  0  0  0
    3.2098    0.6277    0.0000 C   0  0  0  0  0  0  0  0  0
    4.0325    0.6894    0.0000 N   0  0  0  0  0  0  0  0  0
    4.4973    0.0077    0.0000 C   0  0  0  0  0  0  0  0  0
    4.1393   -0.7356    0.0000 C   0  0  0  0  0  0  0  0  0
    4.3905    1.4327    0.0000 C   0  0  0  0  0  0  0  0  0
    3.4730   -2.1855    0.0000 C   0  0  0  0  0  0  0  0  0
    3.2895   -2.9898    0.0000 C   0  0  0  0  0  0  0  0  0
    2.5462   -3.3478    0.0000 N   0  0  0  0  0  0  0  0  0
    1.8029   -2.9898    0.0000 C   0  0  0  0  0  0  0  0  0
    1.1981   -3.5510    0.0000 C   0  0  0  0  0  0  0  0  0
    0.4098   -3.3078    0.0000 C   0  0  0  0  0  0  0  0  0
    3.8942   -3.5510    0.0000 C   0  0  0  0  0  0  0  0  0
    4.6826   -3.3078    0.0000 C   0  0  0  0  0  0  0  0  0
    4.8662   -2.5035    0.0000 C   0  0  0  0  0  0  0  0  0
    4.2614   -1.9424    0.0000 C   0  0  0  0  0  0  0  0  0
  1  2  1  0  0  0  0
  2  3  4  0  0  0  0
  2 19  4  0  0  0  0
  3  4  4  0  0  0  0
  4  5  1  0  0  0  0
  4 17  4  0  0  0  0
  5  6  1  0  0  0  0
  6  7  1  0  0  0  0
  6 14  2  0  0  0  0
  7  8  1  0  0  0  0
  7 12  1  0  0  0  0
  8  9  1  0  0  0  0
  9 10  1  0  0  0  0
 10 11  1  0  0  0  0
 10 13  1  0  0  0  0
 11 12  1  0  0  0  0
 14 15  1  0  0  0  0
 14 23  1  0  0  0  0
 15 16  2  0  0  0  0
 15 20  1  0  0  0  0
 16 17  1  0  0  0  0
 17 18  4  0  0  0  0
 18 19  4  0  0  0  0
 20 21  2  0  0  0  0
 21 22  1  0  0  0  0
 22 23  2  0  0  0  0
M  END
>  <Name_Molregno>
CLOZAPINE

>  <5-HT1A>
6.88

>  <5-HT1B>
6.33

>  <5-HT1D>
6.27

>  <5-HT1E>
6.19

>  <5-HT2A>
8.22

>  <5-HT2C>
8

>  <5-HT3>
6.62

>  <5-HT5>
5.41

>  <5-HT6>
7.9

>  <5-HT7>
8.05

>  <Alpha-1A>
8.8

>  <Alpha-1B>
8.15

>  <Alpha-2A>
7.15

>  <Alpha-2B>
7.61

>  <Alpha-2C>
7.88

>  <Beta-1>
5.15

>  <Beta-2>
5.39

>  <DOPAMINE D1>
6.69

>  <DOPAMINE D2>
6.9

>  <DOPAMINE D3>
6.62

>  <DOPAMINE D4>
7.62

>  <DOPAMINE D5>
6.62

>  <Dopamine transporter>
5

>  <HISTAMINE H1>
8.81

>  <HISTAMINE H2>
6.82

>  <HISTAMINE H3>
5.25

>  <HISTAMINE H4>
6.15

>  <Muscarinic acetylcholine receptor M1>
8.26

>  <Muscarinic acetylcholine receptor M2>
7.17

>  <Muscarinic acetylcholine receptor M3>
7.59

>  <Muscarinic acetylcholine receptor M4>
7.85

>  <Muscarinic acetylcholine receptor M5>
7.79

>  <Norepinephrine transporter>
5.5

>  <Serotonin transporter>
5.73

$$$$
CYANOPINDOLOL
  Marvin  02231216192D 0   1.00000     0.00000     0

 21 22  0  0  1  0  0  0  0  0999 V2000
    0.0128   -0.0601    0.0000 O   0  0  0  0  0  0  0  0  0
    0.7273    0.3524    0.0000 C   0  0  0  0  0  0  0  0  0
    1.4417   -0.0601    0.0000 C   0  0  0  0  0  0  0  0  0
    1.4417   -0.8851    0.0000 O   0  0  0  0  0  0  0  0  0
    2.1562    0.3524    0.0000 C   0  0  0  0  0  0  0  0  0
    2.8707   -0.0601    0.0000 N   0  0  0  0  0  0  0  0  0
    3.5851    0.3524    0.0000 C   0  0  0  0  0  0  0  0  0
    4.2996    0.7649    0.0000 C   0  0  0  0  0  0  0  0  0
    3.1726    1.0669    0.0000 C   0  0  0  0  0  0  0  0  0
    3.9976   -0.3621    0.0000 C   0  0  0  0  0  0  0  0  0
   -0.7017    0.3524    0.0000 C   0  0  0  0  0  0  0  0  0
   -1.4162   -0.0601    0.0000 C   0  0  0  0  0  0  0  0  0
   -1.5877   -0.8671    0.0000 C   0  0  0  0  0  0  0  0  0
   -2.4082   -0.9533    0.0000 C   0  0  0  0  0  0  0  0  0
   -2.7437   -0.1996    0.0000 N   0  0  0  0  0  0  0  0  0
   -2.1306    0.3524    0.0000 C   0  0  0  0  0  0  0  0  0
   -2.1306    1.1774    0.0000 C   0  0  0  0  0  0  0  0  0
   -1.4162    1.5899    0.0000 C   0  0  0  0  0  0  0  0  0
   -0.7017    1.1774    0.0000 C   0  0  0  0  0  0  0  0  0
   -2.8207   -1.6678    0.0000 C   0  0  0  0  0  0  0  0  0
   -3.2332   -2.3823    0.0000 N   0  0  0  0  0  0  0  0  0
  1  2  1  0  0  0  0
  1 11  1  0  0  0  0
  2  3  1  0  0  0  0
  3  4  1  0  0  0  0
  3  5  1  0  0  0  0
  5  6  1  0  0  0  0
  6  7  1  0  0  0  0
  7  8  1  0  0  0  0
  7  9  1  0  0  0  0
  7 10  1  0  0  0  0
 11 12  4  0  0  0  0
 11 19  4  0  0  0  0
 12 13  4  0  0  0  0
 12 16  4  0  0  0  0
 13 14  4  0  0  0  0
 14 15  4  0  0  0  0
 14 20  1  0  0  0  0
 15 16  4  0  0  0  0
 16 17  4  0  0  0  0
 17 18  4  0  0  0  0
 18 19  4  0  0  0  0
 20 21  3  0  0  0  0
M  STY  1   1 DAT
M  SAL   1  1  15
M  SDT   1 MRV_IMPLICIT_H                                        
M  SDD   1     0.0000    0.0000    DR    ALL  0       0  
M  SED   1 IMPL_H1
M  END
>  <Name_Molregno>
CYANOPINDOLOL

>  <5-HT1B>
7.66

>  <5-HT1D>
7.07

$$$$
D-cystine
  Marvin  02231216192D 0   1.00000     0.00000     0

 14 13  0  0  1  0  0  0  0  0999 V2000
    0.5597    0.5534    0.0000 S   0  0  0  0  0  0  0  0  0
   -0.1548    0.1409    0.0000 S   0  0  0  0  0  0  0  0  0
   -0.8693    0.5534    0.0000 C   0  0  0  0  0  0  0  0  0
   -1.5838    0.1409    0.0000 C   0  0  0  0  0  0  0  0  0
   -1.5838   -0.6841    0.0000 N   0  0  0  0  0  0  0  0  0
   -2.2982    0.5534    0.0000 C   0  0  0  0  0  0  0  0  0
   -3.0127    0.1409    0.0000 O   0  0  0  0  0  0  0  0  0
   -2.2982    1.3784    0.0000 O   0  0  0  0  0  0  0  0  0
    1.2741    0.1409    0.0000 C   0  0  0  0  0  0  0  0  0
    1.9886    0.5534    0.0000 C   0  0  0  0  0  0  0  0  0
    1.9886    1.3784    0.0000 N   0  0  0  0  0  0  0  0  0
    2.7031    0.1409    0.0000 C   0  0  0  0  0  0  0  0  0
    3.4175    0.5534    0.0000 O   0  0  0  0  0  0  0  0  0
    2.7031   -0.6841    0.0000 O   0  0  0  0  0  0  0  0  0
  1  2  1  0  0  0  0
  1  9  1  0  0  0  0
  2  3  1  0  0  0  0
  3  4  1  0  0  0  0
  4  5  1  0  0  0  0
  4  6  1  0  0  0  0
  6  7  1  0  0  0  0
  6  8  2  0  0  0  0
  9 10  1  0  0  0  0
 10 11  1  0  0  0  0
 10 12  1  0  0  0  0
 12 13  1  0  0  0  0
 12 14  2  0  0  0  0
M  END
>  <Name_Molregno>
D-cystine

>  <5-HT1A>
5

>  <5-HT1B>
5

>  <5-HT1D>
5

>  <5-HT3>
5

>  <5-HT5>
5

>  <5-HT6>
5

>  <5-HT7>
5

>  <Alpha-1A>
5

>  <Alpha-1B>
5

>  <Alpha-2A>
5

>  <Alpha-2B>
5

>  <Alpha-2C>
5

>  <DOPAMINE D1>
5

>  <DOPAMINE D2>
5

>  <DOPAMINE D3>
5

>  <DOPAMINE D5>
5

>  <Dopamine transporter>
5

>  <HISTAMINE H1>
5

>  <HISTAMINE H2>
5

>  <HISTAMINE H4>
5

>  <Muscarinic acetylcholine receptor M1>
5

>  <Muscarinic acetylcholine receptor M2>
5

>  <Muscarinic acetylcholine receptor M3>
5

>  <Muscarinic acetylcholine receptor M4>
5

>  <Muscarinic acetylcholine receptor M5>
5

>  <Norepinephrine transporter>
5

>  <Serotonin transporter>
5

$$$$
d-Fenfluramine
  Marvin  02231216192D 0   1.00000     0.00000     0

 16 16  0  0  1  0  0  0  0  0999 V2000
   -5.1694    0.5172    0.0000 F   0  0  0  0  0  0  0  0  0
   -4.4549    0.1047    0.0000 C   0  0  0  0  0  0  0  0  0
   -4.8674   -0.6097    0.0000 F   0  0  0  0  0  0  0  0  0
   -4.0424    0.8192    0.0000 F   0  0  0  0  0  0  0  0  0
   -3.7405   -0.3078    0.0000 C   0  0  0  0  0  0  0  0  0
   -3.0260    0.1047    0.0000 C   0  0  0  0  0  0  0  0  0
   -2.3115   -0.3078    0.0000 C   0  0  0  0  0  0  0  0  0
   -2.3115   -1.1328    0.0000 C   0  0  0  0  0  0  0  0  0
   -3.0260   -1.5453    0.0000 C   0  0  0  0  0  0  0  0  0
   -3.7405   -1.1328    0.0000 C   0  0  0  0  0  0  0  0  0
   -1.5971    0.1047    0.0000 C   0  0  0  0  0  0  0  0  0
   -0.8826   -0.3078    0.0000 C   0  0  0  0  0  0  0  0  0
   -0.1681    0.1047    0.0000 N   0  0  0  0  0  0  0  0  0
    0.5464   -0.3078    0.0000 C   0  0  0  0  0  0  0  0  0
    1.2608    0.1047    0.0000 C   0  0  0  0  0  0  0  0  0
   -0.8826   -1.1328    0.0000 C   0  0  0  0  0  0  0  0  0
  1  2  1  0  0  0  0
  2  3  1  0  0  0  0
  2  4  1  0  0  0  0
  2  5  1  0  0  0  0
  5  6  4  0  0  0  0
  5 10  4  0  0  0  0
  6  7  4  0  0  0  0
  7  8  4  0  0  0  0
  7 11  1  0  0  0  0
  8  9  4  0  0  0  0
  9 10  4  0  0  0  0
 11 12  1  0  0  0  0
 12 13  1  0  0  0  0
 12 16  1  0  0  0  0
 13 14  1  0  0  0  0
 14 15  1  0  0  0  0
M  END
>  <Name_Molregno>
d-Fenfluramine

>  <5-HT1A>
6.11

>  <5-HT1B>
5.67

>  <5-HT1D>
5.79

>  <5-HT1E>
5

>  <5-HT2A>
5.92

>  <5-HT2C>
6.27

>  <5-HT3>
5

>  <5-HT5>
5

>  <5-HT6>
5.01

>  <5-HT7>
5.17

>  <Alpha-1A>
5.52

>  <Alpha-1B>
5.62

>  <Alpha-2A>
6.26

>  <Alpha-2B>
6.65

>  <Alpha-2C>
6.68

>  <Beta-1>
5.67

>  <Beta-2>
5.07

>  <DOPAMINE D1>
5

>  <DOPAMINE D2>
5

>  <DOPAMINE D4>
5

>  <DOPAMINE D5>
5

>  <Dopamine transporter>
5

>  <HISTAMINE H1>
5

>  <HISTAMINE H2>
5

>  <Muscarinic acetylcholine receptor M1>
5.61

>  <Muscarinic acetylcholine receptor M2>
5.39

>  <Muscarinic acetylcholine receptor M3>
5.22

>  <Muscarinic acetylcholine receptor M4>
5.1

>  <Muscarinic acetylcholine receptor M5>
5

>  <Norepinephrine transporter>
5

>  <Serotonin transporter>
6.18

$$$$
DHE
  Marvin  02231216192D 0   1.00000     0.00000     0

 43 50  0  0  1  0  0  0  0  0999 V2000
   -2.1239   -1.0172    0.0000 O   0  0  0  0  0  0  0  0  0
   -1.3035   -1.1045    0.0000 C   0  0  0  0  0  0  0  0  0
   -1.3025   -0.2795    0.0000 N   0  0  0  0  0  0  0  0  0
   -0.5876    0.1322    0.0000 C   0  0  0  0  0  0  0  0  0
    0.1264   -0.2812    0.0000 O   0  0  0  0  0  0  0  0  0
   -0.5866    0.9572    0.0000 C   0  0  0  0  0  0  0  0  0
    0.1284    1.3688    0.0000 C   0  0  0  0  0  0  0  0  0
    0.1294    2.1938    0.0000 C   0  0  0  0  0  0  0  0  0
   -0.5846    2.6072    0.0000 C   0  0  0  0  0  0  0  0  0
   -1.2996    2.1955    0.0000 N   0  0  0  0  0  0  0  0  0
   -1.3006    1.3705    0.0000 C   0  0  0  0  0  0  0  0  0
   -2.0136    2.6089    0.0000 C   0  0  0  0  0  0  0  0  0
   -0.5831    3.4313    0.0000 C   0  0  0  0  0  0  0  0  0
    0.1294    3.8438    0.0000 C   0  0  0  0  0  0  0  0  0
    0.8419    3.4313    0.0000 C   0  0  0  0  0  0  0  0  0
    0.8419    2.6063    0.0000 C   0  0  0  0  0  0  0  0  0
    1.5597    2.1938    0.0000 C   0  0  0  0  0  0  0  0  0
    2.2722    2.6063    0.0000 C   0  0  0  0  0  0  0  0  0
    2.2722    3.4313    0.0000 C   0  0  0  0  0  0  0  0  0
    1.5597    3.8438    0.0000 C   0  0  0  0  0  0  0  0  0
    1.2544    4.7010    0.0000 N   0  0  0  0  0  0  0  0  0
    0.4294    4.7010    0.0000 C   0  0  0  0  0  0  0  0  0
   -0.4830   -1.0192    0.0000 C   0  0  0  0  0  0  0  0  0
   -1.1330   -1.9116    0.0000 C   0  0  0  0  0  0  0  0  0
   -0.3797   -2.2481    0.0000 O   0  0  0  0  0  0  0  0  0
   -1.8479   -2.3233    0.0000 N   0  0  0  0  0  0  0  0  0
   -2.0204   -3.1301    0.0000 C   0  0  0  0  0  0  0  0  0
   -1.4080   -3.6828    0.0000 C   0  0  0  0  0  0  0  0  0
   -1.5805   -4.4896    0.0000 C   0  0  0  0  0  0  0  0  0
   -0.9681   -5.0424    0.0000 C   0  0  0  0  0  0  0  0  0
   -1.1406   -5.8491    0.0000 C   0  0  0  0  0  0  0  0  0
   -1.9255   -6.1031    0.0000 C   0  0  0  0  0  0  0  0  0
   -2.5379   -5.5504    0.0000 C   0  0  0  0  0  0  0  0  0
   -2.3654   -4.7436    0.0000 C   0  0  0  0  0  0  0  0  0
   -2.8054   -3.3841    0.0000 C   0  0  0  0  0  0  0  0  0
   -2.9779   -4.1908    0.0000 O   0  0  0  0  0  0  0  0  0
   -3.4178   -2.8313    0.0000 N   0  0  0  0  0  0  0  0  0
   -3.2453   -2.0245    0.0000 C   0  0  0  0  0  0  0  0  0
   -3.9593   -1.6112    0.0000 C   0  0  0  0  0  0  0  0  0
   -4.5730   -2.1625    0.0000 C   0  0  0  0  0  0  0  0  0
   -4.2384   -2.9165    0.0000 C   0  0  0  0  0  0  0  0  0
   -2.4604   -1.7705    0.0000 C   0  0  0  0  0  0  0  0  0
   -3.0117   -1.1568    0.0000 O   0  0  0  0  0  0  0  0  0
  1  2  1  0  0  0  0
  1 42  1  0  0  0  0
  2  3  1  0  0  0  0
  2 23  1  0  0  0  0
  2 24  1  0  0  0  0
  3  4  1  0  0  0  0
  4  5  2  0  0  0  0
  4  6  1  0  0  0  0
  6  7  1  0  0  0  0
  6 11  1  0  0  0  0
  7  8  1  0  0  0  0
  8  9  1  0  0  0  0
  8 16  1  0  0  0  0
  9 10  1  0  0  0  0
  9 13  1  0  0  0  0
 10 11  1  0  0  0  0
 10 12  1  0  0  0  0
 13 14  1  0  0  0  0
 14 15  4  0  0  0  0
 14 22  4  0  0  0  0
 15 16  4  0  0  0  0
 15 20  4  0  0  0  0
 16 17  4  0  0  0  0
 17 18  4  0  0  0  0
 18 19  4  0  0  0  0
 19 20  4  0  0  0  0
 20 21  4  0  0  0  0
 21 22  4  0  0  0  0
 24 25  2  0  0  0  0
 24 26  1  0  0  0  0
 26 27  1  0  0  0  0
 26 42  1  0  0  0  0
 27 28  1  0  0  0  0
 27 35  1  0  0  0  0
 28 29  1  0  0  0  0
 29 30  4  0  0  0  0
 29 34  4  0  0  0  0
 30 31  4  0  0  0  0
 31 32  4  0  0  0  0
 32 33  4  0  0  0  0
 33 34  4  0  0  0  0
 35 36  2  0  0  0  0
 35 37  1  0  0  0  0
 37 38  1  0  0  0  0
 37 41  1  0  0  0  0
 38 39  1  0  0  0  0
 38 42  1  0  0  0  0
 39 40  1  0  0  0  0
 40 41  1  0  0  0  0
 42 43  1  0  0  0  0
M  STY  1   1 DAT
M  SAL   1  1  21
M  SDT   1 MRV_IMPLICIT_H                                        
M  SDD   1     0.0000    0.0000    DR    ALL  0       0  
M  SED   1 IMPL_H1
M  END
>  <Name_Molregno>
DHE

>  <5-HT1A>
8.82

>  <5-HT1B>
9.62

>  <5-HT1D>
9.89

>  <5-HT6>
8.27

>  <5-HT7>
8.04

>  <DOPAMINE D1>
5.56

>  <DOPAMINE D2>
8.3

>  <DOPAMINE D3>
7.8

$$$$
Diclofenac
  Marvin  02231216192D 0   1.00000     0.00000     0

 19 20  0  0  0  0  0  0  0  0999 V2000
    1.8639   -0.1839    0.0000 Cl  0  0  0  0  0  0  0  0  0
    1.8639   -1.0089    0.0000 C   0  0  0  0  0  0  0  0  0
    2.5784   -1.4214    0.0000 C   0  0  0  0  0  0  0  0  0
    2.5784   -2.2464    0.0000 C   0  0  0  0  0  0  0  0  0
    1.8639   -2.6589    0.0000 C   0  0  0  0  0  0  0  0  0
    1.1494   -2.2464    0.0000 C   0  0  0  0  0  0  0  0  0
    0.4350   -2.6589    0.0000 Cl  0  0  0  0  0  0  0  0  0
    1.1494   -1.4214    0.0000 C   0  0  0  0  0  0  0  0  0
    0.4350   -1.0089    0.0000 N   0  0  0  0  0  0  0  0  0
   -0.2795   -1.4214    0.0000 C   0  0  0  0  0  0  0  0  0
   -0.2795   -2.2464    0.0000 C   0  0  0  0  0  0  0  0  0
   -0.9940   -2.6589    0.0000 C   0  0  0  0  0  0  0  0  0
   -1.7085   -2.2464    0.0000 C   0  0  0  0  0  0  0  0  0
   -1.7085   -1.4214    0.0000 C   0  0  0  0  0  0  0  0  0
   -0.9940   -1.0089    0.0000 C   0  0  0  0  0  0  0  0  0
   -0.9940   -0.1839    0.0000 C   0  0  0  0  0  0  0  0  0
   -0.2795    0.2286    0.0000 C   0  0  0  0  0  0  0  0  0
   -0.2795    1.0536    0.0000 O   0  0  0  0  0  0  0  0  0
    0.4350   -0.1839    0.0000 O   0  0  0  0  0  0  0  0  0
  1  2  1  0  0  0  0
  2  3  4  0  0  0  0
  2  8  4  0  0  0  0
  3  4  4  0  0  0  0
  4  5  4  0  0  0  0
  5  6  4  0  0  0  0
  6  7  1  0  0  0  0
  6  8  4  0  0  0  0
  8  9  1  0  0  0  0
  9 10  1  0  0  0  0
 10 11  4  0  0  0  0
 10 15  4  0  0  0  0
 11 12  4  0  0  0  0
 12 13  4  0  0  0  0
 13 14  4  0  0  0  0
 14 15  4  0  0  0  0
 15 16  1  0  0  0  0
 16 17  1  0  0  0  0
 17 18  1  0  0  0  0
 17 19  2  0  0  0  0
M  END
>  <Name_Molregno>
Diclofenac

>  <5-HT1A>
5

>  <5-HT1B>
5

>  <5-HT1D>
5

>  <5-HT1E>
5

>  <5-HT2A>
5

>  <5-HT3>
5

>  <5-HT5>
5

>  <5-HT6>
5

>  <5-HT7>
5

>  <Alpha-1A>
5

>  <Alpha-1B>
5

>  <Alpha-2A>
5

>  <Alpha-2B>
5

>  <Alpha-2C>
5

>  <DOPAMINE D1>
5

>  <DOPAMINE D2>
5

>  <DOPAMINE D4>
5

>  <DOPAMINE D5>
5

>  <HISTAMINE H1>
5

>  <HISTAMINE H2>
5

>  <Muscarinic acetylcholine receptor M2>
5

>  <Muscarinic acetylcholine receptor M5>
5

$$$$
DL-homocysteic-acid
  Marvin  02231216192D 0   1.00000     0.00000     0

 11 10  0  0  1  0  0  0  0  0999 V2000
   -2.6928   -0.0066    0.0000 S   0  0  0  0  0  0  0  0  0
   -3.4073   -0.4191    0.0000 O   0  0  0  0  0  0  0  0  0
   -2.2803   -0.7210    0.0000 O   0  0  0  0  0  0  0  0  0
   -3.1053    0.7079    0.0000 O   0  0  0  0  0  0  0  0  0
   -1.9783    0.4059    0.0000 C   0  0  0  0  0  0  0  0  0
   -1.2639   -0.0066    0.0000 C   0  0  0  0  0  0  0  0  0
   -0.5494    0.4059    0.0000 C   0  0  0  0  0  0  0  0  0
   -0.5494    1.2309    0.0000 N   0  0  0  0  0  0  0  0  0
    0.1651   -0.0066    0.0000 C   0  0  0  0  0  0  0  0  0
    0.8795    0.4059    0.0000 O   0  0  0  0  0  0  0  0  0
    0.1651   -0.8316    0.0000 O   0  0  0  0  0  0  0  0  0
  1  2  2  0  0  0  0
  1  3  2  0  0  0  0
  1  4  1  0  0  0  0
  1  5  1  0  0  0  0
  5  6  1  0  0  0  0
  6  7  1  0  0  0  0
  7  8  1  0  0  0  0
  7  9  1  0  0  0  0
  9 10  1  0  0  0  0
  9 11  2  0  0  0  0
M  END
>  <Name_Molregno>
DL-homocysteic-acid

>  <5-HT1A>
5

>  <5-HT1B>
5

>  <5-HT1D>
5

>  <5-HT3>
5

>  <5-HT5>
5

>  <5-HT6>
5

>  <5-HT7>
5

>  <Alpha-1A>
5

>  <Alpha-1B>
5

>  <Alpha-2A>
5

>  <Alpha-2B>
5

>  <Alpha-2C>
5

>  <DOPAMINE D1>
5

>  <DOPAMINE D2>
5

>  <DOPAMINE D3>
5

>  <DOPAMINE D5>
5

>  <Dopamine transporter>
5

>  <Muscarinic acetylcholine receptor M1>
5

>  <Muscarinic acetylcholine receptor M2>
5

>  <Muscarinic acetylcholine receptor M3>
5

>  <Muscarinic acetylcholine receptor M4>
5

>  <Muscarinic acetylcholine receptor M5>
5

>  <Norepinephrine transporter>
5

>  <Serotonin transporter>
5

$$$$
DL-homocysteine
  Marvin  02231216192D 0   1.00000     0.00000     0

  8  7  0  0  1  0  0  0  0  0999 V2000
   -0.0519    0.0021    0.0000 S   0  0  0  0  0  0  0  0  0
    0.6626    0.4146    0.0000 C   0  0  0  0  0  0  0  0  0
    1.3770    0.0021    0.0000 C   0  0  0  0  0  0  0  0  0
    2.0915    0.4146    0.0000 C   0  0  0  0  0  0  0  0  0
    2.0915    1.2396    0.0000 N   0  0  0  0  0  0  0  0  0
    2.8060    0.0021    0.0000 C   0  0  0  0  0  0  0  0  0
    3.5205    0.4146    0.0000 O   0  0  0  0  0  0  0  0  0
    2.8060   -0.8229    0.0000 O   0  0  0  0  0  0  0  0  0
  1  2  1  0  0  0  0
  2  3  1  0  0  0  0
  3  4  1  0  0  0  0
  4  5  1  0  0  0  0
  4  6  1  0  0  0  0
  6  7  1  0  0  0  0
  6  8  2  0  0  0  0
M  END
>  <Name_Molregno>
DL-homocysteine

>  <5-HT1A>
5

>  <5-HT1B>
5

>  <5-HT1D>
5

>  <5-HT3>
5

>  <5-HT5>
5

>  <5-HT6>
5

>  <5-HT7>
5

>  <Alpha-1A>
5

>  <Alpha-1B>
5

>  <Alpha-2A>
5

>  <Alpha-2B>
5

>  <Alpha-2C>
5

>  <DOPAMINE D1>
5

>  <DOPAMINE D2>
5

>  <DOPAMINE D3>
5

>  <DOPAMINE D5>
5

>  <Dopamine transporter>
5

>  <HISTAMINE H1>
5

>  <HISTAMINE H2>
5

>  <HISTAMINE H4>
5

>  <Muscarinic acetylcholine receptor M1>
5

>  <Muscarinic acetylcholine receptor M2>
5

>  <Muscarinic acetylcholine receptor M3>
5

>  <Muscarinic acetylcholine receptor M4>
5

>  <Muscarinic acetylcholine receptor M5>
5

>  <Norepinephrine transporter>
5

>  <Serotonin transporter>
5

$$$$
D-methionine
  Marvin  02231216192D 0   1.00000     0.00000     0

  9  8  0  0  1  0  0  0  0  0999 V2000
   -0.3763    1.2394    0.0000 S   0  0  0  0  0  0  0  0  0
    0.3381    0.8269    0.0000 C   0  0  0  0  0  0  0  0  0
    1.0526    1.2394    0.0000 C   0  0  0  0  0  0  0  0  0
    1.7671    0.8269    0.0000 C   0  0  0  0  0  0  0  0  0
    1.7671    0.0019    0.0000 N   0  0  0  0  0  0  0  0  0
    2.4816    1.2394    0.0000 C   0  0  0  0  0  0  0  0  0
    3.1960    0.8269    0.0000 O   0  0  0  0  0  0  0  0  0
    2.4816    2.0644    0.0000 O   0  0  0  0  0  0  0  0  0
   -1.0908    0.8269    0.0000 C   0  0  0  0  0  0  0  0  0
  1  2  1  0  0  0  0
  1  9  1  0  0  0  0
  2  3  1  0  0  0  0
  3  4  1  0  0  0  0
  4  5  1  0  0  0  0
  4  6  1  0  0  0  0
  6  7  1  0  0  0  0
  6  8  2  0  0  0  0
M  END
>  <Name_Molregno>
D-methionine

>  <5-HT1A>
5

>  <5-HT1B>
5

>  <5-HT1D>
5

>  <5-HT3>
5

>  <5-HT5>
5

>  <5-HT6>
5

>  <5-HT7>
5

>  <Alpha-1A>
5

>  <Alpha-1B>
5

>  <Alpha-2A>
5

>  <Alpha-2B>
5

>  <Alpha-2C>
5

>  <DOPAMINE D1>
5

>  <DOPAMINE D2>
5

>  <DOPAMINE D3>
5

>  <DOPAMINE D5>
5

>  <Dopamine transporter>
5

>  <HISTAMINE H1>
5

>  <HISTAMINE H2>
5

>  <HISTAMINE H4>
5

>  <Muscarinic acetylcholine receptor M1>
5

>  <Muscarinic acetylcholine receptor M2>
5

>  <Muscarinic acetylcholine receptor M3>
5

>  <Muscarinic acetylcholine receptor M4>
5

>  <Muscarinic acetylcholine receptor M5>
5

>  <Norepinephrine transporter>
5

>  <Serotonin transporter>
5

$$$$
DP-5-CT
  Marvin  02231216192D 0   1.00000     0.00000     0

 21 22  0  0  0  0  0  0  0  0999 V2000
    0.9168   -2.9149    0.0000 O   0  0  0  0  0  0  0  0  0
    1.4689   -2.3018    0.0000 C   0  0  0  0  0  0  0  0  0
    1.2139   -1.5172    0.0000 N   0  0  0  0  0  0  0  0  0
    2.2758   -2.4734    0.0000 C   0  0  0  0  0  0  0  0  0
    2.8279   -1.8603    0.0000 C   0  0  0  0  0  0  0  0  0
    3.6348   -2.0318    0.0000 C   0  0  0  0  0  0  0  0  0
    3.8898   -2.8164    0.0000 C   0  0  0  0  0  0  0  0  0
    4.7148   -2.8164    0.0000 N   0  0  0  0  0  0  0  0  0
    4.9697   -2.0318    0.0000 C   0  0  0  0  0  0  0  0  0
    4.3023   -1.5469    0.0000 C   0  0  0  0  0  0  0  0  0
    4.3023   -0.7219    0.0000 C   0  0  0  0  0  0  0  0  0
    3.5878   -0.3094    0.0000 C   0  0  0  0  0  0  0  0  0
    3.5878    0.5156    0.0000 N   0  0  0  0  0  0  0  0  0
    2.8733    0.9281    0.0000 C   0  0  0  0  0  0  0  0  0
    2.8733    1.7531    0.0000 C   0  0  0  0  0  0  0  0  0
    2.1589    2.1656    0.0000 C   0  0  0  0  0  0  0  0  0
    4.3023    0.9281    0.0000 C   0  0  0  0  0  0  0  0  0
    4.3023    1.7531    0.0000 C   0  0  0  0  0  0  0  0  0
    5.0167    2.1656    0.0000 C   0  0  0  0  0  0  0  0  0
    3.3377   -3.4295    0.0000 C   0  0  0  0  0  0  0  0  0
    2.5308   -3.2580    0.0000 C   0  0  0  0  0  0  0  0  0
  1  2  2  0  0  0  0
  2  3  1  0  0  0  0
  2  4  1  0  0  0  0
  4  5  4  0  0  0  0
  4 21  4  0  0  0  0
  5  6  4  0  0  0  0
  6  7  4  0  0  0  0
  6 10  4  0  0  0  0
  7  8  4  0  0  0  0
  7 20  4  0  0  0  0
  8  9  4  0  0  0  0
  9 10  4  0  0  0  0
 10 11  1  0  0  0  0
 11 12  1  0  0  0  0
 12 13  1  0  0  0  0
 13 14  1  0  0  0  0
 13 17  1  0  0  0  0
 14 15  1  0  0  0  0
 15 16  1  0  0  0  0
 17 18  1  0  0  0  0
 18 19  1  0  0  0  0
 20 21  4  0  0  0  0
M  STY  1   1 DAT
M  SAL   1  1   8
M  SDT   1 MRV_IMPLICIT_H                                        
M  SDD   1     0.0000    0.0000    DR    ALL  0       0  
M  SED   1 IMPL_H1
M  END
>  <Name_Molregno>
DP-5-CT

>  <5-HT1B>
7.64

>  <5-HT1D>
7.64

>  <5-HT2A>
6.29

>  <5-HT2C>
6

$$$$
Ephedrine
  Marvin  02231216192D 0   1.00000     0.00000     0

 12 12  0  0  1  0  0  0  0  0999 V2000
    1.9192   -0.0549    0.0000 O   0  0  0  0  0  0  0  0  0
    1.2047   -0.4674    0.0000 C   0  0  0  0  0  0  0  0  0
    0.4903   -0.0549    0.0000 C   0  0  0  0  0  0  0  0  0
    0.4903    0.7701    0.0000 N   0  0  0  0  0  0  0  0  0
   -0.2242    1.1826    0.0000 C   0  0  0  0  0  0  0  0  0
   -0.2242   -0.4674    0.0000 C   0  0  0  0  0  0  0  0  0
    1.2047   -1.2924    0.0000 C   0  0  0  0  0  0  0  0  0
    1.9192   -1.7049    0.0000 C   0  0  0  0  0  0  0  0  0
    1.9192   -2.5299    0.0000 C   0  0  0  0  0  0  0  0  0
    1.2047   -2.9424    0.0000 C   0  0  0  0  0  0  0  0  0
    0.4903   -2.5299    0.0000 C   0  0  0  0  0  0  0  0  0
    0.4903   -1.7049    0.0000 C   0  0  0  0  0  0  0  0  0
  1  2  1  0  0  0  0
  2  3  1  0  0  0  0
  2  7  1  0  0  0  0
  3  4  1  0  0  0  0
  3  6  1  0  0  0  0
  4  5  1  0  0  0  0
  7  8  4  0  0  0  0
  7 12  4  0  0  0  0
  8  9  4  0  0  0  0
  9 10  4  0  0  0  0
 10 11  4  0  0  0  0
 11 12  4  0  0  0  0
M  END
>  <Name_Molregno>
Ephedrine

>  <5-HT1A>
5

>  <5-HT1B>
5

>  <5-HT1D>
5

>  <5-HT1E>
5

>  <5-HT3>
5

>  <5-HT5>
5

>  <5-HT6>
5

>  <5-HT7>
5.33

>  <Alpha-1A>
5

>  <Alpha-1B>
5

>  <Alpha-2A>
5.17

>  <Alpha-2B>
5.48

>  <Alpha-2C>
5.51

>  <Beta-1>
5

>  <Beta-2>
5

>  <DOPAMINE D1>
5

>  <DOPAMINE D2>
5

>  <DOPAMINE D4>
5

>  <DOPAMINE D5>
5

>  <Dopamine transporter>
5.38

>  <HISTAMINE H1>
5

>  <HISTAMINE H2>
5

>  <HISTAMINE H4>
5

>  <Muscarinic acetylcholine receptor M1>
5

>  <Muscarinic acetylcholine receptor M2>
5

>  <Muscarinic acetylcholine receptor M3>
5

>  <Muscarinic acetylcholine receptor M4>
5

>  <Muscarinic acetylcholine receptor M5>
5

>  <Norepinephrine transporter>
5.79

>  <Serotonin transporter>
5

$$$$
ERGOTAMINE
  Marvin  02231216192D 0   1.00000     0.00000     0

 43 50  0  0  1  0  0  0  0  0999 V2000
   -2.1239   -1.0172    0.0000 O   0  0  0  0  0  0  0  0  0
   -1.3035   -1.1045    0.0000 C   0  0  0  0  0  0  0  0  0
   -1.3025   -0.2795    0.0000 N   0  0  0  0  0  0  0  0  0
   -0.5876    0.1322    0.0000 C   0  0  0  0  0  0  0  0  0
    0.1264   -0.2812    0.0000 O   0  0  0  0  0  0  0  0  0
   -0.5866    0.9572    0.0000 C   0  0  0  0  0  0  0  0  0
    0.1284    1.3688    0.0000 C   0  0  0  0  0  0  0  0  0
    0.1294    2.1938    0.0000 C   0  0  0  0  0  0  0  0  0
   -0.5846    2.6072    0.0000 C   0  0  0  0  0  0  0  0  0
   -1.2996    2.1955    0.0000 N   0  0  0  0  0  0  0  0  0
   -1.3006    1.3705    0.0000 C   0  0  0  0  0  0  0  0  0
   -2.0136    2.6089    0.0000 C   0  0  0  0  0  0  0  0  0
   -0.5831    3.4313    0.0000 C   0  0  0  0  0  0  0  0  0
    0.1294    3.8438    0.0000 C   0  0  0  0  0  0  0  0  0
    0.8419    3.4313    0.0000 C   0  0  0  0  0  0  0  0  0
    0.8419    2.6063    0.0000 C   0  0  0  0  0  0  0  0  0
    1.5597    2.1938    0.0000 C   0  0  0  0  0  0  0  0  0
    2.2722    2.6063    0.0000 C   0  0  0  0  0  0  0  0  0
    2.2722    3.4313    0.0000 C   0  0  0  0  0  0  0  0  0
    1.5597    3.8438    0.0000 C   0  0  0  0  0  0  0  0  0
    1.2544    4.7010    0.0000 N   0  0  0  0  0  0  0  0  0
    0.4294    4.7010    0.0000 C   0  0  0  0  0  0  0  0  0
   -0.4830   -1.0192    0.0000 C   0  0  0  0  0  0  0  0  0
   -1.1330   -1.9116    0.0000 C   0  0  0  0  0  0  0  0  0
   -0.3797   -2.2481    0.0000 O   0  0  0  0  0  0  0  0  0
   -1.8479   -2.3233    0.0000 N   0  0  0  0  0  0  0  0  0
   -2.0204   -3.1301    0.0000 C   0  0  0  0  0  0  0  0  0
   -1.4080   -3.6828    0.0000 C   0  0  0  0  0  0  0  0  0
   -1.5805   -4.4896    0.0000 C   0  0  0  0  0  0  0  0  0
   -0.9681   -5.0424    0.0000 C   0  0  0  0  0  0  0  0  0
   -1.1406   -5.8491    0.0000 C   0  0  0  0  0  0  0  0  0
   -1.9255   -6.1031    0.0000 C   0  0  0  0  0  0  0  0  0
   -2.5379   -5.5504    0.0000 C   0  0  0  0  0  0  0  0  0
   -2.3654   -4.7436    0.0000 C   0  0  0  0  0  0  0  0  0
   -2.8054   -3.3841    0.0000 C   0  0  0  0  0  0  0  0  0
   -2.9779   -4.1908    0.0000 O   0  0  0  0  0  0  0  0  0
   -3.4178   -2.8313    0.0000 N   0  0  0  0  0  0  0  0  0
   -3.2453   -2.0245    0.0000 C   0  0  0  0  0  0  0  0  0
   -3.9593   -1.6112    0.0000 C   0  0  0  0  0  0  0  0  0
   -4.5730   -2.1625    0.0000 C   0  0  0  0  0  0  0  0  0
   -4.2384   -2.9165    0.0000 C   0  0  0  0  0  0  0  0  0
   -2.4604   -1.7705    0.0000 C   0  0  0  0  0  0  0  0  0
   -3.0117   -1.1568    0.0000 O   0  0  0  0  0  0  0  0  0
  1  2  1  0  0  0  0
  1 42  1  0  0  0  0
  2  3  1  0  0  0  0
  2 23  1  0  0  0  0
  2 24  1  0  0  0  0
  3  4  1  0  0  0  0
  4  5  2  0  0  0  0
  4  6  1  0  0  0  0
  6  7  1  0  0  0  0
  6 11  1  0  0  0  0
  7  8  2  0  0  0  0
  8  9  1  0  0  0  0
  8 16  1  0  0  0  0
  9 10  1  0  0  0  0
  9 13  1  0  0  0  0
 10 11  1  0  0  0  0
 10 12  1  0  0  0  0
 13 14  1  0  0  0  0
 14 15  4  0  0  0  0
 14 22  4  0  0  0  0
 15 16  4  0  0  0  0
 15 20  4  0  0  0  0
 16 17  4  0  0  0  0
 17 18  4  0  0  0  0
 18 19  4  0  0  0  0
 19 20  4  0  0  0  0
 20 21  4  0  0  0  0
 21 22  4  0  0  0  0
 24 25  2  0  0  0  0
 24 26  1  0  0  0  0
 26 27  1  0  0  0  0
 26 42  1  0  0  0  0
 27 28  1  0  0  0  0
 27 35  1  0  0  0  0
 28 29  1  0  0  0  0
 29 30  4  0  0  0  0
 29 34  4  0  0  0  0
 30 31  4  0  0  0  0
 31 32  4  0  0  0  0
 32 33  4  0  0  0  0
 33 34  4  0  0  0  0
 35 36  2  0  0  0  0
 35 37  1  0  0  0  0
 37 38  1  0  0  0  0
 37 41  1  0  0  0  0
 38 39  1  0  0  0  0
 38 42  1  0  0  0  0
 39 40  1  0  0  0  0
 40 41  1  0  0  0  0
 42 43  1  0  0  0  0
M  STY  1   1 DAT
M  SAL   1  1  21
M  SDT   1 MRV_IMPLICIT_H                                        
M  SDD   1     0.0000    0.0000    DR    ALL  0       0  
M  SED   1 IMPL_H1
M  END
>  <Name_Molregno>
ERGOTAMINE

>  <5-HT1A>
9.77

>  <5-HT1B>
8.33

>  <5-HT1D>
9

>  <5-HT1E>
6.58

>  <5-HT2A>
9.1

>  <5-HT2C>
8.37

>  <5-HT3>
5

>  <5-HT6>
7.92

>  <5-HT7>
5.89

>  <Alpha-1A>
5

>  <Alpha-1B>
5

>  <Alpha-2A>
6.97

>  <Alpha-2B>
7.05

>  <Alpha-2C>
5

>  <Beta-1>
5

>  <Beta-2>
5

>  <DOPAMINE D1>
5

>  <DOPAMINE D2>
5

>  <DOPAMINE D4>
5

>  <DOPAMINE D5>
6.77

>  <Dopamine transporter>
5

>  <HISTAMINE H1>
5

>  <HISTAMINE H2>
5

>  <Muscarinic acetylcholine receptor M1>
6.06

>  <Muscarinic acetylcholine receptor M2>
6.04

>  <Muscarinic acetylcholine receptor M3>
5

>  <Muscarinic acetylcholine receptor M4>
5

>  <Muscarinic acetylcholine receptor M5>
5

>  <Norepinephrine transporter>
5

>  <Serotonin transporter>
5

$$$$
ETORICOXIB
  Marvin  02231216192D 0   1.00000     0.00000     0

 24 26  0  0  0  0  0  0  0  0999 V2000
    1.3103    1.0543    0.0000 Cl  0  0  0  0  0  0  0  0  0
    1.3103    0.2293    0.0000 C   0  0  0  0  0  0  0  0  0
    2.0248   -0.1832    0.0000 C   0  0  0  0  0  0  0  0  0
    2.0248   -1.0082    0.0000 C   0  0  0  0  0  0  0  0  0
    1.3103   -1.4207    0.0000 C   0  0  0  0  0  0  0  0  0
    0.5958   -1.0082    0.0000 N   0  0  0  0  0  0  0  0  0
    0.5958   -0.1832    0.0000 C   0  0  0  0  0  0  0  0  0
    1.3103   -2.2457    0.0000 C   0  0  0  0  0  0  0  0  0
    2.0248   -2.6582    0.0000 C   0  0  0  0  0  0  0  0  0
    2.0248   -3.4832    0.0000 C   0  0  0  0  0  0  0  0  0
    1.3103   -3.8957    0.0000 C   0  0  0  0  0  0  0  0  0
    0.5958   -3.4832    0.0000 N   0  0  0  0  0  0  0  0  0
    0.5958   -2.6582    0.0000 C   0  0  0  0  0  0  0  0  0
    1.3103   -4.7207    0.0000 C   0  0  0  0  0  0  0  0  0
    2.7392   -1.4207    0.0000 C   0  0  0  0  0  0  0  0  0
    3.4537   -1.0082    0.0000 C   0  0  0  0  0  0  0  0  0
    4.1682   -1.4207    0.0000 C   0  0  0  0  0  0  0  0  0
    4.1682   -2.2457    0.0000 C   0  0  0  0  0  0  0  0  0
    4.8826   -2.6582    0.0000 S   0  0  0  0  0  0  0  0  0
    5.5971   -3.0707    0.0000 O   0  0  0  0  0  0  0  0  0
    4.4701   -3.3727    0.0000 O   0  0  0  0  0  0  0  0  0
    5.2951   -1.9437    0.0000 C   0  0  0  0  0  0  0  0  0
    3.4537   -2.6582    0.0000 C   0  0  0  0  0  0  0  0  0
    2.7392   -2.2457    0.0000 C   0  0  0  0  0  0  0  0  0
  1  2  1  0  0  0  0
  2  3  4  0  0  0  0
  2  7  4  0  0  0  0
  3  4  4  0  0  0  0
  4  5  4  0  0  0  0
  4 15  1  0  0  0  0
  5  6  4  0  0  0  0
  5  8  1  0  0  0  0
  6  7  4  0  0  0  0
  8  9  4  0  0  0  0
  8 13  4  0  0  0  0
  9 10  4  0  0  0  0
 10 11  4  0  0  0  0
 11 12  4  0  0  0  0
 11 14  1  0  0  0  0
 12 13  4  0  0  0  0
 15 16  4  0  0  0  0
 15 24  4  0  0  0  0
 16 17  4  0  0  0  0
 17 18  4  0  0  0  0
 18 19  1  0  0  0  0
 18 23  4  0  0  0  0
 19 20  2  0  0  0  0
 19 21  2  0  0  0  0
 19 22  1  0  0  0  0
 23 24  4  0  0  0  0
M  END
>  <Name_Molregno>
ETORICOXIB

>  <5-HT1A>
5

>  <5-HT1B>
5

>  <5-HT1D>
5

>  <5-HT1E>
5

>  <5-HT2A>
5

>  <5-HT3>
5

>  <5-HT6>
5

>  <5-HT7>
5

>  <Alpha-1A>
5

>  <Alpha-1B>
5

>  <Alpha-2A>
5

>  <Alpha-2B>
5

>  <Alpha-2C>
5

>  <DOPAMINE D1>
5

>  <DOPAMINE D2>
5

>  <DOPAMINE D5>
5

>  <Dopamine transporter>
5

>  <HISTAMINE H2>
5

>  <HISTAMINE H4>
5

>  <Muscarinic acetylcholine receptor M1>
5

>  <Norepinephrine transporter>
5

>  <Serotonin transporter>
5

$$$$
Fluorocarazolol
  Marvin  02231216192D 0   1.00000     0.00000     0

 23 25  0  0  1  0  0  0  0  0999 V2000
   -0.1270    1.0228    0.0000 F   0  0  0  0  0  0  0  0  0
    0.5874    0.6103    0.0000 C   0  0  0  0  0  0  0  0  0
    1.3019    1.0228    0.0000 C   0  0  0  0  0  0  0  0  0
    2.0164    0.6103    0.0000 N   0  0  0  0  0  0  0  0  0
    2.7309    1.0228    0.0000 C   0  0  0  0  0  0  0  0  0
    3.4453    0.6103    0.0000 C   0  0  0  0  0  0  0  0  0
    3.4453   -0.2147    0.0000 O   0  0  0  0  0  0  0  0  0
    4.1598    1.0228    0.0000 C   0  0  0  0  0  0  0  0  0
    4.8743    0.6103    0.0000 O   0  0  0  0  0  0  0  0  0
    5.5887    1.0228    0.0000 C   0  0  0  0  0  0  0  0  0
    6.3032    0.6103    0.0000 C   0  0  0  0  0  0  0  0  0
    6.4747   -0.1966    0.0000 C   0  0  0  0  0  0  0  0  0
    7.2952   -0.2829    0.0000 C   0  0  0  0  0  0  0  0  0
    7.6308    0.4708    0.0000 N   0  0  0  0  0  0  0  0  0
    7.0177    1.0228    0.0000 C   0  0  0  0  0  0  0  0  0
    7.0177    1.8478    0.0000 C   0  0  0  0  0  0  0  0  0
    6.3032    2.2603    0.0000 C   0  0  0  0  0  0  0  0  0
    5.5887    1.8478    0.0000 C   0  0  0  0  0  0  0  0  0
    7.6308   -1.0365    0.0000 C   0  0  0  0  0  0  0  0  0
    7.1459   -1.7040    0.0000 C   0  0  0  0  0  0  0  0  0
    6.3254   -1.6178    0.0000 C   0  0  0  0  0  0  0  0  0
    5.9898   -0.8641    0.0000 C   0  0  0  0  0  0  0  0  0
    1.3019    1.8478    0.0000 C   0  0  0  0  0  0  0  0  0
  1  2  1  0  0  0  0
  2  3  1  0  0  0  0
  3  4  1  0  0  0  0
  3 23  1  0  0  0  0
  4  5  1  0  0  0  0
  5  6  1  0  0  0  0
  6  7  1  0  0  0  0
  6  8  1  0  0  0  0
  8  9  1  0  0  0  0
  9 10  1  0  0  0  0
 10 11  4  0  0  0  0
 10 18  4  0  0  0  0
 11 12  4  0  0  0  0
 11 15  4  0  0  0  0
 12 13  4  0  0  0  0
 12 22  4  0  0  0  0
 13 14  4  0  0  0  0
 13 19  4  0  0  0  0
 14 15  4  0  0  0  0
 15 16  4  0  0  0  0
 16 17  4  0  0  0  0
 17 18  4  0  0  0  0
 19 20  4  0  0  0  0
 20 21  4  0  0  0  0
 21 22  4  0  0  0  0
M  STY  1   1 DAT
M  SAL   1  1  14
M  SDT   1 MRV_IMPLICIT_H                                        
M  SDD   1     0.0000    0.0000    DR    ALL  0       0  
M  SED   1 IMPL_H1
M  END
>  <Name_Molregno>
Fluorocarazolol

>  <5-HT1A>
6.97

>  <5-HT1B>
6.31

>  <5-HT1D>
5.5

>  <5-HT1E>
5

>  <5-HT3>
5

>  <5-HT5>
5

>  <5-HT6>
5

>  <5-HT7>
5.17

>  <Alpha-1A>
5.85

>  <Alpha-1B>
5.76

>  <Alpha-2A>
5.5

>  <Alpha-2B>
5.03

>  <Alpha-2C>
5.54

>  <Beta-1>
9.65

>  <Beta-2>
9.98

>  <DOPAMINE D1>
5

>  <DOPAMINE D5>
5

>  <Muscarinic acetylcholine receptor M1>
5.66

>  <Muscarinic acetylcholine receptor M2>
5

>  <Muscarinic acetylcholine receptor M3>
5.4

>  <Muscarinic acetylcholine receptor M4>
5.14

>  <Muscarinic acetylcholine receptor M5>
5.27

>  <Norepinephrine transporter>
5

>  <Serotonin transporter>
5

$$$$
Fluparoxan
  Marvin  02231216192D 0   1.00000     0.00000     0

 14 16  0  0  1  0  0  0  0  0999 V2000
   -2.9096    0.8157    0.0000 F   0  0  0  0  0  0  0  0  0
   -2.9096   -0.0093    0.0000 C   0  0  0  0  0  0  0  0  0
   -2.1951   -0.4218    0.0000 C   0  0  0  0  0  0  0  0  0
   -1.4806   -0.0093    0.0000 O   0  0  0  0  0  0  0  0  0
   -0.7662   -0.4218    0.0000 C   0  0  0  0  0  0  0  0  0
   -0.7662   -1.2468    0.0000 C   0  0  0  0  0  0  0  0  0
   -1.4806   -1.6593    0.0000 O   0  0  0  0  0  0  0  0  0
   -2.1951   -1.2468    0.0000 C   0  0  0  0  0  0  0  0  0
   -2.9096   -1.6593    0.0000 C   0  0  0  0  0  0  0  0  0
   -3.6240   -1.2468    0.0000 C   0  0  0  0  0  0  0  0  0
   -3.6240   -0.4218    0.0000 C   0  0  0  0  0  0  0  0  0
    0.0185   -1.5018    0.0000 C   0  0  0  0  0  0  0  0  0
    0.5034   -0.8343    0.0000 N   0  0  0  0  0  0  0  0  0
    0.0185   -0.1669    0.0000 C   0  0  0  0  0  0  0  0  0
  1  2  1  0  0  0  0
  2  3  4  0  0  0  0
  2 11  4  0  0  0  0
  3  4  1  0  0  0  0
  3  8  4  0  0  0  0
  4  5  1  0  0  0  0
  5  6  1  0  0  0  0
  5 14  1  0  0  0  0
  6  7  1  0  0  0  0
  6 12  1  0  0  0  0
  7  8  1  0  0  0  0
  8  9  4  0  0  0  0
  9 10  4  0  0  0  0
 10 11  4  0  0  0  0
 12 13  1  0  0  0  0
 13 14  1  0  0  0  0
M  END
>  <Name_Molregno>
Fluparoxan

>  <5-HT1A>
6.8

>  <5-HT1B>
6

>  <5-HT1D>
6

>  <5-HT2A>
6

>  <5-HT2C>
6

>  <Alpha-1A>
6.3

>  <Alpha-1B>
6

>  <Alpha-2A>
8.13

>  <Alpha-2B>
8.9

>  <Alpha-2C>
8.8

>  <DOPAMINE D2>
6

>  <DOPAMINE D3>
6

>  <Serotonin transporter>
6

$$$$
FLUPHENAZINE
  Marvin  02231216192D 0   1.00000     0.00000     0

 38 41  0  0  0  0  0  0  0  0999 V2000
   -7.1492   -1.5262    0.0000 S   0  0  0  0  0  0  0  0  0
   -7.1492   -2.3512    0.0000 C   0  0  0  0  0  0  0  0  0
   -6.4348   -2.7637    0.0000 C   0  0  0  0  0  0  0  0  0
   -5.7203   -2.3512    0.0000 N   0  0  0  0  0  0  0  0  0
   -5.7203   -1.5262    0.0000 C   0  0  0  0  0  0  0  0  0
   -6.4348   -1.1137    0.0000 C   0  0  0  0  0  0  0  0  0
   -6.4348   -0.2887    0.0000 C   0  0  0  0  0  0  0  0  0
   -5.7203    0.1238    0.0000 C   0  0  0  0  0  0  0  0  0
   -5.0058   -0.2887    0.0000 C   0  0  0  0  0  0  0  0  0
   -5.0058   -1.1137    0.0000 C   0  0  0  0  0  0  0  0  0
   -5.0058   -2.7637    0.0000 C   0  0  0  0  0  0  0  0  0
   -4.2914   -2.3512    0.0000 C   0  0  0  0  0  0  0  0  0
   -3.5769   -2.7637    0.0000 C   0  0  0  0  0  0  0  0  0
   -2.8624   -2.3512    0.0000 N   0  0  0  0  0  0  0  0  0
   -2.8624   -1.5262    0.0000 C   0  0  0  0  0  0  0  0  0
   -2.1479   -1.1137    0.0000 C   0  0  0  0  0  0  0  0  0
   -1.4335   -1.5262    0.0000 N   0  0  0  0  0  0  0  0  0
   -1.4335   -2.3512    0.0000 C   0  0  0  0  0  0  0  0  0
   -2.1479   -2.7637    0.0000 C   0  0  0  0  0  0  0  0  0
   -0.7190   -1.1137    0.0000 C   0  0  0  0  0  0  0  0  0
   -0.0045   -1.5262    0.0000 C   0  0  0  0  0  0  0  0  0
    0.7099   -1.1137    0.0000 O   0  0  0  0  0  0  0  0  0
    1.4244   -1.5262    0.0000 C   0  0  0  0  0  0  0  0  0
    1.4244   -2.3512    0.0000 O   0  0  0  0  0  0  0  0  0
    2.1389   -1.1137    0.0000 C   0  0  0  0  0  0  0  0  0
    2.8534   -1.5262    0.0000 C   0  0  0  0  0  0  0  0  0
    3.5678   -1.1137    0.0000 C   0  0  0  0  0  0  0  0  0
    4.2823   -1.5262    0.0000 C   0  0  0  0  0  0  0  0  0
    4.9968   -1.1137    0.0000 C   0  0  0  0  0  0  0  0  0
    5.7112   -1.5262    0.0000 C   0  0  0  0  0  0  0  0  0
   -6.4348   -3.5887    0.0000 C   0  0  0  0  0  0  0  0  0
   -7.1492   -4.0012    0.0000 C   0  0  0  0  0  0  0  0  0
   -7.8637   -3.5887    0.0000 C   0  0  0  0  0  0  0  0  0
   -7.8637   -2.7637    0.0000 C   0  0  0  0  0  0  0  0  0
   -7.1492   -4.8262    0.0000 C   0  0  0  0  0  0  0  0  0
   -7.1492   -5.6512    0.0000 F   0  0  0  0  0  0  0  0  0
   -7.9742   -4.8262    0.0000 F   0  0  0  0  0  0  0  0  0
   -6.3242   -4.8262    0.0000 F   0  0  0  0  0  0  0  0  0
  1  2  1  0  0  0  0
  1  6  1  0  0  0  0
  2  3  4  0  0  0  0
  2 34  4  0  0  0  0
  3  4  1  0  0  0  0
  3 31  4  0  0  0  0
  4  5  1  0  0  0  0
  4 11  1  0  0  0  0
  5  6  4  0  0  0  0
  5 10  4  0  0  0  0
  6  7  4  0  0  0  0
  7  8  4  0  0  0  0
  8  9  4  0  0  0  0
  9 10  4  0  0  0  0
 11 12  1  0  0  0  0
 12 13  1  0  0  0  0
 13 14  1  0  0  0  0
 14 15  1  0  0  0  0
 14 19  1  0  0  0  0
 15 16  1  0  0  0  0
 16 17  1  0  0  0  0
 17 18  1  0  0  0  0
 17 20  1  0  0  0  0
 18 19  1  0  0  0  0
 20 21  1  0  0  0  0
 21 22  1  0  0  0  0
 22 23  1  0  0  0  0
 23 24  2  0  0  0  0
 23 25  1  0  0  0  0
 25 26  1  0  0  0  0
 26 27  1  0  0  0  0
 27 28  1  0  0  0  0
 28 29  1  0  0  0  0
 29 30  1  0  0  0  0
 31 32  4  0  0  0  0
 32 33  4  0  0  0  0
 32 35  1  0  0  0  0
 33 34  4  0  0  0  0
 35 36  1  0  0  0  0
 35 37  1  0  0  0  0
 35 38  1  0  0  0  0
M  END
>  <Name_Molregno>
FLUPHENAZINE

>  <5-HT1A>
6.41

>  <5-HT1B>
6.48

>  <5-HT1D>
6.48

>  <5-HT1E>
6.27

>  <5-HT2A>
7.87

>  <5-HT2C>
6.05

>  <5-HT3>
5

>  <5-HT5>
6.84

>  <5-HT6>
7.46

>  <5-HT7>
8.1

>  <Alpha-1A>
8.19

>  <Alpha-1B>
7.89

>  <Alpha-2A>
6.5

>  <Alpha-2B>
7.09

>  <Alpha-2C>
7.54

>  <Beta-1>
5

>  <Beta-2>
5

>  <DOPAMINE D1>
7.55

>  <DOPAMINE D2>
9.22

>  <DOPAMINE D3>
9.33

>  <DOPAMINE D4>
7.52

>  <DOPAMINE D5>
7.82

>  <Dopamine transporter>
5

>  <HISTAMINE H1>
7.72

>  <HISTAMINE H2>
6.25

>  <HISTAMINE H3>
6

>  <HISTAMINE H4>
5

>  <Muscarinic acetylcholine receptor M1>
5.96

>  <Muscarinic acetylcholine receptor M2>
5.14

>  <Muscarinic acetylcholine receptor M3>
5.84

>  <Muscarinic acetylcholine receptor M4>
5.27

>  <Muscarinic acetylcholine receptor M5>
6.45

>  <Norepinephrine transporter>
5.51

>  <Serotonin transporter>
5.23

$$$$
FLUSPIRILENE
  Marvin  02231216192D 0   1.00000     0.00000     0

 35 39  0  0  0  0  0  0  0  0999 V2000
    3.1924   -2.1696    0.0000 F   0  0  0  0  0  0  0  0  0
    2.3674   -2.1696    0.0000 C   0  0  0  0  0  0  0  0  0
    1.9549   -2.8841    0.0000 C   0  0  0  0  0  0  0  0  0
    1.1299   -2.8841    0.0000 C   0  0  0  0  0  0  0  0  0
    0.7174   -2.1696    0.0000 C   0  0  0  0  0  0  0  0  0
    1.1299   -1.4552    0.0000 C   0  0  0  0  0  0  0  0  0
    1.9549   -1.4552    0.0000 C   0  0  0  0  0  0  0  0  0
   -0.1076   -2.1696    0.0000 C   0  0  0  0  0  0  0  0  0
   -0.5201   -2.8841    0.0000 C   0  0  0  0  0  0  0  0  0
   -1.3451   -2.8841    0.0000 C   0  0  0  0  0  0  0  0  0
   -1.7576   -3.5986    0.0000 C   0  0  0  0  0  0  0  0  0
   -2.5826   -3.5986    0.0000 N   0  0  0  0  0  0  0  0  0
   -2.9951   -4.3130    0.0000 C   0  0  0  0  0  0  0  0  0
   -3.8201   -4.3130    0.0000 C   0  0  0  0  0  0  0  0  0
   -4.2326   -3.5986    0.0000 C   0  0  0  0  0  0  0  0  0
   -4.7175   -4.2660    0.0000 N   0  0  0  0  0  0  0  0  0
   -5.5021   -4.0111    0.0000 C   0  0  0  0  0  0  0  0  0
   -5.5021   -3.1861    0.0000 N   0  0  0  0  0  0  0  0  0
   -4.7175   -2.9311    0.0000 C   0  0  0  0  0  0  0  0  0
   -4.4626   -2.1465    0.0000 O   0  0  0  0  0  0  0  0  0
   -4.4626   -5.0506    0.0000 C   0  0  0  0  0  0  0  0  0
   -3.6556   -5.2222    0.0000 C   0  0  0  0  0  0  0  0  0
   -3.4007   -6.0068    0.0000 C   0  0  0  0  0  0  0  0  0
   -3.9527   -6.6199    0.0000 C   0  0  0  0  0  0  0  0  0
   -4.7597   -6.4483    0.0000 C   0  0  0  0  0  0  0  0  0
   -5.0146   -5.6637    0.0000 C   0  0  0  0  0  0  0  0  0
   -3.8201   -2.8841    0.0000 C   0  0  0  0  0  0  0  0  0
   -2.9951   -2.8841    0.0000 C   0  0  0  0  0  0  0  0  0
   -0.5201   -1.4552    0.0000 C   0  0  0  0  0  0  0  0  0
   -1.3451   -1.4552    0.0000 C   0  0  0  0  0  0  0  0  0
   -1.7576   -0.7407    0.0000 C   0  0  0  0  0  0  0  0  0
   -1.3451   -0.0262    0.0000 C   0  0  0  0  0  0  0  0  0
   -1.7576    0.6883    0.0000 F   0  0  0  0  0  0  0  0  0
   -0.5201   -0.0262    0.0000 C   0  0  0  0  0  0  0  0  0
   -0.1076   -0.7407    0.0000 C   0  0  0  0  0  0  0  0  0
  1  2  1  0  0  0  0
  2  3  4  0  0  0  0
  2  7  4  0  0  0  0
  3  4  4  0  0  0  0
  4  5  4  0  0  0  0
  5  6  4  0  0  0  0
  5  8  1  0  0  0  0
  6  7  4  0  0  0  0
  8  9  1  0  0  0  0
  8 29  1  0  0  0  0
  9 10  1  0  0  0  0
 10 11  1  0  0  0  0
 11 12  1  0  0  0  0
 12 13  1  0  0  0  0
 12 28  1  0  0  0  0
 13 14  1  0  0  0  0
 14 15  1  0  0  0  0
 15 16  1  0  0  0  0
 15 19  1  0  0  0  0
 15 27  1  0  0  0  0
 16 17  1  0  0  0  0
 16 21  1  0  0  0  0
 17 18  1  0  0  0  0
 18 19  1  0  0  0  0
 19 20  2  0  0  0  0
 21 22  4  0  0  0  0
 21 26  4  0  0  0  0
 22 23  4  0  0  0  0
 23 24  4  0  0  0  0
 24 25  4  0  0  0  0
 25 26  4  0  0  0  0
 27 28  1  0  0  0  0
 29 30  4  0  0  0  0
 29 35  4  0  0  0  0
 30 31  4  0  0  0  0
 31 32  4  0  0  0  0
 32 33  1  0  0  0  0
 32 34  4  0  0  0  0
 34 35  4  0  0  0  0
M  END
>  <Name_Molregno>
FLUSPIRILENE

>  <5-HT1A>
7.25

>  <5-HT1B>
5.95

>  <5-HT1D>
5.3

>  <5-HT1E>
5.65

>  <5-HT2A>
8.02

>  <Alpha-2A>
6.24

>  <Alpha-2B>
7.32

>  <Alpha-2C>
7.21

>  <Beta-1>
6.23

>  <Beta-2>
6.29

>  <DOPAMINE D2>
9.37

>  <DOPAMINE D3>
8.73

>  <DOPAMINE D4>
8.26

>  <HISTAMINE H1>
7.92

>  <Serotonin transporter>
6

$$$$
HALOPERIDOL
  Marvin  02231216192D 0   1.00000     0.00000     0

 26 28  0  0  0  0  0  0  0  0999 V2000
    1.7138    2.6466    0.0000 Cl  0  0  0  0  0  0  0  0  0
    1.9960    1.8714    0.0000 C   0  0  0  0  0  0  0  0  0
    2.8084    1.7281    0.0000 C   0  0  0  0  0  0  0  0  0
    3.0906    0.9529    0.0000 C   0  0  0  0  0  0  0  0  0
    2.5603    0.3209    0.0000 C   0  0  0  0  0  0  0  0  0
    1.7478    0.4642    0.0000 C   0  0  0  0  0  0  0  0  0
    1.4657    1.2394    0.0000 C   0  0  0  0  0  0  0  0  0
    2.8425   -0.4543    0.0000 C   0  0  0  0  0  0  0  0  0
    2.0300   -0.5976    0.0000 O   0  0  0  0  0  0  0  0  0
    3.5569   -0.0418    0.0000 C   0  0  0  0  0  0  0  0  0
    4.2714   -0.4543    0.0000 C   0  0  0  0  0  0  0  0  0
    4.2714   -1.2793    0.0000 N   0  0  0  0  0  0  0  0  0
    3.5569   -1.6918    0.0000 C   0  0  0  0  0  0  0  0  0
    2.8425   -1.2793    0.0000 C   0  0  0  0  0  0  0  0  0
    4.9859   -1.6918    0.0000 C   0  0  0  0  0  0  0  0  0
    5.7003   -1.2793    0.0000 C   0  0  0  0  0  0  0  0  0
    6.4148   -1.6918    0.0000 C   0  0  0  0  0  0  0  0  0
    7.1293   -1.2793    0.0000 C   0  0  0  0  0  0  0  0  0
    7.1293   -0.4543    0.0000 O   0  0  0  0  0  0  0  0  0
    7.8438   -1.6918    0.0000 C   0  0  0  0  0  0  0  0  0
    8.5582   -1.2793    0.0000 C   0  0  0  0  0  0  0  0  0
    9.2727   -1.6918    0.0000 C   0  0  0  0  0  0  0  0  0
    9.2727   -2.5168    0.0000 C   0  0  0  0  0  0  0  0  0
    9.9872   -2.9293    0.0000 F   0  0  0  0  0  0  0  0  0
    8.5582   -2.9293    0.0000 C   0  0  0  0  0  0  0  0  0
    7.8438   -2.5168    0.0000 C   0  0  0  0  0  0  0  0  0
  1  2  1  0  0  0  0
  2  3  4  0  0  0  0
  2  7  4  0  0  0  0
  3  4  4  0  0  0  0
  4  5  4  0  0  0  0
  5  6  4  0  0  0  0
  5  8  1  0  0  0  0
  6  7  4  0  0  0  0
  8  9  1  0  0  0  0
  8 10  1  0  0  0  0
  8 14  1  0  0  0  0
 10 11  1  0  0  0  0
 11 12  1  0  0  0  0
 12 13  1  0  0  0  0
 12 15  1  0  0  0  0
 13 14  1  0  0  0  0
 15 16  1  0  0  0  0
 16 17  1  0  0  0  0
 17 18  1  0  0  0  0
 18 19  2  0  0  0  0
 18 20  1  0  0  0  0
 20 21  4  0  0  0  0
 20 26  4  0  0  0  0
 21 22  4  0  0  0  0
 22 23  4  0  0  0  0
 23 24  1  0  0  0  0
 23 25  4  0  0  0  0
 25 26  4  0  0  0  0
M  END
>  <Name_Molregno>
HALOPERIDOL

>  <5-HT1A>
5.67

>  <5-HT1B>
6.63

>  <5-HT1D>
5.56

>  <5-HT1E>
5.15

>  <5-HT2A>
7.01

>  <5-HT2C>
5.24

>  <5-HT3>
5

>  <5-HT5>
5.65

>  <5-HT6>
5.28

>  <5-HT7>
6.32

>  <Alpha-1A>
7.92

>  <Alpha-1B>
8.1

>  <Alpha-2A>
6.04

>  <Alpha-2B>
6.32

>  <Alpha-2C>
6.34

>  <Beta-1>
5

>  <Beta-2>
5.15

>  <DOPAMINE D1>
7.22

>  <DOPAMINE D2>
8.75

>  <DOPAMINE D3>
8.33

>  <DOPAMINE D4>
8.29

>  <DOPAMINE D5>
7.03

>  <Dopamine transporter>
5

>  <HISTAMINE H1>
6.04

>  <HISTAMINE H2>
6

>  <HISTAMINE H4>
5

>  <Muscarinic acetylcholine receptor M1>
5.4

>  <Muscarinic acetylcholine receptor M2>
5

>  <Muscarinic acetylcholine receptor M3>
5

>  <Muscarinic acetylcholine receptor M4>
5

>  <Muscarinic acetylcholine receptor M5>
5.59

>  <Norepinephrine transporter>
5.68

>  <Serotonin transporter>
5.74

$$$$
ibuprofen
  Marvin  02231216192D 0   1.00000     0.00000     0

 15 15  0  0  1  0  0  0  0  0999 V2000
    3.0591   -3.4943    0.0000 O   0  0  0  0  0  0  0  0  0
    3.0591   -2.6693    0.0000 C   0  0  0  0  0  0  0  0  0
    3.7735   -2.2568    0.0000 O   0  0  0  0  0  0  0  0  0
    2.3446   -2.2568    0.0000 C   0  0  0  0  0  0  0  0  0
    1.6301   -2.6693    0.0000 C   0  0  0  0  0  0  0  0  0
    2.3446   -1.4318    0.0000 C   0  0  0  0  0  0  0  0  0
    1.6301   -1.0193    0.0000 C   0  0  0  0  0  0  0  0  0
    1.6301   -0.1943    0.0000 C   0  0  0  0  0  0  0  0  0
    2.3446    0.2182    0.0000 C   0  0  0  0  0  0  0  0  0
    3.0591   -0.1943    0.0000 C   0  0  0  0  0  0  0  0  0
    3.0591   -1.0193    0.0000 C   0  0  0  0  0  0  0  0  0
    2.3446    1.0432    0.0000 C   0  0  0  0  0  0  0  0  0
    3.0591    1.4557    0.0000 C   0  0  0  0  0  0  0  0  0
    3.0591    2.2807    0.0000 C   0  0  0  0  0  0  0  0  0
    3.7735    1.0432    0.0000 C   0  0  0  0  0  0  0  0  0
  1  2  1  0  0  0  0
  2  3  2  0  0  0  0
  2  4  1  0  0  0  0
  4  5  1  0  0  0  0
  4  6  1  0  0  0  0
  6  7  4  0  0  0  0
  6 11  4  0  0  0  0
  7  8  4  0  0  0  0
  8  9  4  0  0  0  0
  9 10  4  0  0  0  0
  9 12  1  0  0  0  0
 10 11  4  0  0  0  0
 12 13  1  0  0  0  0
 13 14  1  0  0  0  0
 13 15  1  0  0  0  0
M  END
>  <Name_Molregno>
ibuprofen

>  <5-HT1A>
5

>  <5-HT1B>
5

>  <5-HT1D>
5

>  <5-HT1E>
5

>  <5-HT2A>
5

>  <5-HT3>
5

>  <5-HT6>
5

>  <5-HT7>
5

>  <Alpha-1A>
5

>  <Alpha-1B>
5

>  <Alpha-2A>
5

>  <Alpha-2B>
5

>  <Alpha-2C>
5

>  <DOPAMINE D1>
5

>  <DOPAMINE D2>
5

>  <DOPAMINE D4>
5

>  <DOPAMINE D5>
5

>  <Dopamine transporter>
5

>  <HISTAMINE H1>
5

>  <HISTAMINE H2>
5

>  <Muscarinic acetylcholine receptor M2>
5

>  <Muscarinic acetylcholine receptor M5>
5

>  <Norepinephrine transporter>
5

>  <Serotonin transporter>
5

$$$$
ICS205-930
  Marvin  02231216192D 0   1.00000     0.00000     0

 21 24  0  0  1  0  0  0  0  0999 V2000
   -0.3691   -0.4673    0.0000 O   0  0  0  0  0  0  0  0  0
   -0.1141    0.3173    0.0000 C   0  0  0  0  0  0  0  0  0
    0.6928    0.4889    0.0000 O   0  0  0  0  0  0  0  0  0
   -0.6662    0.9304    0.0000 C   0  0  0  0  0  0  0  0  0
   -0.4946    1.7374    0.0000 C   0  0  0  0  0  0  0  0  0
   -1.2091    2.1499    0.0000 C   0  0  0  0  0  0  0  0  0
   -1.8222    1.5979    0.0000 N   0  0  0  0  0  0  0  0  0
   -1.4866    0.8442    0.0000 C   0  0  0  0  0  0  0  0  0
   -1.2091    2.9749    0.0000 C   0  0  0  0  0  0  0  0  0
   -0.4946    3.3874    0.0000 C   0  0  0  0  0  0  0  0  0
    0.2198    2.9749    0.0000 C   0  0  0  0  0  0  0  0  0
    0.2198    2.1499    0.0000 C   0  0  0  0  0  0  0  0  0
    0.1830   -1.0804    0.0000 C   0  0  0  0  0  0  0  0  0
    0.4889   -1.8509    0.0000 C   0  0  0  0  0  0  0  0  0
    1.3939   -1.6417    0.0000 C   0  0  0  0  0  0  0  0  0
    2.0341   -1.9548    0.0000 N   0  0  0  0  0  0  0  0  0
    1.7276   -1.1888    0.0000 C   0  0  0  0  0  0  0  0  0
    0.7773   -1.3918    0.0000 C   0  0  0  0  0  0  0  0  0
    2.0872   -0.3836    0.0000 C   0  0  0  0  0  0  0  0  0
    1.5594   -0.8818    0.0000 C   0  0  0  0  0  0  0  0  0
    2.5953   -2.5594    0.0000 C   0  0  0  0  0  0  0  0  0
  1  2  1  0  0  0  0
  1 13  1  0  0  0  0
  2  3  2  0  0  0  0
  2  4  1  0  0  0  0
  4  5  4  0  0  0  0
  4  8  4  0  0  0  0
  5  6  4  0  0  0  0
  5 12  4  0  0  0  0
  6  7  4  0  0  0  0
  6  9  4  0  0  0  0
  7  8  4  0  0  0  0
  9 10  4  0  0  0  0
 10 11  4  0  0  0  0
 11 12  4  0  0  0  0
 13 14  1  0  0  0  0
 13 18  1  0  0  0  0
 14 15  1  0  0  0  0
 15 16  1  0  0  0  0
 15 20  1  0  0  0  0
 16 17  1  0  0  0  0
 16 21  1  0  0  0  0
 17 18  1  0  0  0  0
 17 19  1  0  0  0  0
 19 20  1  0  0  0  0
M  STY  1   1 DAT
M  SAL   1  1   7
M  SDT   1 MRV_IMPLICIT_H                                        
M  SDD   1     0.0000    0.0000    DR    ALL  0       0  
M  SED   1 IMPL_H1
M  END
>  <Name_Molregno>
ICS205-930

>  <5-HT1A>
6.64

>  <5-HT1B>
5

>  <5-HT1D>
5

>  <5-HT1E>
5

>  <5-HT3>
8.2

>  <DOPAMINE D1>
5

>  <DOPAMINE D2>
5

$$$$
ILOPERIDONE
  Marvin  02231216192D 0   1.00000     0.00000     0

 31 34  0  0  0  0  0  0  0  0999 V2000
    9.8408   -5.0338    0.0000 F   0  0  0  0  0  0  0  0  0
    9.1263   -4.6213    0.0000 C   0  0  0  0  0  0  0  0  0
    8.4119   -5.0338    0.0000 C   0  0  0  0  0  0  0  0  0
    7.6974   -4.6213    0.0000 C   0  0  0  0  0  0  0  0  0
    6.9128   -4.8762    0.0000 O   0  0  0  0  0  0  0  0  0
    6.4279   -4.2088    0.0000 N   0  0  0  0  0  0  0  0  0
    6.9128   -3.5413    0.0000 C   0  0  0  0  0  0  0  0  0
    7.6974   -3.7963    0.0000 C   0  0  0  0  0  0  0  0  0
    8.4119   -3.3838    0.0000 C   0  0  0  0  0  0  0  0  0
    9.1263   -3.7963    0.0000 C   0  0  0  0  0  0  0  0  0
    6.6578   -2.7567    0.0000 C   0  0  0  0  0  0  0  0  0
    5.8509   -2.5852    0.0000 C   0  0  0  0  0  0  0  0  0
    5.5959   -1.8006    0.0000 C   0  0  0  0  0  0  0  0  0
    6.1480   -1.1875    0.0000 N   0  0  0  0  0  0  0  0  0
    6.9549   -1.3590    0.0000 C   0  0  0  0  0  0  0  0  0
    7.2099   -2.1436    0.0000 C   0  0  0  0  0  0  0  0  0
    5.8930   -0.4028    0.0000 C   0  0  0  0  0  0  0  0  0
    5.0861   -0.2313    0.0000 C   0  0  0  0  0  0  0  0  0
    4.8311    0.5533    0.0000 C   0  0  0  0  0  0  0  0  0
    4.0241    0.7248    0.0000 O   0  0  0  0  0  0  0  0  0
    3.7692    1.5095    0.0000 C   0  0  0  0  0  0  0  0  0
    2.9622    1.6810    0.0000 C   0  0  0  0  0  0  0  0  0
    2.7073    2.4656    0.0000 C   0  0  0  0  0  0  0  0  0
    3.2593    3.0787    0.0000 C   0  0  0  0  0  0  0  0  0
    4.0663    2.9072    0.0000 C   0  0  0  0  0  0  0  0  0
    4.3212    2.1225    0.0000 C   0  0  0  0  0  0  0  0  0
    5.1282    1.9510    0.0000 O   0  0  0  0  0  0  0  0  0
    5.6802    2.5641    0.0000 C   0  0  0  0  0  0  0  0  0
    3.0044    3.8633    0.0000 C   0  0  0  0  0  0  0  0  0
    2.1974    4.0348    0.0000 O   0  0  0  0  0  0  0  0  0
    3.5564    4.4764    0.0000 C   0  0  0  0  0  0  0  0  0
  1  2  1  0  0  0  0
  2  3  4  0  0  0  0
  2 10  4  0  0  0  0
  3  4  4  0  0  0  0
  4  5  4  0  0  0  0
  4  8  4  0  0  0  0
  5  6  4  0  0  0  0
  6  7  4  0  0  0  0
  7  8  4  0  0  0  0
  7 11  1  0  0  0  0
  8  9  4  0  0  0  0
  9 10  4  0  0  0  0
 11 12  1  0  0  0  0
 11 16  1  0  0  0  0
 12 13  1  0  0  0  0
 13 14  1  0  0  0  0
 14 15  1  0  0  0  0
 14 17  1  0  0  0  0
 15 16  1  0  0  0  0
 17 18  1  0  0  0  0
 18 19  1  0  0  0  0
 19 20  1  0  0  0  0
 20 21  1  0  0  0  0
 21 22  4  0  0  0  0
 21 26  4  0  0  0  0
 22 23  4  0  0  0  0
 23 24  4  0  0  0  0
 24 25  4  0  0  0  0
 24 29  1  0  0  0  0
 25 26  4  0  0  0  0
 26 27  1  0  0  0  0
 27 28  1  0  0  0  0
 29 30  2  0  0  0  0
 29 31  1  0  0  0  0
M  END
>  <Name_Molregno>
ILOPERIDONE

>  <5-HT1A>
7.18

>  <5-HT1B>
7.05

>  <5-HT1D>
7.82

>  <5-HT2A>
9.46

>  <5-HT2C>
7.27

>  <5-HT3>
5

>  <5-HT6>
7.2

>  <5-HT7>
6.95

>  <Alpha-2A>
6.79

>  <Alpha-2B>
6.79

>  <Alpha-2C>
7.79

>  <Beta-1>
5

>  <Beta-2>
5

>  <DOPAMINE D1>
7.02

>  <DOPAMINE D2>
8.23

>  <DOPAMINE D3>
8

>  <DOPAMINE D4>
7.96

>  <DOPAMINE D5>
6.5

>  <Dopamine transporter>
5.53

>  <HISTAMINE H1>
7.91

>  <Muscarinic acetylcholine receptor M1>
5.31

>  <Muscarinic acetylcholine receptor M2>
5.48

>  <Muscarinic acetylcholine receptor M3>
5

>  <Muscarinic acetylcholine receptor M4>
5.08

>  <Muscarinic acetylcholine receptor M5>
5

>  <Norepinephrine transporter>
5.83

$$$$
KETANSERIN
  Marvin  02231216192D 0   1.00000     0.00000     0

 29 32  0  0  0  0  0  0  0  0999 V2000
    2.3505   -3.5857    0.0000 F   0  0  0  0  0  0  0  0  0
    2.3505   -2.7607    0.0000 C   0  0  0  0  0  0  0  0  0
    1.6360   -2.3482    0.0000 C   0  0  0  0  0  0  0  0  0
    1.6360   -1.5232    0.0000 C   0  0  0  0  0  0  0  0  0
    2.3505   -1.1107    0.0000 C   0  0  0  0  0  0  0  0  0
    3.0649   -1.5232    0.0000 C   0  0  0  0  0  0  0  0  0
    3.0649   -2.3482    0.0000 C   0  0  0  0  0  0  0  0  0
    2.3505   -0.2857    0.0000 C   0  0  0  0  0  0  0  0  0
    1.6360    0.1268    0.0000 O   0  0  0  0  0  0  0  0  0
    3.0649    0.1268    0.0000 C   0  0  0  0  0  0  0  0  0
    3.0649    0.9518    0.0000 C   0  0  0  0  0  0  0  0  0
    3.7794    1.3643    0.0000 C   0  0  0  0  0  0  0  0  0
    4.4939    0.9518    0.0000 N   0  0  0  0  0  0  0  0  0
    4.4939    0.1268    0.0000 C   0  0  0  0  0  0  0  0  0
    3.7794   -0.2857    0.0000 C   0  0  0  0  0  0  0  0  0
    5.2083    1.3643    0.0000 C   0  0  0  0  0  0  0  0  0
    5.9228    0.9518    0.0000 C   0  0  0  0  0  0  0  0  0
    6.6373    1.3643    0.0000 N   0  0  0  0  0  0  0  0  0
    7.3518    0.9518    0.0000 C   0  0  0  0  0  0  0  0  0
    7.3518    0.1268    0.0000 O   0  0  0  0  0  0  0  0  0
    8.0662    1.3643    0.0000 C   0  0  0  0  0  0  0  0  0
    8.0662    2.1893    0.0000 C   0  0  0  0  0  0  0  0  0
    7.3518    2.6018    0.0000 N   0  0  0  0  0  0  0  0  0
    6.6373    2.1893    0.0000 C   0  0  0  0  0  0  0  0  0
    5.9228    2.6018    0.0000 O   0  0  0  0  0  0  0  0  0
    8.7807    2.6018    0.0000 C   0  0  0  0  0  0  0  0  0
    9.4952    2.1893    0.0000 C   0  0  0  0  0  0  0  0  0
    9.4952    1.3643    0.0000 C   0  0  0  0  0  0  0  0  0
    8.7807    0.9518    0.0000 C   0  0  0  0  0  0  0  0  0
  1  2  1  0  0  0  0
  2  3  4  0  0  0  0
  2  7  4  0  0  0  0
  3  4  4  0  0  0  0
  4  5  4  0  0  0  0
  5  6  4  0  0  0  0
  5  8  1  0  0  0  0
  6  7  4  0  0  0  0
  8  9  2  0  0  0  0
  8 10  1  0  0  0  0
 10 11  1  0  0  0  0
 10 15  1  0  0  0  0
 11 12  1  0  0  0  0
 12 13  1  0  0  0  0
 13 14  1  0  0  0  0
 13 16  1  0  0  0  0
 14 15  1  0  0  0  0
 16 17  1  0  0  0  0
 17 18  1  0  0  0  0
 18 19  1  0  0  0  0
 18 24  1  0  0  0  0
 19 20  2  0  0  0  0
 19 21  1  0  0  0  0
 21 22  4  0  0  0  0
 21 29  4  0  0  0  0
 22 23  1  0  0  0  0
 22 26  4  0  0  0  0
 23 24  1  0  0  0  0
 24 25  2  0  0  0  0
 26 27  4  0  0  0  0
 27 28  4  0  0  0  0
 28 29  4  0  0  0  0
M  END
>  <Name_Molregno>
KETANSERIN

>  <5-HT1A>
5.28

>  <5-HT1B>
5.48

>  <5-HT1D>
5.65

>  <5-HT1E>
5

>  <5-HT2A>
8.67

>  <5-HT2C>
7.08

>  <5-HT5>
4.7

>  <5-HT6>
5.55

>  <5-HT7>
6.1

>  <Alpha-2B>
6.7

>  <DOPAMINE D1>
6.52

>  <DOPAMINE D2>
5

>  <DOPAMINE D5>
5.6

>  <Dopamine transporter>
5

>  <HISTAMINE H1>
8.75

$$$$
Ketorolac
  Marvin  02231216192D 0   1.00000     0.00000     0

 19 21  0  0  1  0  0  0  0  0999 V2000
    1.4450    2.2138    0.0000 O   0  0  0  0  0  0  0  0  0
    2.2520    2.0422    0.0000 C   0  0  0  0  0  0  0  0  0
    2.8040    2.6553    0.0000 O   0  0  0  0  0  0  0  0  0
    2.5069    1.2576    0.0000 C   0  0  0  0  0  0  0  0  0
    2.0220    0.5902    0.0000 C   0  0  0  0  0  0  0  0  0
    2.5069   -0.0773    0.0000 C   0  0  0  0  0  0  0  0  0
    3.2915    0.1777    0.0000 N   0  0  0  0  0  0  0  0  0
    3.2915    1.0027    0.0000 C   0  0  0  0  0  0  0  0  0
    4.0761    1.2576    0.0000 C   0  0  0  0  0  0  0  0  0
    4.5611    0.5902    0.0000 C   0  0  0  0  0  0  0  0  0
    4.0761   -0.0773    0.0000 C   0  0  0  0  0  0  0  0  0
    4.3311   -0.8619    0.0000 C   0  0  0  0  0  0  0  0  0
    5.1381   -1.0334    0.0000 O   0  0  0  0  0  0  0  0  0
    3.7791   -1.4750    0.0000 C   0  0  0  0  0  0  0  0  0
    4.0340   -2.2596    0.0000 C   0  0  0  0  0  0  0  0  0
    3.4820   -2.8727    0.0000 C   0  0  0  0  0  0  0  0  0
    2.6750   -2.7012    0.0000 C   0  0  0  0  0  0  0  0  0
    2.4201   -1.9166    0.0000 C   0  0  0  0  0  0  0  0  0
    2.9721   -1.3035    0.0000 C   0  0  0  0  0  0  0  0  0
  1  2  1  0  0  0  0
  2  3  2  0  0  0  0
  2  4  1  0  0  0  0
  4  5  1  0  0  0  0
  4  8  1  0  0  0  0
  5  6  1  0  0  0  0
  6  7  1  0  0  0  0
  7  8  4  0  0  0  0
  7 11  4  0  0  0  0
  8  9  4  0  0  0  0
  9 10  4  0  0  0  0
 10 11  4  0  0  0  0
 11 12  1  0  0  0  0
 12 13  2  0  0  0  0
 12 14  1  0  0  0  0
 14 15  4  0  0  0  0
 14 19  4  0  0  0  0
 15 16  4  0  0  0  0
 16 17  4  0  0  0  0
 17 18  4  0  0  0  0
 18 19  4  0  0  0  0
M  END
>  <Name_Molregno>
Ketorolac

>  <5-HT1A>
5

>  <5-HT1B>
5

>  <5-HT1D>
5

>  <5-HT1E>
5

>  <5-HT2A>
5

>  <5-HT3>
5

>  <5-HT5>
5

>  <5-HT6>
5

>  <5-HT7>
5

>  <Alpha-1A>
5

>  <Alpha-1B>
5

>  <Alpha-2A>
5

>  <Alpha-2B>
5

>  <Alpha-2C>
5

>  <DOPAMINE D1>
5

>  <DOPAMINE D2>
5

>  <DOPAMINE D4>
5

>  <DOPAMINE D5>
5

>  <Dopamine transporter>
5

>  <HISTAMINE H1>
5

>  <HISTAMINE H2>
5

>  <Muscarinic acetylcholine receptor M2>
5

>  <Muscarinic acetylcholine receptor M5>
5

>  <Norepinephrine transporter>
5

>  <Serotonin transporter>
5

$$$$
L-cysteic-acid
  Marvin  02231216192D 0   1.00000     0.00000     0

 10  9  0  0  1  0  0  0  0  0999 V2000
   -1.9749    0.1579    0.0000 S   0  0  0  0  0  0  0  0  0
   -2.6894    0.5704    0.0000 O   0  0  0  0  0  0  0  0  0
   -2.3874   -0.5565    0.0000 O   0  0  0  0  0  0  0  0  0
   -1.5624    0.8724    0.0000 O   0  0  0  0  0  0  0  0  0
   -1.2605   -0.2546    0.0000 C   0  0  0  0  0  0  0  0  0
   -0.5460    0.1579    0.0000 C   0  0  0  0  0  0  0  0  0
   -0.5460    0.9829    0.0000 N   0  0  0  0  0  0  0  0  0
    0.1685   -0.2546    0.0000 C   0  0  0  0  0  0  0  0  0
    0.8829    0.1579    0.0000 O   0  0  0  0  0  0  0  0  0
    0.1685   -1.0796    0.0000 O   0  0  0  0  0  0  0  0  0
  1  2  2  0  0  0  0
  1  3  2  0  0  0  0
  1  4  1  0  0  0  0
  1  5  1  0  0  0  0
  5  6  1  0  0  0  0
  6  7  1  0  0  0  0
  6  8  1  0  0  0  0
  8  9  1  0  0  0  0
  8 10  2  0  0  0  0
M  END
>  <Name_Molregno>
L-cysteic-acid

>  <5-HT1A>
5

>  <5-HT1B>
5

>  <5-HT1D>
5

>  <5-HT3>
5

>  <5-HT5>
5

>  <5-HT6>
5

>  <5-HT7>
5

>  <Alpha-1A>
5

>  <Alpha-1B>
5

>  <Alpha-2A>
5

>  <Alpha-2C>
5

>  <DOPAMINE D1>
5

>  <DOPAMINE D2>
5

>  <DOPAMINE D3>
5

>  <DOPAMINE D5>
5

>  <Dopamine transporter>
5

>  <HISTAMINE H1>
5

>  <HISTAMINE H2>
5

>  <HISTAMINE H4>
5

>  <Muscarinic acetylcholine receptor M1>
5

>  <Muscarinic acetylcholine receptor M2>
5

>  <Muscarinic acetylcholine receptor M3>
5

>  <Muscarinic acetylcholine receptor M4>
5

>  <Muscarinic acetylcholine receptor M5>
5

>  <Norepinephrine transporter>
5

>  <Serotonin transporter>
5

$$$$
L-cysteine
  Marvin  02231216192D 0   1.00000     0.00000     0

  7  6  0  0  1  0  0  0  0  0999 V2000
    1.5580    2.1190    0.0000 S   0  0  0  0  0  0  0  0  0
    1.1455    1.4045    0.0000 C   0  0  0  0  0  0  0  0  0
    1.5580    0.6901    0.0000 C   0  0  0  0  0  0  0  0  0
    2.3830    0.6901    0.0000 N   0  0  0  0  0  0  0  0  0
    1.1455   -0.0244    0.0000 C   0  0  0  0  0  0  0  0  0
    1.5580   -0.7389    0.0000 O   0  0  0  0  0  0  0  0  0
    0.3205   -0.0244    0.0000 O   0  0  0  0  0  0  0  0  0
  1  2  1  0  0  0  0
  2  3  1  0  0  0  0
  3  4  1  0  0  0  0
  3  5  1  0  0  0  0
  5  6  1  0  0  0  0
  5  7  2  0  0  0  0
M  END
>  <Name_Molregno>
L-cysteine

>  <5-HT1A>
5

>  <5-HT1B>
5

>  <5-HT1D>
5

>  <5-HT3>
5

>  <5-HT5>
5

>  <5-HT6>
5

>  <5-HT7>
5

>  <Alpha-1A>
5

>  <Alpha-1B>
5

>  <Alpha-2A>
5

>  <Alpha-2B>
5

>  <Alpha-2C>
5

>  <DOPAMINE D1>
5

>  <DOPAMINE D2>
5

>  <DOPAMINE D3>
5

>  <DOPAMINE D5>
5

>  <Dopamine transporter>
5

>  <HISTAMINE H1>
5

>  <HISTAMINE H2>
5

>  <HISTAMINE H4>
5

>  <Muscarinic acetylcholine receptor M1>
5

>  <Muscarinic acetylcholine receptor M2>
5

>  <Muscarinic acetylcholine receptor M3>
5

>  <Muscarinic acetylcholine receptor M4>
5

>  <Muscarinic acetylcholine receptor M5>
5

>  <Norepinephrine transporter>
5

>  <Serotonin transporter>
5

$$$$
L-cysteine-sulfinic-acid
  Marvin  02231216192D 0   1.00000     0.00000     0

  9  8  0  0  1  0  0  0  0  0999 V2000
   -2.0945    0.5537    0.0000 S   0  0  0  0  0  0  0  0  0
   -2.8090    0.1412    0.0000 O   0  0  0  0  0  0  0  0  0
   -2.0945    1.3787    0.0000 O   0  0  0  0  0  0  0  0  0
   -1.3800    0.1412    0.0000 C   0  0  0  0  0  0  0  0  0
   -0.6656    0.5537    0.0000 C   0  0  0  0  0  0  0  0  0
   -0.6656    1.3787    0.0000 N   0  0  0  0  0  0  0  0  0
    0.0489    0.1412    0.0000 C   0  0  0  0  0  0  0  0  0
    0.7634    0.5537    0.0000 O   0  0  0  0  0  0  0  0  0
    0.0489   -0.6838    0.0000 O   0  0  0  0  0  0  0  0  0
  1  2  2  0  0  0  0
  1  3  1  0  0  0  0
  1  4  1  0  0  0  0
  4  5  1  0  0  0  0
  5  6  1  0  0  0  0
  5  7  1  0  0  0  0
  7  8  1  0  0  0  0
  7  9  2  0  0  0  0
M  END
>  <Name_Molregno>
L-cysteine-sulfinic-acid

>  <5-HT1A>
5

>  <5-HT1B>
5

>  <5-HT1D>
5

>  <5-HT3>
5

>  <5-HT5>
5

>  <5-HT6>
5

>  <5-HT7>
5

>  <Alpha-1A>
5

>  <Alpha-1B>
5

>  <Alpha-2A>
5

>  <Alpha-2B>
5

>  <Alpha-2C>
5

>  <DOPAMINE D1>
5

>  <DOPAMINE D2>
5

>  <DOPAMINE D3>
5

>  <DOPAMINE D5>
5

>  <Dopamine transporter>
5

>  <HISTAMINE H1>
5

>  <HISTAMINE H2>
5

>  <HISTAMINE H4>
5

>  <Muscarinic acetylcholine receptor M1>
5

>  <Muscarinic acetylcholine receptor M2>
5

>  <Muscarinic acetylcholine receptor M3>
5

>  <Muscarinic acetylcholine receptor M4>
5

>  <Muscarinic acetylcholine receptor M5>
5

>  <Norepinephrine transporter>
5

>  <Serotonin transporter>
5

$$$$
LOXAPINE
  Marvin  02231216192D 0   1.00000     0.00000     0

 23 26  0  0  0  0  0  0  0  0999 V2000
    3.9671    1.6854    0.0000 Cl  0  0  0  0  0  0  0  0  0
    3.1788    1.4422    0.0000 C   0  0  0  0  0  0  0  0  0
    2.5740    2.0033    0.0000 C   0  0  0  0  0  0  0  0  0
    1.7856    1.7602    0.0000 C   0  0  0  0  0  0  0  0  0
    1.6021    0.9558    0.0000 C   0  0  0  0  0  0  0  0  0
    0.8588    0.5979    0.0000 O   0  0  0  0  0  0  0  0  0
    0.1155    0.9558    0.0000 C   0  0  0  0  0  0  0  0  0
   -0.0681    1.7602    0.0000 C   0  0  0  0  0  0  0  0  0
    0.4463    2.4052    0.0000 N   0  0  0  0  0  0  0  0  0
    1.2713    2.4052    0.0000 C   0  0  0  0  0  0  0  0  0
    1.6292    3.1485    0.0000 N   0  0  0  0  0  0  0  0  0
    1.1645    3.8301    0.0000 C   0  0  0  0  0  0  0  0  0
    1.5224    4.5734    0.0000 C   0  0  0  0  0  0  0  0  0
    2.3451    4.6351    0.0000 N   0  0  0  0  0  0  0  0  0
    2.8099    3.9534    0.0000 C   0  0  0  0  0  0  0  0  0
    2.4519    3.2101    0.0000 C   0  0  0  0  0  0  0  0  0
    2.7031    5.3784    0.0000 C   0  0  0  0  0  0  0  0  0
   -0.8565    2.0033    0.0000 C   0  0  0  0  0  0  0  0  0
   -1.4612    1.4422    0.0000 C   0  0  0  0  0  0  0  0  0
   -1.2776    0.6379    0.0000 C   0  0  0  0  0  0  0  0  0
   -0.4893    0.3947    0.0000 C   0  0  0  0  0  0  0  0  0
    2.2068    0.3947    0.0000 C   0  0  0  0  0  0  0  0  0
    2.9952    0.6379    0.0000 C   0  0  0  0  0  0  0  0  0
  1  2  1  0  0  0  0
  2  3  4  0  0  0  0
  2 23  4  0  0  0  0
  3  4  4  0  0  0  0
  4  5  4  0  0  0  0
  4 10  1  0  0  0  0
  5  6  1  0  0  0  0
  5 22  4  0  0  0  0
  6  7  1  0  0  0  0
  7  8  4  0  0  0  0
  7 21  4  0  0  0  0
  8  9  1  0  0  0  0
  8 18  4  0  0  0  0
  9 10  2  0  0  0  0
 10 11  1  0  0  0  0
 11 12  1  0  0  0  0
 11 16  1  0  0  0  0
 12 13  1  0  0  0  0
 13 14  1  0  0  0  0
 14 15  1  0  0  0  0
 14 17  1  0  0  0  0
 15 16  1  0  0  0  0
 18 19  4  0  0  0  0
 19 20  4  0  0  0  0
 20 21  4  0  0  0  0
 22 23  4  0  0  0  0
M  END
>  <Name_Molregno>
LOXAPINE

>  <5-HT1A>
5.59

>  <5-HT1B>
6.41

>  <5-HT1D>
5.46

>  <5-HT1E>
5.85

>  <5-HT2A>
8.43

>  <5-HT2C>
7.9

>  <5-HT3>
6.72

>  <5-HT5>
6.11

>  <5-HT6>
7.46

>  <5-HT7>
7.06

>  <Alpha-1A>
7.51

>  <Alpha-1B>
7.28

>  <Alpha-2A>
6.82

>  <Alpha-2B>
6.97

>  <Alpha-2C>
7.1

>  <Beta-1>
5

>  <Beta-2>
5

>  <DOPAMINE D1>
7.27

>  <DOPAMINE D2>
7.74

>  <DOPAMINE D3>
7.64

>  <DOPAMINE D4>
8.04

>  <DOPAMINE D5>
7.12

>  <Dopamine transporter>
5

>  <HISTAMINE H1>
8.33

>  <HISTAMINE H2>
6.68

>  <HISTAMINE H4>
5.32

>  <Muscarinic acetylcholine receptor M1>
6.98

>  <Muscarinic acetylcholine receptor M2>
6.38

>  <Muscarinic acetylcholine receptor M3>
6.74

>  <Muscarinic acetylcholine receptor M4>
6.09

>  <Muscarinic acetylcholine receptor M5>
6.83

>  <Norepinephrine transporter>
5.24

>  <Serotonin transporter>
5

$$$$
LY344864
  Marvin  02231216192D 0   1.00000     0.00000     0

 26 29  0  0  1  0  0  0  0  0999 V2000
    0.4821    3.8418    0.0000 F   0  0  0  0  0  0  0  0  0
    1.0342    3.2287    0.0000 C   0  0  0  0  0  0  0  0  0
    1.8411    3.4003    0.0000 C   0  0  0  0  0  0  0  0  0
    2.3932    2.7872    0.0000 C   0  0  0  0  0  0  0  0  0
    2.1382    2.0026    0.0000 C   0  0  0  0  0  0  0  0  0
    1.3312    1.8310    0.0000 C   0  0  0  0  0  0  0  0  0
    0.7792    2.4441    0.0000 C   0  0  0  0  0  0  0  0  0
    2.6902    1.3895    0.0000 C   0  0  0  0  0  0  0  0  0
    2.4353    0.6048    0.0000 O   0  0  0  0  0  0  0  0  0
    3.4972    1.5610    0.0000 N   0  0  0  0  0  0  0  0  0
    4.0493    0.9479    0.0000 C   0  0  0  0  0  0  0  0  0
    4.8562    1.1194    0.0000 C   0  0  0  0  0  0  0  0  0
    5.4083    0.5063    0.0000 C   0  0  0  0  0  0  0  0  0
    6.2333    0.5063    0.0000 C   0  0  0  0  0  0  0  0  0
    6.7853    1.1194    0.0000 C   0  0  0  0  0  0  0  0  0
    7.5923    0.9479    0.0000 C   0  0  0  0  0  0  0  0  0
    8.1443    1.5610    0.0000 N   0  0  0  0  0  0  0  0  0
    7.8894    2.3456    0.0000 C   0  0  0  0  0  0  0  0  0
    8.9513    1.3895    0.0000 C   0  0  0  0  0  0  0  0  0
    7.8472    0.1633    0.0000 C   0  0  0  0  0  0  0  0  0
    7.2952   -0.4498    0.0000 C   0  0  0  0  0  0  0  0  0
    6.4882   -0.2783    0.0000 C   0  0  0  0  0  0  0  0  0
    5.8208   -0.7632    0.0000 N   0  0  0  0  0  0  0  0  0
    5.1533   -0.2783    0.0000 C   0  0  0  0  0  0  0  0  0
    4.3463   -0.4498    0.0000 C   0  0  0  0  0  0  0  0  0
    3.7943    0.1633    0.0000 C   0  0  0  0  0  0  0  0  0
  1  2  1  0  0  0  0
  2  3  4  0  0  0  0
  2  7  4  0  0  0  0
  3  4  4  0  0  0  0
  4  5  4  0  0  0  0
  5  6  4  0  0  0  0
  5  8  1  0  0  0  0
  6  7  4  0  0  0  0
  8  9  2  0  0  0  0
  8 10  1  0  0  0  0
 10 11  1  0  0  0  0
 11 12  4  0  0  0  0
 11 26  4  0  0  0  0
 12 13  4  0  0  0  0
 13 14  4  0  0  0  0
 13 24  4  0  0  0  0
 14 15  1  0  0  0  0
 14 22  4  0  0  0  0
 15 16  1  0  0  0  0
 16 17  1  0  0  0  0
 16 20  1  0  0  0  0
 17 18  1  0  0  0  0
 17 19  1  0  0  0  0
 20 21  1  0  0  0  0
 21 22  1  0  0  0  0
 22 23  4  0  0  0  0
 23 24  4  0  0  0  0
 24 25  4  0  0  0  0
 25 26  4  0  0  0  0
M  STY  1   1 DAT
M  SAL   1  1  23
M  SDT   1 MRV_IMPLICIT_H                                        
M  SDD   1     0.0000    0.0000    DR    ALL  0       0  
M  SED   1 IMPL_H1
M  END
>  <Name_Molregno>
LY344864

>  <5-HT1A>
6.28

>  <5-HT1B>
6.26

>  <5-HT1D>
6.24

>  <5-HT1E>
5.85

>  <5-HT2A>
5.41

>  <5-HT2C>
5.46

>  <5-HT7>
5.31

$$$$
LYSERGOL
  Marvin  02231216192D 0   1.00000     0.00000     0

 19 22  0  0  1  0  0  0  0  0999 V2000
    1.5902   -2.6529    0.0000 O   0  0  0  0  0  0  0  0  0
    2.3051   -2.2413    0.0000 C   0  0  0  0  0  0  0  0  0
    2.3061   -1.4163    0.0000 C   0  0  0  0  0  0  0  0  0
    3.0211   -1.0046    0.0000 C   0  0  0  0  0  0  0  0  0
    3.0221   -0.1796    0.0000 C   0  0  0  0  0  0  0  0  0
    2.3081    0.2337    0.0000 C   0  0  0  0  0  0  0  0  0
    1.5931   -0.1779    0.0000 N   0  0  0  0  0  0  0  0  0
    1.5921   -1.0029    0.0000 C   0  0  0  0  0  0  0  0  0
    0.8792    0.2355    0.0000 C   0  0  0  0  0  0  0  0  0
    2.3096    1.0579    0.0000 C   0  0  0  0  0  0  0  0  0
    3.0221    1.4704    0.0000 C   0  0  0  0  0  0  0  0  0
    3.7346    1.0579    0.0000 C   0  0  0  0  0  0  0  0  0
    3.7346    0.2329    0.0000 C   0  0  0  0  0  0  0  0  0
    4.4524   -0.1796    0.0000 C   0  0  0  0  0  0  0  0  0
    5.1649    0.2329    0.0000 C   0  0  0  0  0  0  0  0  0
    5.1649    1.0579    0.0000 C   0  0  0  0  0  0  0  0  0
    4.4524    1.4704    0.0000 C   0  0  0  0  0  0  0  0  0
    4.1471    2.3275    0.0000 N   0  0  0  0  0  0  0  0  0
    3.3221    2.3275    0.0000 C   0  0  0  0  0  0  0  0  0
  1  2  1  0  0  0  0
  2  3  1  0  0  0  0
  3  4  1  0  0  0  0
  3  8  1  0  0  0  0
  4  5  2  0  0  0  0
  5  6  1  0  0  0  0
  5 13  1  0  0  0  0
  6  7  1  0  0  0  0
  6 10  1  0  0  0  0
  7  8  1  0  0  0  0
  7  9  1  0  0  0  0
 10 11  1  0  0  0  0
 11 12  4  0  0  0  0
 11 19  4  0  0  0  0
 12 13  4  0  0  0  0
 12 17  4  0  0  0  0
 13 14  4  0  0  0  0
 14 15  4  0  0  0  0
 15 16  4  0  0  0  0
 16 17  4  0  0  0  0
 17 18  4  0  0  0  0
 18 19  4  0  0  0  0
M  STY  1   1 DAT
M  SAL   1  1  18
M  SDT   1 MRV_IMPLICIT_H                                        
M  SDD   1     0.0000    0.0000    DR    ALL  0       0  
M  SED   1 IMPL_H1
M  END
>  <Name_Molregno>
LYSERGOL

>  <5-HT1B>
9.06

>  <5-HT1D>
9.06

>  <5-HT1E>
7.37

$$$$
Meloxicam
  Marvin  02231216192D 0   1.00000     0.00000     0

 23 25  0  0  0  0  0  0  0  0999 V2000
    1.0530    2.3261    0.0000 S   0  0  0  0  0  0  0  0  0
    0.2461    2.4976    0.0000 C   0  0  0  0  0  0  0  0  0
   -0.1664    1.7831    0.0000 C   0  0  0  0  0  0  0  0  0
    0.3856    1.1700    0.0000 N   0  0  0  0  0  0  0  0  0
    1.1393    1.5056    0.0000 C   0  0  0  0  0  0  0  0  0
    1.8537    1.0931    0.0000 N   0  0  0  0  0  0  0  0  0
    1.8537    0.2681    0.0000 C   0  0  0  0  0  0  0  0  0
    1.1393   -0.1444    0.0000 O   0  0  0  0  0  0  0  0  0
    2.5682   -0.1444    0.0000 C   0  0  0  0  0  0  0  0  0
    2.5682   -0.9694    0.0000 N   0  0  0  0  0  0  0  0  0
    3.2827   -1.3819    0.0000 S   0  0  0  0  0  0  0  0  0
    2.7524   -2.0139    0.0000 O   0  0  0  0  0  0  0  0  0
    3.8130   -2.0139    0.0000 O   0  0  0  0  0  0  0  0  0
    3.9972   -0.9694    0.0000 C   0  0  0  0  0  0  0  0  0
    3.9972   -0.1444    0.0000 C   0  0  0  0  0  0  0  0  0
    4.7116    0.2681    0.0000 C   0  0  0  0  0  0  0  0  0
    5.4261   -0.1444    0.0000 C   0  0  0  0  0  0  0  0  0
    5.4261   -0.9694    0.0000 C   0  0  0  0  0  0  0  0  0
    4.7116   -1.3819    0.0000 C   0  0  0  0  0  0  0  0  0
    3.2827    0.2681    0.0000 C   0  0  0  0  0  0  0  0  0
    3.2827    1.0931    0.0000 O   0  0  0  0  0  0  0  0  0
    1.8537   -1.3819    0.0000 C   0  0  0  0  0  0  0  0  0
   -0.0895    3.2513    0.0000 C   0  0  0  0  0  0  0  0  0
  1  2  4  0  0  0  0
  1  5  4  0  0  0  0
  2  3  4  0  0  0  0
  2 23  1  0  0  0  0
  3  4  4  0  0  0  0
  4  5  4  0  0  0  0
  5  6  1  0  0  0  0
  6  7  1  0  0  0  0
  7  8  1  0  0  0  0
  7  9  2  0  0  0  0
  9 10  1  0  0  0  0
  9 20  1  0  0  0  0
 10 11  1  0  0  0  0
 10 22  1  0  0  0  0
 11 12  2  0  0  0  0
 11 13  2  0  0  0  0
 11 14  1  0  0  0  0
 14 15  4  0  0  0  0
 14 19  4  0  0  0  0
 15 16  4  0  0  0  0
 15 20  1  0  0  0  0
 16 17  4  0  0  0  0
 17 18  4  0  0  0  0
 18 19  4  0  0  0  0
 20 21  2  0  0  0  0
M  END
>  <Name_Molregno>
Meloxicam

>  <5-HT1A>
5

>  <5-HT1B>
5

>  <5-HT1D>
5

>  <5-HT1E>
5

>  <5-HT2A>
5

>  <5-HT3>
5

>  <5-HT5>
5

>  <5-HT6>
5

>  <5-HT7>
5

>  <Alpha-1A>
5

>  <Alpha-1B>
5

>  <Alpha-2A>
5

>  <Alpha-2B>
5

>  <Alpha-2C>
5

>  <DOPAMINE D1>
5

>  <DOPAMINE D2>
5

>  <DOPAMINE D4>
5

>  <DOPAMINE D5>
5

>  <Dopamine transporter>
5

>  <HISTAMINE H1>
5

>  <HISTAMINE H2>
5

>  <HISTAMINE H4>
5

>  <Muscarinic acetylcholine receptor M2>
5

>  <Muscarinic acetylcholine receptor M5>
5

>  <Norepinephrine transporter>
5

>  <Serotonin transporter>
5

$$$$
MESULERGINE
  Marvin  02231216192D 0   1.00000     0.00000     0

 25 28  0  0  1  0  0  0  0  0999 V2000
   -3.5897   -2.1386    0.0000 S   0  0  0  0  0  0  0  0  0
   -4.0013   -1.4236    0.0000 O   0  0  0  0  0  0  0  0  0
   -3.1780   -2.8535    0.0000 O   0  0  0  0  0  0  0  0  0
   -2.8747   -1.7269    0.0000 N   0  0  0  0  0  0  0  0  0
   -2.8737   -0.9019    0.0000 C   0  0  0  0  0  0  0  0  0
   -2.1588   -0.4903    0.0000 C   0  0  0  0  0  0  0  0  0
   -2.1578    0.3347    0.0000 C   0  0  0  0  0  0  0  0  0
   -2.8717    0.7481    0.0000 C   0  0  0  0  0  0  0  0  0
   -3.5867    0.3364    0.0000 N   0  0  0  0  0  0  0  0  0
   -3.5877   -0.4886    0.0000 C   0  0  0  0  0  0  0  0  0
   -4.3007    0.7498    0.0000 C   0  0  0  0  0  0  0  0  0
   -2.8703    1.5722    0.0000 C   0  0  0  0  0  0  0  0  0
   -2.1578    1.9847    0.0000 C   0  0  0  0  0  0  0  0  0
   -1.4453    1.5722    0.0000 C   0  0  0  0  0  0  0  0  0
   -1.4453    0.7472    0.0000 C   0  0  0  0  0  0  0  0  0
   -0.7274    0.3347    0.0000 C   0  0  0  0  0  0  0  0  0
   -0.0149    0.7472    0.0000 C   0  0  0  0  0  0  0  0  0
   -0.0149    1.5722    0.0000 C   0  0  0  0  0  0  0  0  0
   -0.7274    1.9847    0.0000 C   0  0  0  0  0  0  0  0  0
   -1.0328    2.8419    0.0000 N   0  0  0  0  0  0  0  0  0
   -1.8578    2.8419    0.0000 C   0  0  0  0  0  0  0  0  0
   -0.5573    3.5161    0.0000 C   0  0  0  0  0  0  0  0  0
   -4.3046   -2.5502    0.0000 N   0  0  0  0  0  0  0  0  0
   -4.3056   -3.3752    0.0000 C   0  0  0  0  0  0  0  0  0
   -5.0186   -2.1368    0.0000 C   0  0  0  0  0  0  0  0  0
  1  2  2  0  0  0  0
  1  3  2  0  0  0  0
  1  4  1  0  0  0  0
  1 23  1  0  0  0  0
  4  5  1  0  0  0  0
  5  6  1  0  0  0  0
  5 10  1  0  0  0  0
  6  7  1  0  0  0  0
  7  8  1  0  0  0  0
  7 15  1  0  0  0  0
  8  9  1  0  0  0  0
  8 12  1  0  0  0  0
  9 10  1  0  0  0  0
  9 11  1  0  0  0  0
 12 13  1  0  0  0  0
 13 14  4  0  0  0  0
 13 21  4  0  0  0  0
 14 15  4  0  0  0  0
 14 19  4  0  0  0  0
 15 16  4  0  0  0  0
 16 17  4  0  0  0  0
 17 18  4  0  0  0  0
 18 19  4  0  0  0  0
 19 20  4  0  0  0  0
 20 21  4  0  0  0  0
 20 22  1  0  0  0  0
 23 24  1  0  0  0  0
 23 25  1  0  0  0  0
M  END
>  <Name_Molregno>
MESULERGINE

>  <5-HT1A>
6.61

>  <5-HT1B>
6.09

>  <5-HT1D>
5.33

>  <5-HT2A>
7.19

>  <5-HT2C>
8.71

>  <5-HT6>
5.59

>  <5-HT7>
7.74

$$$$
METERGOLINE
  Marvin  02231216192D 0   1.00000     0.00000     0

 30 34  0  0  1  0  0  0  0  0999 V2000
   -3.9736   -2.5674    0.0000 O   0  0  0  0  0  0  0  0  0
   -3.9745   -3.3924    0.0000 C   0  0  0  0  0  0  0  0  0
   -4.6895   -3.8041    0.0000 C   0  0  0  0  0  0  0  0  0
   -4.6905   -4.6291    0.0000 C   0  0  0  0  0  0  0  0  0
   -5.4055   -5.0407    0.0000 C   0  0  0  0  0  0  0  0  0
   -6.1194   -4.6274    0.0000 C   0  0  0  0  0  0  0  0  0
   -6.1184   -3.8024    0.0000 C   0  0  0  0  0  0  0  0  0
   -5.4035   -3.3907    0.0000 C   0  0  0  0  0  0  0  0  0
   -3.2586   -2.1558    0.0000 C   0  0  0  0  0  0  0  0  0
   -2.5446   -2.5692    0.0000 O   0  0  0  0  0  0  0  0  0
   -3.2576   -1.3308    0.0000 N   0  0  0  0  0  0  0  0  0
   -2.5426   -0.9192    0.0000 C   0  0  0  0  0  0  0  0  0
   -2.5417   -0.0942    0.0000 C   0  0  0  0  0  0  0  0  0
   -1.8267    0.3175    0.0000 C   0  0  0  0  0  0  0  0  0
   -1.8257    1.1425    0.0000 C   0  0  0  0  0  0  0  0  0
   -2.5397    1.5558    0.0000 C   0  0  0  0  0  0  0  0  0
   -3.2546    1.1442    0.0000 N   0  0  0  0  0  0  0  0  0
   -3.2556    0.3192    0.0000 C   0  0  0  0  0  0  0  0  0
   -3.9686    1.5575    0.0000 C   0  0  0  0  0  0  0  0  0
   -2.5382    2.3800    0.0000 C   0  0  0  0  0  0  0  0  0
   -1.8257    2.7925    0.0000 C   0  0  0  0  0  0  0  0  0
   -1.1132    2.3800    0.0000 C   0  0  0  0  0  0  0  0  0
   -1.1132    1.5550    0.0000 C   0  0  0  0  0  0  0  0  0
   -0.3953    1.1425    0.0000 C   0  0  0  0  0  0  0  0  0
    0.3172    1.5550    0.0000 C   0  0  0  0  0  0  0  0  0
    0.3172    2.3800    0.0000 C   0  0  0  0  0  0  0  0  0
   -0.3953    2.7925    0.0000 C   0  0  0  0  0  0  0  0  0
   -0.7007    3.6496    0.0000 N   0  0  0  0  0  0  0  0  0
   -1.5257    3.6496    0.0000 C   0  0  0  0  0  0  0  0  0
   -0.2252    4.3238    0.0000 C   0  0  0  0  0  0  0  0  0
  1  2  1  0  0  0  0
  1  9  1  0  0  0  0
  2  3  1  0  0  0  0
  3  4  4  0  0  0  0
  3  8  4  0  0  0  0
  4  5  4  0  0  0  0
  5  6  4  0  0  0  0
  6  7  4  0  0  0  0
  7  8  4  0  0  0  0
  9 10  2  0  0  0  0
  9 11  1  0  0  0  0
 11 12  1  0  0  0  0
 12 13  1  0  0  0  0
 13 14  1  0  0  0  0
 13 18  1  0  0  0  0
 14 15  1  0  0  0  0
 15 16  1  0  0  0  0
 15 23  1  0  0  0  0
 16 17  1  0  0  0  0
 16 20  1  0  0  0  0
 17 18  1  0  0  0  0
 17 19  1  0  0  0  0
 20 21  1  0  0  0  0
 21 22  4  0  0  0  0
 21 29  4  0  0  0  0
 22 23  4  0  0  0  0
 22 27  4  0  0  0  0
 23 24  4  0  0  0  0
 24 25  4  0  0  0  0
 25 26  4  0  0  0  0
 26 27  4  0  0  0  0
 27 28  4  0  0  0  0
 28 29  4  0  0  0  0
 28 30  1  0  0  0  0
M  END
>  <Name_Molregno>
METERGOLINE

>  <5-HT1A>
8.36

>  <5-HT1B>
8

>  <5-HT1D>
8.83

>  <5-HT1E>
6.03

>  <5-HT2A>
9.28

>  <5-HT2C>
9.24

>  <5-HT6>
6.81

>  <5-HT7>
8.31

$$$$
Methcathinone
  Marvin  02231216192D 0   1.00000     0.00000     0

 12 12  0  0  1  0  0  0  0  0999 V2000
    1.9192   -0.0549    0.0000 O   0  0  0  0  0  0  0  0  0
    1.2047   -0.4674    0.0000 C   0  0  0  0  0  0  0  0  0
    0.4903   -0.0549    0.0000 C   0  0  0  0  0  0  0  0  0
    0.4903    0.7701    0.0000 N   0  0  0  0  0  0  0  0  0
   -0.2242    1.1826    0.0000 C   0  0  0  0  0  0  0  0  0
   -0.2242   -0.4674    0.0000 C   0  0  0  0  0  0  0  0  0
    1.2047   -1.2924    0.0000 C   0  0  0  0  0  0  0  0  0
    1.9192   -1.7049    0.0000 C   0  0  0  0  0  0  0  0  0
    1.9192   -2.5299    0.0000 C   0  0  0  0  0  0  0  0  0
    1.2047   -2.9424    0.0000 C   0  0  0  0  0  0  0  0  0
    0.4903   -2.5299    0.0000 C   0  0  0  0  0  0  0  0  0
    0.4903   -1.7049    0.0000 C   0  0  0  0  0  0  0  0  0
  1  2  2  0  0  0  0
  2  3  1  0  0  0  0
  2  7  1  0  0  0  0
  3  4  1  0  0  0  0
  3  6  1  0  0  0  0
  4  5  1  0  0  0  0
  7  8  4  0  0  0  0
  7 12  4  0  0  0  0
  8  9  4  0  0  0  0
  9 10  4  0  0  0  0
 10 11  4  0  0  0  0
 11 12  4  0  0  0  0
M  END
>  <Name_Molregno>
Methcathinone

>  <5-HT1A>
5

>  <5-HT1B>
5

>  <5-HT1D>
5

>  <5-HT1E>
5

>  <5-HT3>
5

>  <5-HT5>
5

>  <5-HT6>
5

>  <5-HT7>
6

>  <Alpha-1A>
5

>  <Alpha-1B>
5

>  <Alpha-2A>
5.04

>  <Alpha-2B>
5.81

>  <Alpha-2C>
6.22

>  <Beta-1>
5

>  <Beta-2>
5

>  <DOPAMINE D1>
5

>  <DOPAMINE D2>
5

>  <DOPAMINE D4>
5

>  <DOPAMINE D5>
5

>  <Dopamine transporter>
6.41

>  <HISTAMINE H1>
5

>  <HISTAMINE H2>
5

>  <HISTAMINE H4>
5

>  <Muscarinic acetylcholine receptor M1>
5

>  <Muscarinic acetylcholine receptor M2>
5

>  <Muscarinic acetylcholine receptor M3>
5

>  <Muscarinic acetylcholine receptor M4>
5

>  <Muscarinic acetylcholine receptor M5>
5

>  <Norepinephrine transporter>
6.87

>  <Serotonin transporter>
5.38

$$$$
METHIOTHEPIN
  Marvin  02231216192D 0   1.00000     0.00000     0

 24 27  0  0  1  0  0  0  0  0999 V2000
    0.1974    0.1481    0.0000 S   0  0  0  0  0  0  0  0  0
    0.9407   -0.2099    0.0000 C   0  0  0  0  0  0  0  0  0
    1.1243   -1.0142    0.0000 C   0  0  0  0  0  0  0  0  0
    1.9127   -1.2574    0.0000 C   0  0  0  0  0  0  0  0  0
    2.5174   -0.6962    0.0000 C   0  0  0  0  0  0  0  0  0
    3.3058   -0.9394    0.0000 S   0  0  0  0  0  0  0  0  0
    3.9106   -0.3783    0.0000 C   0  0  0  0  0  0  0  0  0
    2.3339    0.1081    0.0000 C   0  0  0  0  0  0  0  0  0
    1.5455    0.3512    0.0000 C   0  0  0  0  0  0  0  0  0
    0.6099   -1.6592    0.0000 C   0  0  0  0  0  0  0  0  0
    0.9679   -2.4025    0.0000 N   0  0  0  0  0  0  0  0  0
    1.7906   -2.4642    0.0000 C   0  0  0  0  0  0  0  0  0
    2.1486   -3.2075    0.0000 C   0  0  0  0  0  0  0  0  0
    1.6838   -3.8891    0.0000 N   0  0  0  0  0  0  0  0  0
    0.8611   -3.8275    0.0000 C   0  0  0  0  0  0  0  0  0
    0.5032   -3.0842    0.0000 C   0  0  0  0  0  0  0  0  0
    2.0418   -4.6324    0.0000 C   0  0  0  0  0  0  0  0  0
   -0.2151   -1.6592    0.0000 C   0  0  0  0  0  0  0  0  0
   -0.7294   -1.0142    0.0000 C   0  0  0  0  0  0  0  0  0
   -0.5459   -0.2099    0.0000 C   0  0  0  0  0  0  0  0  0
   -1.1506    0.3512    0.0000 C   0  0  0  0  0  0  0  0  0
   -1.9390    0.1081    0.0000 C   0  0  0  0  0  0  0  0  0
   -2.1225   -0.6962    0.0000 C   0  0  0  0  0  0  0  0  0
   -1.5178   -1.2574    0.0000 C   0  0  0  0  0  0  0  0  0
  1  2  1  0  0  0  0
  1 20  1  0  0  0  0
  2  3  4  0  0  0  0
  2  9  4  0  0  0  0
  3  4  4  0  0  0  0
  3 10  1  0  0  0  0
  4  5  4  0  0  0  0
  5  6  1  0  0  0  0
  5  8  4  0  0  0  0
  6  7  1  0  0  0  0
  8  9  4  0  0  0  0
 10 11  1  0  0  0  0
 10 18  1  0  0  0  0
 11 12  1  0  0  0  0
 11 16  1  0  0  0  0
 12 13  1  0  0  0  0
 13 14  1  0  0  0  0
 14 15  1  0  0  0  0
 14 17  1  0  0  0  0
 15 16  1  0  0  0  0
 18 19  1  0  0  0  0
 19 20  4  0  0  0  0
 19 24  4  0  0  0  0
 20 21  4  0  0  0  0
 21 22  4  0  0  0  0
 22 23  4  0  0  0  0
 23 24  4  0  0  0  0
M  END
>  <Name_Molregno>
METHIOTHEPIN

>  <5-HT1A>
7.52

>  <5-HT1B>
8.41

>  <5-HT1D>
7.85

>  <5-HT1E>
6.75

>  <5-HT2A>
9.25

>  <5-HT2C>
8.91

>  <5-HT5>
9

>  <5-HT6>
9.26

>  <5-HT7>
8.57

$$$$
METHYLPHENIDATE
  Marvin  02231216192D 0   1.00000     0.00000     0

 17 18  0  0  1  0  0  0  0  0999 V2000
   -0.3749   -0.6902    0.0000 O   0  0  0  0  0  0  0  0  0
    0.3395   -0.2777    0.0000 C   0  0  0  0  0  0  0  0  0
    0.3395    0.5473    0.0000 O   0  0  0  0  0  0  0  0  0
    1.0540   -0.6902    0.0000 C   0  0  0  0  0  0  0  0  0
    1.0540   -1.5152    0.0000 C   0  0  0  0  0  0  0  0  0
    1.7685   -1.9277    0.0000 N   0  0  0  0  0  0  0  0  0
    1.7685   -2.7527    0.0000 C   0  0  0  0  0  0  0  0  0
    1.0540   -3.1652    0.0000 C   0  0  0  0  0  0  0  0  0
    0.3395   -2.7527    0.0000 C   0  0  0  0  0  0  0  0  0
    0.3395   -1.9277    0.0000 C   0  0  0  0  0  0  0  0  0
    1.7685   -0.2777    0.0000 C   0  0  0  0  0  0  0  0  0
    1.7685    0.5473    0.0000 C   0  0  0  0  0  0  0  0  0
    2.4829    0.9598    0.0000 C   0  0  0  0  0  0  0  0  0
    3.1974    0.5473    0.0000 C   0  0  0  0  0  0  0  0  0
    3.1974   -0.2777    0.0000 C   0  0  0  0  0  0  0  0  0
    2.4829   -0.6902    0.0000 C   0  0  0  0  0  0  0  0  0
   -0.3749   -1.5152    0.0000 C   0  0  0  0  0  0  0  0  0
  1  2  1  0  0  0  0
  1 17  1  0  0  0  0
  2  3  2  0  0  0  0
  2  4  1  0  0  0  0
  4  5  1  0  0  0  0
  4 11  1  0  0  0  0
  5  6  1  0  0  0  0
  5 10  1  0  0  0  0
  6  7  1  0  0  0  0
  7  8  1  0  0  0  0
  8  9  1  0  0  0  0
  9 10  1  0  0  0  0
 11 12  4  0  0  0  0
 11 16  4  0  0  0  0
 12 13  4  0  0  0  0
 13 14  4  0  0  0  0
 14 15  4  0  0  0  0
 15 16  4  0  0  0  0
M  END
>  <Name_Molregno>
METHYLPHENIDATE

>  <5-HT1A>
5

>  <5-HT1B>
5

>  <5-HT1E>
5

>  <5-HT3>
5

>  <5-HT5>
5

>  <5-HT6>
5

>  <5-HT7>
5

>  <Alpha-1A>
5

>  <Alpha-1B>
5

>  <Alpha-2A>
5.25

>  <Alpha-2B>
5.61

>  <Alpha-2C>
6.07

>  <DOPAMINE D1>
5

>  <DOPAMINE D2>
5

>  <Dopamine transporter>
7.28

>  <Muscarinic acetylcholine receptor M1>
5

>  <Muscarinic acetylcholine receptor M2>
5

>  <Muscarinic acetylcholine receptor M3>
5

>  <Muscarinic acetylcholine receptor M4>
5

>  <Muscarinic acetylcholine receptor M5>
5

>  <Norepinephrine transporter>
6.46

>  <Serotonin transporter>
5

$$$$
METHYSERGIDE
  Marvin  02231216192D 0   1.00000     0.00000     0

 26 29  0  0  1  0  0  0  0  0999 V2000
   -5.6466   -4.8655    0.0000 O   0  0  0  0  0  0  0  0  0
   -5.6457   -4.0405    0.0000 C   0  0  0  0  0  0  0  0  0
   -4.9307   -3.6289    0.0000 C   0  0  0  0  0  0  0  0  0
   -4.9297   -2.8039    0.0000 N   0  0  0  0  0  0  0  0  0
   -4.2147   -2.3922    0.0000 C   0  0  0  0  0  0  0  0  0
   -3.5008   -2.8056    0.0000 O   0  0  0  0  0  0  0  0  0
   -4.2138   -1.5672    0.0000 C   0  0  0  0  0  0  0  0  0
   -3.4988   -1.1556    0.0000 C   0  0  0  0  0  0  0  0  0
   -3.4978   -0.3306    0.0000 C   0  0  0  0  0  0  0  0  0
   -4.2118    0.0828    0.0000 C   0  0  0  0  0  0  0  0  0
   -4.9267   -0.3289    0.0000 N   0  0  0  0  0  0  0  0  0
   -4.9277   -1.1539    0.0000 C   0  0  0  0  0  0  0  0  0
   -5.6407    0.0845    0.0000 C   0  0  0  0  0  0  0  0  0
   -4.2103    0.9069    0.0000 C   0  0  0  0  0  0  0  0  0
   -3.4978    1.3194    0.0000 C   0  0  0  0  0  0  0  0  0
   -2.7853    0.9069    0.0000 C   0  0  0  0  0  0  0  0  0
   -2.7853    0.0819    0.0000 C   0  0  0  0  0  0  0  0  0
   -2.0674   -0.3306    0.0000 C   0  0  0  0  0  0  0  0  0
   -1.3549    0.0819    0.0000 C   0  0  0  0  0  0  0  0  0
   -1.3549    0.9069    0.0000 C   0  0  0  0  0  0  0  0  0
   -2.0674    1.3194    0.0000 C   0  0  0  0  0  0  0  0  0
   -2.3728    2.1766    0.0000 N   0  0  0  0  0  0  0  0  0
   -3.1978    2.1766    0.0000 C   0  0  0  0  0  0  0  0  0
   -1.8973    2.8507    0.0000 C   0  0  0  0  0  0  0  0  0
   -4.2167   -4.0422    0.0000 C   0  0  0  0  0  0  0  0  0
   -4.2177   -4.8672    0.0000 C   0  0  0  0  0  0  0  0  0
  1  2  1  0  0  0  0
  2  3  1  0  0  0  0
  3  4  1  0  0  0  0
  3 25  1  0  0  0  0
  4  5  1  0  0  0  0
  5  6  2  0  0  0  0
  5  7  1  0  0  0  0
  7  8  1  0  0  0  0
  7 12  1  0  0  0  0
  8  9  2  0  0  0  0
  9 10  1  0  0  0  0
  9 17  1  0  0  0  0
 10 11  1  0  0  0  0
 10 14  1  0  0  0  0
 11 12  1  0  0  0  0
 11 13  1  0  0  0  0
 14 15  1  0  0  0  0
 15 16  4  0  0  0  0
 15 23  4  0  0  0  0
 16 17  4  0  0  0  0
 16 21  4  0  0  0  0
 17 18  4  0  0  0  0
 18 19  4  0  0  0  0
 19 20  4  0  0  0  0
 20 21  4  0  0  0  0
 21 22  4  0  0  0  0
 22 23  4  0  0  0  0
 22 24  1  0  0  0  0
 25 26  1  0  0  0  0
M  END
>  <Name_Molregno>
METHYSERGIDE

>  <5-HT1A>
7.81

>  <5-HT1B>
7.91

>  <5-HT1D>
7.56

>  <5-HT1E>
6.71

>  <5-HT2A>
8.05

>  <5-HT2C>
8.69

>  <5-HT3>
5

>  <5-HT5>
5

>  <5-HT6>
6.82

>  <5-HT7>
7.32

>  <Alpha-1A>
5

>  <Alpha-1B>
5

>  <Alpha-2A>
6.77

>  <Alpha-2B>
6.97

>  <Alpha-2C>
7.05

>  <Beta-1>
5

>  <Beta-2>
5

>  <DOPAMINE D1>
5

>  <DOPAMINE D2>
5

>  <DOPAMINE D4>
5

>  <DOPAMINE D5>
5

>  <Dopamine transporter>
5

>  <HISTAMINE H1>
5.26

>  <HISTAMINE H2>
5

>  <Muscarinic acetylcholine receptor M1>
5.26

>  <Muscarinic acetylcholine receptor M2>
5.21

>  <Muscarinic acetylcholine receptor M3>
5.33

>  <Muscarinic acetylcholine receptor M4>
5

>  <Muscarinic acetylcholine receptor M5>
5

>  <Norepinephrine transporter>
5

>  <Serotonin transporter>
5

$$$$
N-(4-Acetamidophenyl)indomethacinamide
  Marvin  02231216192D 0   1.00000     0.00000     0

 37 40  0  0  0  0  0  0  0  0999 V2000
    0.5106    2.7433    0.0000 Cl  0  0  0  0  0  0  0  0  0
    1.3311    2.6571    0.0000 C   0  0  0  0  0  0  0  0  0
    1.8160    3.3245    0.0000 C   0  0  0  0  0  0  0  0  0
    2.6365    3.2383    0.0000 C   0  0  0  0  0  0  0  0  0
    2.9720    2.4846    0.0000 C   0  0  0  0  0  0  0  0  0
    2.4871    1.8172    0.0000 C   0  0  0  0  0  0  0  0  0
    1.6666    1.9034    0.0000 C   0  0  0  0  0  0  0  0  0
    3.7925    2.3984    0.0000 C   0  0  0  0  0  0  0  0  0
    4.2774    3.0658    0.0000 O   0  0  0  0  0  0  0  0  0
    4.1281    1.6447    0.0000 N   0  0  0  0  0  0  0  0  0
    3.7156    0.9302    0.0000 C   0  0  0  0  0  0  0  0  0
    4.2676    0.3171    0.0000 C   0  0  0  0  0  0  0  0  0
    4.0127   -0.4675    0.0000 C   0  0  0  0  0  0  0  0  0
    3.2057   -0.6390    0.0000 C   0  0  0  0  0  0  0  0  0
    2.9508   -1.4236    0.0000 O   0  0  0  0  0  0  0  0  0
    2.1438   -1.5952    0.0000 C   0  0  0  0  0  0  0  0  0
    2.6537   -0.0259    0.0000 C   0  0  0  0  0  0  0  0  0
    2.9086    0.7587    0.0000 C   0  0  0  0  0  0  0  0  0
    5.0213    0.6527    0.0000 C   0  0  0  0  0  0  0  0  0
    5.7358    0.2402    0.0000 C   0  0  0  0  0  0  0  0  0
    5.7358   -0.5848    0.0000 C   0  0  0  0  0  0  0  0  0
    5.0213   -0.9973    0.0000 O   0  0  0  0  0  0  0  0  0
    6.4502   -0.9973    0.0000 N   0  0  0  0  0  0  0  0  0
    7.1647   -0.5848    0.0000 C   0  0  0  0  0  0  0  0  0
    7.1647    0.2402    0.0000 C   0  0  0  0  0  0  0  0  0
    7.8792    0.6527    0.0000 C   0  0  0  0  0  0  0  0  0
    7.8792    1.4777    0.0000 C   0  0  0  0  0  0  0  0  0
    8.5936    1.8902    0.0000 C   0  0  0  0  0  0  0  0  0
    9.3081    1.4777    0.0000 C   0  0  0  0  0  0  0  0  0
   10.0226    1.8902    0.0000 N   0  0  0  0  0  0  0  0  0
   10.7371    1.4777    0.0000 C   0  0  0  0  0  0  0  0  0
   11.4515    1.8902    0.0000 O   0  0  0  0  0  0  0  0  0
   10.7371    0.6527    0.0000 C   0  0  0  0  0  0  0  0  0
    9.3081    0.6527    0.0000 C   0  0  0  0  0  0  0  0  0
    8.5936    0.2402    0.0000 C   0  0  0  0  0  0  0  0  0
    4.9351    1.4732    0.0000 C   0  0  0  0  0  0  0  0  0
    5.5481    2.0252    0.0000 C   0  0  0  0  0  0  0  0  0
  1  2  1  0  0  0  0
  2  3  4  0  0  0  0
  2  7  4  0  0  0  0
  3  4  4  0  0  0  0
  4  5  4  0  0  0  0
  5  6  4  0  0  0  0
  5  8  1  0  0  0  0
  6  7  4  0  0  0  0
  8  9  2  0  0  0  0
  8 10  1  0  0  0  0
 10 11  4  0  0  0  0
 10 36  4  0  0  0  0
 11 12  4  0  0  0  0
 11 18  4  0  0  0  0
 12 13  4  0  0  0  0
 12 19  4  0  0  0  0
 13 14  4  0  0  0  0
 14 15  1  0  0  0  0
 14 17  4  0  0  0  0
 15 16  1  0  0  0  0
 17 18  4  0  0  0  0
 19 20  1  0  0  0  0
 19 36  4  0  0  0  0
 20 21  1  0  0  0  0
 21 22  2  0  0  0  0
 21 23  1  0  0  0  0
 23 24  1  0  0  0  0
 24 25  1  0  0  0  0
 25 26  1  0  0  0  0
 26 27  4  0  0  0  0
 26 35  4  0  0  0  0
 27 28  4  0  0  0  0
 28 29  4  0  0  0  0
 29 30  1  0  0  0  0
 29 34  4  0  0  0  0
 30 31  1  0  0  0  0
 31 32  2  0  0  0  0
 31 33  1  0  0  0  0
 34 35  4  0  0  0  0
 36 37  1  0  0  0  0
M  END
>  <Name_Molregno>
N-(4-Acetamidophenyl)indomethacinamide

>  <5-HT1A>
5

>  <5-HT1B>
5

>  <5-HT1E>
5

>  <5-HT2A>
5

>  <5-HT3>
5

>  <5-HT6>
5

>  <5-HT7>
5

>  <Alpha-1A>
5

>  <Alpha-1B>
5

>  <Alpha-2A>
5

>  <Alpha-2B>
5

>  <Alpha-2C>
5

>  <DOPAMINE D1>
5

>  <DOPAMINE D2>
5

>  <DOPAMINE D5>
5

>  <Dopamine transporter>
5

>  <HISTAMINE H1>
5

>  <HISTAMINE H2>
5

>  <HISTAMINE H4>
5

>  <Muscarinic acetylcholine receptor M2>
5

>  <Muscarinic acetylcholine receptor M5>
5

>  <Serotonin transporter>
5

$$$$
Naproxen
  Marvin  02231216192D 0   1.00000     0.00000     0

 17 18  0  0  1  0  0  0  0  0999 V2000
   -5.3383   -1.4581    0.0000 O   0  0  0  0  0  0  0  0  0
   -6.0528   -1.0456    0.0000 C   0  0  0  0  0  0  0  0  0
   -4.6238   -1.0456    0.0000 C   0  0  0  0  0  0  0  0  0
   -3.9093   -1.4581    0.0000 C   0  0  0  0  0  0  0  0  0
   -3.1949   -1.0456    0.0000 C   0  0  0  0  0  0  0  0  0
   -3.1949   -0.2206    0.0000 C   0  0  0  0  0  0  0  0  0
   -2.4804    0.1919    0.0000 C   0  0  0  0  0  0  0  0  0
   -1.7659   -0.2206    0.0000 C   0  0  0  0  0  0  0  0  0
   -1.7659   -1.0456    0.0000 C   0  0  0  0  0  0  0  0  0
   -2.4804   -1.4581    0.0000 C   0  0  0  0  0  0  0  0  0
   -1.0515    0.1919    0.0000 C   0  0  0  0  0  0  0  0  0
   -0.3370   -0.2206    0.0000 C   0  0  0  0  0  0  0  0  0
    0.3775    0.1919    0.0000 O   0  0  0  0  0  0  0  0  0
   -0.3370   -1.0456    0.0000 O   0  0  0  0  0  0  0  0  0
   -1.0515    1.0169    0.0000 C   0  0  0  0  0  0  0  0  0
   -3.9093    0.1919    0.0000 C   0  0  0  0  0  0  0  0  0
   -4.6238   -0.2206    0.0000 C   0  0  0  0  0  0  0  0  0
  1  2  1  0  0  0  0
  1  3  1  0  0  0  0
  3  4  4  0  0  0  0
  3 17  4  0  0  0  0
  4  5  4  0  0  0  0
  5  6  4  0  0  0  0
  5 10  4  0  0  0  0
  6  7  4  0  0  0  0
  6 16  4  0  0  0  0
  7  8  4  0  0  0  0
  8  9  4  0  0  0  0
  8 11  1  0  0  0  0
  9 10  4  0  0  0  0
 11 12  1  0  0  0  0
 11 15  1  0  0  0  0
 12 13  1  0  0  0  0
 12 14  2  0  0  0  0
 16 17  4  0  0  0  0
M  END
>  <Name_Molregno>
Naproxen

>  <5-HT1A>
5

>  <5-HT1B>
5

>  <5-HT1D>
5

>  <5-HT1E>
5

>  <5-HT2A>
5

>  <5-HT3>
5

>  <5-HT5>
5

>  <5-HT6>
5

>  <5-HT7>
5

>  <Alpha-1A>
5

>  <Alpha-1B>
5

>  <Alpha-2A>
5

>  <Alpha-2B>
5

>  <Alpha-2C>
5

>  <DOPAMINE D1>
5

>  <DOPAMINE D2>
5

>  <DOPAMINE D4>
5

>  <DOPAMINE D5>
5

>  <Dopamine transporter>
5

>  <HISTAMINE H1>
5

>  <HISTAMINE H2>
5

>  <HISTAMINE H4>
5

>  <Muscarinic acetylcholine receptor M2>
5

>  <Muscarinic acetylcholine receptor M5>
5

>  <Norepinephrine transporter>
5

>  <Serotonin transporter>
5

$$$$
Naratriptan
  Marvin  02231216192D 0   1.00000     0.00000     0

 23 25  0  0  0  0  0  0  0  0999 V2000
   -5.6018   -0.3628    0.0000 S   0  0  0  0  0  0  0  0  0
   -6.0143   -1.0772    0.0000 O   0  0  0  0  0  0  0  0  0
   -5.1893    0.3517    0.0000 O   0  0  0  0  0  0  0  0  0
   -6.3162    0.0497    0.0000 N   0  0  0  0  0  0  0  0  0
   -7.0307   -0.3628    0.0000 C   0  0  0  0  0  0  0  0  0
   -4.8873   -0.7753    0.0000 C   0  0  0  0  0  0  0  0  0
   -4.1728   -0.3628    0.0000 C   0  0  0  0  0  0  0  0  0
   -3.4584   -0.7753    0.0000 C   0  0  0  0  0  0  0  0  0
   -2.7439   -0.3628    0.0000 C   0  0  0  0  0  0  0  0  0
   -2.0294   -0.7753    0.0000 C   0  0  0  0  0  0  0  0  0
   -2.0294   -1.6003    0.0000 C   0  0  0  0  0  0  0  0  0
   -1.2448   -1.8552    0.0000 N   0  0  0  0  0  0  0  0  0
   -0.7599   -1.1878    0.0000 C   0  0  0  0  0  0  0  0  0
   -1.2448   -0.5203    0.0000 C   0  0  0  0  0  0  0  0  0
   -0.9899    0.2643    0.0000 C   0  0  0  0  0  0  0  0  0
   -1.5419    0.8774    0.0000 C   0  0  0  0  0  0  0  0  0
   -1.2870    1.6620    0.0000 C   0  0  0  0  0  0  0  0  0
   -0.4800    1.8335    0.0000 N   0  0  0  0  0  0  0  0  0
    0.0721    1.2204    0.0000 C   0  0  0  0  0  0  0  0  0
   -0.1829    0.4358    0.0000 C   0  0  0  0  0  0  0  0  0
   -0.2250    2.6181    0.0000 C   0  0  0  0  0  0  0  0  0
   -2.7439   -2.0128    0.0000 C   0  0  0  0  0  0  0  0  0
   -3.4584   -1.6003    0.0000 C   0  0  0  0  0  0  0  0  0
  1  2  2  0  0  0  0
  1  3  2  0  0  0  0
  1  4  1  0  0  0  0
  1  6  1  0  0  0  0
  4  5  1  0  0  0  0
  6  7  1  0  0  0  0
  7  8  1  0  0  0  0
  8  9  4  0  0  0  0
  8 23  4  0  0  0  0
  9 10  4  0  0  0  0
 10 11  4  0  0  0  0
 10 14  4  0  0  0  0
 11 12  4  0  0  0  0
 11 22  4  0  0  0  0
 12 13  4  0  0  0  0
 13 14  4  0  0  0  0
 14 15  1  0  0  0  0
 15 16  1  0  0  0  0
 15 20  1  0  0  0  0
 16 17  1  0  0  0  0
 17 18  1  0  0  0  0
 18 19  1  0  0  0  0
 18 21  1  0  0  0  0
 19 20  1  0  0  0  0
 22 23  4  0  0  0  0
M  STY  1   1 DAT
M  SAL   1  1  12
M  SDT   1 MRV_IMPLICIT_H                                        
M  SDD   1     0.0000    0.0000    DR    ALL  0       0  
M  SED   1 IMPL_H1
M  END
>  <Name_Molregno>
Naratriptan

>  <5-HT1B>
8.16

>  <5-HT1D>
8.82

$$$$
N-DESMETHYLCLOZAPINE
  Marvin  02231216192D 0   1.00000     0.00000     0

 22 25  0  0  0  0  0  0  0  0999 V2000
   -0.3818   -1.7384    0.0000 Cl  0  0  0  0  0  0  0  0  0
    0.4065   -1.9816    0.0000 C   0  0  0  0  0  0  0  0  0
    1.0113   -1.4204    0.0000 C   0  0  0  0  0  0  0  0  0
    1.7996   -1.6636    0.0000 C   0  0  0  0  0  0  0  0  0
    2.3140   -1.0186    0.0000 N   0  0  0  0  0  0  0  0  0
    3.1390   -1.0186    0.0000 C   0  0  0  0  0  0  0  0  0
    3.4969   -0.2753    0.0000 N   0  0  0  0  0  0  0  0  0
    3.0322    0.4063    0.0000 C   0  0  0  0  0  0  0  0  0
    3.3902    1.1496    0.0000 C   0  0  0  0  0  0  0  0  0
    4.2129    1.2113    0.0000 N   0  0  0  0  0  0  0  0  0
    4.6776    0.5296    0.0000 C   0  0  0  0  0  0  0  0  0
    4.3196   -0.2137    0.0000 C   0  0  0  0  0  0  0  0  0
    3.6534   -1.6636    0.0000 C   0  0  0  0  0  0  0  0  0
    3.4698   -2.4679    0.0000 C   0  0  0  0  0  0  0  0  0
    2.7265   -2.8259    0.0000 N   0  0  0  0  0  0  0  0  0
    1.9832   -2.4679    0.0000 C   0  0  0  0  0  0  0  0  0
    1.3784   -3.0291    0.0000 C   0  0  0  0  0  0  0  0  0
    0.5901   -2.7859    0.0000 C   0  0  0  0  0  0  0  0  0
    4.0746   -3.0291    0.0000 C   0  0  0  0  0  0  0  0  0
    4.8629   -2.7859    0.0000 C   0  0  0  0  0  0  0  0  0
    5.0465   -1.9816    0.0000 C   0  0  0  0  0  0  0  0  0
    4.4417   -1.4204    0.0000 C   0  0  0  0  0  0  0  0  0
  1  2  1  0  0  0  0
  2  3  4  0  0  0  0
  2 18  4  0  0  0  0
  3  4  4  0  0  0  0
  4  5  1  0  0  0  0
  4 16  4  0  0  0  0
  5  6  1  0  0  0  0
  6  7  1  0  0  0  0
  6 13  2  0  0  0  0
  7  8  1  0  0  0  0
  7 12  1  0  0  0  0
  8  9  1  0  0  0  0
  9 10  1  0  0  0  0
 10 11  1  0  0  0  0
 11 12  1  0  0  0  0
 13 14  1  0  0  0  0
 13 22  1  0  0  0  0
 14 15  2  0  0  0  0
 14 19  1  0  0  0  0
 15 16  1  0  0  0  0
 16 17  4  0  0  0  0
 17 18  4  0  0  0  0
 19 20  2  0  0  0  0
 20 21  1  0  0  0  0
 21 22  2  0  0  0  0
M  END
>  <Name_Molregno>
N-DESMETHYLCLOZAPINE

>  <5-HT1A>
7.86

>  <5-HT1B>
6.39

>  <5-HT1D>
6.32

>  <5-HT1E>
6.41

>  <5-HT2A>
7.96

>  <5-HT3>
6.57

>  <5-HT5>
6.46

>  <5-HT6>
7.94

>  <5-HT7>
7.22

>  <Alpha-1A>
6.98

>  <Alpha-1B>
7.07

>  <Alpha-2A>
6.86

>  <Alpha-2B>
7.02

>  <Alpha-2C>
6.93

>  <Beta-1>
5.2

>  <Beta-2>
5.33

>  <DOPAMINE D1>
7.84

>  <DOPAMINE D2>
7

>  <DOPAMINE D3>
6.82

>  <DOPAMINE D4>
7.28

>  <DOPAMINE D5>
6.55

>  <Dopamine transporter>
5

>  <HISTAMINE H1>
8.47

>  <HISTAMINE H2>
6.46

>  <HISTAMINE H4>
5.99

>  <Muscarinic acetylcholine receptor M1>
7.17

>  <Muscarinic acetylcholine receptor M2>
6.38

>  <Muscarinic acetylcholine receptor M3>
7.02

>  <Muscarinic acetylcholine receptor M4>
6.77

>  <Muscarinic acetylcholine receptor M5>
7.45

>  <Norepinephrine transporter>
6.31

>  <Serotonin transporter>
6.5

$$$$
nimesulide
  Marvin  02231216192D 0   1.00000     0.00000     0

 21 22  0  0  0  0  0  0  0  0999 V2000
    3.1126    1.9121    0.0000 S   0  0  0  0  0  0  0  0  0
    3.8271    2.3246    0.0000 O   0  0  0  0  0  0  0  0  0
    2.7001    2.6266    0.0000 O   0  0  0  0  0  0  0  0  0
    2.3982    1.4996    0.0000 N   0  0  0  0  0  0  0  0  0
    2.3982    0.6746    0.0000 C   0  0  0  0  0  0  0  0  0
    3.1126    0.2621    0.0000 C   0  0  0  0  0  0  0  0  0
    3.1126   -0.5629    0.0000 C   0  0  0  0  0  0  0  0  0
    2.3982   -0.9754    0.0000 C   0  0  0  0  0  0  0  0  0
    2.3982   -1.8004    0.0000 N   0  3  0  0  0  0  0  0  0
    1.6837   -2.2129    0.0000 O   0  5  0  0  0  0  0  0  0
    3.1126   -2.2129    0.0000 O   0  5  0  0  0  0  0  0  0
    1.6837   -0.5629    0.0000 C   0  0  0  0  0  0  0  0  0
    1.6837    0.2621    0.0000 C   0  0  0  0  0  0  0  0  0
    0.9692    0.6746    0.0000 O   0  0  0  0  0  0  0  0  0
    0.9692    1.4996    0.0000 C   0  0  0  0  0  0  0  0  0
    0.2548    1.9121    0.0000 C   0  0  0  0  0  0  0  0  0
    0.2548    2.7371    0.0000 C   0  0  0  0  0  0  0  0  0
    0.9692    3.1496    0.0000 C   0  0  0  0  0  0  0  0  0
    1.6837    2.7371    0.0000 C   0  0  0  0  0  0  0  0  0
    1.6837    1.9121    0.0000 C   0  0  0  0  0  0  0  0  0
    3.5251    1.1976    0.0000 C   0  0  0  0  0  0  0  0  0
  1  2  2  0  0  0  0
  1  3  2  0  0  0  0
  1  4  1  0  0  0  0
  1 21  1  0  0  0  0
  4  5  1  0  0  0  0
  5  6  4  0  0  0  0
  5 13  4  0  0  0  0
  6  7  4  0  0  0  0
  7  8  4  0  0  0  0
  8  9  1  0  0  0  0
  8 12  4  0  0  0  0
  9 10  1  0  0  0  0
  9 11  1  0  0  0  0
 12 13  4  0  0  0  0
 13 14  1  0  0  0  0
 14 15  1  0  0  0  0
 15 16  4  0  0  0  0
 15 20  4  0  0  0  0
 16 17  4  0  0  0  0
 17 18  4  0  0  0  0
 18 19  4  0  0  0  0
 19 20  4  0  0  0  0
M  CHG  3   9   1  10  -1  11  -1
M  END
>  <Name_Molregno>
nimesulide

>  <5-HT1A>
5

>  <5-HT1B>
5

>  <5-HT1D>
5

>  <5-HT1E>
5

>  <5-HT2A>
5

>  <5-HT3>
5

>  <5-HT5>
5

>  <5-HT6>
5

>  <5-HT7>
5

>  <Alpha-1A>
5

>  <Alpha-1B>
5

>  <Alpha-2A>
5

>  <Alpha-2B>
5

>  <Alpha-2C>
5

>  <DOPAMINE D1>
5

>  <DOPAMINE D2>
5

>  <DOPAMINE D4>
5

>  <DOPAMINE D5>
5

>  <Dopamine transporter>
5

>  <HISTAMINE H1>
5

>  <HISTAMINE H2>
5

>  <HISTAMINE H4>
5

>  <Muscarinic acetylcholine receptor M2>
5

>  <Muscarinic acetylcholine receptor M5>
5

>  <Norepinephrine transporter>
5

>  <Serotonin transporter>
5

$$$$
Norephedrine
  Marvin  02231216192D 0   1.00000     0.00000     0

 11 11  0  0  1  0  0  0  0  0999 V2000
    1.9974    0.2298    0.0000 O   0  0  0  0  0  0  0  0  0
    1.2829   -0.1827    0.0000 C   0  0  0  0  0  0  0  0  0
    0.5684    0.2298    0.0000 C   0  0  0  0  0  0  0  0  0
    0.5684    1.0548    0.0000 N   0  0  0  0  0  0  0  0  0
   -0.1461   -0.1827    0.0000 C   0  0  0  0  0  0  0  0  0
    1.2829   -1.0077    0.0000 C   0  0  0  0  0  0  0  0  0
    1.9974   -1.4202    0.0000 C   0  0  0  0  0  0  0  0  0
    1.9974   -2.2452    0.0000 C   0  0  0  0  0  0  0  0  0
    1.2829   -2.6577    0.0000 C   0  0  0  0  0  0  0  0  0
    0.5684   -2.2452    0.0000 C   0  0  0  0  0  0  0  0  0
    0.5684   -1.4202    0.0000 C   0  0  0  0  0  0  0  0  0
  1  2  1  0  0  0  0
  2  3  1  0  0  0  0
  2  6  1  0  0  0  0
  3  4  1  0  0  0  0
  3  5  1  0  0  0  0
  6  7  4  0  0  0  0
  6 11  4  0  0  0  0
  7  8  4  0  0  0  0
  8  9  4  0  0  0  0
  9 10  4  0  0  0  0
 10 11  4  0  0  0  0
M  END
>  <Name_Molregno>
Norephedrine

>  <5-HT1A>
5

>  <5-HT1B>
5

>  <5-HT1D>
5

>  <5-HT1E>
5

>  <5-HT3>
5

>  <5-HT5>
5

>  <5-HT6>
5

>  <5-HT7>
5.04

>  <Alpha-1A>
5

>  <Alpha-1B>
5

>  <Alpha-2A>
5.64

>  <Alpha-2B>
5.73

>  <Alpha-2C>
6.04

>  <Beta-1>
5

>  <Beta-2>
5

>  <DOPAMINE D1>
5

>  <DOPAMINE D2>
5

>  <DOPAMINE D4>
5

>  <DOPAMINE D5>
5

>  <Dopamine transporter>
5.76

>  <HISTAMINE H1>
5

>  <HISTAMINE H2>
5

>  <HISTAMINE H4>
5

>  <Muscarinic acetylcholine receptor M1>
5.04

>  <Muscarinic acetylcholine receptor M2>
5

>  <Muscarinic acetylcholine receptor M3>
5

>  <Muscarinic acetylcholine receptor M4>
5

>  <Muscarinic acetylcholine receptor M5>
5

>  <Norepinephrine transporter>
6.34

>  <Serotonin transporter>
5

$$$$
Norfenfluramine
  Marvin  02231216192D 0   1.00000     0.00000     0

 14 14  0  0  1  0  0  0  0  0999 V2000
    0.4631   -1.9707    0.0000 F   0  0  0  0  0  0  0  0  0
    1.1776   -1.5582    0.0000 C   0  0  0  0  0  0  0  0  0
    1.5901   -2.2727    0.0000 F   0  0  0  0  0  0  0  0  0
    0.7651   -0.8437    0.0000 F   0  0  0  0  0  0  0  0  0
    1.8921   -1.1457    0.0000 C   0  0  0  0  0  0  0  0  0
    1.8921   -0.3207    0.0000 C   0  0  0  0  0  0  0  0  0
    2.6065    0.0918    0.0000 C   0  0  0  0  0  0  0  0  0
    3.3210   -0.3207    0.0000 C   0  0  0  0  0  0  0  0  0
    3.3210   -1.1457    0.0000 C   0  0  0  0  0  0  0  0  0
    2.6065   -1.5582    0.0000 C   0  0  0  0  0  0  0  0  0
    2.6065    0.9168    0.0000 C   0  0  0  0  0  0  0  0  0
    3.3210    1.3293    0.0000 C   0  0  0  0  0  0  0  0  0
    3.3210    2.1543    0.0000 N   0  0  0  0  0  0  0  0  0
    4.0355    0.9168    0.0000 C   0  0  0  0  0  0  0  0  0
  1  2  1  0  0  0  0
  2  3  1  0  0  0  0
  2  4  1  0  0  0  0
  2  5  1  0  0  0  0
  5  6  4  0  0  0  0
  5 10  4  0  0  0  0
  6  7  4  0  0  0  0
  7  8  4  0  0  0  0
  7 11  1  0  0  0  0
  8  9  4  0  0  0  0
  9 10  4  0  0  0  0
 11 12  1  0  0  0  0
 12 13  1  0  0  0  0
 12 14  1  0  0  0  0
M  END
>  <Name_Molregno>
Norfenfluramine

>  <5-HT1A>
5.77

>  <5-HT1B>
5.57

>  <5-HT1D>
5.88

>  <5-HT1E>
5

>  <5-HT3>
5

>  <5-HT5>
5

>  <5-HT6>
5

>  <5-HT7>
6.44

>  <Alpha-1A>
5.11

>  <Alpha-1B>
5

>  <Alpha-2A>
5.42

>  <Alpha-2B>
5.75

>  <Alpha-2C>
6.08

>  <Beta-1>
5

>  <Beta-2>
5

>  <DOPAMINE D1>
5

>  <DOPAMINE D2>
5

>  <DOPAMINE D4>
5

>  <DOPAMINE D5>
5

>  <Dopamine transporter>
5

>  <HISTAMINE H1>
5

>  <HISTAMINE H2>
5

>  <Muscarinic acetylcholine receptor M1>
5.42

>  <Muscarinic acetylcholine receptor M2>
5.24

>  <Muscarinic acetylcholine receptor M3>
6.04

>  <Muscarinic acetylcholine receptor M4>
5.31

>  <Muscarinic acetylcholine receptor M5>
5.78

>  <Norepinephrine transporter>
5

>  <Serotonin transporter>
5

$$$$
OLANZAPINE
  Marvin  02231216192D 0   1.00000     0.00000     0

 22 25  0  0  0  0  0  0  0  0999 V2000
   -1.5954    3.4952    0.0000 S   0  0  0  0  0  0  0  0  0
   -0.8919    3.0642    0.0000 C   0  0  0  0  0  0  0  0  0
   -0.1447    3.4138    0.0000 N   0  0  0  0  0  0  0  0  0
    0.5946    3.0476    0.0000 C   0  0  0  0  0  0  0  0  0
    0.7691    2.2413    0.0000 C   0  0  0  0  0  0  0  0  0
    0.2476    1.6020    0.0000 N   0  0  0  0  0  0  0  0  0
   -0.5774    1.6113    0.0000 C   0  0  0  0  0  0  0  0  0
   -0.9436    0.8720    0.0000 N   0  0  0  0  0  0  0  0  0
   -0.4865    0.1852    0.0000 C   0  0  0  0  0  0  0  0  0
   -0.8527   -0.5540    0.0000 C   0  0  0  0  0  0  0  0  0
   -1.6761   -0.6065    0.0000 N   0  0  0  0  0  0  0  0  0
   -2.1332    0.0803    0.0000 C   0  0  0  0  0  0  0  0  0
   -1.7669    0.8196    0.0000 C   0  0  0  0  0  0  0  0  0
   -2.0423   -1.3458    0.0000 C   0  0  0  0  0  0  0  0  0
   -1.0845    2.2620    0.0000 C   0  0  0  0  0  0  0  0  0
   -1.9069    2.1972    0.0000 C   0  0  0  0  0  0  0  0  0
   -2.2227    2.9594    0.0000 C   0  0  0  0  0  0  0  0  0
   -3.0249    3.1520    0.0000 C   0  0  0  0  0  0  0  0  0
    1.5547    1.9893    0.0000 C   0  0  0  0  0  0  0  0  0
    2.1657    2.5436    0.0000 C   0  0  0  0  0  0  0  0  0
    1.9912    3.3499    0.0000 C   0  0  0  0  0  0  0  0  0
    1.2056    3.6019    0.0000 C   0  0  0  0  0  0  0  0  0
  1  2  1  0  0  0  0
  1 17  1  0  0  0  0
  2  3  2  0  0  0  0
  2 15  1  0  0  0  0
  3  4  1  0  0  0  0
  4  5  4  0  0  0  0
  4 22  4  0  0  0  0
  5  6  1  0  0  0  0
  5 19  4  0  0  0  0
  6  7  1  0  0  0  0
  7  8  1  0  0  0  0
  7 15  2  0  0  0  0
  8  9  1  0  0  0  0
  8 13  1  0  0  0  0
  9 10  1  0  0  0  0
 10 11  1  0  0  0  0
 11 12  1  0  0  0  0
 11 14  1  0  0  0  0
 12 13  1  0  0  0  0
 15 16  1  0  0  0  0
 16 17  2  0  0  0  0
 17 18  1  0  0  0  0
 19 20  4  0  0  0  0
 20 21  4  0  0  0  0
 21 22  4  0  0  0  0
M  END
>  <Name_Molregno>
OLANZAPINE

>  <5-HT1A>
5.77

>  <5-HT1B>
6.23

>  <5-HT1D>
6.3

>  <5-HT1E>
5.66

>  <5-HT2A>
8.46

>  <5-HT2C>
7.86

>  <5-HT3>
6.69

>  <5-HT5>
5.92

>  <5-HT6>
7.97

>  <5-HT7>
6.73

>  <Alpha-1A>
6.95

>  <Alpha-1B>
6.58

>  <Alpha-2A>
6.51

>  <Alpha-2B>
6.97

>  <Alpha-2C>
7.21

>  <Beta-1>
5.15

>  <Beta-2>
5.15

>  <DOPAMINE D1>
7.3

>  <DOPAMINE D2>
7.67

>  <DOPAMINE D3>
7.53

>  <DOPAMINE D4>
7.73

>  <DOPAMINE D5>
7.09

>  <Dopamine transporter>
5

>  <HISTAMINE H1>
8.96

>  <HISTAMINE H2>
7.36

>  <HISTAMINE H4>
5

>  <Muscarinic acetylcholine receptor M1>
7.99

>  <Muscarinic acetylcholine receptor M2>
6.93

>  <Muscarinic acetylcholine receptor M3>
7.33

>  <Muscarinic acetylcholine receptor M4>
7.35

>  <Muscarinic acetylcholine receptor M5>
7.78

>  <Norepinephrine transporter>
5

>  <Serotonin transporter>
5.48

$$$$
ORG-5222
  Marvin  02231216192D 0   1.00000     0.00000     0

 20 23  0  0  1  0  0  0  0  0999 V2000
   -0.0754   -0.1702    0.0000 Cl  0  0  0  0  0  0  0  0  0
    0.7129   -0.4133    0.0000 C   0  0  0  0  0  0  0  0  0
    1.3177    0.1478    0.0000 C   0  0  0  0  0  0  0  0  0
    2.1060   -0.0954    0.0000 C   0  0  0  0  0  0  0  0  0
    2.6204    0.5496    0.0000 C   0  0  0  0  0  0  0  0  0
    3.4454    0.5496    0.0000 C   0  0  0  0  0  0  0  0  0
    3.9598   -0.0954    0.0000 C   0  0  0  0  0  0  0  0  0
    3.7762   -0.8997    0.0000 C   0  0  0  0  0  0  0  0  0
    3.0329   -1.2576    0.0000 O   0  0  0  0  0  0  0  0  0
    2.2896   -0.8997    0.0000 C   0  0  0  0  0  0  0  0  0
    1.6849   -1.4608    0.0000 C   0  0  0  0  0  0  0  0  0
    0.8965   -1.2176    0.0000 C   0  0  0  0  0  0  0  0  0
    4.3810   -1.4608    0.0000 C   0  0  0  0  0  0  0  0  0
    5.1693   -1.2176    0.0000 C   0  0  0  0  0  0  0  0  0
    5.3529   -0.4133    0.0000 C   0  0  0  0  0  0  0  0  0
    4.7482    0.1478    0.0000 C   0  0  0  0  0  0  0  0  0
    3.7004    1.3343    0.0000 C   0  0  0  0  0  0  0  0  0
    3.0329    1.8192    0.0000 N   0  0  0  0  0  0  0  0  0
    2.3655    1.3343    0.0000 C   0  0  0  0  0  0  0  0  0
    3.0329    2.6442    0.0000 C   0  0  0  0  0  0  0  0  0
  1  2  1  0  0  0  0
  2  3  4  0  0  0  0
  2 12  4  0  0  0  0
  3  4  4  0  0  0  0
  4  5  1  0  0  0  0
  4 10  4  0  0  0  0
  5  6  1  0  0  0  0
  5 19  1  0  0  0  0
  6  7  1  0  0  0  0
  6 17  1  0  0  0  0
  7  8  4  0  0  0  0
  7 16  4  0  0  0  0
  8  9  1  0  0  0  0
  8 13  4  0  0  0  0
  9 10  1  0  0  0  0
 10 11  4  0  0  0  0
 11 12  4  0  0  0  0
 13 14  4  0  0  0  0
 14 15  4  0  0  0  0
 15 16  4  0  0  0  0
 17 18  1  0  0  0  0
 18 19  1  0  0  0  0
 18 20  1  0  0  0  0
M  END
>  <Name_Molregno>
ORG-5222

>  <5-HT1A>
7.7

>  <5-HT1B>
8.34

>  <5-HT1D>
8.07

>  <5-HT1E>
7.69

>  <5-HT2A>
9.41

>  <5-HT2C>
9.63

>  <5-HT3>
6.35

>  <5-HT5>
8.4

>  <5-HT6>
8.85

>  <5-HT7>
9.05

>  <Alpha-1A>
8.36

>  <Alpha-1B>
8.41

>  <Alpha-2A>
8.08

>  <Alpha-2B>
8.64

>  <Alpha-2C>
7.82

>  <Beta-1>
5.3

>  <Beta-2>
5.3

>  <DOPAMINE D1>
8.54

>  <DOPAMINE D2>
8.72

>  <DOPAMINE D3>
8.74

>  <DOPAMINE D4>
8.58

>  <DOPAMINE D5>
7.64

>  <Dopamine transporter>
5.5

>  <HISTAMINE H1>
8.91

>  <HISTAMINE H2>
8.64

>  <HISTAMINE H4>
5

>  <Muscarinic acetylcholine receptor M1>
7.61

>  <Muscarinic acetylcholine receptor M2>
7.1

>  <Muscarinic acetylcholine receptor M3>
7.41

>  <Muscarinic acetylcholine receptor M4>
5

>  <Muscarinic acetylcholine receptor M5>
8.02

>  <Norepinephrine transporter>
5

>  <Serotonin transporter>
5.5

$$$$
OXYMETAZOLINE
  Marvin  02231216192D 0   1.00000     0.00000     0

 19 20  0  0  0  0  0  0  0  0999 V2000
    0.9329    3.7345    0.0000 O   0  0  0  0  0  0  0  0  0
    0.9329    2.9095    0.0000 C   0  0  0  0  0  0  0  0  0
    1.6474    2.4970    0.0000 C   0  0  0  0  0  0  0  0  0
    2.3619    2.9095    0.0000 C   0  0  0  0  0  0  0  0  0
    1.6474    1.6720    0.0000 C   0  0  0  0  0  0  0  0  0
    2.3619    1.2595    0.0000 C   0  0  0  0  0  0  0  0  0
    2.3619    0.4345    0.0000 C   0  0  0  0  0  0  0  0  0
    3.0293   -0.0504    0.0000 N   0  0  0  0  0  0  0  0  0
    2.7744   -0.8351    0.0000 C   0  0  0  0  0  0  0  0  0
    1.9494   -0.8351    0.0000 C   0  0  0  0  0  0  0  0  0
    1.6945   -0.0504    0.0000 N   0  0  0  0  0  0  0  0  0
    0.9329    1.2595    0.0000 C   0  0  0  0  0  0  0  0  0
    0.2185    1.6720    0.0000 C   0  0  0  0  0  0  0  0  0
    0.2185    2.4970    0.0000 C   0  0  0  0  0  0  0  0  0
   -0.4960    2.9095    0.0000 C   0  0  0  0  0  0  0  0  0
   -1.2105    3.3220    0.0000 C   0  0  0  0  0  0  0  0  0
   -0.0835    3.6240    0.0000 C   0  0  0  0  0  0  0  0  0
   -0.9085    2.1950    0.0000 C   0  0  0  0  0  0  0  0  0
    0.9329    0.4345    0.0000 C   0  0  0  0  0  0  0  0  0
  1  2  1  0  0  0  0
  2  3  4  0  0  0  0
  2 14  4  0  0  0  0
  3  4  1  0  0  0  0
  3  5  4  0  0  0  0
  5  6  1  0  0  0  0
  5 12  4  0  0  0  0
  6  7  1  0  0  0  0
  7  8  1  0  0  0  0
  7 11  2  0  0  0  0
  8  9  1  0  0  0  0
  9 10  1  0  0  0  0
 10 11  1  0  0  0  0
 12 13  4  0  0  0  0
 12 19  1  0  0  0  0
 13 14  4  0  0  0  0
 14 15  1  0  0  0  0
 15 16  1  0  0  0  0
 15 17  1  0  0  0  0
 15 18  1  0  0  0  0
M  END
>  <Name_Molregno>
OXYMETAZOLINE

>  <5-HT1B>
9.59

>  <5-HT1E>
6.38

>  <5-HT2A>
6.59

>  <5-HT2C>
6.92

>  <Alpha-2A>
8.45

>  <Alpha-2B>
6.02

>  <Alpha-2C>
6.95

$$$$
PARECOXIB
  Marvin  02231216192D 0   1.00000     0.00000     0

 26 28  0  0  0  0  0  0  0  0999 V2000
    3.2898   -1.2399    0.0000 S   0  0  0  0  0  0  0  0  0
    3.7023   -0.5254    0.0000 O   0  0  0  0  0  0  0  0  0
    2.8773   -1.9544    0.0000 O   0  0  0  0  0  0  0  0  0
    4.0042   -1.6524    0.0000 N   0  0  0  0  0  0  0  0  0
    4.7187   -1.2399    0.0000 C   0  0  0  0  0  0  0  0  0
    4.7187   -0.4149    0.0000 O   0  0  0  0  0  0  0  0  0
    5.4332   -1.6524    0.0000 C   0  0  0  0  0  0  0  0  0
    6.1476   -1.2399    0.0000 C   0  0  0  0  0  0  0  0  0
    2.5753   -0.8274    0.0000 C   0  0  0  0  0  0  0  0  0
    1.8608   -1.2399    0.0000 C   0  0  0  0  0  0  0  0  0
    1.1463   -0.8274    0.0000 C   0  0  0  0  0  0  0  0  0
    1.1463   -0.0024    0.0000 C   0  0  0  0  0  0  0  0  0
    1.8608    0.4101    0.0000 C   0  0  0  0  0  0  0  0  0
    2.5753   -0.0024    0.0000 C   0  0  0  0  0  0  0  0  0
    0.4319    0.4101    0.0000 C   0  0  0  0  0  0  0  0  0
   -0.3218    0.0745    0.0000 C   0  0  0  0  0  0  0  0  0
   -0.8738    0.6876    0.0000 N   0  0  0  0  0  0  0  0  0
   -0.4613    1.4021    0.0000 O   0  0  0  0  0  0  0  0  0
    0.3456    1.2306    0.0000 C   0  0  0  0  0  0  0  0  0
    0.9587    1.7826    0.0000 C   0  0  0  0  0  0  0  0  0
   -0.4933   -0.7324    0.0000 C   0  0  0  0  0  0  0  0  0
    0.1198   -1.2845    0.0000 C   0  0  0  0  0  0  0  0  0
   -0.0518   -2.0914    0.0000 C   0  0  0  0  0  0  0  0  0
   -0.8364   -2.3464    0.0000 C   0  0  0  0  0  0  0  0  0
   -1.4495   -1.7943    0.0000 C   0  0  0  0  0  0  0  0  0
   -1.2779   -0.9874    0.0000 C   0  0  0  0  0  0  0  0  0
  1  2  2  0  0  0  0
  1  3  2  0  0  0  0
  1  4  1  0  0  0  0
  1  9  1  0  0  0  0
  4  5  1  0  0  0  0
  5  6  2  0  0  0  0
  5  7  1  0  0  0  0
  7  8  1  0  0  0  0
  9 10  4  0  0  0  0
  9 14  4  0  0  0  0
 10 11  4  0  0  0  0
 11 12  4  0  0  0  0
 12 13  4  0  0  0  0
 12 15  1  0  0  0  0
 13 14  4  0  0  0  0
 15 16  4  0  0  0  0
 15 19  4  0  0  0  0
 16 17  4  0  0  0  0
 16 21  1  0  0  0  0
 17 18  4  0  0  0  0
 18 19  4  0  0  0  0
 19 20  1  0  0  0  0
 21 22  4  0  0  0  0
 21 26  4  0  0  0  0
 22 23  4  0  0  0  0
 23 24  4  0  0  0  0
 24 25  4  0  0  0  0
 25 26  4  0  0  0  0
M  END
>  <Name_Molregno>
PARECOXIB

>  <5-HT1A>
5

>  <5-HT1B>
5

>  <5-HT1D>
5

>  <5-HT1E>
5

>  <5-HT2A>
5

>  <5-HT3>
5

>  <5-HT6>
5

>  <5-HT7>
5

>  <Alpha-1A>
5

>  <Alpha-1B>
5

>  <Alpha-2A>
5

>  <Alpha-2B>
5

>  <Alpha-2C>
5

>  <DOPAMINE D1>
5

>  <DOPAMINE D2>
5

>  <DOPAMINE D4>
5

>  <DOPAMINE D5>
5

>  <Dopamine transporter>
5

>  <HISTAMINE H1>
5

>  <HISTAMINE H2>
5

>  <HISTAMINE H4>
5

>  <Muscarinic acetylcholine receptor M2>
5

>  <Muscarinic acetylcholine receptor M5>
5

>  <Norepinephrine transporter>
5

>  <Serotonin transporter>
5

$$$$
PBR28
  Marvin  02231216192D 0   1.00000     0.00000     0

 26 28  0  0  0  0  0  0  0  0999 V2000
    0.4191    0.0796    0.0000 O   0  0  0  0  0  0  0  0  0
    0.4191   -0.7454    0.0000 C   0  0  0  0  0  0  0  0  0
    1.1336   -1.1579    0.0000 C   0  0  0  0  0  0  0  0  0
    1.1336   -1.9829    0.0000 C   0  0  0  0  0  0  0  0  0
    0.4191   -2.3954    0.0000 C   0  0  0  0  0  0  0  0  0
   -0.2953   -1.9829    0.0000 C   0  0  0  0  0  0  0  0  0
   -0.2953   -1.1579    0.0000 C   0  0  0  0  0  0  0  0  0
   -1.0098   -0.7454    0.0000 N   0  0  0  0  0  0  0  0  0
   -1.7243   -1.1579    0.0000 C   0  0  0  0  0  0  0  0  0
   -2.4387   -0.7454    0.0000 C   0  0  0  0  0  0  0  0  0
   -2.4387    0.0796    0.0000 C   0  0  0  0  0  0  0  0  0
   -3.1532    0.4921    0.0000 C   0  0  0  0  0  0  0  0  0
   -3.8677    0.0796    0.0000 C   0  0  0  0  0  0  0  0  0
   -3.8677   -0.7454    0.0000 C   0  0  0  0  0  0  0  0  0
   -3.1532   -1.1579    0.0000 C   0  0  0  0  0  0  0  0  0
   -3.1532   -1.9829    0.0000 O   0  0  0  0  0  0  0  0  0
   -3.8677   -2.3954    0.0000 C   0  0  0  0  0  0  0  0  0
   -1.0098    0.0796    0.0000 C   0  0  0  0  0  0  0  0  0
   -1.7243    0.4921    0.0000 O   0  0  0  0  0  0  0  0  0
   -0.2953    0.4921    0.0000 C   0  0  0  0  0  0  0  0  0
    1.1336    0.4921    0.0000 C   0  0  0  0  0  0  0  0  0
    1.1336    1.3171    0.0000 C   0  0  0  0  0  0  0  0  0
    1.8481    1.7296    0.0000 C   0  0  0  0  0  0  0  0  0
    2.5626    1.3171    0.0000 C   0  0  0  0  0  0  0  0  0
    2.5626    0.4921    0.0000 C   0  0  0  0  0  0  0  0  0
    1.8481    0.0796    0.0000 C   0  0  0  0  0  0  0  0  0
  1  2  1  0  0  0  0
  1 21  1  0  0  0  0
  2  3  4  0  0  0  0
  2  7  4  0  0  0  0
  3  4  4  0  0  0  0
  4  5  4  0  0  0  0
  5  6  4  0  0  0  0
  6  7  4  0  0  0  0
  7  8  1  0  0  0  0
  8  9  1  0  0  0  0
  8 18  1  0  0  0  0
  9 10  1  0  0  0  0
 10 11  4  0  0  0  0
 10 15  4  0  0  0  0
 11 12  4  0  0  0  0
 12 13  4  0  0  0  0
 13 14  4  0  0  0  0
 14 15  4  0  0  0  0
 15 16  1  0  0  0  0
 16 17  1  0  0  0  0
 18 19  2  0  0  0  0
 18 20  1  0  0  0  0
 21 22  4  0  0  0  0
 21 26  4  0  0  0  0
 22 23  4  0  0  0  0
 23 24  4  0  0  0  0
 24 25  4  0  0  0  0
 25 26  4  0  0  0  0
M  END
>  <Name_Molregno>
PBR28

>  <5-HT1A>
5

>  <5-HT1B>
5

>  <5-HT1D>
5

>  <5-HT1E>
5

>  <5-HT2A>
5

>  <5-HT3>
5

>  <5-HT5>
5

>  <5-HT6>
5

>  <5-HT7>
5

>  <Alpha-1A>
5

>  <Alpha-1B>
5

>  <Alpha-2A>
5

>  <Alpha-2B>
5

>  <Alpha-2C>
5

>  <Beta-1>
5

>  <Beta-2>
5

>  <DOPAMINE D1>
5

>  <DOPAMINE D2>
5

>  <DOPAMINE D4>
5

>  <Dopamine transporter>
5

>  <HISTAMINE H1>
5

>  <HISTAMINE H2>
5

>  <HISTAMINE H4>
5

>  <Muscarinic acetylcholine receptor M2>
5

>  <Muscarinic acetylcholine receptor M5>
5

>  <Norepinephrine transporter>
5

>  <Serotonin transporter>
5

$$$$
PERGOLIDE
  Marvin  02231216192D 0   1.00000     0.00000     0

 22 25  0  0  1  0  0  0  0  0999 V2000
    2.3775   -0.9399    0.0000 S   0  0  0  0  0  0  0  0  0
    1.6635   -0.5265    0.0000 C   0  0  0  0  0  0  0  0  0
    1.6645    0.2985    0.0000 C   0  0  0  0  0  0  0  0  0
    2.3795    0.7101    0.0000 C   0  0  0  0  0  0  0  0  0
    2.3805    1.5351    0.0000 C   0  0  0  0  0  0  0  0  0
    1.6665    1.9485    0.0000 C   0  0  0  0  0  0  0  0  0
    0.9515    1.5368    0.0000 N   0  0  0  0  0  0  0  0  0
    0.9505    0.7118    0.0000 C   0  0  0  0  0  0  0  0  0
    0.2376    1.9502    0.0000 C   0  0  0  0  0  0  0  0  0
   -0.4774    1.5385    0.0000 C   0  0  0  0  0  0  0  0  0
   -1.1914    1.9519    0.0000 C   0  0  0  0  0  0  0  0  0
    1.6680    2.7726    0.0000 C   0  0  0  0  0  0  0  0  0
    2.3805    3.1851    0.0000 C   0  0  0  0  0  0  0  0  0
    3.0930    2.7726    0.0000 C   0  0  0  0  0  0  0  0  0
    3.0930    1.9476    0.0000 C   0  0  0  0  0  0  0  0  0
    3.8108    1.5351    0.0000 C   0  0  0  0  0  0  0  0  0
    4.5233    1.9476    0.0000 C   0  0  0  0  0  0  0  0  0
    4.5233    2.7726    0.0000 C   0  0  0  0  0  0  0  0  0
    3.8108    3.1851    0.0000 C   0  0  0  0  0  0  0  0  0
    3.5055    4.0422    0.0000 N   0  0  0  0  0  0  0  0  0
    2.6805    4.0422    0.0000 C   0  0  0  0  0  0  0  0  0
    2.3765   -1.7649    0.0000 C   0  0  0  0  0  0  0  0  0
  1  2  1  0  0  0  0
  1 22  1  0  0  0  0
  2  3  1  0  0  0  0
  3  4  1  0  0  0  0
  3  8  1  0  0  0  0
  4  5  1  0  0  0  0
  5  6  1  0  0  0  0
  5 15  1  0  0  0  0
  6  7  1  0  0  0  0
  6 12  1  0  0  0  0
  7  8  1  0  0  0  0
  7  9  1  0  0  0  0
  9 10  1  0  0  0  0
 10 11  1  0  0  0  0
 12 13  1  0  0  0  0
 13 14  4  0  0  0  0
 13 21  4  0  0  0  0
 14 15  4  0  0  0  0
 14 19  4  0  0  0  0
 15 16  4  0  0  0  0
 16 17  4  0  0  0  0
 17 18  4  0  0  0  0
 18 19  4  0  0  0  0
 19 20  4  0  0  0  0
 20 21  4  0  0  0  0
M  STY  1   1 DAT
M  SAL   1  1  20
M  SDT   1 MRV_IMPLICIT_H                                        
M  SDD   1     0.0000    0.0000    DR    ALL  0       0  
M  SED   1 IMPL_H1
M  END
>  <Name_Molregno>
PERGOLIDE

>  <5-HT1A>
8.56

>  <5-HT1B>
6.55

>  <5-HT1D>
7.88

>  <5-HT2A>
8.08

>  <5-HT2C>
6.53

>  <Alpha-1A>
5.98

>  <Alpha-1B>
6.16

>  <Alpha-2A>
7.3

>  <Alpha-2B>
7.49

>  <Alpha-2C>
7.17

>  <Beta-1>
5

>  <Beta-2>
5

>  <DOPAMINE D1>
6.17

>  <DOPAMINE D2>
7.8

>  <DOPAMINE D3>
8.59

>  <DOPAMINE D4>
7.25

>  <DOPAMINE D5>
6.76

$$$$
PIPAMPERONE
  Marvin  02231216192D 0   1.00000     0.00000     0

 27 29  0  0  0  0  0  0  0  0999 V2000
    0.0224    0.7508    0.0000 F   0  0  0  0  0  0  0  0  0
    0.7369    0.3383    0.0000 C   0  0  0  0  0  0  0  0  0
    1.4513    0.7508    0.0000 C   0  0  0  0  0  0  0  0  0
    2.1658    0.3383    0.0000 C   0  0  0  0  0  0  0  0  0
    2.1658   -0.4867    0.0000 C   0  0  0  0  0  0  0  0  0
    1.4513   -0.8992    0.0000 C   0  0  0  0  0  0  0  0  0
    0.7369   -0.4867    0.0000 C   0  0  0  0  0  0  0  0  0
    2.8803   -0.8992    0.0000 C   0  0  0  0  0  0  0  0  0
    2.8803   -1.7242    0.0000 O   0  0  0  0  0  0  0  0  0
    3.5947   -0.4867    0.0000 C   0  0  0  0  0  0  0  0  0
    4.3092   -0.8992    0.0000 C   0  0  0  0  0  0  0  0  0
    5.0237   -0.4867    0.0000 C   0  0  0  0  0  0  0  0  0
    5.7382   -0.8992    0.0000 N   0  0  0  0  0  0  0  0  0
    6.4526   -0.4867    0.0000 C   0  0  0  0  0  0  0  0  0
    7.1671   -0.8992    0.0000 C   0  0  0  0  0  0  0  0  0
    7.1671   -1.7242    0.0000 C   0  0  0  0  0  0  0  0  0
    7.9796   -1.5809    0.0000 N   0  0  0  0  0  0  0  0  0
    8.2617   -0.8057    0.0000 C   0  0  0  0  0  0  0  0  0
    9.0742   -0.6624    0.0000 C   0  0  0  0  0  0  0  0  0
    9.6045   -1.2944    0.0000 C   0  0  0  0  0  0  0  0  0
    9.3223   -2.0696    0.0000 C   0  0  0  0  0  0  0  0  0
    8.5099   -2.2129    0.0000 C   0  0  0  0  0  0  0  0  0
    6.4526   -2.1367    0.0000 C   0  0  0  0  0  0  0  0  0
    5.7382   -1.7242    0.0000 C   0  0  0  0  0  0  0  0  0
    7.4493   -2.4994    0.0000 C   0  0  0  0  0  0  0  0  0
    6.9190   -3.1314    0.0000 O   0  0  0  0  0  0  0  0  0
    8.2617   -2.6427    0.0000 N   0  0  0  0  0  0  0  0  0
  1  2  1  0  0  0  0
  2  3  4  0  0  0  0
  2  7  4  0  0  0  0
  3  4  4  0  0  0  0
  4  5  4  0  0  0  0
  5  6  4  0  0  0  0
  5  8  1  0  0  0  0
  6  7  4  0  0  0  0
  8  9  2  0  0  0  0
  8 10  1  0  0  0  0
 10 11  1  0  0  0  0
 11 12  1  0  0  0  0
 12 13  1  0  0  0  0
 13 14  1  0  0  0  0
 13 24  1  0  0  0  0
 14 15  1  0  0  0  0
 15 16  1  0  0  0  0
 16 17  1  0  0  0  0
 16 23  1  0  0  0  0
 16 25  1  0  0  0  0
 17 18  1  0  0  0  0
 17 22  1  0  0  0  0
 18 19  1  0  0  0  0
 19 20  1  0  0  0  0
 20 21  1  0  0  0  0
 21 22  1  0  0  0  0
 23 24  1  0  0  0  0
 25 26  2  0  0  0  0
 25 27  1  0  0  0  0
M  END
>  <Name_Molregno>
PIPAMPERONE

>  <5-HT1A>
5.56

>  <5-HT1B>
6.8

>  <5-HT1D>
6.19

>  <5-HT1E>
5.3

>  <5-HT2A>
8.21

>  <5-HT2C>
6.64

>  <Alpha-2A>
6.07

>  <Alpha-2B>
7.46

>  <Alpha-2C>
6.54

>  <Beta-1>
5.3

>  <Beta-2>
5.3

>  <DOPAMINE D2>
6.94

>  <DOPAMINE D3>
6.6

>  <DOPAMINE D4>
8.29

>  <HISTAMINE H1>
5.62

>  <Serotonin transporter>
6

$$$$
Piribedil
  Marvin  02231216192D 0   1.00000     0.00000     0

 22 25  0  0  0  0  0  0  0  0999 V2000
   -6.9931    0.7446    0.0000 O   0  0  0  0  0  0  0  0  0
   -6.2084    0.4897    0.0000 C   0  0  0  0  0  0  0  0  0
   -5.4940    0.9022    0.0000 C   0  0  0  0  0  0  0  0  0
   -4.7795    0.4897    0.0000 C   0  0  0  0  0  0  0  0  0
   -4.7795   -0.3353    0.0000 C   0  0  0  0  0  0  0  0  0
   -5.4940   -0.7478    0.0000 C   0  0  0  0  0  0  0  0  0
   -6.2084   -0.3353    0.0000 C   0  0  0  0  0  0  0  0  0
   -6.9931   -0.5902    0.0000 O   0  0  0  0  0  0  0  0  0
   -7.4780    0.0772    0.0000 C   0  0  0  0  0  0  0  0  0
   -4.0650    0.9022    0.0000 C   0  0  0  0  0  0  0  0  0
   -3.3506    0.4897    0.0000 N   0  0  0  0  0  0  0  0  0
   -2.6361    0.9022    0.0000 C   0  0  0  0  0  0  0  0  0
   -1.9216    0.4897    0.0000 C   0  0  0  0  0  0  0  0  0
   -1.9216   -0.3353    0.0000 N   0  0  0  0  0  0  0  0  0
   -2.6361   -0.7478    0.0000 C   0  0  0  0  0  0  0  0  0
   -3.3506   -0.3353    0.0000 C   0  0  0  0  0  0  0  0  0
   -1.2071   -0.7478    0.0000 C   0  0  0  0  0  0  0  0  0
   -0.4927   -0.3353    0.0000 N   0  0  0  0  0  0  0  0  0
    0.2218   -0.7478    0.0000 C   0  0  0  0  0  0  0  0  0
    0.2218   -1.5728    0.0000 C   0  0  0  0  0  0  0  0  0
   -0.4927   -1.9853    0.0000 C   0  0  0  0  0  0  0  0  0
   -1.2071   -1.5728    0.0000 N   0  0  0  0  0  0  0  0  0
  1  2  1  0  0  0  0
  1  9  1  0  0  0  0
  2  3  4  0  0  0  0
  2  7  4  0  0  0  0
  3  4  4  0  0  0  0
  4  5  4  0  0  0  0
  4 10  1  0  0  0  0
  5  6  4  0  0  0  0
  6  7  4  0  0  0  0
  7  8  1  0  0  0  0
  8  9  1  0  0  0  0
 10 11  1  0  0  0  0
 11 12  1  0  0  0  0
 11 16  1  0  0  0  0
 12 13  1  0  0  0  0
 13 14  1  0  0  0  0
 14 15  1  0  0  0  0
 14 17  1  0  0  0  0
 15 16  1  0  0  0  0
 17 18  4  0  0  0  0
 17 22  4  0  0  0  0
 18 19  4  0  0  0  0
 19 20  4  0  0  0  0
 20 21  4  0  0  0  0
 21 22  4  0  0  0  0
M  END
>  <Name_Molregno>
Piribedil

>  <5-HT1A>
6.35

>  <5-HT1B>
5

>  <5-HT1D>
5

>  <5-HT2A>
5

>  <5-HT2C>
5

>  <Alpha-1A>
6.09

>  <Alpha-1B>
5.21

>  <Alpha-2A>
7.05

>  <Alpha-2B>
6.54

>  <Alpha-2C>
7.16

>  <Beta-1>
5

>  <Beta-2>
5

>  <DOPAMINE D1>
5

>  <DOPAMINE D2>
6.88

>  <DOPAMINE D3>
6.63

>  <DOPAMINE D4>
6.51

>  <DOPAMINE D5>
5

>  <Norepinephrine transporter>
5

$$$$
Piroxicam
  Marvin  02231216192D 0   1.00000     0.00000     0

 23 25  0  0  0  0  0  0  0  0999 V2000
    2.3267    1.3854    0.0000 S   0  0  0  0  0  0  0  0  0
    1.7964    2.0174    0.0000 O   0  0  0  0  0  0  0  0  0
    2.8570    2.0174    0.0000 O   0  0  0  0  0  0  0  0  0
    1.6123    0.9729    0.0000 N   0  0  0  0  0  0  0  0  0
    0.8978    1.3854    0.0000 C   0  0  0  0  0  0  0  0  0
    1.6123    0.1479    0.0000 C   0  0  0  0  0  0  0  0  0
    0.8978   -0.2646    0.0000 C   0  0  0  0  0  0  0  0  0
    0.1833    0.1479    0.0000 O   0  0  0  0  0  0  0  0  0
    0.8978   -1.0896    0.0000 N   0  0  0  0  0  0  0  0  0
    0.1833   -1.5021    0.0000 C   0  0  0  0  0  0  0  0  0
    0.1833   -2.3271    0.0000 N   0  0  0  0  0  0  0  0  0
   -0.5311   -2.7396    0.0000 C   0  0  0  0  0  0  0  0  0
   -1.2456   -2.3271    0.0000 C   0  0  0  0  0  0  0  0  0
   -1.2456   -1.5021    0.0000 C   0  0  0  0  0  0  0  0  0
   -0.5311   -1.0896    0.0000 C   0  0  0  0  0  0  0  0  0
    2.3267   -0.2646    0.0000 C   0  0  0  0  0  0  0  0  0
    2.3267   -1.0896    0.0000 O   0  0  0  0  0  0  0  0  0
    3.0412    0.1479    0.0000 C   0  0  0  0  0  0  0  0  0
    3.0412    0.9729    0.0000 C   0  0  0  0  0  0  0  0  0
    3.7557    1.3854    0.0000 C   0  0  0  0  0  0  0  0  0
    4.4702    0.9729    0.0000 C   0  0  0  0  0  0  0  0  0
    4.4702    0.1479    0.0000 C   0  0  0  0  0  0  0  0  0
    3.7557   -0.2646    0.0000 C   0  0  0  0  0  0  0  0  0
  1  2  2  0  0  0  0
  1  3  2  0  0  0  0
  1  4  1  0  0  0  0
  1 19  1  0  0  0  0
  4  5  1  0  0  0  0
  4  6  1  0  0  0  0
  6  7  2  0  0  0  0
  6 16  1  0  0  0  0
  7  8  1  0  0  0  0
  7  9  1  0  0  0  0
  9 10  1  0  0  0  0
 10 11  4  0  0  0  0
 10 15  4  0  0  0  0
 11 12  4  0  0  0  0
 12 13  4  0  0  0  0
 13 14  4  0  0  0  0
 14 15  4  0  0  0  0
 16 17  2  0  0  0  0
 16 18  1  0  0  0  0
 18 19  4  0  0  0  0
 18 23  4  0  0  0  0
 19 20  4  0  0  0  0
 20 21  4  0  0  0  0
 21 22  4  0  0  0  0
 22 23  4  0  0  0  0
M  END
>  <Name_Molregno>
Piroxicam

>  <5-HT1A>
5

>  <5-HT1B>
5

>  <5-HT1D>
5

>  <5-HT1E>
5

>  <5-HT2A>
5

>  <5-HT3>
5

>  <5-HT5>
5

>  <5-HT6>
5

>  <Alpha-1A>
5

>  <Alpha-1B>
5

>  <Alpha-2A>
5

>  <Alpha-2B>
5

>  <Alpha-2C>
5

>  <DOPAMINE D1>
5

>  <DOPAMINE D2>
5

>  <DOPAMINE D4>
5

>  <DOPAMINE D5>
5

>  <Dopamine transporter>
5

>  <HISTAMINE H1>
5

>  <HISTAMINE H2>
5

>  <Muscarinic acetylcholine receptor M2>
5

>  <Muscarinic acetylcholine receptor M5>
5

>  <Norepinephrine transporter>
5

>  <Serotonin transporter>
5

$$$$
Propanolol
  Marvin  02231216192D 0   1.00000     0.00000     0

 19 20  0  0  1  0  0  0  0  0999 V2000
   -0.0029    0.3857    0.0000 O   0  0  0  0  0  0  0  0  0
    0.7115   -0.0268    0.0000 C   0  0  0  0  0  0  0  0  0
    1.4260    0.3857    0.0000 C   0  0  0  0  0  0  0  0  0
    1.4260    1.2107    0.0000 O   0  0  0  0  0  0  0  0  0
    2.1405   -0.0268    0.0000 C   0  0  0  0  0  0  0  0  0
    2.8550    0.3857    0.0000 N   0  0  0  0  0  0  0  0  0
    3.5694   -0.0268    0.0000 C   0  0  0  0  0  0  0  0  0
    4.2839    0.3857    0.0000 C   0  0  0  0  0  0  0  0  0
    3.5694   -0.8518    0.0000 C   0  0  0  0  0  0  0  0  0
   -0.7174   -0.0268    0.0000 C   0  0  0  0  0  0  0  0  0
   -1.4319    0.3857    0.0000 C   0  0  0  0  0  0  0  0  0
   -2.1463   -0.0268    0.0000 C   0  0  0  0  0  0  0  0  0
   -2.1463   -0.8518    0.0000 C   0  0  0  0  0  0  0  0  0
   -1.4319   -1.2643    0.0000 C   0  0  0  0  0  0  0  0  0
   -0.7174   -0.8518    0.0000 C   0  0  0  0  0  0  0  0  0
   -2.8608    0.3857    0.0000 C   0  0  0  0  0  0  0  0  0
   -2.8608    1.2107    0.0000 C   0  0  0  0  0  0  0  0  0
   -2.1463    1.6232    0.0000 C   0  0  0  0  0  0  0  0  0
   -1.4319    1.2107    0.0000 C   0  0  0  0  0  0  0  0  0
  1  2  1  0  0  0  0
  1 10  1  0  0  0  0
  2  3  1  0  0  0  0
  3  4  1  0  0  0  0
  3  5  1  0  0  0  0
  5  6  1  0  0  0  0
  6  7  1  0  0  0  0
  7  8  1  0  0  0  0
  7  9  1  0  0  0  0
 10 11  4  0  0  0  0
 10 15  4  0  0  0  0
 11 12  4  0  0  0  0
 11 19  4  0  0  0  0
 12 13  4  0  0  0  0
 12 16  4  0  0  0  0
 13 14  4  0  0  0  0
 14 15  4  0  0  0  0
 16 17  4  0  0  0  0
 17 18  4  0  0  0  0
 18 19  4  0  0  0  0
M  END
>  <Name_Molregno>
Propanolol

>  <5-HT1A>
6.57

>  <5-HT1B>
5.87

>  <5-HT1D>
5.35

>  <5-HT2A>
5.3

>  <5-HT3>
5

>  <Beta-1>
9.34

>  <Beta-2>
9.68

>  <DOPAMINE D1>
5

>  <DOPAMINE D2>
5

>  <HISTAMINE H1>
5

$$$$
Prucalopride
  Marvin  02231216192D 0   1.00000     0.00000     0

 25 27  0  0  0  0  0  0  0  0999 V2000
   -0.3739   -1.3965    0.0000 Cl  0  0  0  0  0  0  0  0  0
    0.3406   -1.8090    0.0000 C   0  0  0  0  0  0  0  0  0
    1.0551   -1.3965    0.0000 C   0  0  0  0  0  0  0  0  0
    1.7696   -1.8090    0.0000 C   0  0  0  0  0  0  0  0  0
    1.7696   -2.6340    0.0000 C   0  0  0  0  0  0  0  0  0
    2.3827   -3.1861    0.0000 O   0  0  0  0  0  0  0  0  0
    2.0471   -3.9397    0.0000 C   0  0  0  0  0  0  0  0  0
    1.2266   -3.8535    0.0000 C   0  0  0  0  0  0  0  0  0
    1.0551   -3.0465    0.0000 C   0  0  0  0  0  0  0  0  0
    0.3406   -2.6340    0.0000 C   0  0  0  0  0  0  0  0  0
   -0.3739   -3.0465    0.0000 N   0  0  0  0  0  0  0  0  0
    2.4840   -1.3965    0.0000 C   0  0  0  0  0  0  0  0  0
    3.1985   -1.8090    0.0000 O   0  0  0  0  0  0  0  0  0
    2.4840   -0.5715    0.0000 N   0  0  0  0  0  0  0  0  0
    3.1985   -0.1590    0.0000 C   0  0  0  0  0  0  0  0  0
    3.1985    0.6660    0.0000 C   0  0  0  0  0  0  0  0  0
    3.9130    1.0785    0.0000 C   0  0  0  0  0  0  0  0  0
    4.6274    0.6660    0.0000 N   0  0  0  0  0  0  0  0  0
    4.6274   -0.1590    0.0000 C   0  0  0  0  0  0  0  0  0
    3.9130   -0.5715    0.0000 C   0  0  0  0  0  0  0  0  0
    5.3419    1.0785    0.0000 C   0  0  0  0  0  0  0  0  0
    6.0564    0.6660    0.0000 C   0  0  0  0  0  0  0  0  0
    6.7709    1.0785    0.0000 C   0  0  0  0  0  0  0  0  0
    7.4853    0.6660    0.0000 O   0  0  0  0  0  0  0  0  0
    8.1998    1.0785    0.0000 C   0  0  0  0  0  0  0  0  0
  1  2  1  0  0  0  0
  2  3  4  0  0  0  0
  2 10  4  0  0  0  0
  3  4  4  0  0  0  0
  4  5  4  0  0  0  0
  4 12  1  0  0  0  0
  5  6  1  0  0  0  0
  5  9  4  0  0  0  0
  6  7  1  0  0  0  0
  7  8  1  0  0  0  0
  8  9  1  0  0  0  0
  9 10  4  0  0  0  0
 10 11  1  0  0  0  0
 12 13  2  0  0  0  0
 12 14  1  0  0  0  0
 14 15  1  0  0  0  0
 15 16  1  0  0  0  0
 15 20  1  0  0  0  0
 16 17  1  0  0  0  0
 17 18  1  0  0  0  0
 18 19  1  0  0  0  0
 18 21  1  0  0  0  0
 19 20  1  0  0  0  0
 21 22  1  0  0  0  0
 22 23  1  0  0  0  0
 23 24  1  0  0  0  0
 24 25  1  0  0  0  0
M  END
>  <Name_Molregno>
Prucalopride

>  <5-HT1A>
5

>  <5-HT1B>
5

>  <5-HT1D>
5

>  <5-HT1E>
5

>  <5-HT2A>
5

>  <5-HT2C>
5

>  <5-HT5>
5

>  <5-HT6>
5

>  <5-HT7>
5

>  <Alpha-2A>
5

>  <Alpha-2B>
5

>  <Alpha-2C>
5

>  <Beta-1>
5

>  <Beta-2>
5

>  <DOPAMINE D2>
5

>  <DOPAMINE D3>
5

>  <DOPAMINE D4>
5.63

>  <HISTAMINE H1>
5

>  <Serotonin transporter>
5

$$$$
PSILOCIN
  Marvin  02231216192D 0   1.00000     0.00000     0

 15 16  0  0  0  0  0  0  0  0999 V2000
    1.2794   -2.2041    0.0000 O   0  0  0  0  0  0  0  0  0
    1.2794   -1.3791    0.0000 C   0  0  0  0  0  0  0  0  0
    0.5650   -0.9666    0.0000 C   0  0  0  0  0  0  0  0  0
    0.5650   -0.1416    0.0000 C   0  0  0  0  0  0  0  0  0
   -0.2197    0.1134    0.0000 N   0  0  0  0  0  0  0  0  0
   -0.7046   -0.5541    0.0000 C   0  0  0  0  0  0  0  0  0
   -0.2197   -1.2215    0.0000 C   0  0  0  0  0  0  0  0  0
   -0.4746   -2.0061    0.0000 C   0  0  0  0  0  0  0  0  0
   -1.2816   -2.1777    0.0000 C   0  0  0  0  0  0  0  0  0
   -1.5365   -2.9623    0.0000 N   0  0  0  0  0  0  0  0  0
   -2.3435   -3.1338    0.0000 C   0  0  0  0  0  0  0  0  0
   -0.9845   -3.5754    0.0000 C   0  0  0  0  0  0  0  0  0
    1.2794    0.2709    0.0000 C   0  0  0  0  0  0  0  0  0
    1.9939   -0.1416    0.0000 C   0  0  0  0  0  0  0  0  0
    1.9939   -0.9666    0.0000 C   0  0  0  0  0  0  0  0  0
  1  2  1  0  0  0  0
  2  3  4  0  0  0  0
  2 15  4  0  0  0  0
  3  4  4  0  0  0  0
  3  7  4  0  0  0  0
  4  5  4  0  0  0  0
  4 13  4  0  0  0  0
  5  6  4  0  0  0  0
  6  7  4  0  0  0  0
  7  8  1  0  0  0  0
  8  9  1  0  0  0  0
  9 10  1  0  0  0  0
 10 11  1  0  0  0  0
 10 12  1  0  0  0  0
 13 14  4  0  0  0  0
 14 15  4  0  0  0  0
M  STY  1   1 DAT
M  SAL   1  1   5
M  SDT   1 MRV_IMPLICIT_H                                        
M  SDD   1     0.0000    0.0000    DR    ALL  0       0  
M  SED   1 IMPL_H1
M  END
>  <Name_Molregno>
PSILOCIN

>  <5-HT1A>
6.78

>  <5-HT1B>
6.66

>  <5-HT1D>
7.44

>  <5-HT1E>
7.28

>  <5-HT2A>
6.97

>  <5-HT3>
5

>  <5-HT5>
7.08

>  <5-HT6>
7.24

>  <5-HT7>
8.46

>  <Alpha-1A>
5

>  <Alpha-1B>
5

>  <Alpha-2A>
5.86

>  <Alpha-2B>
5.72

>  <Alpha-2C>
5

>  <Beta-1>
5

>  <DOPAMINE D1>
5

>  <DOPAMINE D2>
5

>  <DOPAMINE D4>
5

>  <DOPAMINE D5>
5

>  <Dopamine transporter>
5

>  <HISTAMINE H1>
6.52

>  <HISTAMINE H2>
5

>  <HISTAMINE H4>
5

>  <Muscarinic acetylcholine receptor M2>
5

>  <Muscarinic acetylcholine receptor M5>
5

>  <Norepinephrine transporter>
5

>  <Serotonin transporter>
5.42

$$$$
PSILOCYBIN
  Marvin  02231216192D 0   1.00000     0.00000     0

 19 20  0  0  0  0  0  0  0  0999 V2000
    0.6946   -2.4480    0.0000 P   0  0  0  0  0  0  0  0  0
   -0.0199   -2.0355    0.0000 O   0  0  0  0  0  0  0  0  0
   -0.0199   -1.2105    0.0000 C   0  0  0  0  0  0  0  0  0
   -0.7343   -0.7980    0.0000 C   0  0  0  0  0  0  0  0  0
   -0.7343    0.0270    0.0000 C   0  0  0  0  0  0  0  0  0
   -1.5190    0.2819    0.0000 N   0  0  0  0  0  0  0  0  0
   -2.0039   -0.3855    0.0000 C   0  0  0  0  0  0  0  0  0
   -1.5190   -1.0530    0.0000 C   0  0  0  0  0  0  0  0  0
   -1.7739   -1.8376    0.0000 C   0  0  0  0  0  0  0  0  0
   -2.5809   -2.0091    0.0000 C   0  0  0  0  0  0  0  0  0
   -2.8358   -2.7937    0.0000 N   0  0  0  0  0  0  0  0  0
   -3.6428   -2.9653    0.0000 C   0  0  0  0  0  0  0  0  0
   -2.2838   -3.4068    0.0000 C   0  0  0  0  0  0  0  0  0
   -0.0199    0.4395    0.0000 C   0  0  0  0  0  0  0  0  0
    0.6946    0.0270    0.0000 C   0  0  0  0  0  0  0  0  0
    0.6946   -0.7980    0.0000 C   0  0  0  0  0  0  0  0  0
    1.4091   -2.8605    0.0000 O   0  0  0  0  0  0  0  0  0
    0.2821   -3.1625    0.0000 O   0  0  0  0  0  0  0  0  0
    1.1071   -1.7336    0.0000 O   0  0  0  0  0  0  0  0  0
  1  2  1  0  0  0  0
  1 17  2  0  0  0  0
  1 18  1  0  0  0  0
  1 19  1  0  0  0  0
  2  3  1  0  0  0  0
  3  4  4  0  0  0  0
  3 16  4  0  0  0  0
  4  5  4  0  0  0  0
  4  8  4  0  0  0  0
  5  6  4  0  0  0  0
  5 14  4  0  0  0  0
  6  7  4  0  0  0  0
  7  8  4  0  0  0  0
  8  9  1  0  0  0  0
  9 10  1  0  0  0  0
 10 11  1  0  0  0  0
 11 12  1  0  0  0  0
 11 13  1  0  0  0  0
 14 15  4  0  0  0  0
 15 16  4  0  0  0  0
M  STY  1   1 DAT
M  SAL   1  1   6
M  SDT   1 MRV_IMPLICIT_H                                        
M  SDD   1     0.0000    0.0000    DR    ALL  0       0  
M  SED   1 IMPL_H1
M  END
>  <Name_Molregno>
PSILOCYBIN

>  <5-HT1A>
5

>  <5-HT1B>
5

>  <5-HT1D>
5.67

>  <5-HT1E>
6.71

>  <5-HT2A>
5

>  <5-HT3>
5

>  <5-HT5>
5.21

>  <5-HT6>
6.38

>  <5-HT7>
6.22

>  <Alpha-1A>
5

>  <Alpha-1B>
5

>  <Alpha-2A>
5

>  <Alpha-2B>
5

>  <Alpha-2C>
5

>  <DOPAMINE D1>
5

>  <DOPAMINE D2>
5

>  <DOPAMINE D4>
5

>  <DOPAMINE D5>
5

>  <Dopamine transporter>
5

>  <HISTAMINE H1>
5

>  <HISTAMINE H2>
5

>  <HISTAMINE H4>
5

>  <Muscarinic acetylcholine receptor M2>
5

>  <Muscarinic acetylcholine receptor M5>
5

>  <Norepinephrine transporter>
5

>  <Serotonin transporter>
5

$$$$
QUETIAPINE
  Marvin  02231216192D 0   1.00000     0.00000     0

 27 30  0  0  0  0  0  0  0  0999 V2000
    0.4015    1.2563    0.0000 S   0  0  0  0  0  0  0  0  0
    1.2173    1.3793    0.0000 C   0  0  0  0  0  0  0  0  0
    1.8221    0.8181    0.0000 C   0  0  0  0  0  0  0  0  0
    2.6104    1.0613    0.0000 C   0  0  0  0  0  0  0  0  0
    2.7940    1.8656    0.0000 C   0  0  0  0  0  0  0  0  0
    2.1892    2.4268    0.0000 C   0  0  0  0  0  0  0  0  0
    1.4009    2.1836    0.0000 C   0  0  0  0  0  0  0  0  0
    1.7604   -0.0046    0.0000 C   0  0  0  0  0  0  0  0  0
    1.0788   -0.4693    0.0000 N   0  0  0  0  0  0  0  0  0
    0.2904   -0.2261    0.0000 C   0  0  0  0  0  0  0  0  0
   -0.0110    0.5418    0.0000 C   0  0  0  0  0  0  0  0  0
   -0.8268    0.6648    0.0000 C   0  0  0  0  0  0  0  0  0
   -1.3412    0.0198    0.0000 C   0  0  0  0  0  0  0  0  0
   -1.0398   -0.7482    0.0000 C   0  0  0  0  0  0  0  0  0
   -0.2240   -0.8711    0.0000 C   0  0  0  0  0  0  0  0  0
    2.4749   -0.4171    0.0000 N   0  0  0  0  0  0  0  0  0
    3.1893   -0.0046    0.0000 C   0  0  0  0  0  0  0  0  0
    3.9038   -0.4171    0.0000 C   0  0  0  0  0  0  0  0  0
    3.9038   -1.2421    0.0000 N   0  0  0  0  0  0  0  0  0
    3.1893   -1.6546    0.0000 C   0  0  0  0  0  0  0  0  0
    2.4749   -1.2421    0.0000 C   0  0  0  0  0  0  0  0  0
    4.6183   -1.6546    0.0000 C   0  0  0  0  0  0  0  0  0
    5.3328   -1.2421    0.0000 C   0  0  0  0  0  0  0  0  0
    6.0472   -1.6546    0.0000 O   0  0  0  0  0  0  0  0  0
    6.7617   -1.2421    0.0000 C   0  0  0  0  0  0  0  0  0
    7.4762   -1.6546    0.0000 C   0  0  0  0  0  0  0  0  0
    8.1906   -1.2421    0.0000 O   0  0  0  0  0  0  0  0  0
  1  2  1  0  0  0  0
  1 11  1  0  0  0  0
  2  3  4  0  0  0  0
  2  7  4  0  0  0  0
  3  4  4  0  0  0  0
  3  8  1  0  0  0  0
  4  5  4  0  0  0  0
  5  6  4  0  0  0  0
  6  7  4  0  0  0  0
  8  9  2  0  0  0  0
  8 16  1  0  0  0  0
  9 10  1  0  0  0  0
 10 11  4  0  0  0  0
 10 15  4  0  0  0  0
 11 12  4  0  0  0  0
 12 13  4  0  0  0  0
 13 14  4  0  0  0  0
 14 15  4  0  0  0  0
 16 17  1  0  0  0  0
 16 21  1  0  0  0  0
 17 18  1  0  0  0  0
 18 19  1  0  0  0  0
 19 20  1  0  0  0  0
 19 22  1  0  0  0  0
 20 21  1  0  0  0  0
 22 23  1  0  0  0  0
 23 24  1  0  0  0  0
 24 25  1  0  0  0  0
 25 26  1  0  0  0  0
 26 27  1  0  0  0  0
M  END
>  <Name_Molregno>
QUETIAPINE

>  <5-HT1A>
6.59

>  <5-HT1B>
5.83

>  <5-HT1D>
5.52

>  <5-HT1E>
5.76

>  <5-HT2A>
6.76

>  <5-HT2C>
5.82

>  <5-HT3>
5

>  <5-HT5>
5.51

>  <5-HT6>
6.35

>  <5-HT7>
6.74

>  <Alpha-1A>
7.66

>  <Alpha-1B>
7.41

>  <Alpha-2A>
5.51

>  <Alpha-2B>
6.44

>  <Alpha-2C>
7.18

>  <Beta-1>
5.15

>  <Beta-2>
5.15

>  <DOPAMINE D1>
5.95

>  <DOPAMINE D2>
6.51

>  <DOPAMINE D3>
6.59

>  <DOPAMINE D4>
5.77

>  <DOPAMINE D5>
5.79

>  <Dopamine transporter>
5

>  <HISTAMINE H1>
8.1

>  <HISTAMINE H2>
5

>  <HISTAMINE H4>
5

>  <Muscarinic acetylcholine receptor M1>
6.71

>  <Muscarinic acetylcholine receptor M2>
6.03

>  <Muscarinic acetylcholine receptor M3>
5.69

>  <Muscarinic acetylcholine receptor M4>
6.5

>  <Muscarinic acetylcholine receptor M5>
5.58

>  <Norepinephrine transporter>
5

>  <Serotonin transporter>
5.18

$$$$
QUIPAZINE
  Marvin  02231216192D 0   1.00000     0.00000     0

 16 18  0  0  0  0  0  0  0  0999 V2000
    0.2326    0.1177    0.0000 N   0  0  0  0  0  0  0  0  0
    0.9471    0.5302    0.0000 C   0  0  0  0  0  0  0  0  0
    0.9471    1.3552    0.0000 C   0  0  0  0  0  0  0  0  0
    0.2326    1.7677    0.0000 C   0  0  0  0  0  0  0  0  0
   -0.4818    1.3552    0.0000 C   0  0  0  0  0  0  0  0  0
   -0.4818    0.5302    0.0000 C   0  0  0  0  0  0  0  0  0
   -1.1963    0.1177    0.0000 N   0  0  0  0  0  0  0  0  0
   -1.1963   -0.7073    0.0000 C   0  0  0  0  0  0  0  0  0
   -1.9108   -1.1198    0.0000 C   0  0  0  0  0  0  0  0  0
   -2.6252   -0.7073    0.0000 N   0  0  0  0  0  0  0  0  0
   -2.6252    0.1177    0.0000 C   0  0  0  0  0  0  0  0  0
   -1.9108    0.5302    0.0000 C   0  0  0  0  0  0  0  0  0
    1.6616    1.7677    0.0000 C   0  0  0  0  0  0  0  0  0
    2.3761    1.3552    0.0000 C   0  0  0  0  0  0  0  0  0
    2.3761    0.5302    0.0000 C   0  0  0  0  0  0  0  0  0
    1.6616    0.1177    0.0000 C   0  0  0  0  0  0  0  0  0
  1  2  4  0  0  0  0
  1  6  4  0  0  0  0
  2  3  4  0  0  0  0
  2 16  4  0  0  0  0
  3  4  4  0  0  0  0
  3 13  4  0  0  0  0
  4  5  4  0  0  0  0
  5  6  4  0  0  0  0
  6  7  1  0  0  0  0
  7  8  1  0  0  0  0
  7 12  1  0  0  0  0
  8  9  1  0  0  0  0
  9 10  1  0  0  0  0
 10 11  1  0  0  0  0
 11 12  1  0  0  0  0
 13 14  4  0  0  0  0
 14 15  4  0  0  0  0
 15 16  4  0  0  0  0
M  END
>  <Name_Molregno>
QUIPAZINE

>  <5-HT1A>
5.39

>  <5-HT1B>
6

>  <5-HT1D>
5.8

>  <5-HT2A>
6.53

>  <5-HT2C>
6.87

>  <5-HT3>
8.42

>  <5-HT6>
5.44

>  <DOPAMINE D1>
5

>  <DOPAMINE D2>
5

$$$$
RISPERIDONE
  Marvin  02231216192D 0   1.00000     0.00000     0

 30 34  0  0  0  0  0  0  0  0999 V2000
    1.8325   -2.9394    0.0000 F   0  0  0  0  0  0  0  0  0
    2.0875   -2.1548    0.0000 C   0  0  0  0  0  0  0  0  0
    1.5354   -1.5417    0.0000 C   0  0  0  0  0  0  0  0  0
    1.7904   -0.7571    0.0000 C   0  0  0  0  0  0  0  0  0
    1.3779   -0.0426    0.0000 O   0  0  0  0  0  0  0  0  0
    1.9299    0.5705    0.0000 N   0  0  0  0  0  0  0  0  0
    2.6836    0.2349    0.0000 C   0  0  0  0  0  0  0  0  0
    2.5974   -0.5856    0.0000 C   0  0  0  0  0  0  0  0  0
    3.1494   -1.1987    0.0000 C   0  0  0  0  0  0  0  0  0
    2.8945   -1.9833    0.0000 C   0  0  0  0  0  0  0  0  0
    3.3981    0.6474    0.0000 C   0  0  0  0  0  0  0  0  0
    3.3981    1.4724    0.0000 C   0  0  0  0  0  0  0  0  0
    4.1125    1.8849    0.0000 C   0  0  0  0  0  0  0  0  0
    4.8270    1.4724    0.0000 N   0  0  0  0  0  0  0  0  0
    4.8270    0.6474    0.0000 C   0  0  0  0  0  0  0  0  0
    4.1125    0.2349    0.0000 C   0  0  0  0  0  0  0  0  0
    5.5415    1.8849    0.0000 C   0  0  0  0  0  0  0  0  0
    6.2559    1.4724    0.0000 C   0  0  0  0  0  0  0  0  0
    6.9704    1.8849    0.0000 C   0  0  0  0  0  0  0  0  0
    7.6849    1.4724    0.0000 C   0  0  0  0  0  0  0  0  0
    7.6849    0.6474    0.0000 O   0  0  0  0  0  0  0  0  0
    8.3994    1.8849    0.0000 N   0  0  0  0  0  0  0  0  0
    8.3994    2.7099    0.0000 C   0  0  0  0  0  0  0  0  0
    7.6849    3.1224    0.0000 N   0  0  0  0  0  0  0  0  0
    6.9704    2.7099    0.0000 C   0  0  0  0  0  0  0  0  0
    6.2559    3.1224    0.0000 C   0  0  0  0  0  0  0  0  0
    9.1138    3.1224    0.0000 C   0  0  0  0  0  0  0  0  0
    9.8283    2.7099    0.0000 C   0  0  0  0  0  0  0  0  0
    9.8283    1.8849    0.0000 C   0  0  0  0  0  0  0  0  0
    9.1138    1.4724    0.0000 C   0  0  0  0  0  0  0  0  0
  1  2  1  0  0  0  0
  2  3  4  0  0  0  0
  2 10  4  0  0  0  0
  3  4  4  0  0  0  0
  4  5  4  0  0  0  0
  4  8  4  0  0  0  0
  5  6  4  0  0  0  0
  6  7  4  0  0  0  0
  7  8  4  0  0  0  0
  7 11  1  0  0  0  0
  8  9  4  0  0  0  0
  9 10  4  0  0  0  0
 11 12  1  0  0  0  0
 11 16  1  0  0  0  0
 12 13  1  0  0  0  0
 13 14  1  0  0  0  0
 14 15  1  0  0  0  0
 14 17  1  0  0  0  0
 15 16  1  0  0  0  0
 17 18  1  0  0  0  0
 18 19  1  0  0  0  0
 19 20  1  0  0  0  0
 19 25  2  0  0  0  0
 20 21  2  0  0  0  0
 20 22  1  0  0  0  0
 22 23  1  0  0  0  0
 22 30  1  0  0  0  0
 23 24  2  0  0  0  0
 23 27  1  0  0  0  0
 24 25  1  0  0  0  0
 25 26  1  0  0  0  0
 27 28  1  0  0  0  0
 28 29  1  0  0  0  0
 29 30  1  0  0  0  0
M  END
>  <Name_Molregno>
RISPERIDONE

>  <5-HT1A>
6.52

>  <5-HT1B>
7.66

>  <5-HT1D>
7.6

>  <5-HT1E>
5.44

>  <5-HT2A>
9.35

>  <5-HT2C>
7.74

>  <5-HT3>
5

>  <5-HT5>
6.69

>  <5-HT6>
5.7

>  <5-HT7>
8.4

>  <Alpha-1A>
8.38

>  <Alpha-1B>
8.05

>  <Alpha-2A>
7.46

>  <Alpha-2B>
7.34

>  <Alpha-2C>
8.56

>  <Beta-1>
5.15

>  <Beta-2>
5.15

>  <DOPAMINE D1>
6.61

>  <DOPAMINE D2>
8.58

>  <DOPAMINE D3>
8.17

>  <DOPAMINE D4>
8.17

>  <DOPAMINE D5>
7.03

>  <Dopamine transporter>
5

>  <HISTAMINE H1>
7.79

>  <HISTAMINE H2>
6.92

>  <HISTAMINE H4>
5

>  <Muscarinic acetylcholine receptor M1>
5.22

>  <Muscarinic acetylcholine receptor M2>
5.14

>  <Muscarinic acetylcholine receptor M3>
5

>  <Muscarinic acetylcholine receptor M4>
5.18

>  <Muscarinic acetylcholine receptor M5>
5

>  <Norepinephrine transporter>
5

>  <Serotonin transporter>
5.67

$$$$
RITANSERIN
  Marvin  02231216192D 0   1.00000     0.00000     0

 34 38  0  0  0  0  0  0  0  0999 V2000
   -9.6255    1.6331    0.0000 S   0  0  0  0  0  0  0  0  0
  -10.1104    0.9657    0.0000 C   0  0  0  0  0  0  0  0  0
   -9.6255    0.2982    0.0000 C   0  0  0  0  0  0  0  0  0
   -8.8409    0.5532    0.0000 N   0  0  0  0  0  0  0  0  0
   -8.8409    1.3782    0.0000 C   0  0  0  0  0  0  0  0  0
   -8.1264    1.7907    0.0000 N   0  0  0  0  0  0  0  0  0
   -7.4119    1.3782    0.0000 C   0  0  0  0  0  0  0  0  0
   -6.6974    1.7907    0.0000 C   0  0  0  0  0  0  0  0  0
   -7.4119    0.5532    0.0000 C   0  0  0  0  0  0  0  0  0
   -6.6974    0.1407    0.0000 C   0  0  0  0  0  0  0  0  0
   -5.9830    0.5532    0.0000 C   0  0  0  0  0  0  0  0  0
   -5.2685    0.1407    0.0000 N   0  0  0  0  0  0  0  0  0
   -4.5540    0.5532    0.0000 C   0  0  0  0  0  0  0  0  0
   -3.8396    0.1407    0.0000 C   0  0  0  0  0  0  0  0  0
   -3.8396   -0.6843    0.0000 C   0  0  0  0  0  0  0  0  0
   -4.5540   -1.0968    0.0000 C   0  0  0  0  0  0  0  0  0
   -5.2685   -0.6843    0.0000 C   0  0  0  0  0  0  0  0  0
   -3.1251   -1.0968    0.0000 C   0  0  0  0  0  0  0  0  0
   -3.1251   -1.9218    0.0000 C   0  0  0  0  0  0  0  0  0
   -2.4106   -2.3343    0.0000 C   0  0  0  0  0  0  0  0  0
   -2.4106   -3.1593    0.0000 C   0  0  0  0  0  0  0  0  0
   -3.1251   -3.5718    0.0000 C   0  0  0  0  0  0  0  0  0
   -3.1251   -4.3968    0.0000 F   0  0  0  0  0  0  0  0  0
   -3.8396   -3.1593    0.0000 C   0  0  0  0  0  0  0  0  0
   -3.8396   -2.3343    0.0000 C   0  0  0  0  0  0  0  0  0
   -2.4106   -0.6843    0.0000 C   0  0  0  0  0  0  0  0  0
   -2.4106    0.1407    0.0000 C   0  0  0  0  0  0  0  0  0
   -1.6961    0.5532    0.0000 C   0  0  0  0  0  0  0  0  0
   -0.9817    0.1407    0.0000 C   0  0  0  0  0  0  0  0  0
   -0.2672    0.5532    0.0000 F   0  0  0  0  0  0  0  0  0
   -0.9817   -0.6843    0.0000 C   0  0  0  0  0  0  0  0  0
   -1.6961   -1.0968    0.0000 C   0  0  0  0  0  0  0  0  0
   -8.1264    0.1407    0.0000 C   0  0  0  0  0  0  0  0  0
   -8.1264   -0.6843    0.0000 O   0  0  0  0  0  0  0  0  0
  1  2  1  0  0  0  0
  1  5  1  0  0  0  0
  2  3  2  0  0  0  0
  3  4  1  0  0  0  0
  4  5  1  0  0  0  0
  4 33  1  0  0  0  0
  5  6  2  0  0  0  0
  6  7  1  0  0  0  0
  7  8  1  0  0  0  0
  7  9  2  0  0  0  0
  9 10  1  0  0  0  0
  9 33  1  0  0  0  0
 10 11  1  0  0  0  0
 11 12  1  0  0  0  0
 12 13  1  0  0  0  0
 12 17  1  0  0  0  0
 13 14  1  0  0  0  0
 14 15  1  0  0  0  0
 15 16  1  0  0  0  0
 15 18  2  0  0  0  0
 16 17  1  0  0  0  0
 18 19  1  0  0  0  0
 18 26  1  0  0  0  0
 19 20  4  0  0  0  0
 19 25  4  0  0  0  0
 20 21  4  0  0  0  0
 21 22  4  0  0  0  0
 22 23  1  0  0  0  0
 22 24  4  0  0  0  0
 24 25  4  0  0  0  0
 26 27  4  0  0  0  0
 26 32  4  0  0  0  0
 27 28  4  0  0  0  0
 28 29  4  0  0  0  0
 29 30  1  0  0  0  0
 29 31  4  0  0  0  0
 31 32  4  0  0  0  0
 33 34  2  0  0  0  0
M  END
>  <Name_Molregno>
RITANSERIN

>  <5-HT1A>
5.53

>  <5-HT1B>
6.56

>  <5-HT1D>
6.29

>  <5-HT2A>
9.14

>  <5-HT2C>
9.04

>  <5-HT3>
5

>  <5-HT6>
7.54

>  <5-HT7>
7.34

>  <DOPAMINE D1>
6.03

>  <DOPAMINE D2>
7.54

>  <DOPAMINE D3>
7.62

>  <DOPAMINE D4>
7.52

$$$$
ROFECOXIB
  Marvin  02231216192D 0   1.00000     0.00000     0

 22 24  0  0  0  0  0  0  0  0999 V2000
   -1.7307    1.7900    0.0000 S   0  0  0  0  0  0  0  0  0
   -1.7307    2.6150    0.0000 O   0  0  0  0  0  0  0  0  0
   -2.5557    1.7900    0.0000 O   0  0  0  0  0  0  0  0  0
   -0.9057    1.7900    0.0000 C   0  0  0  0  0  0  0  0  0
   -1.7307    0.9650    0.0000 C   0  0  0  0  0  0  0  0  0
   -1.0163    0.5525    0.0000 C   0  0  0  0  0  0  0  0  0
   -1.0163   -0.2725    0.0000 C   0  0  0  0  0  0  0  0  0
   -1.7307   -0.6850    0.0000 C   0  0  0  0  0  0  0  0  0
   -2.4452   -0.2725    0.0000 C   0  0  0  0  0  0  0  0  0
   -2.4452    0.5525    0.0000 C   0  0  0  0  0  0  0  0  0
   -1.7307   -1.5100    0.0000 C   0  0  0  0  0  0  0  0  0
   -1.0633   -1.9950    0.0000 C   0  0  0  0  0  0  0  0  0
   -1.3182   -2.7796    0.0000 O   0  0  0  0  0  0  0  0  0
   -2.1432   -2.7796    0.0000 C   0  0  0  0  0  0  0  0  0
   -2.6282   -3.4470    0.0000 O   0  0  0  0  0  0  0  0  0
   -2.3982   -1.9950    0.0000 C   0  0  0  0  0  0  0  0  0
   -3.1828   -1.7400    0.0000 C   0  0  0  0  0  0  0  0  0
   -3.7959   -2.2920    0.0000 C   0  0  0  0  0  0  0  0  0
   -4.5805   -2.0371    0.0000 C   0  0  0  0  0  0  0  0  0
   -4.7520   -1.2301    0.0000 C   0  0  0  0  0  0  0  0  0
   -4.1390   -0.6781    0.0000 C   0  0  0  0  0  0  0  0  0
   -3.3543   -0.9330    0.0000 C   0  0  0  0  0  0  0  0  0
  1  2  2  0  0  0  0
  1  3  2  0  0  0  0
  1  4  1  0  0  0  0
  1  5  1  0  0  0  0
  5  6  4  0  0  0  0
  5 10  4  0  0  0  0
  6  7  4  0  0  0  0
  7  8  4  0  0  0  0
  8  9  4  0  0  0  0
  8 11  1  0  0  0  0
  9 10  4  0  0  0  0
 11 12  1  0  0  0  0
 11 16  2  0  0  0  0
 12 13  1  0  0  0  0
 13 14  1  0  0  0  0
 14 15  2  0  0  0  0
 14 16  1  0  0  0  0
 16 17  1  0  0  0  0
 17 18  4  0  0  0  0
 17 22  4  0  0  0  0
 18 19  4  0  0  0  0
 19 20  4  0  0  0  0
 20 21  4  0  0  0  0
 21 22  4  0  0  0  0
M  END
>  <Name_Molregno>
ROFECOXIB

>  <5-HT1A>
5

>  <5-HT1B>
5

>  <5-HT1D>
5

>  <5-HT1E>
5

>  <5-HT2A>
5

>  <5-HT3>
5

>  <5-HT6>
5

>  <5-HT7>
5

>  <Alpha-1A>
5

>  <Alpha-1B>
5

>  <Alpha-2A>
5

>  <Alpha-2B>
5

>  <Alpha-2C>
5

>  <DOPAMINE D1>
5

>  <DOPAMINE D2>
5

>  <DOPAMINE D5>
5

>  <Dopamine transporter>
5

>  <HISTAMINE H2>
5

>  <Muscarinic acetylcholine receptor M2>
5

>  <Muscarinic acetylcholine receptor M5>
5

>  <Norepinephrine transporter>
5

>  <Serotonin transporter>
5

$$$$
Ropinirole
  Marvin  02231216192D 0   1.00000     0.00000     0

 19 20  0  0  0  0  0  0  0  0999 V2000
    0.9619   -1.7047    0.0000 O   0  0  0  0  0  0  0  0  0
    1.7869   -1.7047    0.0000 C   0  0  0  0  0  0  0  0  0
    2.2718   -2.3721    0.0000 N   0  0  0  0  0  0  0  0  0
    3.0565   -2.1172    0.0000 C   0  0  0  0  0  0  0  0  0
    3.0565   -1.2922    0.0000 C   0  0  0  0  0  0  0  0  0
    2.2718   -1.0372    0.0000 C   0  0  0  0  0  0  0  0  0
    3.7709   -0.8797    0.0000 C   0  0  0  0  0  0  0  0  0
    4.4854   -1.2922    0.0000 C   0  0  0  0  0  0  0  0  0
    4.4854   -2.1172    0.0000 C   0  0  0  0  0  0  0  0  0
    3.7709   -2.5297    0.0000 C   0  0  0  0  0  0  0  0  0
    3.7709   -0.0547    0.0000 C   0  0  0  0  0  0  0  0  0
    3.0565    0.3578    0.0000 C   0  0  0  0  0  0  0  0  0
    3.0565    1.1828    0.0000 N   0  0  0  0  0  0  0  0  0
    2.3420    1.5953    0.0000 C   0  0  0  0  0  0  0  0  0
    2.3420    2.4203    0.0000 C   0  0  0  0  0  0  0  0  0
    1.6275    2.8328    0.0000 C   0  0  0  0  0  0  0  0  0
    3.7709    1.5953    0.0000 C   0  0  0  0  0  0  0  0  0
    3.7709    2.4203    0.0000 C   0  0  0  0  0  0  0  0  0
    4.4854    2.8328    0.0000 C   0  0  0  0  0  0  0  0  0
  1  2  2  0  0  0  0
  2  3  1  0  0  0  0
  2  6  1  0  0  0  0
  3  4  1  0  0  0  0
  4  5  4  0  0  0  0
  4 10  4  0  0  0  0
  5  6  1  0  0  0  0
  5  7  4  0  0  0  0
  7  8  4  0  0  0  0
  7 11  1  0  0  0  0
  8  9  4  0  0  0  0
  9 10  4  0  0  0  0
 11 12  1  0  0  0  0
 12 13  1  0  0  0  0
 13 14  1  0  0  0  0
 13 17  1  0  0  0  0
 14 15  1  0  0  0  0
 15 16  1  0  0  0  0
 17 18  1  0  0  0  0
 18 19  1  0  0  0  0
M  END
>  <Name_Molregno>
Ropinirole

>  <5-HT1A>
6.28

>  <5-HT1B>
5

>  <5-HT1D>
5.86

>  <5-HT2A>
5

>  <5-HT2C>
5

>  <5-HT5>
5

>  <5-HT6>
5

>  <5-HT7>
5.82

>  <Alpha-1A>
5

>  <Alpha-1B>
5

>  <Alpha-2A>
5.73

>  <Alpha-2B>
6.12

>  <Alpha-2C>
5.92

>  <Beta-1>
5

>  <Beta-2>
5

>  <DOPAMINE D1>
5

>  <DOPAMINE D2>
6.45

>  <DOPAMINE D3>
7.5

>  <DOPAMINE D4>
6.07

>  <DOPAMINE D5>
5

$$$$
RU24969
  Marvin  02231216192D 0   1.00000     0.00000     0

 17 19  0  0  0  0  0  0  0  0999 V2000
    0.3325   -1.0185    0.0000 O   0  0  0  0  0  0  0  0  0
    1.0469   -0.6060    0.0000 C   0  0  0  0  0  0  0  0  0
   -0.3820   -0.6060    0.0000 C   0  0  0  0  0  0  0  0  0
   -1.0965   -1.0185    0.0000 C   0  0  0  0  0  0  0  0  0
   -1.8109   -0.6060    0.0000 C   0  0  0  0  0  0  0  0  0
   -1.8109    0.2190    0.0000 C   0  0  0  0  0  0  0  0  0
   -2.5956    0.4739    0.0000 N   0  0  0  0  0  0  0  0  0
   -3.0805   -0.1935    0.0000 C   0  0  0  0  0  0  0  0  0
   -2.5956   -0.8609    0.0000 C   0  0  0  0  0  0  0  0  0
   -2.8505   -1.6456    0.0000 C   0  0  0  0  0  0  0  0  0
   -2.2985   -2.2586    0.0000 C   0  0  0  0  0  0  0  0  0
   -2.5534   -3.0433    0.0000 C   0  0  0  0  0  0  0  0  0
   -3.3604   -3.2148    0.0000 N   0  0  0  0  0  0  0  0  0
   -3.9124   -2.6017    0.0000 C   0  0  0  0  0  0  0  0  0
   -3.6575   -1.8171    0.0000 C   0  0  0  0  0  0  0  0  0
   -1.0965    0.6315    0.0000 C   0  0  0  0  0  0  0  0  0
   -0.3820    0.2190    0.0000 C   0  0  0  0  0  0  0  0  0
  1  2  1  0  0  0  0
  1  3  1  0  0  0  0
  3  4  4  0  0  0  0
  3 17  4  0  0  0  0
  4  5  4  0  0  0  0
  5  6  4  0  0  0  0
  5  9  4  0  0  0  0
  6  7  4  0  0  0  0
  6 16  4  0  0  0  0
  7  8  4  0  0  0  0
  8  9  4  0  0  0  0
  9 10  1  0  0  0  0
 10 11  1  0  0  0  0
 10 15  2  0  0  0  0
 11 12  1  0  0  0  0
 12 13  1  0  0  0  0
 13 14  1  0  0  0  0
 14 15  1  0  0  0  0
 16 17  4  0  0  0  0
M  STY  1   1 DAT
M  SAL   1  1   7
M  SDT   1 MRV_IMPLICIT_H                                        
M  SDD   1     0.0000    0.0000    DR    ALL  0       0  
M  SED   1 IMPL_H1
M  END
>  <Name_Molregno>
RU24969

>  <5-HT1A>
8.36

>  <5-HT1B>
7.91

>  <5-HT1D>
7.64

>  <5-HT2A>
6.39

>  <5-HT2C>
6.53

>  <5-HT6>
6.24

$$$$
SalvinorinA
  Marvin  02231216192D 0   1.00000     0.00000     0

 31 34  0  0  1  0  0  0  0  0999 V2000
   -4.2035   -1.1582    0.0000 O   0  0  0  0  0  0  0  0  0
   -3.7910   -1.8727    0.0000 C   0  0  0  0  0  0  0  0  0
   -2.9660   -1.8727    0.0000 C   0  0  0  0  0  0  0  0  0
   -2.5535   -1.1582    0.0000 C   0  0  0  0  0  0  0  0  0
   -1.7285   -1.1582    0.0000 C   0  0  0  0  0  0  0  0  0
   -1.3160   -0.4437    0.0000 C   0  0  0  0  0  0  0  0  0
   -1.7285    0.2708    0.0000 C   0  0  0  0  0  0  0  0  0
   -2.5535    0.2708    0.0000 C   0  0  0  0  0  0  0  0  0
   -2.9660   -0.4437    0.0000 C   0  0  0  0  0  0  0  0  0
   -3.7910   -0.4437    0.0000 C   0  0  0  0  0  0  0  0  0
   -4.2035    0.2708    0.0000 O   0  0  0  0  0  0  0  0  0
   -0.9035    0.2708    0.0000 C   0  0  0  0  0  0  0  0  0
   -0.4910   -0.4437    0.0000 C   0  0  0  0  0  0  0  0  0
   -0.0785   -1.1582    0.0000 C   0  0  0  0  0  0  0  0  0
   -0.4910   -1.8727    0.0000 C   0  0  0  0  0  0  0  0  0
   -0.0785   -2.5871    0.0000 O   0  0  0  0  0  0  0  0  0
    0.7465   -2.5871    0.0000 C   0  0  0  0  0  0  0  0  0
    1.1590   -3.3016    0.0000 O   0  0  0  0  0  0  0  0  0
    1.1590   -1.8727    0.0000 C   0  0  0  0  0  0  0  0  0
   -1.3160   -1.8727    0.0000 C   0  0  0  0  0  0  0  0  0
   -1.7285   -2.5871    0.0000 O   0  0  0  0  0  0  0  0  0
   -0.0785    0.2708    0.0000 C   0  0  0  0  0  0  0  0  0
   -0.4910    0.9852    0.0000 O   0  0  0  0  0  0  0  0  0
   -0.0785    1.6997    0.0000 C   0  0  0  0  0  0  0  0  0
    0.7465    0.2708    0.0000 O   0  0  0  0  0  0  0  0  0
   -2.1410   -1.8727    0.0000 C   0  0  0  0  0  0  0  0  0
   -4.2035   -2.5871    0.0000 C   0  0  0  0  0  0  0  0  0
   -3.8680   -3.3408    0.0000 C   0  0  0  0  0  0  0  0  0
   -4.4811   -3.8928    0.0000 C   0  0  0  0  0  0  0  0  0
   -5.1956   -3.4803    0.0000 O   0  0  0  0  0  0  0  0  0
   -5.0240   -2.6734    0.0000 C   0  0  0  0  0  0  0  0  0
  1  2  1  0  0  0  0
  1 10  1  0  0  0  0
  2  3  1  0  0  0  0
  2 27  1  0  0  0  0
  3  4  1  0  0  0  0
  4  5  1  0  0  0  0
  4  9  1  0  0  0  0
  4 26  1  0  0  0  0
  5  6  1  0  0  0  0
  5 20  1  0  0  0  0
  6  7  1  0  0  0  0
  6 12  1  0  0  0  0
  6 13  1  0  0  0  0
  7  8  1  0  0  0  0
  8  9  1  0  0  0  0
  9 10  1  0  0  0  0
 10 11  2  0  0  0  0
 13 14  1  0  0  0  0
 13 22  1  0  0  0  0
 14 15  1  0  0  0  0
 15 16  1  0  0  0  0
 15 20  1  0  0  0  0
 16 17  1  0  0  0  0
 17 18  2  0  0  0  0
 17 19  1  0  0  0  0
 20 21  2  0  0  0  0
 22 23  1  0  0  0  0
 22 25  2  0  0  0  0
 23 24  1  0  0  0  0
 27 28  4  0  0  0  0
 27 31  4  0  0  0  0
 28 29  4  0  0  0  0
 29 30  4  0  0  0  0
 30 31  4  0  0  0  0
M  END
>  <Name_Molregno>
SalvinorinA

>  <5-HT1A>
5

>  <5-HT1B>
5

>  <5-HT1D>
5

>  <5-HT1E>
5

>  <5-HT3>
5

>  <5-HT5>
5

>  <5-HT6>
5

>  <5-HT7>
5

>  <Alpha-1A>
5

>  <Alpha-1B>
5

>  <DOPAMINE D1>
5

>  <DOPAMINE D2>
5

>  <DOPAMINE D3>
5

>  <DOPAMINE D5>
5

>  <HISTAMINE H1>
5

>  <Muscarinic acetylcholine receptor M1>
5

>  <Muscarinic acetylcholine receptor M2>
5

>  <Muscarinic acetylcholine receptor M3>
5

>  <Muscarinic acetylcholine receptor M4>
5

>  <Muscarinic acetylcholine receptor M5>
5

>  <Serotonin transporter>
5

$$$$
SB204741
  Marvin  02231216192D 0   1.00000     0.00000     0

 20 22  0  0  0  0  0  0  0  0999 V2000
    4.4146    0.8808    0.0000 S   0  0  0  0  0  0  0  0  0
    5.2216    1.0523    0.0000 N   0  0  0  0  0  0  0  0  0
    5.6341    0.3378    0.0000 C   0  0  0  0  0  0  0  0  0
    5.0821   -0.2753    0.0000 C   0  0  0  0  0  0  0  0  0
    4.3284    0.0603    0.0000 C   0  0  0  0  0  0  0  0  0
    3.6139   -0.3522    0.0000 N   0  0  0  0  0  0  0  0  0
    2.8995    0.0603    0.0000 C   0  0  0  0  0  0  0  0  0
    2.8995    0.8853    0.0000 O   0  0  0  0  0  0  0  0  0
    2.1850   -0.3522    0.0000 N   0  0  0  0  0  0  0  0  0
    1.4705    0.0603    0.0000 C   0  0  0  0  0  0  0  0  0
    0.7560   -0.3522    0.0000 C   0  0  0  0  0  0  0  0  0
    0.0416    0.0603    0.0000 C   0  0  0  0  0  0  0  0  0
    0.0416    0.8853    0.0000 C   0  0  0  0  0  0  0  0  0
   -0.7431    1.1402    0.0000 N   0  0  0  0  0  0  0  0  0
   -1.2280    0.4728    0.0000 C   0  0  0  0  0  0  0  0  0
   -0.7431   -0.1946    0.0000 C   0  0  0  0  0  0  0  0  0
   -0.9980    1.9249    0.0000 C   0  0  0  0  0  0  0  0  0
    0.7560    1.2978    0.0000 C   0  0  0  0  0  0  0  0  0
    1.4705    0.8853    0.0000 C   0  0  0  0  0  0  0  0  0
    6.4546    0.2516    0.0000 C   0  0  0  0  0  0  0  0  0
  1  2  4  0  0  0  0
  1  5  4  0  0  0  0
  2  3  4  0  0  0  0
  3  4  4  0  0  0  0
  3 20  1  0  0  0  0
  4  5  4  0  0  0  0
  5  6  1  0  0  0  0
  6  7  1  0  0  0  0
  7  8  2  0  0  0  0
  7  9  1  0  0  0  0
  9 10  1  0  0  0  0
 10 11  4  0  0  0  0
 10 19  4  0  0  0  0
 11 12  4  0  0  0  0
 12 13  4  0  0  0  0
 12 16  4  0  0  0  0
 13 14  4  0  0  0  0
 13 18  4  0  0  0  0
 14 15  4  0  0  0  0
 14 17  1  0  0  0  0
 15 16  4  0  0  0  0
 18 19  4  0  0  0  0
M  END
>  <Name_Molregno>
SB204741

>  <5-HT1B>
5

>  <5-HT1D>
5

>  <5-HT1E>
5

>  <5-HT2A>
5.1

>  <5-HT2C>
5.73

>  <DOPAMINE D1>
5

>  <DOPAMINE D2>
5

>  <DOPAMINE D3>
5

$$$$
SERTINDOLE
  Marvin  02231216192D 0   1.00000     0.00000     0

 31 35  0  0  0  0  0  0  0  0999 V2000
    1.9546   -2.6271    0.0000 Cl  0  0  0  0  0  0  0  0  0
    1.2402   -2.2146    0.0000 C   0  0  0  0  0  0  0  0  0
    0.5257   -2.6271    0.0000 C   0  0  0  0  0  0  0  0  0
   -0.1888   -2.2146    0.0000 C   0  0  0  0  0  0  0  0  0
   -0.1888   -1.3896    0.0000 C   0  0  0  0  0  0  0  0  0
   -0.9734   -1.1347    0.0000 N   0  0  0  0  0  0  0  0  0
   -1.4583   -1.8021    0.0000 C   0  0  0  0  0  0  0  0  0
   -0.9734   -2.4695    0.0000 C   0  0  0  0  0  0  0  0  0
   -1.2283   -3.2542    0.0000 C   0  0  0  0  0  0  0  0  0
   -0.6763   -3.8672    0.0000 C   0  0  0  0  0  0  0  0  0
   -0.9312   -4.6519    0.0000 C   0  0  0  0  0  0  0  0  0
   -1.7382   -4.8234    0.0000 N   0  0  0  0  0  0  0  0  0
   -2.2902   -4.2103    0.0000 C   0  0  0  0  0  0  0  0  0
   -2.0353   -3.4257    0.0000 C   0  0  0  0  0  0  0  0  0
   -1.9931   -5.6080    0.0000 C   0  0  0  0  0  0  0  0  0
   -2.8001   -5.7795    0.0000 C   0  0  0  0  0  0  0  0  0
   -3.0551   -6.5642    0.0000 N   0  0  0  0  0  0  0  0  0
   -2.5701   -7.2316    0.0000 C   0  0  0  0  0  0  0  0  0
   -3.0551   -7.8990    0.0000 C   0  0  0  0  0  0  0  0  0
   -3.8397   -7.6441    0.0000 N   0  0  0  0  0  0  0  0  0
   -3.8397   -6.8191    0.0000 C   0  0  0  0  0  0  0  0  0
   -4.5071   -6.3342    0.0000 O   0  0  0  0  0  0  0  0  0
   -1.2283   -0.3500    0.0000 C   0  0  0  0  0  0  0  0  0
   -2.0353   -0.1785    0.0000 C   0  0  0  0  0  0  0  0  0
   -2.2902    0.6061    0.0000 C   0  0  0  0  0  0  0  0  0
   -1.7382    1.2192    0.0000 C   0  0  0  0  0  0  0  0  0
   -1.9931    2.0038    0.0000 F   0  0  0  0  0  0  0  0  0
   -0.9312    1.0477    0.0000 C   0  0  0  0  0  0  0  0  0
   -0.6763    0.2631    0.0000 C   0  0  0  0  0  0  0  0  0
    0.5257   -0.9771    0.0000 C   0  0  0  0  0  0  0  0  0
    1.2402   -1.3896    0.0000 C   0  0  0  0  0  0  0  0  0
  1  2  1  0  0  0  0
  2  3  4  0  0  0  0
  2 31  4  0  0  0  0
  3  4  4  0  0  0  0
  4  5  4  0  0  0  0
  4  8  4  0  0  0  0
  5  6  4  0  0  0  0
  5 30  4  0  0  0  0
  6  7  4  0  0  0  0
  6 23  1  0  0  0  0
  7  8  4  0  0  0  0
  8  9  1  0  0  0  0
  9 10  1  0  0  0  0
  9 14  1  0  0  0  0
 10 11  1  0  0  0  0
 11 12  1  0  0  0  0
 12 13  1  0  0  0  0
 12 15  1  0  0  0  0
 13 14  1  0  0  0  0
 15 16  1  0  0  0  0
 16 17  1  0  0  0  0
 17 18  1  0  0  0  0
 17 21  1  0  0  0  0
 18 19  1  0  0  0  0
 19 20  1  0  0  0  0
 20 21  1  0  0  0  0
 21 22  2  0  0  0  0
 23 24  4  0  0  0  0
 23 29  4  0  0  0  0
 24 25  4  0  0  0  0
 25 26  4  0  0  0  0
 26 27  1  0  0  0  0
 26 28  4  0  0  0  0
 28 29  4  0  0  0  0
 30 31  4  0  0  0  0
M  END
>  <Name_Molregno>
SERTINDOLE

>  <5-HT1A>
6.36

>  <5-HT1B>
7.22

>  <5-HT1D>
7.36

>  <5-HT1E>
6.37

>  <5-HT2A>
9.49

>  <5-HT2C>
8.64

>  <5-HT6>
8.27

>  <5-HT7>
7.55

>  <Alpha-1A>
8.74

>  <Alpha-2A>
6.19

>  <Alpha-2B>
6.35

>  <Alpha-2C>
6.35

>  <Beta-1>
5.3

>  <Beta-2>
5.3

>  <DOPAMINE D2>
8.54

>  <DOPAMINE D3>
8.35

>  <DOPAMINE D4>
8.2

>  <HISTAMINE H1>
6.76

>  <Muscarinic acetylcholine receptor M3>
5.57

>  <Serotonin transporter>
6

$$$$
SPIPERONE
  Marvin  02231216192D 0   1.00000     0.00000     0

 29 32  0  0  0  0  0  0  0  0999 V2000
   10.5422    0.0060    0.0000 F   0  0  0  0  0  0  0  0  0
    9.7172    0.0060    0.0000 C   0  0  0  0  0  0  0  0  0
    9.3047   -0.7084    0.0000 C   0  0  0  0  0  0  0  0  0
    8.4797   -0.7084    0.0000 C   0  0  0  0  0  0  0  0  0
    8.0672    0.0060    0.0000 C   0  0  0  0  0  0  0  0  0
    8.4797    0.7205    0.0000 C   0  0  0  0  0  0  0  0  0
    9.3047    0.7205    0.0000 C   0  0  0  0  0  0  0  0  0
    7.2422    0.0060    0.0000 C   0  0  0  0  0  0  0  0  0
    6.8297    0.7205    0.0000 O   0  0  0  0  0  0  0  0  0
    6.8297   -0.7084    0.0000 C   0  0  0  0  0  0  0  0  0
    6.0047   -0.7084    0.0000 C   0  0  0  0  0  0  0  0  0
    5.5922   -1.4229    0.0000 C   0  0  0  0  0  0  0  0  0
    4.7672   -1.4229    0.0000 N   0  0  0  0  0  0  0  0  0
    4.3547   -2.1374    0.0000 C   0  0  0  0  0  0  0  0  0
    3.5297   -2.1374    0.0000 C   0  0  0  0  0  0  0  0  0
    3.1172   -1.4229    0.0000 C   0  0  0  0  0  0  0  0  0
    2.6323   -2.0903    0.0000 N   0  0  0  0  0  0  0  0  0
    1.8476   -1.8354    0.0000 C   0  0  0  0  0  0  0  0  0
    1.8476   -1.0104    0.0000 N   0  0  0  0  0  0  0  0  0
    2.6323   -0.7555    0.0000 C   0  0  0  0  0  0  0  0  0
    2.8872    0.0292    0.0000 O   0  0  0  0  0  0  0  0  0
    2.8872   -2.8750    0.0000 C   0  0  0  0  0  0  0  0  0
    3.6942   -3.0465    0.0000 C   0  0  0  0  0  0  0  0  0
    3.9491   -3.8311    0.0000 C   0  0  0  0  0  0  0  0  0
    3.3971   -4.4442    0.0000 C   0  0  0  0  0  0  0  0  0
    2.5901   -4.2727    0.0000 C   0  0  0  0  0  0  0  0  0
    2.3352   -3.4880    0.0000 C   0  0  0  0  0  0  0  0  0
    3.5297   -0.7084    0.0000 C   0  0  0  0  0  0  0  0  0
    4.3547   -0.7084    0.0000 C   0  0  0  0  0  0  0  0  0
  1  2  1  0  0  0  0
  2  3  4  0  0  0  0
  2  7  4  0  0  0  0
  3  4  4  0  0  0  0
  4  5  4  0  0  0  0
  5  6  4  0  0  0  0
  5  8  1  0  0  0  0
  6  7  4  0  0  0  0
  8  9  2  0  0  0  0
  8 10  1  0  0  0  0
 10 11  1  0  0  0  0
 11 12  1  0  0  0  0
 12 13  1  0  0  0  0
 13 14  1  0  0  0  0
 13 29  1  0  0  0  0
 14 15  1  0  0  0  0
 15 16  1  0  0  0  0
 16 17  1  0  0  0  0
 16 20  1  0  0  0  0
 16 28  1  0  0  0  0
 17 18  1  0  0  0  0
 17 22  1  0  0  0  0
 18 19  1  0  0  0  0
 19 20  1  0  0  0  0
 20 21  2  0  0  0  0
 22 23  4  0  0  0  0
 22 27  4  0  0  0  0
 23 24  4  0  0  0  0
 24 25  4  0  0  0  0
 25 26  4  0  0  0  0
 26 27  4  0  0  0  0
 28 29  1  0  0  0  0
M  END
>  <Name_Molregno>
SPIPERONE

>  <5-HT1A>
7

>  <5-HT1B>
5.5

>  <5-HT1D>
5.4

>  <5-HT1E>
5.3

>  <5-HT2A>
8.65

>  <5-HT2C>
6.12

>  <5-HT5>
4.2

>  <5-HT6>
5.8

>  <5-HT7>
7.17

>  <Alpha-1A>
7.9

>  <Alpha-1B>
8.51

>  <DOPAMINE D1>
6.42

>  <DOPAMINE D2>
10.02

>  <DOPAMINE D3>
9.55

>  <DOPAMINE D4>
9.31

>  <DOPAMINE D5>
5.35

>  <HISTAMINE H1>
6.4

$$$$
SR144528
  Marvin  02231216192D 0   1.00000     0.00000     0

 34 38  0  0  1  0  0  0  0  0999 V2000
   -3.4859   -7.8445    0.0000 Cl  0  0  0  0  0  0  0  0  0
   -3.3410   -7.0323    0.0000 C   0  0  0  0  0  0  0  0  0
   -3.9720   -6.5008    0.0000 C   0  0  0  0  0  0  0  0  0
   -3.8271   -5.6886    0.0000 C   0  0  0  0  0  0  0  0  0
   -3.0513   -5.4080    0.0000 C   0  0  0  0  0  0  0  0  0
   -2.4203   -5.9395    0.0000 C   0  0  0  0  0  0  0  0  0
   -2.5652   -6.7517    0.0000 C   0  0  0  0  0  0  0  0  0
   -1.9343   -7.2833    0.0000 C   0  0  0  0  0  0  0  0  0
   -2.9064   -4.5958    0.0000 C   0  0  0  0  0  0  0  0  0
   -3.4783   -4.0012    0.0000 N   0  0  0  0  0  0  0  0  0
   -3.0895   -3.2735    0.0000 N   0  0  0  0  0  0  0  0  0
   -2.2773   -3.4184    0.0000 C   0  0  0  0  0  0  0  0  0
   -2.1641   -4.2356    0.0000 C   0  0  0  0  0  0  0  0  0
   -1.6827   -2.8465    0.0000 C   0  0  0  0  0  0  0  0  0
   -1.8807   -2.0456    0.0000 O   0  0  0  0  0  0  0  0  0
   -0.8901   -3.0755    0.0000 N   0  0  0  0  0  0  0  0  0
   -0.2955   -2.5036    0.0000 C   0  0  0  0  0  0  0  0  0
    0.0698   -1.8431    0.0000 C   0  0  0  0  0  0  0  0  0
    0.7101   -1.3929    0.0000 C   0  0  0  0  0  0  0  0  0
    0.5501   -0.5775    0.0000 C   0  0  0  0  0  0  0  0  0
    0.4800   -2.1133    0.0000 C   0  0  0  0  0  0  0  0  0
    1.2105   -2.4836    0.0000 C   0  0  0  0  0  0  0  0  0
    1.5056   -1.8582    0.0000 C   0  0  0  0  0  0  0  0  0
    0.4788   -2.9383    0.0000 C   0  0  0  0  0  0  0  0  0
   -0.7153   -1.5897    0.0000 C   0  0  0  0  0  0  0  0  0
   -0.2665   -1.0898    0.0000 C   0  0  0  0  0  0  0  0  0
   -4.2955   -4.1144    0.0000 C   0  0  0  0  0  0  0  0  0
   -4.8021   -3.4633    0.0000 C   0  0  0  0  0  0  0  0  0
   -5.6193   -3.5764    0.0000 C   0  0  0  0  0  0  0  0  0
   -6.1259   -2.9253    0.0000 C   0  0  0  0  0  0  0  0  0
   -5.8153   -2.1610    0.0000 C   0  0  0  0  0  0  0  0  0
   -4.9981   -2.0478    0.0000 C   0  0  0  0  0  0  0  0  0
   -4.4915   -2.6989    0.0000 C   0  0  0  0  0  0  0  0  0
   -6.3219   -1.5099    0.0000 C   0  0  0  0  0  0  0  0  0
  1  2  1  0  0  0  0
  2  3  4  0  0  0  0
  2  7  4  0  0  0  0
  3  4  4  0  0  0  0
  4  5  4  0  0  0  0
  5  6  4  0  0  0  0
  5  9  1  0  0  0  0
  6  7  4  0  0  0  0
  7  8  1  0  0  0  0
  9 10  4  0  0  0  0
  9 13  4  0  0  0  0
 10 11  4  0  0  0  0
 10 27  1  0  0  0  0
 11 12  4  0  0  0  0
 12 13  4  0  0  0  0
 12 14  1  0  0  0  0
 14 15  2  0  0  0  0
 14 16  1  0  0  0  0
 16 17  1  0  0  0  0
 17 18  1  0  0  0  0
 17 21  1  0  0  0  0
 18 19  1  0  0  0  0
 18 25  1  0  0  0  0
 18 26  1  0  0  0  0
 19 20  1  0  0  0  0
 19 23  1  0  0  0  0
 20 21  1  0  0  0  0
 21 22  1  0  0  0  0
 21 24  1  0  0  0  0
 22 23  1  0  0  0  0
 27 28  1  0  0  0  0
 28 29  4  0  0  0  0
 28 33  4  0  0  0  0
 29 30  4  0  0  0  0
 30 31  4  0  0  0  0
 31 32  4  0  0  0  0
 31 34  1  0  0  0  0
 32 33  4  0  0  0  0
M  END
>  <Name_Molregno>
SR144528

>  <5-HT1A>
5

>  <5-HT1B>
5

>  <5-HT1D>
5

>  <5-HT2A>
5

>  <5-HT2C>
5

>  <5-HT3>
5

>  <Beta-1>
5

>  <Beta-2>
5

>  <DOPAMINE D1>
5

>  <DOPAMINE D2>
5

>  <DOPAMINE D3>
5

>  <DOPAMINE D4>
5

>  <HISTAMINE H1>
5

>  <HISTAMINE H2>
5

>  <HISTAMINE H3>
5

>  <Muscarinic acetylcholine receptor M1>
5

>  <Muscarinic acetylcholine receptor M2>
5

>  <Muscarinic acetylcholine receptor M4>
5

$$$$
SUMATRIPTAN
  Marvin  02231216192D 0   1.00000     0.00000     0

 20 21  0  0  0  0  0  0  0  0999 V2000
   -0.2094    0.6280    0.0000 S   0  0  0  0  0  0  0  0  0
   -0.6219    1.3424    0.0000 O   0  0  0  0  0  0  0  0  0
    0.2031   -0.0865    0.0000 O   0  0  0  0  0  0  0  0  0
    0.5050    1.0405    0.0000 N   0  0  0  0  0  0  0  0  0
    1.2195    0.6280    0.0000 C   0  0  0  0  0  0  0  0  0
   -0.9239    0.2155    0.0000 C   0  0  0  0  0  0  0  0  0
   -1.6384    0.6280    0.0000 C   0  0  0  0  0  0  0  0  0
   -2.3529    0.2155    0.0000 C   0  0  0  0  0  0  0  0  0
   -3.0673    0.6280    0.0000 C   0  0  0  0  0  0  0  0  0
   -3.0673    1.4530    0.0000 C   0  0  0  0  0  0  0  0  0
   -3.8519    1.7079    0.0000 N   0  0  0  0  0  0  0  0  0
   -4.3369    1.0405    0.0000 C   0  0  0  0  0  0  0  0  0
   -3.8519    0.3730    0.0000 C   0  0  0  0  0  0  0  0  0
   -4.1069   -0.4116    0.0000 C   0  0  0  0  0  0  0  0  0
   -3.5549   -1.0247    0.0000 C   0  0  0  0  0  0  0  0  0
   -3.8098   -1.8093    0.0000 N   0  0  0  0  0  0  0  0  0
   -4.6168   -1.9808    0.0000 C   0  0  0  0  0  0  0  0  0
   -3.2578   -2.4224    0.0000 C   0  0  0  0  0  0  0  0  0
   -2.3529    1.8655    0.0000 C   0  0  0  0  0  0  0  0  0
   -1.6384    1.4530    0.0000 C   0  0  0  0  0  0  0  0  0
  1  2  2  0  0  0  0
  1  3  2  0  0  0  0
  1  4  1  0  0  0  0
  1  6  1  0  0  0  0
  4  5  1  0  0  0  0
  6  7  1  0  0  0  0
  7  8  4  0  0  0  0
  7 20  4  0  0  0  0
  8  9  4  0  0  0  0
  9 10  4  0  0  0  0
  9 13  4  0  0  0  0
 10 11  4  0  0  0  0
 10 19  4  0  0  0  0
 11 12  4  0  0  0  0
 12 13  4  0  0  0  0
 13 14  1  0  0  0  0
 14 15  1  0  0  0  0
 15 16  1  0  0  0  0
 16 17  1  0  0  0  0
 16 18  1  0  0  0  0
 19 20  4  0  0  0  0
M  STY  1   1 DAT
M  SAL   1  1  11
M  SDT   1 MRV_IMPLICIT_H                                        
M  SDD   1     0.0000    0.0000    DR    ALL  0       0  
M  SED   1 IMPL_H1
M  END
>  <Name_Molregno>
SUMATRIPTAN

>  <5-HT1A>
6.38

>  <5-HT1B>
7.95

>  <5-HT1D>
8.46

>  <5-HT1E>
5.63

>  <5-HT2A>
5

>  <5-HT2C>
5

>  <5-HT6>
5.3

>  <5-HT7>
6.01

$$$$
TERGURIDE
  Marvin  02231216192D 0   1.00000     0.00000     0

 25 28  0  0  1  0  0  0  0  0999 V2000
   -0.3965   -3.1617    0.0000 O   0  0  0  0  0  0  0  0  0
    0.3175   -3.5751    0.0000 C   0  0  0  0  0  0  0  0  0
    1.0325   -3.1634    0.0000 N   0  0  0  0  0  0  0  0  0
    1.0334   -2.3384    0.0000 C   0  0  0  0  0  0  0  0  0
    1.7484   -1.9268    0.0000 C   0  0  0  0  0  0  0  0  0
    1.7494   -1.1018    0.0000 C   0  0  0  0  0  0  0  0  0
    1.0354   -0.6884    0.0000 C   0  0  0  0  0  0  0  0  0
    0.3205   -1.1001    0.0000 N   0  0  0  0  0  0  0  0  0
    0.3195   -1.9251    0.0000 C   0  0  0  0  0  0  0  0  0
   -0.3935   -0.6867    0.0000 C   0  0  0  0  0  0  0  0  0
    1.0369    0.1357    0.0000 C   0  0  0  0  0  0  0  0  0
    1.7494    0.5482    0.0000 C   0  0  0  0  0  0  0  0  0
    2.4619    0.1357    0.0000 C   0  0  0  0  0  0  0  0  0
    2.4619   -0.6893    0.0000 C   0  0  0  0  0  0  0  0  0
    3.1798   -1.1018    0.0000 C   0  0  0  0  0  0  0  0  0
    3.8923   -0.6893    0.0000 C   0  0  0  0  0  0  0  0  0
    3.8923    0.1357    0.0000 C   0  0  0  0  0  0  0  0  0
    3.1798    0.5482    0.0000 C   0  0  0  0  0  0  0  0  0
    2.8744    1.4054    0.0000 N   0  0  0  0  0  0  0  0  0
    2.0494    1.4054    0.0000 C   0  0  0  0  0  0  0  0  0
    0.3165   -4.4001    0.0000 N   0  0  0  0  0  0  0  0  0
   -0.3985   -4.8117    0.0000 C   0  0  0  0  0  0  0  0  0
   -0.3994   -5.6367    0.0000 C   0  0  0  0  0  0  0  0  0
    1.0305   -4.8134    0.0000 C   0  0  0  0  0  0  0  0  0
    1.0295   -5.6384    0.0000 C   0  0  0  0  0  0  0  0  0
  1  2  2  0  0  0  0
  2  3  1  0  0  0  0
  2 21  1  0  0  0  0
  3  4  1  0  0  0  0
  4  5  1  0  0  0  0
  4  9  1  0  0  0  0
  5  6  1  0  0  0  0
  6  7  1  0  0  0  0
  6 14  1  0  0  0  0
  7  8  1  0  0  0  0
  7 11  1  0  0  0  0
  8  9  1  0  0  0  0
  8 10  1  0  0  0  0
 11 12  1  0  0  0  0
 12 13  4  0  0  0  0
 12 20  4  0  0  0  0
 13 14  4  0  0  0  0
 13 18  4  0  0  0  0
 14 15  4  0  0  0  0
 15 16  4  0  0  0  0
 16 17  4  0  0  0  0
 17 18  4  0  0  0  0
 18 19  4  0  0  0  0
 19 20  4  0  0  0  0
 21 22  1  0  0  0  0
 21 24  1  0  0  0  0
 22 23  1  0  0  0  0
 24 25  1  0  0  0  0
M  STY  1   1 DAT
M  SAL   1  1  19
M  SDT   1 MRV_IMPLICIT_H                                        
M  SDD   1     0.0000    0.0000    DR    ALL  0       0  
M  SED   1 IMPL_H1
M  END
>  <Name_Molregno>
TERGURIDE

>  <5-HT1A>
8.46

>  <5-HT1B>
6.59

>  <5-HT1D>
7.79

>  <5-HT2A>
8.32

>  <5-HT2C>
7.32

>  <Alpha-1A>
8.45

>  <Alpha-1B>
7.46

>  <Alpha-2A>
9.53

>  <Alpha-2B>
9.35

>  <Alpha-2C>
9.12

>  <Beta-1>
6.18

>  <Beta-2>
7.7

>  <DOPAMINE D1>
7.55

>  <DOPAMINE D2>
9.06

>  <DOPAMINE D3>
9

>  <DOPAMINE D4>
8.18

>  <DOPAMINE D5>
7.63

$$$$
TFMPP
  Marvin  02231216192D 0   1.00000     0.00000     0

 16 17  0  0  0  0  0  0  0  0999 V2000
    0.5830    1.6625    0.0000 F   0  0  0  0  0  0  0  0  0
    0.5830    0.8375    0.0000 C   0  0  0  0  0  0  0  0  0
   -0.2420    0.8375    0.0000 F   0  0  0  0  0  0  0  0  0
    1.4080    0.8375    0.0000 F   0  0  0  0  0  0  0  0  0
    0.5830    0.0125    0.0000 C   0  0  0  0  0  0  0  0  0
    1.2974   -0.4000    0.0000 C   0  0  0  0  0  0  0  0  0
    1.2974   -1.2250    0.0000 C   0  0  0  0  0  0  0  0  0
    2.0119   -1.6375    0.0000 N   0  0  0  0  0  0  0  0  0
    2.7264   -1.2250    0.0000 C   0  0  0  0  0  0  0  0  0
    3.4408   -1.6375    0.0000 C   0  0  0  0  0  0  0  0  0
    3.4408   -2.4625    0.0000 N   0  0  0  0  0  0  0  0  0
    2.7264   -2.8750    0.0000 C   0  0  0  0  0  0  0  0  0
    2.0119   -2.4625    0.0000 C   0  0  0  0  0  0  0  0  0
    0.5830   -1.6375    0.0000 C   0  0  0  0  0  0  0  0  0
   -0.1315   -1.2250    0.0000 C   0  0  0  0  0  0  0  0  0
   -0.1315   -0.4000    0.0000 C   0  0  0  0  0  0  0  0  0
  1  2  1  0  0  0  0
  2  3  1  0  0  0  0
  2  4  1  0  0  0  0
  2  5  1  0  0  0  0
  5  6  4  0  0  0  0
  5 16  4  0  0  0  0
  6  7  4  0  0  0  0
  7  8  1  0  0  0  0
  7 14  4  0  0  0  0
  8  9  1  0  0  0  0
  8 13  1  0  0  0  0
  9 10  1  0  0  0  0
 10 11  1  0  0  0  0
 11 12  1  0  0  0  0
 12 13  1  0  0  0  0
 14 15  4  0  0  0  0
 15 16  4  0  0  0  0
M  END
>  <Name_Molregno>
TFMPP

>  <5-HT1B>
7.17

>  <5-HT1D>
6.97

>  <5-HT1E>
5.55

>  <5-HT2A>
7.07

>  <5-HT2C>
7.49

>  <5-HT6>
6.37

$$$$
THIORIDAZINE
  Marvin  02231216192D 0   1.00000     0.00000     0

 25 28  0  0  1  0  0  0  0  0999 V2000
    1.0601   -0.3753    0.0000 S   0  0  0  0  0  0  0  0  0
    1.7746    0.0372    0.0000 C   0  0  0  0  0  0  0  0  0
    1.7746    0.8622    0.0000 C   0  0  0  0  0  0  0  0  0
    1.0601    1.2747    0.0000 N   0  0  0  0  0  0  0  0  0
    0.3456    0.8622    0.0000 C   0  0  0  0  0  0  0  0  0
    0.3456    0.0372    0.0000 C   0  0  0  0  0  0  0  0  0
   -0.3689   -0.3753    0.0000 C   0  0  0  0  0  0  0  0  0
   -1.0833    0.0372    0.0000 C   0  0  0  0  0  0  0  0  0
   -1.0833    0.8622    0.0000 C   0  0  0  0  0  0  0  0  0
   -0.3689    1.2747    0.0000 C   0  0  0  0  0  0  0  0  0
    1.0601    2.0997    0.0000 C   0  0  0  0  0  0  0  0  0
    0.3456    2.5122    0.0000 C   0  0  0  0  0  0  0  0  0
    0.3456    3.3372    0.0000 C   0  0  0  0  0  0  0  0  0
   -0.3689    3.7497    0.0000 N   0  0  0  0  0  0  0  0  0
   -0.3689    4.5747    0.0000 C   0  0  0  0  0  0  0  0  0
    0.3456    4.9872    0.0000 C   0  0  0  0  0  0  0  0  0
    1.0601    4.5747    0.0000 C   0  0  0  0  0  0  0  0  0
    1.0601    3.7497    0.0000 C   0  0  0  0  0  0  0  0  0
   -1.0833    3.3372    0.0000 C   0  0  0  0  0  0  0  0  0
    2.4890    1.2747    0.0000 C   0  0  0  0  0  0  0  0  0
    3.2035    0.8622    0.0000 C   0  0  0  0  0  0  0  0  0
    3.9180    1.2747    0.0000 S   0  0  0  0  0  0  0  0  0
    3.9180    2.0997    0.0000 C   0  0  0  0  0  0  0  0  0
    3.2035    0.0372    0.0000 C   0  0  0  0  0  0  0  0  0
    2.4890   -0.3753    0.0000 C   0  0  0  0  0  0  0  0  0
  1  2  1  0  0  0  0
  1  6  1  0  0  0  0
  2  3  4  0  0  0  0
  2 25  4  0  0  0  0
  3  4  1  0  0  0  0
  3 20  4  0  0  0  0
  4  5  1  0  0  0  0
  4 11  1  0  0  0  0
  5  6  4  0  0  0  0
  5 10  4  0  0  0  0
  6  7  4  0  0  0  0
  7  8  4  0  0  0  0
  8  9  4  0  0  0  0
  9 10  4  0  0  0  0
 11 12  1  0  0  0  0
 12 13  1  0  0  0  0
 13 14  1  0  0  0  0
 13 18  1  0  0  0  0
 14 15  1  0  0  0  0
 14 19  1  0  0  0  0
 15 16  1  0  0  0  0
 16 17  1  0  0  0  0
 17 18  1  0  0  0  0
 20 21  4  0  0  0  0
 21 22  1  0  0  0  0
 21 24  4  0  0  0  0
 22 23  1  0  0  0  0
 24 25  4  0  0  0  0
M  END
>  <Name_Molregno>
THIORIDAZINE

>  <5-HT1A>
6.85

>  <5-HT1B>
6.96

>  <5-HT1D>
6.24

>  <5-HT1E>
6.71

>  <5-HT2A>
7.95

>  <5-HT2C>
7.28

>  <5-HT3>
5

>  <5-HT5>
6.44

>  <5-HT6>
7.24

>  <5-HT7>
7.05

>  <Alpha-1A>
8.6

>  <Alpha-1B>
8.62

>  <Alpha-2A>
6.87

>  <Alpha-2B>
6.47

>  <Alpha-2C>
7.13

>  <Beta-1>
5

>  <Beta-2>
5

>  <DOPAMINE D1>
7.03

>  <DOPAMINE D2>
8.31

>  <DOPAMINE D3>
8.59

>  <DOPAMINE D4>
8.21

>  <DOPAMINE D5>
6.6

>  <Dopamine transporter>
5.77

>  <HISTAMINE H1>
7.79

>  <HISTAMINE H2>
6.87

>  <HISTAMINE H4>
5.62

>  <Muscarinic acetylcholine receptor M1>
8.21

>  <Muscarinic acetylcholine receptor M2>
7.26

>  <Muscarinic acetylcholine receptor M3>
7.6

>  <Muscarinic acetylcholine receptor M4>
7.38

>  <Muscarinic acetylcholine receptor M5>
7.9

>  <Norepinephrine transporter>
6.07

>  <Serotonin transporter>
5.9

$$$$
TOLAZOLINE
  Marvin  02231216192D 0   1.00000     0.00000     0

 12 13  0  0  0  0  0  0  0  0999 V2000
    1.5604   -1.6758    0.0000 N   0  0  0  0  0  0  0  0  0
    1.3055   -2.4604    0.0000 C   0  0  0  0  0  0  0  0  0
    0.4805   -2.4604    0.0000 C   0  0  0  0  0  0  0  0  0
    0.2255   -1.6758    0.0000 N   0  0  0  0  0  0  0  0  0
    0.8930   -1.1908    0.0000 C   0  0  0  0  0  0  0  0  0
    0.8930   -0.3658    0.0000 C   0  0  0  0  0  0  0  0  0
    1.6075    0.0467    0.0000 C   0  0  0  0  0  0  0  0  0
    1.6075    0.8717    0.0000 C   0  0  0  0  0  0  0  0  0
    2.3219    1.2842    0.0000 C   0  0  0  0  0  0  0  0  0
    3.0364    0.8717    0.0000 C   0  0  0  0  0  0  0  0  0
    3.0364    0.0467    0.0000 C   0  0  0  0  0  0  0  0  0
    2.3219   -0.3658    0.0000 C   0  0  0  0  0  0  0  0  0
  1  2  1  0  0  0  0
  1  5  1  0  0  0  0
  2  3  1  0  0  0  0
  3  4  1  0  0  0  0
  4  5  2  0  0  0  0
  5  6  1  0  0  0  0
  6  7  1  0  0  0  0
  7  8  4  0  0  0  0
  7 12  4  0  0  0  0
  8  9  4  0  0  0  0
  9 10  4  0  0  0  0
 10 11  4  0  0  0  0
 11 12  4  0  0  0  0
M  END
>  <Name_Molregno>
TOLAZOLINE

>  <5-HT1B>
5

>  <5-HT1D>
5

>  <Alpha-2A>
6.64

>  <Alpha-2B>
5.5

>  <Alpha-2C>
5.43

$$$$
TRAZODONE
  Marvin  02231216192D 0   1.00000     0.00000     0

 26 29  0  0  0  0  0  0  0  0999 V2000
    0.6158   -2.7707    0.0000 Cl  0  0  0  0  0  0  0  0  0
    1.4408   -2.7707    0.0000 C   0  0  0  0  0  0  0  0  0
    1.8533   -2.0563    0.0000 C   0  0  0  0  0  0  0  0  0
    2.6783   -2.0563    0.0000 C   0  0  0  0  0  0  0  0  0
    3.0908   -1.3418    0.0000 N   0  0  0  0  0  0  0  0  0
    2.6783   -0.6273    0.0000 C   0  0  0  0  0  0  0  0  0
    3.0908    0.0872    0.0000 C   0  0  0  0  0  0  0  0  0
    3.9158    0.0872    0.0000 N   0  0  0  0  0  0  0  0  0
    4.3283   -0.6273    0.0000 C   0  0  0  0  0  0  0  0  0
    3.9158   -1.3418    0.0000 C   0  0  0  0  0  0  0  0  0
    4.3283    0.8016    0.0000 C   0  0  0  0  0  0  0  0  0
    5.1533    0.8016    0.0000 C   0  0  0  0  0  0  0  0  0
    5.5658    1.5161    0.0000 C   0  0  0  0  0  0  0  0  0
    6.3908    1.5161    0.0000 N   0  0  0  0  0  0  0  0  0
    6.8757    0.8487    0.0000 N   0  0  0  0  0  0  0  0  0
    7.6604    1.1036    0.0000 C   0  0  0  0  0  0  0  0  0
    7.6604    1.9286    0.0000 N   0  0  0  0  0  0  0  0  0
    8.3748    2.3411    0.0000 C   0  0  0  0  0  0  0  0  0
    9.0893    1.9286    0.0000 C   0  0  0  0  0  0  0  0  0
    9.0893    1.1036    0.0000 C   0  0  0  0  0  0  0  0  0
    8.3748    0.6911    0.0000 C   0  0  0  0  0  0  0  0  0
    6.8757    2.1835    0.0000 C   0  0  0  0  0  0  0  0  0
    6.6208    2.9682    0.0000 O   0  0  0  0  0  0  0  0  0
    3.0908   -2.7707    0.0000 C   0  0  0  0  0  0  0  0  0
    2.6783   -3.4852    0.0000 C   0  0  0  0  0  0  0  0  0
    1.8533   -3.4852    0.0000 C   0  0  0  0  0  0  0  0  0
  1  2  1  0  0  0  0
  2  3  4  0  0  0  0
  2 26  4  0  0  0  0
  3  4  4  0  0  0  0
  4  5  1  0  0  0  0
  4 24  4  0  0  0  0
  5  6  1  0  0  0  0
  5 10  1  0  0  0  0
  6  7  1  0  0  0  0
  7  8  1  0  0  0  0
  8  9  1  0  0  0  0
  8 11  1  0  0  0  0
  9 10  1  0  0  0  0
 11 12  1  0  0  0  0
 12 13  1  0  0  0  0
 13 14  1  0  0  0  0
 14 15  1  0  0  0  0
 14 22  1  0  0  0  0
 15 16  2  0  0  0  0
 16 17  1  0  0  0  0
 16 21  1  0  0  0  0
 17 18  1  0  0  0  0
 17 22  1  0  0  0  0
 18 19  2  0  0  0  0
 19 20  1  0  0  0  0
 20 21  2  0  0  0  0
 22 23  2  0  0  0  0
 24 25  4  0  0  0  0
 25 26  4  0  0  0  0
M  END
>  <Name_Molregno>
TRAZODONE

>  <5-HT1A>
6.97

>  <5-HT1B>
5

>  <5-HT1D>
6.97

>  <5-HT1E>
5

>  <5-HT2A>
7.46

>  <5-HT2C>
6.65

>  <5-HT3>
5

>  <5-HT5>
5

>  <5-HT6>
5

>  <5-HT7>
5.75

>  <Alpha-1A>
6.82

>  <Alpha-2A>
6.14

>  <Alpha-2C>
6.81

>  <Beta-1>
5

>  <Beta-2>
5

>  <DOPAMINE D1>
5.43

>  <DOPAMINE D2>
5.42

>  <DOPAMINE D4>
6.15

>  <DOPAMINE D5>
5

>  <Dopamine transporter>
5.07

>  <HISTAMINE H1>
6.31

>  <HISTAMINE H2>
5.48

>  <HISTAMINE H4>
5

>  <Muscarinic acetylcholine receptor M1>
5

>  <Muscarinic acetylcholine receptor M2>
5

>  <Muscarinic acetylcholine receptor M3>
5

>  <Muscarinic acetylcholine receptor M4>
5

>  <Muscarinic acetylcholine receptor M5>
5

>  <Norepinephrine transporter>
5.02

>  <Serotonin transporter>
6.14

$$$$
TRYPTAMINE
  Marvin  02231216192D 0   1.00000     0.00000     0

 12 13  0  0  0  0  0  0  0  0999 V2000
    0.3098    0.2368    0.0000 N   0  0  0  0  0  0  0  0  0
   -0.1752   -0.4306    0.0000 C   0  0  0  0  0  0  0  0  0
    0.3098   -1.0981    0.0000 C   0  0  0  0  0  0  0  0  0
    1.0944   -0.8431    0.0000 C   0  0  0  0  0  0  0  0  0
    1.0944   -0.0181    0.0000 C   0  0  0  0  0  0  0  0  0
    1.8089    0.3944    0.0000 C   0  0  0  0  0  0  0  0  0
    2.5233   -0.0181    0.0000 C   0  0  0  0  0  0  0  0  0
    2.5233   -0.8431    0.0000 C   0  0  0  0  0  0  0  0  0
    1.8089   -1.2556    0.0000 C   0  0  0  0  0  0  0  0  0
    0.0548   -1.8827    0.0000 C   0  0  0  0  0  0  0  0  0
   -0.7522   -2.0542    0.0000 C   0  0  0  0  0  0  0  0  0
   -1.0071   -2.8389    0.0000 N   0  0  0  0  0  0  0  0  0
  1  2  4  0  0  0  0
  1  5  4  0  0  0  0
  2  3  4  0  0  0  0
  3  4  4  0  0  0  0
  3 10  1  0  0  0  0
  4  5  4  0  0  0  0
  4  9  4  0  0  0  0
  5  6  4  0  0  0  0
  6  7  4  0  0  0  0
  7  8  4  0  0  0  0
  8  9  4  0  0  0  0
 10 11  1  0  0  0  0
 11 12  1  0  0  0  0
M  STY  1   1 DAT
M  SAL   1  1   1
M  SDT   1 MRV_IMPLICIT_H                                        
M  SDD   1     0.0000    0.0000    DR    ALL  0       0  
M  SED   1 IMPL_H1
M  END
>  <Name_Molregno>
TRYPTAMINE

>  <5-HT1A>
6.98

>  <5-HT1B>
6.68

>  <5-HT1D>
7.02

>  <5-HT1E>
5.59

>  <5-HT2A>
6.1

>  <5-HT2C>
6.5

>  <5-HT6>
6.36

>  <5-HT7>
6.83

$$$$
VALDECOXIB
  Marvin  02231216192D 0   1.00000     0.00000     0

 22 24  0  0  0  0  0  0  0  0999 V2000
   -2.8104    3.0816    0.0000 S   0  0  0  0  0  0  0  0  0
   -2.8104    3.9066    0.0000 O   0  0  0  0  0  0  0  0  0
   -3.6354    3.0816    0.0000 O   0  0  0  0  0  0  0  0  0
   -1.9854    3.0816    0.0000 N   0  0  0  0  0  0  0  0  0
   -2.8104    2.2566    0.0000 C   0  0  0  0  0  0  0  0  0
   -2.0959    1.8441    0.0000 C   0  0  0  0  0  0  0  0  0
   -2.0959    1.0191    0.0000 C   0  0  0  0  0  0  0  0  0
   -2.8104    0.6066    0.0000 C   0  0  0  0  0  0  0  0  0
   -3.5249    1.0191    0.0000 C   0  0  0  0  0  0  0  0  0
   -3.5249    1.8441    0.0000 C   0  0  0  0  0  0  0  0  0
   -2.8104   -0.2184    0.0000 C   0  0  0  0  0  0  0  0  0
   -2.1430   -0.7033    0.0000 C   0  0  0  0  0  0  0  0  0
   -2.3979   -1.4879    0.0000 N   0  0  0  0  0  0  0  0  0
   -3.2229   -1.4879    0.0000 O   0  0  0  0  0  0  0  0  0
   -3.4778   -0.7033    0.0000 C   0  0  0  0  0  0  0  0  0
   -4.2625   -0.4483    0.0000 C   0  0  0  0  0  0  0  0  0
   -1.3583   -0.4483    0.0000 C   0  0  0  0  0  0  0  0  0
   -1.1868    0.3586    0.0000 C   0  0  0  0  0  0  0  0  0
   -0.4022    0.6136    0.0000 C   0  0  0  0  0  0  0  0  0
    0.2109    0.0615    0.0000 C   0  0  0  0  0  0  0  0  0
    0.0394   -0.7454    0.0000 C   0  0  0  0  0  0  0  0  0
   -0.7452   -1.0004    0.0000 C   0  0  0  0  0  0  0  0  0
  1  2  2  0  0  0  0
  1  3  2  0  0  0  0
  1  4  1  0  0  0  0
  1  5  1  0  0  0  0
  5  6  4  0  0  0  0
  5 10  4  0  0  0  0
  6  7  4  0  0  0  0
  7  8  4  0  0  0  0
  8  9  4  0  0  0  0
  8 11  1  0  0  0  0
  9 10  4  0  0  0  0
 11 12  4  0  0  0  0
 11 15  4  0  0  0  0
 12 13  4  0  0  0  0
 12 17  1  0  0  0  0
 13 14  4  0  0  0  0
 14 15  4  0  0  0  0
 15 16  1  0  0  0  0
 17 18  4  0  0  0  0
 17 22  4  0  0  0  0
 18 19  4  0  0  0  0
 19 20  4  0  0  0  0
 20 21  4  0  0  0  0
 21 22  4  0  0  0  0
M  END
>  <Name_Molregno>
VALDECOXIB

>  <5-HT1A>
5

>  <5-HT1B>
5

>  <5-HT1D>
5

>  <5-HT1E>
5

>  <5-HT2A>
5

>  <5-HT3>
5

>  <5-HT6>
5

>  <5-HT7>
5

>  <Alpha-1A>
5

>  <Alpha-1B>
5

>  <Alpha-2A>
5

>  <Alpha-2B>
5

>  <Alpha-2C>
5

>  <DOPAMINE D1>
5

>  <DOPAMINE D2>
5

>  <DOPAMINE D5>
5

>  <Dopamine transporter>
5

>  <HISTAMINE H1>
5

>  <HISTAMINE H2>
5

>  <Muscarinic acetylcholine receptor M2>
5

>  <Muscarinic acetylcholine receptor M5>
5

>  <Serotonin transporter>
5

$$$$
valeryl-salicylate
  Marvin  02231216192D 0   1.00000     0.00000     0

 16 16  0  0  0  0  0  0  0  0999 V2000
   -0.4431    0.9218    0.0000 O   0  0  0  0  0  0  0  0  0
    0.2714    1.3343    0.0000 C   0  0  0  0  0  0  0  0  0
    0.2714    2.1593    0.0000 O   0  0  0  0  0  0  0  0  0
    0.9859    0.9218    0.0000 C   0  0  0  0  0  0  0  0  0
    1.7003    1.3343    0.0000 C   0  0  0  0  0  0  0  0  0
    2.4148    0.9218    0.0000 C   0  0  0  0  0  0  0  0  0
    2.4148    0.0968    0.0000 C   0  0  0  0  0  0  0  0  0
   -0.4431    0.0968    0.0000 C   0  0  0  0  0  0  0  0  0
    0.2714   -0.3157    0.0000 C   0  0  0  0  0  0  0  0  0
    0.2714   -1.1407    0.0000 C   0  0  0  0  0  0  0  0  0
   -0.4431   -1.5532    0.0000 C   0  0  0  0  0  0  0  0  0
   -1.1576   -1.1407    0.0000 C   0  0  0  0  0  0  0  0  0
   -1.1576   -0.3157    0.0000 C   0  0  0  0  0  0  0  0  0
   -1.8720    0.0968    0.0000 C   0  0  0  0  0  0  0  0  0
   -2.5865   -0.3157    0.0000 O   0  0  0  0  0  0  0  0  0
   -1.8720    0.9218    0.0000 O   0  0  0  0  0  0  0  0  0
  1  2  1  0  0  0  0
  1  8  1  0  0  0  0
  2  3  2  0  0  0  0
  2  4  1  0  0  0  0
  4  5  1  0  0  0  0
  5  6  1  0  0  0  0
  6  7  1  0  0  0  0
  8  9  4  0  0  0  0
  8 13  4  0  0  0  0
  9 10  4  0  0  0  0
 10 11  4  0  0  0  0
 11 12  4  0  0  0  0
 12 13  4  0  0  0  0
 13 14  1  0  0  0  0
 14 15  1  0  0  0  0
 14 16  2  0  0  0  0
M  END
>  <Name_Molregno>
valeryl-salicylate

>  <5-HT1A>
5

>  <5-HT1B>
5

>  <5-HT1D>
5

>  <5-HT1E>
5

>  <5-HT2A>
5

>  <5-HT3>
5

>  <5-HT5>
5

>  <5-HT6>
5

>  <5-HT7>
5

>  <Alpha-1A>
5

>  <Alpha-1B>
5

>  <Alpha-2A>
5

>  <Alpha-2B>
5

>  <Alpha-2C>
5

>  <DOPAMINE D1>
5

>  <DOPAMINE D2>
5

>  <DOPAMINE D4>
5

>  <DOPAMINE D5>
5

>  <HISTAMINE H1>
5

>  <HISTAMINE H2>
5

>  <HISTAMINE H4>
5

>  <Muscarinic acetylcholine receptor M2>
5

>  <Muscarinic acetylcholine receptor M5>
5

$$$$
Venlafaxine
  Marvin  02231216192D 0   1.00000     0.00000     0

 20 21  0  0  1  0  0  0  0  0999 V2000
    2.4113    2.7171    0.0000 O   0  0  0  0  0  0  0  0  0
    1.6968    3.1296    0.0000 C   0  0  0  0  0  0  0  0  0
    2.4113    1.8921    0.0000 C   0  0  0  0  0  0  0  0  0
    3.1257    1.4796    0.0000 C   0  0  0  0  0  0  0  0  0
    3.1257    0.6546    0.0000 C   0  0  0  0  0  0  0  0  0
    2.4113    0.2421    0.0000 C   0  0  0  0  0  0  0  0  0
    1.6968    0.6546    0.0000 C   0  0  0  0  0  0  0  0  0
    1.6968    1.4796    0.0000 C   0  0  0  0  0  0  0  0  0
    2.4113   -0.5829    0.0000 C   0  0  0  0  0  0  0  0  0
    1.6968   -0.9954    0.0000 C   0  0  0  0  0  0  0  0  0
    1.6968   -1.8204    0.0000 N   0  0  0  0  0  0  0  0  0
    2.4113   -2.2329    0.0000 C   0  0  0  0  0  0  0  0  0
    0.9823   -2.2329    0.0000 C   0  0  0  0  0  0  0  0  0
    3.1257   -0.9954    0.0000 C   0  0  0  0  0  0  0  0  0
    2.5954   -1.6274    0.0000 O   0  0  0  0  0  0  0  0  0
    3.4079   -0.2201    0.0000 C   0  0  0  0  0  0  0  0  0
    4.2204   -0.0769    0.0000 C   0  0  0  0  0  0  0  0  0
    4.7507   -0.7089    0.0000 C   0  0  0  0  0  0  0  0  0
    4.4685   -1.4841    0.0000 C   0  0  0  0  0  0  0  0  0
    3.6560   -1.6274    0.0000 C   0  0  0  0  0  0  0  0  0
  1  2  1  0  0  0  0
  1  3  1  0  0  0  0
  3  4  4  0  0  0  0
  3  8  4  0  0  0  0
  4  5  4  0  0  0  0
  5  6  4  0  0  0  0
  6  7  4  0  0  0  0
  6  9  1  0  0  0  0
  7  8  4  0  0  0  0
  9 10  1  0  0  0  0
  9 14  1  0  0  0  0
 10 11  1  0  0  0  0
 11 12  1  0  0  0  0
 11 13  1  0  0  0  0
 14 15  1  0  0  0  0
 14 16  1  0  0  0  0
 14 20  1  0  0  0  0
 16 17  1  0  0  0  0
 17 18  1  0  0  0  0
 18 19  1  0  0  0  0
 19 20  1  0  0  0  0
M  END
>  <Name_Molregno>
Venlafaxine

>  <5-HT1A>
5

>  <5-HT1B>
5

>  <5-HT1D>
5

>  <5-HT1E>
5

>  <5-HT2A>
5.33

>  <5-HT2C>
5.35

>  <5-HT6>
5.55

>  <5-HT7>
5

>  <Alpha-1A>
5

>  <Alpha-2A>
5.5

>  <DOPAMINE D2>
5

>  <DOPAMINE D3>
5

>  <Dopamine transporter>
5.17

>  <HISTAMINE H1>
5

>  <Muscarinic acetylcholine receptor M1>
5.5

>  <Muscarinic acetylcholine receptor M2>
5.5

>  <Muscarinic acetylcholine receptor M3>
5

>  <Muscarinic acetylcholine receptor M4>
5

>  <Muscarinic acetylcholine receptor M5>
5

>  <Norepinephrine transporter>
5.82

>  <Serotonin transporter>
7.43

$$$$
ZIPRASIDONE
  Marvin  02231216192D 0   1.00000     0.00000     0

 28 32  0  0  0  0  0  0  0  0999 V2000
   -5.2868    0.2535    0.0000 Cl  0  0  0  0  0  0  0  0  0
   -4.7347    0.8666    0.0000 C   0  0  0  0  0  0  0  0  0
   -4.9897    1.6513    0.0000 C   0  0  0  0  0  0  0  0  0
   -4.4376    2.2643    0.0000 C   0  0  0  0  0  0  0  0  0
   -4.5239    3.0848    0.0000 N   0  0  0  0  0  0  0  0  0
   -3.7702    3.4204    0.0000 C   0  0  0  0  0  0  0  0  0
   -3.5987    4.2274    0.0000 O   0  0  0  0  0  0  0  0  0
   -3.2182    2.8073    0.0000 C   0  0  0  0  0  0  0  0  0
   -3.6307    2.0928    0.0000 C   0  0  0  0  0  0  0  0  0
   -3.3757    1.3082    0.0000 C   0  0  0  0  0  0  0  0  0
   -3.9278    0.6951    0.0000 C   0  0  0  0  0  0  0  0  0
   -3.6728   -0.0895    0.0000 C   0  0  0  0  0  0  0  0  0
   -2.8658   -0.2610    0.0000 C   0  0  0  0  0  0  0  0  0
   -2.6109   -1.0457    0.0000 N   0  0  0  0  0  0  0  0  0
   -1.8039   -1.2172    0.0000 C   0  0  0  0  0  0  0  0  0
   -1.5490   -2.0018    0.0000 C   0  0  0  0  0  0  0  0  0
   -2.1010   -2.6149    0.0000 N   0  0  0  0  0  0  0  0  0
   -2.9080   -2.4434    0.0000 C   0  0  0  0  0  0  0  0  0
   -3.1629   -1.6588    0.0000 C   0  0  0  0  0  0  0  0  0
   -1.8461   -3.3995    0.0000 C   0  0  0  0  0  0  0  0  0
   -2.3310   -4.0670    0.0000 N   0  0  0  0  0  0  0  0  0
   -1.8461   -4.7344    0.0000 S   0  0  0  0  0  0  0  0  0
   -1.0615   -4.4795    0.0000 C   0  0  0  0  0  0  0  0  0
   -1.0615   -3.6545    0.0000 C   0  0  0  0  0  0  0  0  0
   -0.3470   -3.2420    0.0000 C   0  0  0  0  0  0  0  0  0
    0.3675   -3.6545    0.0000 C   0  0  0  0  0  0  0  0  0
    0.3675   -4.4795    0.0000 C   0  0  0  0  0  0  0  0  0
   -0.3470   -4.8920    0.0000 C   0  0  0  0  0  0  0  0  0
  1  2  1  0  0  0  0
  2  3  4  0  0  0  0
  2 11  4  0  0  0  0
  3  4  4  0  0  0  0
  4  5  1  0  0  0  0
  4  9  4  0  0  0  0
  5  6  1  0  0  0  0
  6  7  2  0  0  0  0
  6  8  1  0  0  0  0
  8  9  1  0  0  0  0
  9 10  4  0  0  0  0
 10 11  4  0  0  0  0
 11 12  1  0  0  0  0
 12 13  1  0  0  0  0
 13 14  1  0  0  0  0
 14 15  1  0  0  0  0
 14 19  1  0  0  0  0
 15 16  1  0  0  0  0
 16 17  1  0  0  0  0
 17 18  1  0  0  0  0
 17 20  1  0  0  0  0
 18 19  1  0  0  0  0
 20 21  4  0  0  0  0
 20 24  4  0  0  0  0
 21 22  4  0  0  0  0
 22 23  4  0  0  0  0
 23 24  4  0  0  0  0
 23 28  4  0  0  0  0
 24 25  4  0  0  0  0
 25 26  4  0  0  0  0
 26 27  4  0  0  0  0
 27 28  4  0  0  0  0
M  END
>  <Name_Molregno>
ZIPRASIDONE

>  <5-HT1A>
8.19

>  <5-HT1B>
8.7

>  <5-HT1D>
8.32

>  <5-HT1E>
6.17

>  <5-HT2A>
9.54

>  <5-HT2C>
8.82

>  <5-HT3>
5.7

>  <5-HT5>
6.54

>  <5-HT6>
7.17

>  <5-HT7>
8.23

>  <Alpha-1A>
7.74

>  <Alpha-1B>
8.05

>  <Alpha-2A>
6.8

>  <Alpha-2B>
7.32

>  <Alpha-2C>
7.15

>  <Beta-1>
5.3

>  <Beta-2>
5.15

>  <DOPAMINE D1>
7.1

>  <DOPAMINE D2>
8.39

>  <DOPAMINE D3>
8.21

>  <DOPAMINE D4>
7.43

>  <DOPAMINE D5>
6.82

>  <Dopamine transporter>
5

>  <HISTAMINE H1>
7.51

>  <HISTAMINE H2>
5.46

>  <HISTAMINE H4>
5

>  <Muscarinic acetylcholine receptor M1>
5.53

>  <Muscarinic acetylcholine receptor M2>
5.26

>  <Muscarinic acetylcholine receptor M3>
5.3

>  <Muscarinic acetylcholine receptor M4>
5.4

>  <Muscarinic acetylcholine receptor M5>
5.4

>  <Norepinephrine transporter>
7.36

>  <Serotonin transporter>
6.92

$$$$
ZOTEPINE
  Marvin  02231216192D 0   1.00000     0.00000     0

 22 24  0  0  0  0  0  0  0  0999 V2000
    1.8575   -4.4413    0.0000 Cl  0  0  0  0  0  0  0  0  0
    1.0691   -4.1981    0.0000 C   0  0  0  0  0  0  0  0  0
    0.8856   -3.3938    0.0000 C   0  0  0  0  0  0  0  0  0
    0.0972   -3.1507    0.0000 C   0  0  0  0  0  0  0  0  0
   -0.5076   -3.7118    0.0000 C   0  0  0  0  0  0  0  0  0
   -1.3233   -3.5888    0.0000 S   0  0  0  0  0  0  0  0  0
   -1.7358   -2.8744    0.0000 C   0  0  0  0  0  0  0  0  0
   -1.4344   -2.1064    0.0000 C   0  0  0  0  0  0  0  0  0
   -0.6461   -1.8632    0.0000 C   0  0  0  0  0  0  0  0  0
    0.0356   -2.3280    0.0000 C   0  0  0  0  0  0  0  0  0
    0.7500   -1.9155    0.0000 O   0  0  0  0  0  0  0  0  0
    1.4645   -2.3280    0.0000 C   0  0  0  0  0  0  0  0  0
    2.1790   -1.9155    0.0000 C   0  0  0  0  0  0  0  0  0
    2.8934   -2.3280    0.0000 N   0  0  0  0  0  0  0  0  0
    3.6079   -1.9155    0.0000 C   0  0  0  0  0  0  0  0  0
    2.8934   -3.1530    0.0000 C   0  0  0  0  0  0  0  0  0
   -1.9488   -1.4614    0.0000 C   0  0  0  0  0  0  0  0  0
   -2.7646   -1.5843    0.0000 C   0  0  0  0  0  0  0  0  0
   -3.0660   -2.3523    0.0000 C   0  0  0  0  0  0  0  0  0
   -2.5516   -2.9973    0.0000 C   0  0  0  0  0  0  0  0  0
   -0.3240   -4.5161    0.0000 C   0  0  0  0  0  0  0  0  0
    0.4644   -4.7593    0.0000 C   0  0  0  0  0  0  0  0  0
  1  2  1  0  0  0  0
  2  3  4  0  0  0  0
  2 22  4  0  0  0  0
  3  4  4  0  0  0  0
  4  5  4  0  0  0  0
  4 10  1  0  0  0  0
  5  6  1  0  0  0  0
  5 21  4  0  0  0  0
  6  7  1  0  0  0  0
  7  8  4  0  0  0  0
  7 20  4  0  0  0  0
  8  9  1  0  0  0  0
  8 17  4  0  0  0  0
  9 10  2  0  0  0  0
 10 11  1  0  0  0  0
 11 12  1  0  0  0  0
 12 13  1  0  0  0  0
 13 14  1  0  0  0  0
 14 15  1  0  0  0  0
 14 16  1  0  0  0  0
 17 18  4  0  0  0  0
 18 19  4  0  0  0  0
 19 20  4  0  0  0  0
 21 22  4  0  0  0  0
M  END
>  <Name_Molregno>
ZOTEPINE

>  <5-HT1A>
6.41

>  <5-HT1B>
7.23

>  <5-HT1D>
7.02

>  <5-HT1E>
6.23

>  <5-HT2A>
8.58

>  <5-HT2C>
8.49

>  <5-HT3>
6.33

>  <5-HT5>
7.54

>  <5-HT6>
8.22

>  <5-HT7>
7.92

>  <Alpha-1A>
8.15

>  <Alpha-1B>
8.3

>  <Alpha-2A>
6.68

>  <Alpha-2B>
8.27

>  <Alpha-2C>
7.02

>  <Beta-1>
5.19

>  <Beta-2>
5.32

>  <DOPAMINE D1>
7.15

>  <DOPAMINE D2>
7.98

>  <DOPAMINE D3>
8.19

>  <DOPAMINE D4>
7.57

>  <DOPAMINE D5>
6.61

>  <Dopamine transporter>
5.44

>  <HISTAMINE H1>
8.64

>  <HISTAMINE H2>
6.3

>  <HISTAMINE H4>
5.7

>  <Muscarinic acetylcholine receptor M1>
6.37

>  <Muscarinic acetylcholine receptor M2>
5.92

>  <Muscarinic acetylcholine receptor M3>
6.07

>  <Muscarinic acetylcholine receptor M4>
6.06

>  <Muscarinic acetylcholine receptor M5>
5.8

>  <Norepinephrine transporter>
6.28

>  <Serotonin transporter>
6.41

$$$$
