436
  Marvin  02231216192D 0   1.00000     0.00000     0

 15 15  0  0  1  0  0  0  0  0999 V2000
    4.0349    1.0801    0.0000 I   0  0  0  0  0  0  0  0  0
    3.3204    0.6676    0.0000 C   0  0  0  0  0  0  0  0  0
    3.3204   -0.1574    0.0000 C   0  0  0  0  0  0  0  0  0
    2.6059   -0.5699    0.0000 C   0  0  0  0  0  0  0  0  0
    2.6059   -1.3949    0.0000 O   0  0  0  0  0  0  0  0  0
    1.8915   -1.8074    0.0000 C   0  0  0  0  0  0  0  0  0
    1.8915   -0.1574    0.0000 C   0  0  0  0  0  0  0  0  0
    1.8915    0.6676    0.0000 C   0  0  0  0  0  0  0  0  0
    2.6059    1.0801    0.0000 C   0  0  0  0  0  0  0  0  0
    2.6059    1.9051    0.0000 O   0  0  0  0  0  0  0  0  0
    1.8915    2.3176    0.0000 C   0  0  0  0  0  0  0  0  0
    1.1770   -0.5699    0.0000 C   0  0  0  0  0  0  0  0  0
    0.4625   -0.1574    0.0000 C   0  0  0  0  0  0  0  0  0
   -0.2519   -0.5699    0.0000 N   0  0  0  0  0  0  0  0  0
    0.4625    0.6676    0.0000 C   0  0  0  0  0  0  0  0  0
  1  2  1  0  0  0  0
  2  3  4  0  0  0  0
  2  9  4  0  0  0  0
  3  4  4  0  0  0  0
  4  5  1  0  0  0  0
  4  7  4  0  0  0  0
  5  6  1  0  0  0  0
  7  8  4  0  0  0  0
  7 12  1  0  0  0  0
  8  9  4  0  0  0  0
  9 10  1  0  0  0  0
 10 11  1  0  0  0  0
 12 13  1  0  0  0  0
 13 14  1  0  0  0  0
 13 15  1  0  0  0  0
M  END
>  <Name_Molregno>
436

>  <5-HT1A>
5.42

>  <5-HT1E>
5.53

>  <5-HT2A>
8.4

>  <5-HT2C>
8.28

>  <5-HT5>
6

$$$$
601
  Marvin  02231216192D 0   1.00000     0.00000     0

 24 27  0  0  1  0  0  0  0  0999 V2000
   -0.4352   -4.1263    0.0000 O   0  0  0  0  0  0  0  0  0
   -1.1491   -3.7129    0.0000 C   0  0  0  0  0  0  0  0  0
   -1.8641   -4.1246    0.0000 N   0  0  0  0  0  0  0  0  0
   -1.8651   -4.9496    0.0000 C   0  0  0  0  0  0  0  0  0
   -2.5801   -5.3612    0.0000 C   0  0  0  0  0  0  0  0  0
   -2.5781   -3.7112    0.0000 C   0  0  0  0  0  0  0  0  0
   -3.2930   -4.1229    0.0000 C   0  0  0  0  0  0  0  0  0
   -1.1482   -2.8879    0.0000 C   0  0  0  0  0  0  0  0  0
   -0.4332   -2.4763    0.0000 C   0  0  0  0  0  0  0  0  0
   -0.4322   -1.6513    0.0000 C   0  0  0  0  0  0  0  0  0
   -1.1462   -1.2379    0.0000 C   0  0  0  0  0  0  0  0  0
   -1.8611   -1.6496    0.0000 N   0  0  0  0  0  0  0  0  0
   -1.8621   -2.4746    0.0000 C   0  0  0  0  0  0  0  0  0
   -2.5751   -1.2362    0.0000 C   0  0  0  0  0  0  0  0  0
   -1.1447   -0.4138    0.0000 C   0  0  0  0  0  0  0  0  0
   -0.4322   -0.0013    0.0000 C   0  0  0  0  0  0  0  0  0
    0.2803   -0.4138    0.0000 C   0  0  0  0  0  0  0  0  0
    0.2803   -1.2388    0.0000 C   0  0  0  0  0  0  0  0  0
    0.9982   -1.6513    0.0000 C   0  0  0  0  0  0  0  0  0
    1.7107   -1.2388    0.0000 C   0  0  0  0  0  0  0  0  0
    1.7107   -0.4138    0.0000 C   0  0  0  0  0  0  0  0  0
    0.9982   -0.0013    0.0000 C   0  0  0  0  0  0  0  0  0
    0.6928    0.8558    0.0000 N   0  0  0  0  0  0  0  0  0
   -0.1322    0.8558    0.0000 C   0  0  0  0  0  0  0  0  0
  1  2  2  0  0  0  0
  2  3  1  0  0  0  0
  2  8  1  0  0  0  0
  3  4  1  0  0  0  0
  3  6  1  0  0  0  0
  4  5  1  0  0  0  0
  6  7  1  0  0  0  0
  8  9  1  0  0  0  0
  8 13  1  0  0  0  0
  9 10  2  0  0  0  0
 10 11  1  0  0  0  0
 10 18  1  0  0  0  0
 11 12  1  0  0  0  0
 11 15  1  0  0  0  0
 12 13  1  0  0  0  0
 12 14  1  0  0  0  0
 15 16  1  0  0  0  0
 16 17  4  0  0  0  0
 16 24  4  0  0  0  0
 17 18  4  0  0  0  0
 17 22  4  0  0  0  0
 18 19  4  0  0  0  0
 19 20  4  0  0  0  0
 20 21  4  0  0  0  0
 21 22  4  0  0  0  0
 22 23  4  0  0  0  0
 23 24  4  0  0  0  0
M  STY  1   1 DAT
M  SAL   1  1  23
M  SDT   1 MRV_IMPLICIT_H                                        
M  SDD   1     0.0000    0.0000    DR    ALL  0       0  
M  SED   1 IMPL_H1
M  END
>  <Name_Molregno>
601

>  <5-HT1A>
8.86

>  <5-HT1D>
7.85

>  <5-HT2A>
8.52

>  <5-HT2C>
8.15

>  <5-HT6>
8.64

$$$$
2246
  Marvin  02231216192D 0   1.00000     0.00000     0

 23 26  0  0  0  0  0  0  0  0999 V2000
    0.0748    1.8640    0.0000 Cl  0  0  0  0  0  0  0  0  0
    0.8818    1.6925    0.0000 C   0  0  0  0  0  0  0  0  0
    1.4339    2.3056    0.0000 C   0  0  0  0  0  0  0  0  0
    2.2408    2.1340    0.0000 C   0  0  0  0  0  0  0  0  0
    2.4958    1.3494    0.0000 C   0  0  0  0  0  0  0  0  0
    3.3027    1.1779    0.0000 N   0  0  0  0  0  0  0  0  0
    3.8548    1.7910    0.0000 C   0  0  0  0  0  0  0  0  0
    4.6617    1.6194    0.0000 C   0  0  0  0  0  0  0  0  0
    4.9167    0.8348    0.0000 N   0  0  0  0  0  0  0  0  0
    4.3646    0.2217    0.0000 C   0  0  0  0  0  0  0  0  0
    3.5577    0.3933    0.0000 C   0  0  0  0  0  0  0  0  0
    5.7237    0.6633    0.0000 C   0  0  0  0  0  0  0  0  0
    5.9786   -0.1213    0.0000 C   0  0  0  0  0  0  0  0  0
    6.7632   -0.3763    0.0000 C   0  0  0  0  0  0  0  0  0
    7.4777    0.0362    0.0000 C   0  0  0  0  0  0  0  0  0
    8.1922   -0.3763    0.0000 C   0  0  0  0  0  0  0  0  0
    8.1922   -1.2013    0.0000 C   0  0  0  0  0  0  0  0  0
    7.4777   -1.6138    0.0000 N   0  0  0  0  0  0  0  0  0
    6.7632   -1.2013    0.0000 C   0  0  0  0  0  0  0  0  0
    5.9786   -1.4562    0.0000 N   0  0  0  0  0  0  0  0  0
    5.4937   -0.7888    0.0000 C   0  0  0  0  0  0  0  0  0
    1.9437    0.7363    0.0000 C   0  0  0  0  0  0  0  0  0
    1.1368    0.9078    0.0000 C   0  0  0  0  0  0  0  0  0
  1  2  1  0  0  0  0
  2  3  4  0  0  0  0
  2 23  4  0  0  0  0
  3  4  4  0  0  0  0
  4  5  4  0  0  0  0
  5  6  1  0  0  0  0
  5 22  4  0  0  0  0
  6  7  1  0  0  0  0
  6 11  1  0  0  0  0
  7  8  1  0  0  0  0
  8  9  1  0  0  0  0
  9 10  1  0  0  0  0
  9 12  1  0  0  0  0
 10 11  1  0  0  0  0
 12 13  1  0  0  0  0
 13 14  4  0  0  0  0
 13 21  4  0  0  0  0
 14 15  4  0  0  0  0
 14 19  4  0  0  0  0
 15 16  4  0  0  0  0
 16 17  4  0  0  0  0
 17 18  4  0  0  0  0
 18 19  4  0  0  0  0
 19 20  4  0  0  0  0
 20 21  4  0  0  0  0
 22 23  4  0  0  0  0
M  STY  1   1 DAT
M  SAL   1  1  20
M  SDT   1 MRV_IMPLICIT_H                                        
M  SDD   1     0.0000    0.0000    DR    ALL  0       0  
M  SED   1 IMPL_H1
M  END
>  <Name_Molregno>
2246

>  <5-HT1A>
5.18

>  <5-HT1B>
5

>  <5-HT1D>
5

>  <5-HT1E>
5

>  <5-HT2A>
6.17

>  <5-HT2C>
5.5

>  <5-HT5>
5

>  <5-HT6>
5.78

>  <5-HT7>
6.65

>  <DOPAMINE D2>
5.31

>  <DOPAMINE D3>
5.16

>  <DOPAMINE D4>
9.34

$$$$
2724
  Marvin  02231216192D 0   1.00000     0.00000     0

 16 17  0  0  1  0  0  0  0  0999 V2000
    1.7558    2.8334    0.0000 O   0  0  0  0  0  0  0  0  0
    1.7558    2.0084    0.0000 C   0  0  0  0  0  0  0  0  0
    2.4703    1.5959    0.0000 C   0  0  0  0  0  0  0  0  0
    2.4703    0.7709    0.0000 C   0  0  0  0  0  0  0  0  0
    1.7558    0.3584    0.0000 C   0  0  0  0  0  0  0  0  0
    1.0413    0.7709    0.0000 C   0  0  0  0  0  0  0  0  0
    1.0413    1.5959    0.0000 C   0  0  0  0  0  0  0  0  0
    3.1847    0.3584    0.0000 C   0  0  0  0  0  0  0  0  0
    3.8992    0.7709    0.0000 C   0  0  0  0  0  0  0  0  0
    4.6137    0.3584    0.0000 C   0  0  0  0  0  0  0  0  0
    4.6137   -0.4666    0.0000 C   0  0  0  0  0  0  0  0  0
    3.8992   -0.8791    0.0000 N   0  0  0  0  0  0  0  0  0
    3.1847   -0.4666    0.0000 C   0  0  0  0  0  0  0  0  0
    3.8992   -1.7041    0.0000 C   0  0  0  0  0  0  0  0  0
    3.1847   -2.1166    0.0000 C   0  0  0  0  0  0  0  0  0
    3.1847   -2.9416    0.0000 C   0  0  0  0  0  0  0  0  0
  1  2  1  0  0  0  0
  2  3  4  0  0  0  0
  2  7  4  0  0  0  0
  3  4  4  0  0  0  0
  4  5  4  0  0  0  0
  4  8  1  0  0  0  0
  5  6  4  0  0  0  0
  6  7  4  0  0  0  0
  8  9  1  0  0  0  0
  8 13  1  0  0  0  0
  9 10  1  0  0  0  0
 10 11  1  0  0  0  0
 11 12  1  0  0  0  0
 12 13  1  0  0  0  0
 12 14  1  0  0  0  0
 14 15  1  0  0  0  0
 15 16  1  0  0  0  0
M  END
>  <Name_Molregno>
2724

>  <5-HT1A>
5.73

>  <5-HT1E>
5

>  <5-HT3>
5

>  <5-HT5>
5

>  <5-HT6>
5

>  <Alpha-1A>
5

>  <Alpha-1B>
5

>  <Beta-2>
5

>  <DOPAMINE D1>
5

>  <DOPAMINE D2>
6.47

>  <DOPAMINE D3>
6.93

>  <DOPAMINE D4>
6.29

>  <DOPAMINE D5>
5.31

>  <Dopamine transporter>
5

>  <Muscarinic acetylcholine receptor M1>
5

>  <Muscarinic acetylcholine receptor M2>
5

>  <Muscarinic acetylcholine receptor M3>
5

>  <Muscarinic acetylcholine receptor M4>
5

>  <Muscarinic acetylcholine receptor M5>
5

>  <Norepinephrine transporter>
5.64

>  <Serotonin transporter>
5

$$$$
4181
  Marvin  02231216192D 0   1.00000     0.00000     0

 29 32  0  0  0  0  0  0  0  0999 V2000
   -7.1712   -1.9465    0.0000 O   0  0  0  0  0  0  0  0  0
   -7.5837   -2.6610    0.0000 C   0  0  0  0  0  0  0  0  0
   -7.5837   -1.2320    0.0000 C   0  0  0  0  0  0  0  0  0
   -8.4087   -1.2320    0.0000 C   0  0  0  0  0  0  0  0  0
   -8.8212   -0.5176    0.0000 C   0  0  0  0  0  0  0  0  0
   -8.4087    0.1969    0.0000 C   0  0  0  0  0  0  0  0  0
   -7.5837    0.1969    0.0000 C   0  0  0  0  0  0  0  0  0
   -7.1712   -0.5176    0.0000 C   0  0  0  0  0  0  0  0  0
   -6.3462   -0.5176    0.0000 N   0  0  0  0  0  0  0  0  0
   -5.9337    0.1969    0.0000 C   0  0  0  0  0  0  0  0  0
   -5.1087    0.1969    0.0000 C   0  0  0  0  0  0  0  0  0
   -4.6962   -0.5176    0.0000 N   0  0  0  0  0  0  0  0  0
   -5.1087   -1.2320    0.0000 C   0  0  0  0  0  0  0  0  0
   -5.9337   -1.2320    0.0000 C   0  0  0  0  0  0  0  0  0
   -3.8712   -0.5176    0.0000 C   0  0  0  0  0  0  0  0  0
   -3.4587    0.1969    0.0000 C   0  0  0  0  0  0  0  0  0
   -2.6337    0.1969    0.0000 C   0  0  0  0  0  0  0  0  0
   -2.2212    0.9114    0.0000 C   0  0  0  0  0  0  0  0  0
   -1.3962    0.9114    0.0000 N   0  0  0  0  0  0  0  0  0
   -0.9112    0.2439    0.0000 C   0  0  0  0  0  0  0  0  0
   -1.1662   -0.5407    0.0000 O   0  0  0  0  0  0  0  0  0
   -0.1266    0.4989    0.0000 C   0  0  0  0  0  0  0  0  0
   -0.1266    1.3239    0.0000 C   0  0  0  0  0  0  0  0  0
    0.5879    1.7364    0.0000 C   0  0  0  0  0  0  0  0  0
    1.3023    1.3239    0.0000 C   0  0  0  0  0  0  0  0  0
    1.3023    0.4989    0.0000 C   0  0  0  0  0  0  0  0  0
    0.5879    0.0864    0.0000 C   0  0  0  0  0  0  0  0  0
   -0.9112    1.5788    0.0000 C   0  0  0  0  0  0  0  0  0
   -1.1662    2.3634    0.0000 O   0  0  0  0  0  0  0  0  0
  1  2  1  0  0  0  0
  1  3  1  0  0  0  0
  3  4  4  0  0  0  0
  3  8  4  0  0  0  0
  4  5  4  0  0  0  0
  5  6  4  0  0  0  0
  6  7  4  0  0  0  0
  7  8  4  0  0  0  0
  8  9  1  0  0  0  0
  9 10  1  0  0  0  0
  9 14  1  0  0  0  0
 10 11  1  0  0  0  0
 11 12  1  0  0  0  0
 12 13  1  0  0  0  0
 12 15  1  0  0  0  0
 13 14  1  0  0  0  0
 15 16  1  0  0  0  0
 16 17  1  0  0  0  0
 17 18  1  0  0  0  0
 18 19  1  0  0  0  0
 19 20  1  0  0  0  0
 19 28  1  0  0  0  0
 20 21  2  0  0  0  0
 20 22  1  0  0  0  0
 22 23  4  0  0  0  0
 22 27  4  0  0  0  0
 23 24  4  0  0  0  0
 23 28  1  0  0  0  0
 24 25  4  0  0  0  0
 25 26  4  0  0  0  0
 26 27  4  0  0  0  0
 28 29  2  0  0  0  0
M  END
>  <Name_Molregno>
4181

>  <5-HT1A>
8.88

>  <Alpha-1A>
9.15

>  <Alpha-1B>
9.02

>  <DOPAMINE D1>
5.35

>  <DOPAMINE D2>
7.33

>  <DOPAMINE D3>
8.47

$$$$
4259
  Marvin  02231216192D 0   1.00000     0.00000     0

 27 31  0  0  1  0  0  0  0  0999 V2000
   -0.2544   -2.3296    0.0000 O   0  0  0  0  0  0  0  0  0
    0.3866   -1.8102    0.0000 C   0  0  0  0  0  0  0  0  0
    0.8114   -1.1029    0.0000 C   0  0  0  0  0  0  0  0  0
    1.6362   -1.1171    0.0000 C   0  0  0  0  0  0  0  0  0
    2.0364   -1.8386    0.0000 N   0  0  0  0  0  0  0  0  0
    1.6117   -2.5458    0.0000 C   0  0  0  0  0  0  0  0  0
    0.7868   -2.5317    0.0000 C   0  0  0  0  0  0  0  0  0
    2.8613   -1.8527    0.0000 C   0  0  0  0  0  0  0  0  0
    3.1740   -1.1970    0.0000 C   0  0  0  0  0  0  0  0  0
    2.8858   -0.4240    0.0000 C   0  0  0  0  0  0  0  0  0
    2.0609   -0.4098    0.0000 C   0  0  0  0  0  0  0  0  0
    1.6608    0.3116    0.0000 C   0  0  0  0  0  0  0  0  0
    2.0855    1.0189    0.0000 C   0  0  0  0  0  0  0  0  0
    2.9104    1.0047    0.0000 C   0  0  0  0  0  0  0  0  0
    3.3105    0.2833    0.0000 C   0  0  0  0  0  0  0  0  0
    4.1283    0.3922    0.0000 C   0  0  0  0  0  0  0  0  0
    4.7234   -0.1792    0.0000 C   0  0  0  0  0  0  0  0  0
    4.6476   -1.0008    0.0000 C   0  0  0  0  0  0  0  0  0
    3.9581   -1.4537    0.0000 C   0  0  0  0  0  0  0  0  0
    4.0056   -2.2773    0.0000 C   0  0  0  0  0  0  0  0  0
    4.7426   -2.6480    0.0000 C   0  0  0  0  0  0  0  0  0
    5.4321   -2.1951    0.0000 C   0  0  0  0  0  0  0  0  0
    5.3846   -1.3714    0.0000 C   0  0  0  0  0  0  0  0  0
   -0.2361   -1.2691    0.0000 C   0  0  0  0  0  0  0  0  0
   -0.8589   -0.7281    0.0000 C   0  0  0  0  0  0  0  0  0
    0.3049   -0.6464    0.0000 C   0  0  0  0  0  0  0  0  0
   -0.7772   -1.8919    0.0000 C   0  0  0  0  0  0  0  0  0
  1  2  1  0  0  0  0
  2  3  1  0  0  0  0
  2  7  1  0  0  0  0
  2 24  1  0  0  0  0
  3  4  1  0  0  0  0
  4  5  1  0  0  0  0
  4 11  1  0  0  0  0
  5  6  1  0  0  0  0
  5  8  1  0  0  0  0
  6  7  1  0  0  0  0
  8  9  1  0  0  0  0
  9 10  1  0  0  0  0
  9 19  1  0  0  0  0
 10 11  4  0  0  0  0
 10 15  4  0  0  0  0
 11 12  4  0  0  0  0
 12 13  4  0  0  0  0
 13 14  4  0  0  0  0
 14 15  4  0  0  0  0
 15 16  1  0  0  0  0
 16 17  1  0  0  0  0
 17 18  1  0  0  0  0
 18 19  4  0  0  0  0
 18 23  4  0  0  0  0
 19 20  4  0  0  0  0
 20 21  4  0  0  0  0
 21 22  4  0  0  0  0
 22 23  4  0  0  0  0
 24 25  1  0  0  0  0
 24 26  1  0  0  0  0
 24 27  1  0  0  0  0
M  END
>  <Name_Molregno>
4259

>  <5-HT1A>
6.08

>  <5-HT2A>
8.67

>  <DOPAMINE D1>
8.63

>  <DOPAMINE D2>
8.72

>  <DOPAMINE D3>
8.22

>  <DOPAMINE D4>
7.2

>  <DOPAMINE D5>
7.57

>  <HISTAMINE H1>
6.55

$$$$
4778
  Marvin  02231216192D 0   1.00000     0.00000     0

 20 22  0  0  1  0  0  0  0  0999 V2000
    0.1938   -0.4763    0.0000 Cl  0  0  0  0  0  0  0  0  0
    0.9083   -0.0638    0.0000 C   0  0  0  0  0  0  0  0  0
    1.6227   -0.4763    0.0000 C   0  0  0  0  0  0  0  0  0
    2.3372   -0.0638    0.0000 C   0  0  0  0  0  0  0  0  0
    2.3372    0.7612    0.0000 C   0  0  0  0  0  0  0  0  0
    1.6227    1.1737    0.0000 C   0  0  0  0  0  0  0  0  0
    0.9083    0.7612    0.0000 C   0  0  0  0  0  0  0  0  0
    0.1938    1.1737    0.0000 O   0  0  0  0  0  0  0  0  0
    2.9822    1.2756    0.0000 C   0  0  0  0  0  0  0  0  0
    3.7865    1.0920    0.0000 C   0  0  0  0  0  0  0  0  0
    4.1445    0.3487    0.0000 N   0  0  0  0  0  0  0  0  0
    3.7865   -0.3946    0.0000 C   0  0  0  0  0  0  0  0  0
    2.9822   -0.5782    0.0000 C   0  0  0  0  0  0  0  0  0
    4.9695    0.3487    0.0000 C   0  0  0  0  0  0  0  0  0
    2.7986    2.0799    0.0000 C   0  0  0  0  0  0  0  0  0
    2.0103    2.3230    0.0000 C   0  0  0  0  0  0  0  0  0
    1.8267    3.1274    0.0000 C   0  0  0  0  0  0  0  0  0
    2.4315    3.6885    0.0000 C   0  0  0  0  0  0  0  0  0
    3.2198    3.4453    0.0000 C   0  0  0  0  0  0  0  0  0
    3.4034    2.6410    0.0000 C   0  0  0  0  0  0  0  0  0
  1  2  1  0  0  0  0
  2  3  4  0  0  0  0
  2  7  4  0  0  0  0
  3  4  4  0  0  0  0
  4  5  4  0  0  0  0
  4 13  1  0  0  0  0
  5  6  4  0  0  0  0
  5  9  1  0  0  0  0
  6  7  4  0  0  0  0
  7  8  1  0  0  0  0
  9 10  1  0  0  0  0
  9 15  1  0  0  0  0
 10 11  1  0  0  0  0
 11 12  1  0  0  0  0
 11 14  1  0  0  0  0
 12 13  1  0  0  0  0
 15 16  4  0  0  0  0
 15 20  4  0  0  0  0
 16 17  4  0  0  0  0
 17 18  4  0  0  0  0
 18 19  4  0  0  0  0
 19 20  4  0  0  0  0
M  END
>  <Name_Molregno>
4778

>  <5-HT1A>
6.18

>  <5-HT2A>
7.88

>  <5-HT2C>
7.39

>  <5-HT3>
5

>  <DOPAMINE D1>
8.84

>  <DOPAMINE D2>
6.09

>  <DOPAMINE D3>
5.65

>  <DOPAMINE D4>
5.51

>  <DOPAMINE D5>
8.49

>  <HISTAMINE H1>
7

$$$$
6291
  Marvin  02231216192D 0   1.00000     0.00000     0

 26 29  0  0  1  0  0  0  0  0999 V2000
   -4.2684    3.4148    0.0000 O   0  0  0  0  0  0  0  0  0
   -4.8815    2.8628    0.0000 C   0  0  0  0  0  0  0  0  0
   -4.8815    2.0378    0.0000 C   0  0  0  0  0  0  0  0  0
   -5.5960    1.6253    0.0000 C   0  0  0  0  0  0  0  0  0
   -6.3104    2.0378    0.0000 C   0  0  0  0  0  0  0  0  0
   -6.3104    2.8628    0.0000 C   0  0  0  0  0  0  0  0  0
   -5.5960    3.2753    0.0000 C   0  0  0  0  0  0  0  0  0
   -5.4244    4.0823    0.0000 C   0  0  0  0  0  0  0  0  0
   -4.6039    4.1685    0.0000 C   0  0  0  0  0  0  0  0  0
   -5.5960    0.8003    0.0000 C   0  0  0  0  0  0  0  0  0
   -4.8815    0.3878    0.0000 C   0  0  0  0  0  0  0  0  0
   -4.8815   -0.4372    0.0000 N   0  0  0  0  0  0  0  0  0
   -4.1670   -0.8497    0.0000 C   0  0  0  0  0  0  0  0  0
   -4.1670   -1.6747    0.0000 C   0  0  0  0  0  0  0  0  0
   -4.8815   -2.0872    0.0000 C   0  0  0  0  0  0  0  0  0
   -4.8815   -2.9122    0.0000 C   0  0  0  0  0  0  0  0  0
   -4.1670   -3.3247    0.0000 C   0  0  0  0  0  0  0  0  0
   -3.4525   -2.9122    0.0000 C   0  0  0  0  0  0  0  0  0
   -3.4525   -2.0872    0.0000 C   0  0  0  0  0  0  0  0  0
   -2.7381   -1.6747    0.0000 C   0  0  0  0  0  0  0  0  0
   -2.0236   -2.0872    0.0000 C   0  0  0  0  0  0  0  0  0
   -2.0236   -2.9122    0.0000 C   0  0  0  0  0  0  0  0  0
   -2.7381   -3.3247    0.0000 C   0  0  0  0  0  0  0  0  0
   -2.7381   -4.1497    0.0000 O   0  0  0  0  0  0  0  0  0
   -2.0236   -4.5622    0.0000 C   0  0  0  0  0  0  0  0  0
   -5.5960   -0.8497    0.0000 C   0  0  0  0  0  0  0  0  0
  1  2  4  0  0  0  0
  1  9  4  0  0  0  0
  2  3  4  0  0  0  0
  2  7  4  0  0  0  0
  3  4  4  0  0  0  0
  4  5  4  0  0  0  0
  4 10  1  0  0  0  0
  5  6  4  0  0  0  0
  6  7  4  0  0  0  0
  7  8  4  0  0  0  0
  8  9  4  0  0  0  0
 10 11  1  0  0  0  0
 11 12  1  0  0  0  0
 12 13  1  0  0  0  0
 12 26  1  0  0  0  0
 13 14  1  0  0  0  0
 14 15  1  0  0  0  0
 14 19  1  0  0  0  0
 15 16  1  0  0  0  0
 16 17  1  0  0  0  0
 17 18  1  0  0  0  0
 18 19  4  0  0  0  0
 18 23  4  0  0  0  0
 19 20  4  0  0  0  0
 20 21  4  0  0  0  0
 21 22  4  0  0  0  0
 22 23  4  0  0  0  0
 23 24  1  0  0  0  0
 24 25  1  0  0  0  0
M  END
>  <Name_Molregno>
6291

>  <5-HT1A>
7.35

>  <5-HT2A>
6

>  <5-HT2C>
6

>  <Alpha-2A>
8.6

>  <Alpha-2B>
7.96

>  <Alpha-2C>
8.68

>  <DOPAMINE D4>
6.63

>  <HISTAMINE H1>
6

>  <Serotonin transporter>
8.4

$$$$
6446
  Marvin  02231216192D 0   1.00000     0.00000     0

 26 29  0  0  1  0  0  0  0  0999 V2000
   -4.2684    3.4148    0.0000 O   0  0  0  0  0  0  0  0  0
   -4.8815    2.8628    0.0000 C   0  0  0  0  0  0  0  0  0
   -4.8815    2.0378    0.0000 C   0  0  0  0  0  0  0  0  0
   -5.5960    1.6253    0.0000 C   0  0  0  0  0  0  0  0  0
   -6.3104    2.0378    0.0000 C   0  0  0  0  0  0  0  0  0
   -6.3104    2.8628    0.0000 C   0  0  0  0  0  0  0  0  0
   -5.5960    3.2753    0.0000 C   0  0  0  0  0  0  0  0  0
   -5.4244    4.0823    0.0000 O   0  0  0  0  0  0  0  0  0
   -4.6039    4.1685    0.0000 C   0  0  0  0  0  0  0  0  0
   -5.5960    0.8003    0.0000 C   0  0  0  0  0  0  0  0  0
   -4.8815    0.3878    0.0000 C   0  0  0  0  0  0  0  0  0
   -4.8815   -0.4372    0.0000 N   0  0  0  0  0  0  0  0  0
   -4.1670   -0.8497    0.0000 C   0  0  0  0  0  0  0  0  0
   -4.1670   -1.6747    0.0000 C   0  0  0  0  0  0  0  0  0
   -4.8815   -2.0872    0.0000 C   0  0  0  0  0  0  0  0  0
   -4.8815   -2.9122    0.0000 C   0  0  0  0  0  0  0  0  0
   -4.1670   -3.3247    0.0000 C   0  0  0  0  0  0  0  0  0
   -3.4525   -2.9122    0.0000 C   0  0  0  0  0  0  0  0  0
   -3.4525   -2.0872    0.0000 C   0  0  0  0  0  0  0  0  0
   -2.7381   -1.6747    0.0000 C   0  0  0  0  0  0  0  0  0
   -2.0236   -2.0872    0.0000 C   0  0  0  0  0  0  0  0  0
   -2.0236   -2.9122    0.0000 C   0  0  0  0  0  0  0  0  0
   -2.7381   -3.3247    0.0000 C   0  0  0  0  0  0  0  0  0
   -2.7381   -4.1497    0.0000 O   0  0  0  0  0  0  0  0  0
   -2.0236   -4.5622    0.0000 C   0  0  0  0  0  0  0  0  0
   -5.5960   -0.8497    0.0000 C   0  0  0  0  0  0  0  0  0
  1  2  1  0  0  0  0
  1  9  1  0  0  0  0
  2  3  4  0  0  0  0
  2  7  4  0  0  0  0
  3  4  4  0  0  0  0
  4  5  4  0  0  0  0
  4 10  1  0  0  0  0
  5  6  4  0  0  0  0
  6  7  4  0  0  0  0
  7  8  1  0  0  0  0
  8  9  1  0  0  0  0
 10 11  1  0  0  0  0
 11 12  1  0  0  0  0
 12 13  1  0  0  0  0
 12 26  1  0  0  0  0
 13 14  1  0  0  0  0
 14 15  1  0  0  0  0
 14 19  1  0  0  0  0
 15 16  1  0  0  0  0
 16 17  1  0  0  0  0
 17 18  1  0  0  0  0
 18 19  4  0  0  0  0
 18 23  4  0  0  0  0
 19 20  4  0  0  0  0
 20 21  4  0  0  0  0
 21 22  4  0  0  0  0
 22 23  4  0  0  0  0
 23 24  1  0  0  0  0
 24 25  1  0  0  0  0
M  END
>  <Name_Molregno>
6446

>  <5-HT1A>
8.17

$$$$
6593
  Marvin  02231216192D 0   1.00000     0.00000     0

 26 30  0  0  1  0  0  0  0  0999 V2000
    6.3424    1.1120    0.0000 O   0  0  0  0  0  0  0  0  0
    5.8040    0.4869    0.0000 C   0  0  0  0  0  0  0  0  0
    6.0761   -0.2920    0.0000 C   0  0  0  0  0  0  0  0  0
    5.5377   -0.9170    0.0000 C   0  0  0  0  0  0  0  0  0
    4.7272   -0.7633    0.0000 C   0  0  0  0  0  0  0  0  0
    4.4550    0.0155    0.0000 C   0  0  0  0  0  0  0  0  0
    3.6445    0.1692    0.0000 C   0  0  0  0  0  0  0  0  0
    3.1061   -0.4559    0.0000 C   0  0  0  0  0  0  0  0  0
    3.3782   -1.2347    0.0000 N   0  0  0  0  0  0  0  0  0
    4.1888   -1.3884    0.0000 C   0  0  0  0  0  0  0  0  0
    2.8398   -1.8598    0.0000 C   0  0  0  0  0  0  0  0  0
    2.0292   -1.7061    0.0000 C   0  0  0  0  0  0  0  0  0
    1.7571   -0.9272    0.0000 C   0  0  0  0  0  0  0  0  0
    2.2955   -0.3021    0.0000 C   0  0  0  0  0  0  0  0  0
    1.8674    0.4031    0.0000 N   0  0  0  0  0  0  0  0  0
    1.0644    0.2138    0.0000 C   0  0  0  0  0  0  0  0  0
    0.9962   -0.6083    0.0000 C   0  0  0  0  0  0  0  0  0
    0.2501   -0.9604    0.0000 C   0  0  0  0  0  0  0  0  0
   -0.4278   -0.4903    0.0000 C   0  0  0  0  0  0  0  0  0
   -0.3597    0.3319    0.0000 C   0  0  0  0  0  0  0  0  0
    0.3864    0.6840    0.0000 C   0  0  0  0  0  0  0  0  0
    4.9934    0.6406    0.0000 C   0  0  0  0  0  0  0  0  0
    4.7213    1.4194    0.0000 C   0  0  0  0  0  0  0  0  0
    5.2597    2.0445    0.0000 O   0  0  0  0  0  0  0  0  0
    4.9875    2.8233    0.0000 C   0  0  0  0  0  0  0  0  0
    3.9107    1.5731    0.0000 O   0  0  0  0  0  0  0  0  0
  1  2  1  0  0  0  0
  2  3  1  0  0  0  0
  2 22  1  0  0  0  0
  3  4  1  0  0  0  0
  4  5  1  0  0  0  0
  5  6  1  0  0  0  0
  5 10  1  0  0  0  0
  6  7  1  0  0  0  0
  6 22  1  0  0  0  0
  7  8  1  0  0  0  0
  8  9  1  0  0  0  0
  8 14  1  0  0  0  0
  9 10  1  0  0  0  0
  9 11  1  0  0  0  0
 11 12  1  0  0  0  0
 12 13  1  0  0  0  0
 13 14  4  0  0  0  0
 13 17  4  0  0  0  0
 14 15  4  0  0  0  0
 15 16  4  0  0  0  0
 16 17  4  0  0  0  0
 16 21  4  0  0  0  0
 17 18  4  0  0  0  0
 18 19  4  0  0  0  0
 19 20  4  0  0  0  0
 20 21  4  0  0  0  0
 22 23  1  0  0  0  0
 23 24  1  0  0  0  0
 23 26  2  0  0  0  0
 24 25  1  0  0  0  0
M  STY  1   1 DAT
M  SAL   1  1  15
M  SDT   1 MRV_IMPLICIT_H                                        
M  SDD   1     0.0000    0.0000    DR    ALL  0       0  
M  SED   1 IMPL_H1
M  END
>  <Name_Molregno>
6593

>  <5-HT1A>
6.3

>  <5-HT1B>
7.45

>  <5-HT1D>
7.09

>  <5-HT1E>
5.75

>  <5-HT2A>
5.66

>  <5-HT2C>
5.49

>  <5-HT7>
5.55

>  <Alpha-1A>
6.32

>  <Alpha-1B>
6.42

>  <Alpha-2A>
8.74

>  <Alpha-2B>
8.53

>  <Alpha-2C>
9.21

>  <DOPAMINE D1>
5

>  <DOPAMINE D2>
6.48

>  <DOPAMINE D3>
5.5

>  <Serotonin transporter>
6

$$$$
9128
  Marvin  02231216192D 0   1.00000     0.00000     0

 18 19  0  0  1  0  0  0  0  0999 V2000
    1.6714   -3.4629    0.0000 O   0  0  0  0  0  0  0  0  0
    2.3859   -3.0504    0.0000 C   0  0  0  0  0  0  0  0  0
    2.3859   -2.2254    0.0000 C   0  0  0  0  0  0  0  0  0
    1.6714   -1.8129    0.0000 C   0  0  0  0  0  0  0  0  0
    1.6714   -0.9879    0.0000 C   0  0  0  0  0  0  0  0  0
    2.3859   -0.5754    0.0000 C   0  0  0  0  0  0  0  0  0
    2.3859    0.2496    0.0000 N   0  0  0  0  0  0  0  0  0
    1.6714    0.6621    0.0000 C   0  0  0  0  0  0  0  0  0
    1.6714    1.4871    0.0000 C   0  0  0  0  0  0  0  0  0
    0.9569    1.8996    0.0000 C   0  0  0  0  0  0  0  0  0
    3.1003    0.6621    0.0000 C   0  0  0  0  0  0  0  0  0
    3.1003    1.4871    0.0000 C   0  0  0  0  0  0  0  0  0
    3.8148    1.8996    0.0000 C   0  0  0  0  0  0  0  0  0
    3.1003   -0.9879    0.0000 C   0  0  0  0  0  0  0  0  0
    3.1003   -1.8129    0.0000 C   0  0  0  0  0  0  0  0  0
    3.8148   -2.2254    0.0000 C   0  0  0  0  0  0  0  0  0
    3.8148   -3.0504    0.0000 C   0  0  0  0  0  0  0  0  0
    3.1003   -3.4629    0.0000 C   0  0  0  0  0  0  0  0  0
  1  2  1  0  0  0  0
  2  3  4  0  0  0  0
  2 18  4  0  0  0  0
  3  4  1  0  0  0  0
  3 15  4  0  0  0  0
  4  5  1  0  0  0  0
  5  6  1  0  0  0  0
  6  7  1  0  0  0  0
  6 14  1  0  0  0  0
  7  8  1  0  0  0  0
  7 11  1  0  0  0  0
  8  9  1  0  0  0  0
  9 10  1  0  0  0  0
 11 12  1  0  0  0  0
 12 13  1  0  0  0  0
 14 15  1  0  0  0  0
 15 16  4  0  0  0  0
 16 17  4  0  0  0  0
 17 18  4  0  0  0  0
M  END
>  <Name_Molregno>
9128

>  <5-HT1A>
6.46

>  <DOPAMINE D2>
7.23

>  <DOPAMINE D3>
8.61

$$$$
10841
  Marvin  02231216192D 0   1.00000     0.00000     0

 23 24  0  0  1  0  0  0  0  0999 V2000
   -0.0333    0.0014    0.0000 S   0  0  0  0  0  0  0  0  0
    0.3792    0.7158    0.0000 O   0  0  0  0  0  0  0  0  0
   -0.4458   -0.7131    0.0000 O   0  0  0  0  0  0  0  0  0
    0.6812   -0.4111    0.0000 N   0  0  0  0  0  0  0  0  0
    1.3957    0.0014    0.0000 C   0  0  0  0  0  0  0  0  0
    2.1102   -0.4111    0.0000 C   0  0  0  0  0  0  0  0  0
    2.8246    0.0014    0.0000 C   0  0  0  0  0  0  0  0  0
    3.5391   -0.4111    0.0000 N   0  0  0  0  0  0  0  0  0
    4.2536    0.0014    0.0000 C   0  0  0  0  0  0  0  0  0
    4.9680   -0.4111    0.0000 C   0  0  0  0  0  0  0  0  0
    4.9680   -1.2361    0.0000 C   0  0  0  0  0  0  0  0  0
    4.2536   -1.6486    0.0000 C   0  0  0  0  0  0  0  0  0
    3.5391   -1.2361    0.0000 C   0  0  0  0  0  0  0  0  0
    5.6825   -1.6486    0.0000 C   0  0  0  0  0  0  0  0  0
    1.3957    0.8264    0.0000 C   0  0  0  0  0  0  0  0  0
    0.6812   -1.2361    0.0000 C   0  0  0  0  0  0  0  0  0
   -0.7477    0.4139    0.0000 C   0  0  0  0  0  0  0  0  0
   -1.4622    0.0014    0.0000 C   0  0  0  0  0  0  0  0  0
   -2.1767    0.4139    0.0000 C   0  0  0  0  0  0  0  0  0
   -2.1767    1.2389    0.0000 C   0  0  0  0  0  0  0  0  0
   -1.4622    1.6514    0.0000 C   0  0  0  0  0  0  0  0  0
   -0.7477    1.2389    0.0000 C   0  0  0  0  0  0  0  0  0
   -2.8911    0.0014    0.0000 C   0  0  0  0  0  0  0  0  0
  1  2  2  0  0  0  0
  1  3  2  0  0  0  0
  1  4  1  0  0  0  0
  1 17  1  0  0  0  0
  4  5  1  0  0  0  0
  4 16  1  0  0  0  0
  5  6  1  0  0  0  0
  5 15  1  0  0  0  0
  6  7  1  0  0  0  0
  7  8  1  0  0  0  0
  8  9  1  0  0  0  0
  8 13  1  0  0  0  0
  9 10  1  0  0  0  0
 10 11  1  0  0  0  0
 11 12  1  0  0  0  0
 11 14  1  0  0  0  0
 12 13  1  0  0  0  0
 17 18  4  0  0  0  0
 17 22  4  0  0  0  0
 18 19  4  0  0  0  0
 19 20  4  0  0  0  0
 19 23  1  0  0  0  0
 20 21  4  0  0  0  0
 21 22  4  0  0  0  0
M  END
>  <Name_Molregno>
10841

>  <5-HT1A>
5.1

>  <5-HT7>
7.49

>  <DOPAMINE D2>
5.4

$$$$
12871
  Marvin  02231216192D 0   1.00000     0.00000     0

 30 33  0  0  1  0  0  0  0  0999 V2000
   -0.4489    1.5830    0.0000 F   0  0  0  0  0  0  0  0  0
   -0.0364    0.8685    0.0000 C   0  0  0  0  0  0  0  0  0
    0.7886    0.8685    0.0000 C   0  0  0  0  0  0  0  0  0
    1.2011    0.1541    0.0000 C   0  0  0  0  0  0  0  0  0
    2.0261    0.1541    0.0000 F   0  0  0  0  0  0  0  0  0
    0.7886   -0.5604    0.0000 C   0  0  0  0  0  0  0  0  0
    1.2011   -1.2749    0.0000 F   0  0  0  0  0  0  0  0  0
   -0.0364   -0.5604    0.0000 C   0  0  0  0  0  0  0  0  0
   -0.4489    0.1541    0.0000 C   0  0  0  0  0  0  0  0  0
   -1.2739    0.1541    0.0000 N   0  0  0  0  0  0  0  0  0
   -1.6864   -0.5604    0.0000 C   0  0  0  0  0  0  0  0  0
   -2.5114   -0.5604    0.0000 C   0  0  0  0  0  0  0  0  0
   -2.9239    0.1541    0.0000 N   0  0  0  0  0  0  0  0  0
   -2.5114    0.8685    0.0000 C   0  0  0  0  0  0  0  0  0
   -1.6864    0.8685    0.0000 C   0  0  0  0  0  0  0  0  0
   -3.7489    0.1541    0.0000 C   0  0  0  0  0  0  0  0  0
   -4.1614   -0.5604    0.0000 C   0  0  0  0  0  0  0  0  0
   -4.9864   -0.5604    0.0000 N   0  0  0  0  0  0  0  0  0
   -5.3989   -1.2749    0.0000 C   0  0  0  0  0  0  0  0  0
   -4.9864   -1.9893    0.0000 O   0  0  0  0  0  0  0  0  0
   -6.2239   -1.2749    0.0000 C   0  0  0  0  0  0  0  0  0
   -6.6364   -0.5604    0.0000 C   0  0  0  0  0  0  0  0  0
   -6.2239    0.1541    0.0000 C   0  0  0  0  0  0  0  0  0
   -5.3989    0.1541    0.0000 C   0  0  0  0  0  0  0  0  0
   -4.9864    0.8685    0.0000 O   0  0  0  0  0  0  0  0  0
   -7.1213   -1.2278    0.0000 C   0  0  0  0  0  0  0  0  0
   -7.9059   -0.9729    0.0000 C   0  0  0  0  0  0  0  0  0
   -7.9059   -0.1479    0.0000 C   0  0  0  0  0  0  0  0  0
   -7.1213    0.1070    0.0000 C   0  0  0  0  0  0  0  0  0
   -3.7489   -1.2749    0.0000 C   0  0  0  0  0  0  0  0  0
  1  2  1  0  0  0  0
  2  3  4  0  0  0  0
  2  9  4  0  0  0  0
  3  4  4  0  0  0  0
  4  5  1  0  0  0  0
  4  6  4  0  0  0  0
  6  7  1  0  0  0  0
  6  8  4  0  0  0  0
  8  9  4  0  0  0  0
  9 10  1  0  0  0  0
 10 11  1  0  0  0  0
 10 15  1  0  0  0  0
 11 12  1  0  0  0  0
 12 13  1  0  0  0  0
 13 14  1  0  0  0  0
 13 16  1  0  0  0  0
 14 15  1  0  0  0  0
 16 17  1  0  0  0  0
 17 18  1  0  0  0  0
 17 30  1  0  0  0  0
 18 19  1  0  0  0  0
 18 24  1  0  0  0  0
 19 20  2  0  0  0  0
 19 21  1  0  0  0  0
 21 22  1  0  0  0  0
 22 23  1  0  0  0  0
 22 26  1  0  0  0  0
 22 29  1  0  0  0  0
 23 24  1  0  0  0  0
 24 25  2  0  0  0  0
 26 27  1  0  0  0  0
 27 28  1  0  0  0  0
 28 29  1  0  0  0  0
M  END
>  <Name_Molregno>
12871

>  <5-HT1A>
6.52

>  <Alpha-1A>
5.74

>  <Alpha-1B>
6.78

$$$$
12872
  Marvin  02231216192D 0   1.00000     0.00000     0

 28 31  0  0  0  0  0  0  0  0999 V2000
   -0.3424    1.6152    0.0000 O   0  0  0  0  0  0  0  0  0
    0.0701    2.3297    0.0000 C   0  0  0  0  0  0  0  0  0
    0.0701    0.9008    0.0000 C   0  0  0  0  0  0  0  0  0
    0.8951    0.9008    0.0000 C   0  0  0  0  0  0  0  0  0
    1.3076    0.1863    0.0000 C   0  0  0  0  0  0  0  0  0
    0.8951   -0.5282    0.0000 C   0  0  0  0  0  0  0  0  0
    0.0701   -0.5282    0.0000 C   0  0  0  0  0  0  0  0  0
   -0.3424    0.1863    0.0000 C   0  0  0  0  0  0  0  0  0
   -1.1674    0.1863    0.0000 N   0  0  0  0  0  0  0  0  0
   -1.5799   -0.5282    0.0000 C   0  0  0  0  0  0  0  0  0
   -2.4049   -0.5282    0.0000 C   0  0  0  0  0  0  0  0  0
   -2.8174    0.1863    0.0000 N   0  0  0  0  0  0  0  0  0
   -2.4049    0.9008    0.0000 C   0  0  0  0  0  0  0  0  0
   -1.5799    0.9008    0.0000 C   0  0  0  0  0  0  0  0  0
   -3.6424    0.1863    0.0000 C   0  0  0  0  0  0  0  0  0
   -4.0549   -0.5282    0.0000 C   0  0  0  0  0  0  0  0  0
   -4.8799   -0.5282    0.0000 N   0  0  0  0  0  0  0  0  0
   -5.2924   -1.2426    0.0000 C   0  0  0  0  0  0  0  0  0
   -4.8799   -1.9571    0.0000 O   0  0  0  0  0  0  0  0  0
   -6.1174   -1.2426    0.0000 C   0  0  0  0  0  0  0  0  0
   -6.5299   -0.5282    0.0000 C   0  0  0  0  0  0  0  0  0
   -6.1174    0.1863    0.0000 C   0  0  0  0  0  0  0  0  0
   -5.2924    0.1863    0.0000 C   0  0  0  0  0  0  0  0  0
   -4.8799    0.9008    0.0000 O   0  0  0  0  0  0  0  0  0
   -7.0149   -1.1956    0.0000 C   0  0  0  0  0  0  0  0  0
   -7.7995   -0.9407    0.0000 C   0  0  0  0  0  0  0  0  0
   -7.7995   -0.1157    0.0000 C   0  0  0  0  0  0  0  0  0
   -7.0149    0.1393    0.0000 C   0  0  0  0  0  0  0  0  0
  1  2  1  0  0  0  0
  1  3  1  0  0  0  0
  3  4  4  0  0  0  0
  3  8  4  0  0  0  0
  4  5  4  0  0  0  0
  5  6  4  0  0  0  0
  6  7  4  0  0  0  0
  7  8  4  0  0  0  0
  8  9  1  0  0  0  0
  9 10  1  0  0  0  0
  9 14  1  0  0  0  0
 10 11  1  0  0  0  0
 11 12  1  0  0  0  0
 12 13  1  0  0  0  0
 12 15  1  0  0  0  0
 13 14  1  0  0  0  0
 15 16  1  0  0  0  0
 16 17  1  0  0  0  0
 17 18  1  0  0  0  0
 17 23  1  0  0  0  0
 18 19  2  0  0  0  0
 18 20  1  0  0  0  0
 20 21  1  0  0  0  0
 21 22  1  0  0  0  0
 21 25  1  0  0  0  0
 21 28  1  0  0  0  0
 22 23  1  0  0  0  0
 23 24  2  0  0  0  0
 25 26  1  0  0  0  0
 26 27  1  0  0  0  0
 27 28  1  0  0  0  0
M  END
>  <Name_Molregno>
12872

>  <5-HT1A>
9.17

>  <Alpha-1A>
6.55

>  <Alpha-1B>
6.56

$$$$
16396
  Marvin  02231216192D 0   1.00000     0.00000     0

 37 41  0  0  0  0  0  0  0  0999 V2000
    9.4469    5.2044    0.0000 O   0  0  0  0  0  0  0  0  0
    9.1920    4.4198    0.0000 N   0  0  0  0  0  0  0  0  0
    8.3670    4.4198    0.0000 C   0  0  0  0  0  0  0  0  0
    8.1121    5.2044    0.0000 N   0  0  0  0  0  0  0  0  0
    8.7795    5.6894    0.0000 C   0  0  0  0  0  0  0  0  0
    8.7795    6.5144    0.0000 C   0  0  0  0  0  0  0  0  0
    7.8821    3.7524    0.0000 C   0  0  0  0  0  0  0  0  0
    8.2176    2.9987    0.0000 C   0  0  0  0  0  0  0  0  0
    7.7327    2.3313    0.0000 C   0  0  0  0  0  0  0  0  0
    8.0683    1.5776    0.0000 C   0  0  0  0  0  0  0  0  0
    6.9122    2.4175    0.0000 C   0  0  0  0  0  0  0  0  0
    6.5767    3.1712    0.0000 C   0  0  0  0  0  0  0  0  0
    7.0616    3.8386    0.0000 C   0  0  0  0  0  0  0  0  0
    6.4273    1.7501    0.0000 C   0  0  0  0  0  0  0  0  0
    6.7629    0.9964    0.0000 C   0  0  0  0  0  0  0  0  0
    6.2779    0.3289    0.0000 C   0  0  0  0  0  0  0  0  0
    5.4575    0.4152    0.0000 C   0  0  0  0  0  0  0  0  0
    5.1219    1.1689    0.0000 C   0  0  0  0  0  0  0  0  0
    5.6068    1.8363    0.0000 C   0  0  0  0  0  0  0  0  0
    4.9725   -0.2523    0.0000 C   0  0  0  0  0  0  0  0  0
    4.1521   -0.1660    0.0000 O   0  0  0  0  0  0  0  0  0
    5.3081   -1.0059    0.0000 N   0  0  0  0  0  0  0  0  0
    4.8232   -1.6734    0.0000 C   0  0  0  0  0  0  0  0  0
    5.1587   -2.4270    0.0000 C   0  0  0  0  0  0  0  0  0
    4.6738   -3.0945    0.0000 C   0  0  0  0  0  0  0  0  0
    5.0094   -3.8482    0.0000 N   0  0  0  0  0  0  0  0  0
    5.8298   -3.9344    0.0000 C   0  0  0  0  0  0  0  0  0
    6.1654   -4.6881    0.0000 C   0  0  0  0  0  0  0  0  0
    5.6805   -5.3555    0.0000 N   0  0  0  0  0  0  0  0  0
    4.8600   -5.2693    0.0000 C   0  0  0  0  0  0  0  0  0
    4.5244   -4.5156    0.0000 C   0  0  0  0  0  0  0  0  0
    6.0160   -6.1092    0.0000 C   0  0  0  0  0  0  0  0  0
    3.8533   -3.0082    0.0000 C   0  0  0  0  0  0  0  0  0
    3.3684   -3.6757    0.0000 O   0  0  0  0  0  0  0  0  0
    2.5479   -3.5894    0.0000 C   0  0  0  0  0  0  0  0  0
    3.5178   -2.2546    0.0000 C   0  0  0  0  0  0  0  0  0
    4.0027   -1.5871    0.0000 C   0  0  0  0  0  0  0  0  0
  1  2  4  0  0  0  0
  1  5  4  0  0  0  0
  2  3  4  0  0  0  0
  3  4  4  0  0  0  0
  3  7  1  0  0  0  0
  4  5  4  0  0  0  0
  5  6  1  0  0  0  0
  7  8  4  0  0  0  0
  7 13  4  0  0  0  0
  8  9  4  0  0  0  0
  9 10  1  0  0  0  0
  9 11  4  0  0  0  0
 11 12  4  0  0  0  0
 11 14  1  0  0  0  0
 12 13  4  0  0  0  0
 14 15  4  0  0  0  0
 14 19  4  0  0  0  0
 15 16  4  0  0  0  0
 16 17  4  0  0  0  0
 17 18  4  0  0  0  0
 17 20  1  0  0  0  0
 18 19  4  0  0  0  0
 20 21  2  0  0  0  0
 20 22  1  0  0  0  0
 22 23  1  0  0  0  0
 23 24  4  0  0  0  0
 23 37  4  0  0  0  0
 24 25  4  0  0  0  0
 25 26  1  0  0  0  0
 25 33  4  0  0  0  0
 26 27  1  0  0  0  0
 26 31  1  0  0  0  0
 27 28  1  0  0  0  0
 28 29  1  0  0  0  0
 29 30  1  0  0  0  0
 29 32  1  0  0  0  0
 30 31  1  0  0  0  0
 33 34  1  0  0  0  0
 33 36  4  0  0  0  0
 34 35  1  0  0  0  0
 36 37  4  0  0  0  0
M  END
>  <Name_Molregno>
16396

>  <5-HT1A>
7.14

>  <5-HT1B>
9.05

>  <5-HT1D>
8.78

>  <5-HT1E>
5.4

>  <5-HT2A>
7.59

>  <5-HT2C>
6.99

>  <5-HT5>
5.2

>  <5-HT6>
5.27

>  <5-HT7>
5.4

>  <DOPAMINE D1>
5

>  <DOPAMINE D2>
5

>  <DOPAMINE D3>
5

>  <DOPAMINE D4>
5

>  <DOPAMINE D5>
5

>  <HISTAMINE H1>
5

>  <Muscarinic acetylcholine receptor M1>
5

>  <Muscarinic acetylcholine receptor M2>
5

>  <Muscarinic acetylcholine receptor M3>
5

>  <Muscarinic acetylcholine receptor M4>
5

>  <Muscarinic acetylcholine receptor M5>
5

$$$$
21325
  Marvin  02231216192D 0   1.00000     0.00000     0

 15 16  0  0  0  0  0  0  0  0999 V2000
    0.7633   -0.9168    0.0000 O   0  0  0  0  0  0  0  0  0
    0.0489   -1.3293    0.0000 C   0  0  0  0  0  0  0  0  0
    0.0489   -2.1543    0.0000 N   0  0  0  0  0  0  0  0  0
   -0.6656   -0.9168    0.0000 C   0  0  0  0  0  0  0  0  0
   -1.3801   -1.3293    0.0000 C   0  0  0  0  0  0  0  0  0
   -2.0946   -0.9168    0.0000 C   0  0  0  0  0  0  0  0  0
   -2.0946   -0.0918    0.0000 C   0  0  0  0  0  0  0  0  0
   -2.8792    0.1632    0.0000 N   0  0  0  0  0  0  0  0  0
   -3.3641   -0.5043    0.0000 C   0  0  0  0  0  0  0  0  0
   -2.8792   -1.1717    0.0000 C   0  0  0  0  0  0  0  0  0
   -3.1341   -1.9563    0.0000 C   0  0  0  0  0  0  0  0  0
   -3.9411   -2.1279    0.0000 C   0  0  0  0  0  0  0  0  0
   -4.1960   -2.9125    0.0000 N   0  0  0  0  0  0  0  0  0
   -1.3801    0.3207    0.0000 C   0  0  0  0  0  0  0  0  0
   -0.6656   -0.0918    0.0000 C   0  0  0  0  0  0  0  0  0
  1  2  2  0  0  0  0
  2  3  1  0  0  0  0
  2  4  1  0  0  0  0
  4  5  4  0  0  0  0
  4 15  4  0  0  0  0
  5  6  4  0  0  0  0
  6  7  4  0  0  0  0
  6 10  4  0  0  0  0
  7  8  4  0  0  0  0
  7 14  4  0  0  0  0
  8  9  4  0  0  0  0
  9 10  4  0  0  0  0
 10 11  1  0  0  0  0
 11 12  1  0  0  0  0
 12 13  1  0  0  0  0
 14 15  4  0  0  0  0
M  STY  1   1 DAT
M  SAL   1  1   8
M  SDT   1 MRV_IMPLICIT_H                                        
M  SDD   1     0.0000    0.0000    DR    ALL  0       0  
M  SED   1 IMPL_H1
M  END
>  <Name_Molregno>
21325

>  <5-HT1A>
8.99

>  <5-HT1B>
8.91

>  <5-HT1D>
9.01

>  <5-HT1E>
5.37

>  <5-HT2A>
6.38

>  <5-HT2C>
6.15

>  <5-HT5>
7.7

>  <5-HT6>
6.29

>  <5-HT7>
9.22

$$$$
21432
  Marvin  02231216192D 0   1.00000     0.00000     0

 16 18  0  0  0  0  0  0  0  0999 V2000
    1.8647   -2.8014    0.0000 N   0  0  0  0  0  0  0  0  0
    1.1503   -2.3889    0.0000 C   0  0  0  0  0  0  0  0  0
    1.1503   -1.5639    0.0000 C   0  0  0  0  0  0  0  0  0
    1.8647   -1.1514    0.0000 N   0  0  0  0  0  0  0  0  0
    2.5792   -1.5639    0.0000 C   0  0  0  0  0  0  0  0  0
    2.5792   -2.3889    0.0000 C   0  0  0  0  0  0  0  0  0
    1.8647   -0.3264    0.0000 C   0  0  0  0  0  0  0  0  0
    2.5792    0.0861    0.0000 C   0  0  0  0  0  0  0  0  0
    2.5792    0.9111    0.0000 C   0  0  0  0  0  0  0  0  0
    1.8647    1.3236    0.0000 C   0  0  0  0  0  0  0  0  0
    1.1503    0.9111    0.0000 C   0  0  0  0  0  0  0  0  0
    1.1503    0.0861    0.0000 C   0  0  0  0  0  0  0  0  0
    3.2937    1.3236    0.0000 C   0  0  0  0  0  0  0  0  0
    4.0081    0.9111    0.0000 C   0  0  0  0  0  0  0  0  0
    4.0081    0.0861    0.0000 C   0  0  0  0  0  0  0  0  0
    3.2937   -0.3264    0.0000 C   0  0  0  0  0  0  0  0  0
  1  2  1  0  0  0  0
  1  6  1  0  0  0  0
  2  3  1  0  0  0  0
  3  4  1  0  0  0  0
  4  5  1  0  0  0  0
  4  7  1  0  0  0  0
  5  6  1  0  0  0  0
  7  8  4  0  0  0  0
  7 12  4  0  0  0  0
  8  9  4  0  0  0  0
  8 16  4  0  0  0  0
  9 10  4  0  0  0  0
  9 13  4  0  0  0  0
 10 11  4  0  0  0  0
 11 12  4  0  0  0  0
 13 14  4  0  0  0  0
 14 15  4  0  0  0  0
 15 16  4  0  0  0  0
M  END
>  <Name_Molregno>
21432

>  <5-HT1A>
8.04

>  <5-HT1B>
8.02

>  <5-HT1D>
8.09

>  <5-HT1E>
6.68

>  <5-HT6>
6.96

>  <5-HT7>
7.08

$$$$
21433
  Marvin  02231216192D 0   1.00000     0.00000     0

 16 18  0  0  0  0  0  0  0  0999 V2000
   -5.1872   -0.9630    0.0000 N   0  0  0  0  0  0  0  0  0
   -5.1872   -0.1380    0.0000 C   0  0  0  0  0  0  0  0  0
   -4.4727    0.2745    0.0000 C   0  0  0  0  0  0  0  0  0
   -3.7582   -0.1380    0.0000 N   0  0  0  0  0  0  0  0  0
   -3.7582   -0.9630    0.0000 C   0  0  0  0  0  0  0  0  0
   -4.4727   -1.3755    0.0000 C   0  0  0  0  0  0  0  0  0
   -3.0437    0.2745    0.0000 C   0  0  0  0  0  0  0  0  0
   -2.3293   -0.1380    0.0000 C   0  0  0  0  0  0  0  0  0
   -1.6148    0.2745    0.0000 C   0  0  0  0  0  0  0  0  0
   -1.6148    1.0995    0.0000 C   0  0  0  0  0  0  0  0  0
   -2.3293    1.5120    0.0000 C   0  0  0  0  0  0  0  0  0
   -3.0437    1.0995    0.0000 C   0  0  0  0  0  0  0  0  0
   -0.9003    1.5120    0.0000 C   0  0  0  0  0  0  0  0  0
   -0.1859    1.0995    0.0000 C   0  0  0  0  0  0  0  0  0
   -0.1859    0.2745    0.0000 C   0  0  0  0  0  0  0  0  0
   -0.9003   -0.1380    0.0000 C   0  0  0  0  0  0  0  0  0
  1  2  1  0  0  0  0
  1  6  1  0  0  0  0
  2  3  1  0  0  0  0
  3  4  1  0  0  0  0
  4  5  1  0  0  0  0
  4  7  1  0  0  0  0
  5  6  1  0  0  0  0
  7  8  4  0  0  0  0
  7 12  4  0  0  0  0
  8  9  4  0  0  0  0
  9 10  4  0  0  0  0
  9 16  4  0  0  0  0
 10 11  4  0  0  0  0
 10 13  4  0  0  0  0
 11 12  4  0  0  0  0
 13 14  4  0  0  0  0
 14 15  4  0  0  0  0
 15 16  4  0  0  0  0
M  END
>  <Name_Molregno>
21433

>  <5-HT1A>
8.04

>  <5-HT1B>
8

>  <5-HT1D>
8.21

$$$$
22470
  Marvin  02231216192D 0   1.00000     0.00000     0

 22 24  0  0  1  0  0  0  0  0999 V2000
    1.4966    1.5869    0.0000 O   0  0  0  0  0  0  0  0  0
    2.2110    1.1744    0.0000 C   0  0  0  0  0  0  0  0  0
    2.2110    0.3494    0.0000 C   0  0  0  0  0  0  0  0  0
    2.9255   -0.0631    0.0000 C   0  0  0  0  0  0  0  0  0
    2.9255   -0.8881    0.0000 C   0  0  0  0  0  0  0  0  0
    2.2110   -1.3006    0.0000 N   0  0  0  0  0  0  0  0  0
    1.4966   -0.8881    0.0000 C   0  0  0  0  0  0  0  0  0
    1.4966   -0.0631    0.0000 C   0  0  0  0  0  0  0  0  0
    2.2110   -2.1256    0.0000 C   0  0  0  0  0  0  0  0  0
    1.4966   -2.5381    0.0000 C   0  0  0  0  0  0  0  0  0
    1.4966   -3.3631    0.0000 C   0  0  0  0  0  0  0  0  0
    2.2110   -3.7756    0.0000 C   0  0  0  0  0  0  0  0  0
    2.2110   -4.6006    0.0000 C   0  0  0  0  0  0  0  0  0
    1.4966   -5.0131    0.0000 C   0  0  0  0  0  0  0  0  0
    0.7821   -4.6006    0.0000 C   0  0  0  0  0  0  0  0  0
    0.7821   -3.7756    0.0000 C   0  0  0  0  0  0  0  0  0
    2.9255    1.5869    0.0000 C   0  0  0  0  0  0  0  0  0
    2.9255    2.4119    0.0000 C   0  0  0  0  0  0  0  0  0
    3.6400    2.8244    0.0000 C   0  0  0  0  0  0  0  0  0
    4.3544    2.4119    0.0000 C   0  0  0  0  0  0  0  0  0
    4.3544    1.5869    0.0000 C   0  0  0  0  0  0  0  0  0
    3.6400    1.1744    0.0000 C   0  0  0  0  0  0  0  0  0
  1  2  1  0  0  0  0
  2  3  1  0  0  0  0
  2 17  1  0  0  0  0
  3  4  1  0  0  0  0
  3  8  1  0  0  0  0
  4  5  1  0  0  0  0
  5  6  1  0  0  0  0
  6  7  1  0  0  0  0
  6  9  1  0  0  0  0
  7  8  1  0  0  0  0
  9 10  1  0  0  0  0
 10 11  1  0  0  0  0
 11 12  4  0  0  0  0
 11 16  4  0  0  0  0
 12 13  4  0  0  0  0
 13 14  4  0  0  0  0
 14 15  4  0  0  0  0
 15 16  4  0  0  0  0
 17 18  4  0  0  0  0
 17 22  4  0  0  0  0
 18 19  4  0  0  0  0
 19 20  4  0  0  0  0
 20 21  4  0  0  0  0
 21 22  4  0  0  0  0
M  END
>  <Name_Molregno>
22470

>  <5-HT1A>
5.47

>  <5-HT2A>
8.13

>  <5-HT2C>
6.28

>  <5-HT6>
5.56

>  <Alpha-1A>
5.73

>  <Alpha-1B>
5.8

>  <Alpha-2A>
5.8

>  <Alpha-2C>
5.93

>  <DOPAMINE D1>
6.49

>  <DOPAMINE D4>
5.41

>  <DOPAMINE D5>
5.54

>  <Dopamine transporter>
5

>  <HISTAMINE H1>
5.79

>  <Norepinephrine transporter>
5

>  <Serotonin transporter>
5.59

$$$$
26118
  Marvin  02231216192D 0   1.00000     0.00000     0

 39 45  0  0  0  0  0  0  0  0999 V2000
   -1.4437   -5.0537    0.0000 O   0  0  0  0  0  0  0  0  0
   -2.2211   -4.7775    0.0000 N   0  0  0  0  0  0  0  0  0
   -2.1987   -3.9528    0.0000 C   0  0  0  0  0  0  0  0  0
   -1.4074   -3.7193    0.0000 N   0  0  0  0  0  0  0  0  0
   -0.9408   -4.3997    0.0000 C   0  0  0  0  0  0  0  0  0
   -0.1161   -4.4221    0.0000 C   0  0  0  0  0  0  0  0  0
   -2.8527   -3.4499    0.0000 C   0  0  0  0  0  0  0  0  0
   -3.6152   -3.7648    0.0000 C   0  0  0  0  0  0  0  0  0
   -4.2692   -3.2619    0.0000 C   0  0  0  0  0  0  0  0  0
   -5.0317   -3.5769    0.0000 C   0  0  0  0  0  0  0  0  0
   -4.1607   -2.4441    0.0000 C   0  0  0  0  0  0  0  0  0
   -3.3981   -2.1292    0.0000 C   0  0  0  0  0  0  0  0  0
   -2.7441   -2.6321    0.0000 C   0  0  0  0  0  0  0  0  0
   -4.8147   -1.9412    0.0000 C   0  0  0  0  0  0  0  0  0
   -5.5772   -2.2561    0.0000 C   0  0  0  0  0  0  0  0  0
   -6.2312   -1.7532    0.0000 C   0  0  0  0  0  0  0  0  0
   -6.1227   -0.9354    0.0000 C   0  0  0  0  0  0  0  0  0
   -5.3601   -0.6205    0.0000 C   0  0  0  0  0  0  0  0  0
   -4.7061   -1.1234    0.0000 C   0  0  0  0  0  0  0  0  0
   -6.7767   -0.4325    0.0000 C   0  0  0  0  0  0  0  0  0
   -7.5392   -0.7474    0.0000 O   0  0  0  0  0  0  0  0  0
   -6.6681    0.3853    0.0000 N   0  0  0  0  0  0  0  0  0
   -5.9427    0.7783    0.0000 C   0  0  0  0  0  0  0  0  0
   -6.0922    1.5896    0.0000 C   0  0  0  0  0  0  0  0  0
   -6.9101    1.6981    0.0000 C   0  0  0  0  0  0  0  0  0
   -7.2660    0.9539    0.0000 C   0  0  0  0  0  0  0  0  0
   -8.0885    0.8900    0.0000 C   0  0  0  0  0  0  0  0  0
   -8.5551    1.5704    0.0000 C   0  0  0  0  0  0  0  0  0
   -8.1992    2.3146    0.0000 C   0  0  0  0  0  0  0  0  0
   -8.7970    2.8831    0.0000 O   0  0  0  0  0  0  0  0  0
   -9.5224    2.4902    0.0000 C   0  0  0  0  0  0  0  0  0
   -9.3729    1.6789    0.0000 C   0  0  0  0  0  0  0  0  0
   -9.1394    0.8876    0.0000 C   0  0  0  0  0  0  0  0  0
   -9.7079    0.2898    0.0000 C   0  0  0  0  0  0  0  0  0
  -10.5099    0.4832    0.0000 N   0  0  0  0  0  0  0  0  0
  -10.7434    1.2745    0.0000 C   0  0  0  0  0  0  0  0  0
  -10.1749    1.8723    0.0000 C   0  0  0  0  0  0  0  0  0
  -11.0785   -0.1147    0.0000 C   0  0  0  0  0  0  0  0  0
   -7.3766    2.3785    0.0000 C   0  0  0  0  0  0  0  0  0
  1  2  4  0  0  0  0
  1  5  4  0  0  0  0
  2  3  4  0  0  0  0
  3  4  4  0  0  0  0
  3  7  1  0  0  0  0
  4  5  4  0  0  0  0
  5  6  1  0  0  0  0
  7  8  4  0  0  0  0
  7 13  4  0  0  0  0
  8  9  4  0  0  0  0
  9 10  1  0  0  0  0
  9 11  4  0  0  0  0
 11 12  4  0  0  0  0
 11 14  1  0  0  0  0
 12 13  4  0  0  0  0
 14 15  4  0  0  0  0
 14 19  4  0  0  0  0
 15 16  4  0  0  0  0
 16 17  4  0  0  0  0
 17 18  4  0  0  0  0
 17 20  1  0  0  0  0
 18 19  4  0  0  0  0
 20 21  2  0  0  0  0
 20 22  1  0  0  0  0
 22 23  1  0  0  0  0
 22 26  1  0  0  0  0
 23 24  1  0  0  0  0
 24 25  1  0  0  0  0
 25 26  4  0  0  0  0
 25 39  4  0  0  0  0
 26 27  4  0  0  0  0
 27 28  4  0  0  0  0
 28 29  4  0  0  0  0
 28 32  1  0  0  0  0
 29 30  1  0  0  0  0
 29 39  4  0  0  0  0
 30 31  1  0  0  0  0
 31 32  1  0  0  0  0
 32 33  1  0  0  0  0
 32 37  1  0  0  0  0
 33 34  1  0  0  0  0
 34 35  1  0  0  0  0
 35 36  1  0  0  0  0
 35 38  1  0  0  0  0
 36 37  1  0  0  0  0
M  END
>  <Name_Molregno>
26118

>  <5-HT1A>
6

>  <5-HT1B>
8.1

>  <5-HT1D>
6.36

>  <5-HT1E>
5

>  <5-HT2A>
5.67

>  <5-HT2C>
5.95

>  <5-HT6>
5.67

>  <5-HT7>
6

$$$$
26180
  Marvin  02231216192D 0   1.00000     0.00000     0

 36 39  0  0  0  0  0  0  0  0999 V2000
    9.1536    3.6599    0.0000 O   0  0  0  0  0  0  0  0  0
    8.8986    2.8753    0.0000 N   0  0  0  0  0  0  0  0  0
    8.0736    2.8753    0.0000 C   0  0  0  0  0  0  0  0  0
    7.8187    3.6599    0.0000 N   0  0  0  0  0  0  0  0  0
    8.4861    4.1448    0.0000 C   0  0  0  0  0  0  0  0  0
    8.4861    4.9698    0.0000 C   0  0  0  0  0  0  0  0  0
    7.5887    2.2078    0.0000 C   0  0  0  0  0  0  0  0  0
    7.9243    1.4542    0.0000 C   0  0  0  0  0  0  0  0  0
    7.4393    0.7867    0.0000 C   0  0  0  0  0  0  0  0  0
    7.7749    0.0330    0.0000 C   0  0  0  0  0  0  0  0  0
    6.6189    0.8730    0.0000 C   0  0  0  0  0  0  0  0  0
    6.2833    1.6266    0.0000 C   0  0  0  0  0  0  0  0  0
    6.7682    2.2941    0.0000 C   0  0  0  0  0  0  0  0  0
    6.1339    0.2055    0.0000 C   0  0  0  0  0  0  0  0  0
    6.4695   -0.5482    0.0000 C   0  0  0  0  0  0  0  0  0
    5.9846   -1.2156    0.0000 C   0  0  0  0  0  0  0  0  0
    5.1641   -1.1294    0.0000 C   0  0  0  0  0  0  0  0  0
    4.8285   -0.3757    0.0000 C   0  0  0  0  0  0  0  0  0
    5.3134    0.2918    0.0000 C   0  0  0  0  0  0  0  0  0
    4.6792   -1.7968    0.0000 C   0  0  0  0  0  0  0  0  0
    3.8587   -1.7106    0.0000 O   0  0  0  0  0  0  0  0  0
    5.0147   -2.5505    0.0000 N   0  0  0  0  0  0  0  0  0
    4.5298   -3.2179    0.0000 C   0  0  0  0  0  0  0  0  0
    4.8654   -3.9716    0.0000 C   0  0  0  0  0  0  0  0  0
    4.3804   -4.6390    0.0000 C   0  0  0  0  0  0  0  0  0
    4.7160   -5.3927    0.0000 O   0  0  0  0  0  0  0  0  0
    4.2311   -6.0601    0.0000 C   0  0  0  0  0  0  0  0  0
    4.5666   -6.8138    0.0000 C   0  0  0  0  0  0  0  0  0
    4.0817   -7.4813    0.0000 N   0  0  0  0  0  0  0  0  0
    4.4173   -8.2349    0.0000 C   0  0  0  0  0  0  0  0  0
    3.2612   -7.3950    0.0000 C   0  0  0  0  0  0  0  0  0
    3.5600   -4.5528    0.0000 C   0  0  0  0  0  0  0  0  0
    3.0750   -5.2202    0.0000 O   0  0  0  0  0  0  0  0  0
    2.2545   -5.1340    0.0000 C   0  0  0  0  0  0  0  0  0
    3.2244   -3.7991    0.0000 C   0  0  0  0  0  0  0  0  0
    3.7093   -3.1317    0.0000 C   0  0  0  0  0  0  0  0  0
  1  2  4  0  0  0  0
  1  5  4  0  0  0  0
  2  3  4  0  0  0  0
  3  4  4  0  0  0  0
  3  7  1  0  0  0  0
  4  5  4  0  0  0  0
  5  6  1  0  0  0  0
  7  8  4  0  0  0  0
  7 13  4  0  0  0  0
  8  9  4  0  0  0  0
  9 10  1  0  0  0  0
  9 11  4  0  0  0  0
 11 12  4  0  0  0  0
 11 14  1  0  0  0  0
 12 13  4  0  0  0  0
 14 15  4  0  0  0  0
 14 19  4  0  0  0  0
 15 16  4  0  0  0  0
 16 17  4  0  0  0  0
 17 18  4  0  0  0  0
 17 20  1  0  0  0  0
 18 19  4  0  0  0  0
 20 21  2  0  0  0  0
 20 22  1  0  0  0  0
 22 23  1  0  0  0  0
 23 24  4  0  0  0  0
 23 36  4  0  0  0  0
 24 25  4  0  0  0  0
 25 26  1  0  0  0  0
 25 32  4  0  0  0  0
 26 27  1  0  0  0  0
 27 28  1  0  0  0  0
 28 29  1  0  0  0  0
 29 30  1  0  0  0  0
 29 31  1  0  0  0  0
 32 33  1  0  0  0  0
 32 35  4  0  0  0  0
 33 34  1  0  0  0  0
 35 36  4  0  0  0  0
M  END
>  <Name_Molregno>
26180

>  <5-HT1A>
6.3

>  <5-HT1B>
8.7

>  <5-HT1D>
7.67

>  <5-HT1E>
6

>  <5-HT2A>
7.3

>  <5-HT2C>
6.8

>  <5-HT6>
5.5

>  <5-HT7>
5

$$$$
26653
  Marvin  02231216192D 0   1.00000     0.00000     0

 19 20  0  0  0  0  0  0  0  0999 V2000
   -1.2820   -3.8402    0.0000 S   0  0  0  0  0  0  0  0  0
   -1.6945   -3.1258    0.0000 N   0  0  0  0  0  0  0  0  0
   -1.1424   -2.5127    0.0000 C   0  0  0  0  0  0  0  0  0
   -1.3140   -1.7057    0.0000 C   0  0  0  0  0  0  0  0  0
   -2.0986   -1.4508    0.0000 C   0  0  0  0  0  0  0  0  0
   -2.2701   -0.6438    0.0000 N   0  0  0  0  0  0  0  0  0
   -1.6570   -0.0918    0.0000 C   0  0  0  0  0  0  0  0  0
   -0.8724   -0.3467    0.0000 C   0  0  0  0  0  0  0  0  0
   -0.7009   -1.1537    0.0000 C   0  0  0  0  0  0  0  0  0
   -3.0547   -0.3889    0.0000 C   0  0  0  0  0  0  0  0  0
   -0.3888   -2.8482    0.0000 C   0  0  0  0  0  0  0  0  0
    0.3257   -2.4357    0.0000 O   0  0  0  0  0  0  0  0  0
    1.0402   -2.8482    0.0000 C   0  0  0  0  0  0  0  0  0
    1.7547   -2.4357    0.0000 C   0  0  0  0  0  0  0  0  0
    2.4691   -2.8482    0.0000 C   0  0  0  0  0  0  0  0  0
    3.1836   -2.4357    0.0000 C   0  0  0  0  0  0  0  0  0
    3.8981   -2.8482    0.0000 C   0  0  0  0  0  0  0  0  0
    4.6125   -2.4357    0.0000 C   0  0  0  0  0  0  0  0  0
   -0.4750   -3.6687    0.0000 N   0  0  0  0  0  0  0  0  0
  1  2  4  0  0  0  0
  1 19  4  0  0  0  0
  2  3  4  0  0  0  0
  3  4  1  0  0  0  0
  3 11  4  0  0  0  0
  4  5  1  0  0  0  0
  4  9  2  0  0  0  0
  5  6  1  0  0  0  0
  6  7  1  0  0  0  0
  6 10  1  0  0  0  0
  7  8  1  0  0  0  0
  8  9  1  0  0  0  0
 11 12  1  0  0  0  0
 11 19  4  0  0  0  0
 12 13  1  0  0  0  0
 13 14  1  0  0  0  0
 14 15  1  0  0  0  0
 15 16  1  0  0  0  0
 16 17  1  0  0  0  0
 17 18  1  0  0  0  0
M  END
>  <Name_Molregno>
26653

>  <5-HT1A>
7.2

>  <5-HT1B>
7.3

>  <5-HT1D>
8.2

>  <5-HT1E>
5.6

>  <5-HT2A>
6.9

>  <5-HT2C>
7.4

>  <5-HT6>
5.9

>  <5-HT7>
6.9

>  <Alpha-1B>
5.8

>  <DOPAMINE D2>
6

>  <DOPAMINE D3>
6.4

>  <Muscarinic acetylcholine receptor M1>
6.52

>  <Muscarinic acetylcholine receptor M2>
7.1

>  <Muscarinic acetylcholine receptor M3>
7.25

>  <Muscarinic acetylcholine receptor M4>
7.55

>  <Muscarinic acetylcholine receptor M5>
6.32

$$$$
28553
  Marvin  02231216192D 0   1.00000     0.00000     0

 19 20  0  0  1  0  0  0  0  0999 V2000
   -1.5258   -3.4924    0.0000 F   0  0  0  0  0  0  0  0  0
   -2.2402   -3.0799    0.0000 C   0  0  0  0  0  0  0  0  0
   -2.2402   -2.2549    0.0000 C   0  0  0  0  0  0  0  0  0
   -2.9547   -1.8424    0.0000 C   0  0  0  0  0  0  0  0  0
   -2.9547   -1.0174    0.0000 C   0  0  0  0  0  0  0  0  0
   -2.2402   -0.6049    0.0000 C   0  0  0  0  0  0  0  0  0
   -2.2402    0.2201    0.0000 N   0  0  0  0  0  0  0  0  0
   -2.9547    0.6326    0.0000 C   0  0  0  0  0  0  0  0  0
   -2.9547    1.4576    0.0000 C   0  0  0  0  0  0  0  0  0
   -3.6692    1.8701    0.0000 C   0  0  0  0  0  0  0  0  0
   -1.5258    0.6326    0.0000 C   0  0  0  0  0  0  0  0  0
   -1.5258    1.4576    0.0000 C   0  0  0  0  0  0  0  0  0
   -0.8113    1.8701    0.0000 C   0  0  0  0  0  0  0  0  0
   -1.5258   -1.0174    0.0000 C   0  0  0  0  0  0  0  0  0
   -1.5258   -1.8424    0.0000 C   0  0  0  0  0  0  0  0  0
   -3.6692   -2.2549    0.0000 C   0  0  0  0  0  0  0  0  0
   -4.3836   -1.8424    0.0000 O   0  0  0  0  0  0  0  0  0
   -3.6692   -3.0799    0.0000 C   0  0  0  0  0  0  0  0  0
   -2.9547   -3.4924    0.0000 C   0  0  0  0  0  0  0  0  0
  1  2  1  0  0  0  0
  2  3  4  0  0  0  0
  2 19  4  0  0  0  0
  3  4  4  0  0  0  0
  3 15  1  0  0  0  0
  4  5  1  0  0  0  0
  4 16  4  0  0  0  0
  5  6  1  0  0  0  0
  6  7  1  0  0  0  0
  6 14  1  0  0  0  0
  7  8  1  0  0  0  0
  7 11  1  0  0  0  0
  8  9  1  0  0  0  0
  9 10  1  0  0  0  0
 11 12  1  0  0  0  0
 12 13  1  0  0  0  0
 14 15  1  0  0  0  0
 16 17  1  0  0  0  0
 16 18  4  0  0  0  0
 18 19  4  0  0  0  0
M  END
>  <Name_Molregno>
28553

>  <5-HT1A>
7.06

$$$$
32833
  Marvin  02231216192D 0   1.00000     0.00000     0

 17 19  0  0  1  0  0  0  0  0999 V2000
   -1.6280    0.0143    0.0000 O   0  0  0  0  0  0  0  0  0
   -2.0179   -0.7127    0.0000 C   0  0  0  0  0  0  0  0  0
   -1.5833   -1.4139    0.0000 C   0  0  0  0  0  0  0  0  0
   -0.7587   -1.3882    0.0000 C   0  0  0  0  0  0  0  0  0
   -0.3241   -2.0894    0.0000 C   0  0  0  0  0  0  0  0  0
    0.4771   -1.8928    0.0000 N   0  0  0  0  0  0  0  0  0
    0.5377   -1.0700    0.0000 C   0  0  0  0  0  0  0  0  0
   -0.2261   -0.7581    0.0000 C   0  0  0  0  0  0  0  0  0
    1.1071   -2.4254    0.0000 C   0  0  0  0  0  0  0  0  0
    1.8834   -2.1461    0.0000 C   0  0  0  0  0  0  0  0  0
    2.5134   -2.6787    0.0000 C   0  0  0  0  0  0  0  0  0
   -0.7141   -2.8164    0.0000 C   0  0  0  0  0  0  0  0  0
   -1.5387   -2.8422    0.0000 C   0  0  0  0  0  0  0  0  0
   -1.9733   -2.1409    0.0000 C   0  0  0  0  0  0  0  0  0
   -2.7979   -2.1667    0.0000 C   0  0  0  0  0  0  0  0  0
   -3.2325   -1.4654    0.0000 C   0  0  0  0  0  0  0  0  0
   -2.8425   -0.7384    0.0000 C   0  0  0  0  0  0  0  0  0
  1  2  1  0  0  0  0
  2  3  4  0  0  0  0
  2 17  4  0  0  0  0
  3  4  1  0  0  0  0
  3 14  4  0  0  0  0
  4  5  1  0  0  0  0
  4  8  1  0  0  0  0
  5  6  1  0  0  0  0
  5 12  1  0  0  0  0
  6  7  1  0  0  0  0
  6  9  1  0  0  0  0
  7  8  1  0  0  0  0
  9 10  1  0  0  0  0
 10 11  1  0  0  0  0
 12 13  1  0  0  0  0
 13 14  1  0  0  0  0
 14 15  4  0  0  0  0
 15 16  4  0  0  0  0
 16 17  4  0  0  0  0
M  END
>  <Name_Molregno>
32833

>  <5-HT1A>
9.7

>  <5-HT2A>
5.79

>  <5-HT2C>
5.79

>  <DOPAMINE D3>
5.32

>  <DOPAMINE D4>
5.39

$$$$
33675
  Marvin  02231216192D 0   1.00000     0.00000     0

 25 27  0  0  1  0  0  0  0  0999 V2000
   -4.9087    1.2684    0.0000 O   0  0  0  0  0  0  0  0  0
   -5.6231    0.8559    0.0000 C   0  0  0  0  0  0  0  0  0
   -5.6231    0.0309    0.0000 C   0  0  0  0  0  0  0  0  0
   -4.9087   -0.3816    0.0000 O   0  0  0  0  0  0  0  0  0
   -4.1942    0.0309    0.0000 C   0  0  0  0  0  0  0  0  0
   -4.1942    0.8559    0.0000 C   0  0  0  0  0  0  0  0  0
   -3.4797    1.2684    0.0000 C   0  0  0  0  0  0  0  0  0
   -2.7653    0.8559    0.0000 N   0  0  0  0  0  0  0  0  0
   -2.0508    1.2684    0.0000 C   0  0  0  0  0  0  0  0  0
   -1.3363    0.8559    0.0000 C   0  0  0  0  0  0  0  0  0
   -0.6218    1.2684    0.0000 O   0  0  0  0  0  0  0  0  0
    0.0926    0.8559    0.0000 C   0  0  0  0  0  0  0  0  0
    0.8071    1.2684    0.0000 C   0  0  0  0  0  0  0  0  0
    0.8071    2.0934    0.0000 O   0  0  0  0  0  0  0  0  0
    1.5216    2.5059    0.0000 C   0  0  0  0  0  0  0  0  0
    1.5216    0.8559    0.0000 C   0  0  0  0  0  0  0  0  0
    1.5216    0.0309    0.0000 C   0  0  0  0  0  0  0  0  0
    0.8071   -0.3816    0.0000 C   0  0  0  0  0  0  0  0  0
    0.0926    0.0309    0.0000 C   0  0  0  0  0  0  0  0  0
   -0.6218   -0.3816    0.0000 O   0  0  0  0  0  0  0  0  0
   -0.6218   -1.2066    0.0000 C   0  0  0  0  0  0  0  0  0
   -6.3376   -0.3816    0.0000 C   0  0  0  0  0  0  0  0  0
   -7.0521    0.0309    0.0000 C   0  0  0  0  0  0  0  0  0
   -7.0521    0.8559    0.0000 C   0  0  0  0  0  0  0  0  0
   -6.3376    1.2684    0.0000 C   0  0  0  0  0  0  0  0  0
  1  2  1  0  0  0  0
  1  6  1  0  0  0  0
  2  3  4  0  0  0  0
  2 25  4  0  0  0  0
  3  4  1  0  0  0  0
  3 22  4  0  0  0  0
  4  5  1  0  0  0  0
  5  6  1  0  0  0  0
  6  7  1  0  0  0  0
  7  8  1  0  0  0  0
  8  9  1  0  0  0  0
  9 10  1  0  0  0  0
 10 11  1  0  0  0  0
 11 12  1  0  0  0  0
 12 13  4  0  0  0  0
 12 19  4  0  0  0  0
 13 14  1  0  0  0  0
 13 16  4  0  0  0  0
 14 15  1  0  0  0  0
 16 17  4  0  0  0  0
 17 18  4  0  0  0  0
 18 19  4  0  0  0  0
 19 20  1  0  0  0  0
 20 21  1  0  0  0  0
 22 23  4  0  0  0  0
 23 24  4  0  0  0  0
 24 25  4  0  0  0  0
M  END
>  <Name_Molregno>
33675

>  <5-HT1A>
8.68

>  <Alpha-1A>
9.2

>  <Alpha-1B>
7.92

>  <Alpha-2A>
8.46

>  <Alpha-2B>
7.55

>  <Alpha-2C>
9.1

$$$$
33681
  Marvin  02231216192D 0   1.00000     0.00000     0

 20 21  0  0  1  0  0  0  0  0999 V2000
   -1.5022   -1.5972    0.0000 O   0  0  0  0  0  0  0  0  0
   -1.5022   -2.4222    0.0000 C   0  0  0  0  0  0  0  0  0
   -2.2166   -1.1847    0.0000 C   0  0  0  0  0  0  0  0  0
   -2.2166   -0.3597    0.0000 C   0  0  0  0  0  0  0  0  0
   -2.9311    0.0528    0.0000 C   0  0  0  0  0  0  0  0  0
   -3.6456   -0.3597    0.0000 C   0  0  0  0  0  0  0  0  0
   -3.6456   -1.1847    0.0000 C   0  0  0  0  0  0  0  0  0
   -2.9311   -1.5972    0.0000 C   0  0  0  0  0  0  0  0  0
   -2.9311    0.8778    0.0000 C   0  0  0  0  0  0  0  0  0
   -3.6456    1.2903    0.0000 C   0  0  0  0  0  0  0  0  0
   -2.2166    1.2903    0.0000 C   0  0  0  0  0  0  0  0  0
   -2.2166    2.1153    0.0000 N   0  0  0  0  0  0  0  0  0
   -2.9311    2.5278    0.0000 C   0  0  0  0  0  0  0  0  0
   -2.9311    3.3528    0.0000 C   0  0  0  0  0  0  0  0  0
   -3.6456    3.7653    0.0000 C   0  0  0  0  0  0  0  0  0
   -1.5022    2.5278    0.0000 C   0  0  0  0  0  0  0  0  0
   -1.5022    3.3528    0.0000 C   0  0  0  0  0  0  0  0  0
   -0.7877    3.7653    0.0000 C   0  0  0  0  0  0  0  0  0
   -1.5022    0.8778    0.0000 C   0  0  0  0  0  0  0  0  0
   -1.5022    0.0528    0.0000 C   0  0  0  0  0  0  0  0  0
  1  2  1  0  0  0  0
  1  3  1  0  0  0  0
  3  4  4  0  0  0  0
  3  8  4  0  0  0  0
  4  5  4  0  0  0  0
  4 20  1  0  0  0  0
  5  6  4  0  0  0  0
  5  9  1  0  0  0  0
  6  7  4  0  0  0  0
  7  8  4  0  0  0  0
  9 10  1  0  0  0  0
  9 11  1  0  0  0  0
 11 12  1  0  0  0  0
 11 19  1  0  0  0  0
 12 13  1  0  0  0  0
 12 16  1  0  0  0  0
 13 14  1  0  0  0  0
 14 15  1  0  0  0  0
 16 17  1  0  0  0  0
 17 18  1  0  0  0  0
 19 20  1  0  0  0  0
M  END
>  <Name_Molregno>
33681

>  <5-HT1A>
6.77

>  <DOPAMINE D3>
8.39

>  <DOPAMINE D4>
7.32

$$$$
33781
  Marvin  02231216192D 0   1.00000     0.00000     0

 18 21  0  0  1  0  0  0  0  0999 V2000
   -1.7737    0.4345    0.0000 N   0  0  0  0  0  0  0  0  0
   -1.0592    0.8470    0.0000 C   0  0  0  0  0  0  0  0  0
   -0.3447    0.4345    0.0000 C   0  0  0  0  0  0  0  0  0
    0.3698    0.8470    0.0000 C   0  0  0  0  0  0  0  0  0
    0.3698    1.6720    0.0000 C   0  0  0  0  0  0  0  0  0
   -0.3447    2.0845    0.0000 C   0  0  0  0  0  0  0  0  0
   -1.0592    1.6720    0.0000 C   0  0  0  0  0  0  0  0  0
   -1.7737    2.0845    0.0000 C   0  0  0  0  0  0  0  0  0
   -2.4881    1.6720    0.0000 C   0  0  0  0  0  0  0  0  0
   -2.4881    0.8470    0.0000 C   0  0  0  0  0  0  0  0  0
   -1.7737    2.9095    0.0000 C   0  0  0  0  0  0  0  0  0
   -1.0592    3.3220    0.0000 C   0  0  0  0  0  0  0  0  0
   -0.3447    2.9095    0.0000 C   0  0  0  0  0  0  0  0  0
    1.0842    2.0845    0.0000 C   0  0  0  0  0  0  0  0  0
    1.7987    1.6720    0.0000 C   0  0  0  0  0  0  0  0  0
    1.7987    0.8470    0.0000 C   0  0  0  0  0  0  0  0  0
    1.0842    0.4345    0.0000 C   0  0  0  0  0  0  0  0  0
   -1.7737   -0.3905    0.0000 C   0  0  0  0  0  0  0  0  0
  1  2  1  0  0  0  0
  1 10  1  0  0  0  0
  1 18  1  0  0  0  0
  2  3  1  0  0  0  0
  2  7  1  0  0  0  0
  3  4  1  0  0  0  0
  4  5  4  0  0  0  0
  4 17  4  0  0  0  0
  5  6  1  0  0  0  0
  5 14  4  0  0  0  0
  6  7  4  0  0  0  0
  6 13  4  0  0  0  0
  7  8  4  0  0  0  0
  8  9  1  0  0  0  0
  8 11  4  0  0  0  0
  9 10  1  0  0  0  0
 11 12  4  0  0  0  0
 12 13  4  0  0  0  0
 14 15  4  0  0  0  0
 15 16  4  0  0  0  0
 16 17  4  0  0  0  0
M  END
>  <Name_Molregno>
33781

>  <5-HT1A>
7.1

>  <DOPAMINE D2>
6.28

$$$$
33870
  Marvin  02231216192D 0   1.00000     0.00000     0

 31 34  0  0  0  0  0  0  0  0999 V2000
   -7.8766   -2.2666    0.0000 O   0  0  0  0  0  0  0  0  0
   -7.8766   -3.0916    0.0000 C   0  0  0  0  0  0  0  0  0
   -8.5911   -1.8541    0.0000 C   0  0  0  0  0  0  0  0  0
   -9.3056   -2.2666    0.0000 C   0  0  0  0  0  0  0  0  0
  -10.0200   -1.8541    0.0000 C   0  0  0  0  0  0  0  0  0
  -10.0200   -1.0291    0.0000 C   0  0  0  0  0  0  0  0  0
   -9.3056   -0.6166    0.0000 C   0  0  0  0  0  0  0  0  0
   -8.5911   -1.0291    0.0000 C   0  0  0  0  0  0  0  0  0
   -7.8766   -0.6166    0.0000 N   0  0  0  0  0  0  0  0  0
   -7.8766    0.2084    0.0000 C   0  0  0  0  0  0  0  0  0
   -7.1621    0.6209    0.0000 C   0  0  0  0  0  0  0  0  0
   -6.4477    0.2084    0.0000 N   0  0  0  0  0  0  0  0  0
   -6.4477   -0.6166    0.0000 C   0  0  0  0  0  0  0  0  0
   -7.1621   -1.0291    0.0000 C   0  0  0  0  0  0  0  0  0
   -5.7332    0.6209    0.0000 C   0  0  0  0  0  0  0  0  0
   -5.0187    0.2084    0.0000 C   0  0  0  0  0  0  0  0  0
   -4.3043    0.6209    0.0000 C   0  0  0  0  0  0  0  0  0
   -3.5898    0.2084    0.0000 C   0  0  0  0  0  0  0  0  0
   -2.8753    0.6209    0.0000 N   0  0  0  0  0  0  0  0  0
   -2.1608    0.2084    0.0000 C   0  0  0  0  0  0  0  0  0
   -2.1608   -0.6166    0.0000 O   0  0  0  0  0  0  0  0  0
   -1.4464    0.6209    0.0000 C   0  0  0  0  0  0  0  0  0
   -0.7319    0.2084    0.0000 C   0  0  0  0  0  0  0  0  0
   -0.0174    0.6209    0.0000 C   0  0  0  0  0  0  0  0  0
   -0.0174    1.4459    0.0000 C   0  0  0  0  0  0  0  0  0
   -0.7319    1.8584    0.0000 C   0  0  0  0  0  0  0  0  0
   -1.4464    1.4459    0.0000 C   0  0  0  0  0  0  0  0  0
    0.6970    1.8584    0.0000 C   0  0  0  0  0  0  0  0  0
    1.4115    1.4459    0.0000 C   0  0  0  0  0  0  0  0  0
    1.4115    0.6209    0.0000 C   0  0  0  0  0  0  0  0  0
    0.6970    0.2084    0.0000 C   0  0  0  0  0  0  0  0  0
  1  2  1  0  0  0  0
  1  3  1  0  0  0  0
  3  4  4  0  0  0  0
  3  8  4  0  0  0  0
  4  5  4  0  0  0  0
  5  6  4  0  0  0  0
  6  7  4  0  0  0  0
  7  8  4  0  0  0  0
  8  9  1  0  0  0  0
  9 10  1  0  0  0  0
  9 14  1  0  0  0  0
 10 11  1  0  0  0  0
 11 12  1  0  0  0  0
 12 13  1  0  0  0  0
 12 15  1  0  0  0  0
 13 14  1  0  0  0  0
 15 16  1  0  0  0  0
 16 17  1  0  0  0  0
 17 18  1  0  0  0  0
 18 19  1  0  0  0  0
 19 20  1  0  0  0  0
 20 21  2  0  0  0  0
 20 22  1  0  0  0  0
 22 23  4  0  0  0  0
 22 27  4  0  0  0  0
 23 24  4  0  0  0  0
 24 25  4  0  0  0  0
 24 31  4  0  0  0  0
 25 26  4  0  0  0  0
 25 28  4  0  0  0  0
 26 27  4  0  0  0  0
 28 29  4  0  0  0  0
 29 30  4  0  0  0  0
 30 31  4  0  0  0  0
M  END
>  <Name_Molregno>
33870

>  <5-HT1A>
6.93

>  <Alpha-2A>
8.56

>  <DOPAMINE D1>
6.12

>  <DOPAMINE D2>
6.85

>  <DOPAMINE D3>
8.86

>  <DOPAMINE D4>
7.1

$$$$
35324
  Marvin  02231216192D 0   1.00000     0.00000     0

 18 19  0  0  1  0  0  0  0  0999 V2000
    0.9450   -1.8585    0.0000 O   0  0  0  0  0  0  0  0  0
    0.5325   -1.1440    0.0000 C   0  0  0  0  0  0  0  0  0
   -0.2925   -1.1440    0.0000 C   0  0  0  0  0  0  0  0  0
   -0.7050   -1.8585    0.0000 C   0  0  0  0  0  0  0  0  0
   -1.5300   -1.8585    0.0000 C   0  0  0  0  0  0  0  0  0
   -1.9425   -2.5729    0.0000 N   0  0  0  0  0  0  0  0  0
   -2.7675   -2.5729    0.0000 C   0  0  0  0  0  0  0  0  0
   -3.1800   -3.2874    0.0000 C   0  0  0  0  0  0  0  0  0
   -4.0050   -3.2874    0.0000 C   0  0  0  0  0  0  0  0  0
   -1.5300   -3.2874    0.0000 C   0  0  0  0  0  0  0  0  0
   -0.7050   -3.2874    0.0000 C   0  0  0  0  0  0  0  0  0
   -0.2925   -4.0019    0.0000 C   0  0  0  0  0  0  0  0  0
   -1.9425   -1.1440    0.0000 C   0  0  0  0  0  0  0  0  0
   -1.5300   -0.4295    0.0000 C   0  0  0  0  0  0  0  0  0
   -0.7050   -0.4295    0.0000 C   0  0  0  0  0  0  0  0  0
   -0.2925    0.2849    0.0000 C   0  0  0  0  0  0  0  0  0
    0.5325    0.2849    0.0000 C   0  0  0  0  0  0  0  0  0
    0.9450   -0.4295    0.0000 C   0  0  0  0  0  0  0  0  0
  1  2  1  0  0  0  0
  2  3  4  0  0  0  0
  2 18  4  0  0  0  0
  3  4  1  0  0  0  0
  3 15  4  0  0  0  0
  4  5  1  0  0  0  0
  5  6  1  0  0  0  0
  5 13  1  0  0  0  0
  6  7  1  0  0  0  0
  6 10  1  0  0  0  0
  7  8  1  0  0  0  0
  8  9  1  0  0  0  0
 10 11  1  0  0  0  0
 11 12  1  0  0  0  0
 13 14  1  0  0  0  0
 14 15  1  0  0  0  0
 15 16  4  0  0  0  0
 16 17  4  0  0  0  0
 17 18  4  0  0  0  0
M  END
>  <Name_Molregno>
35324

>  <5-HT1A>
8.41

>  <5-HT1B>
6.44

>  <5-HT1D>
6.48

>  <5-HT1E>
5.78

>  <5-HT2A>
5.34

>  <5-HT2C>
5.46

>  <5-HT5>
5.6

>  <5-HT6>
5

>  <5-HT7>
6.52

>  <Alpha-1A>
6.21

>  <Alpha-1B>
6

>  <DOPAMINE D1>
5

>  <DOPAMINE D2>
6.1

>  <DOPAMINE D3>
6.35

>  <DOPAMINE D4>
5.38

$$$$
35623
  Marvin  02231216192D 0   1.00000     0.00000     0

 40 44  0  0  1  0  0  0  0  0999 V2000
    0.3272    0.5424    0.0000 S   0  0  0  0  0  0  0  0  0
   -0.4797    0.7139    0.0000 O   0  0  0  0  0  0  0  0  0
   -1.0318    0.1008    0.0000 C   0  0  0  0  0  0  0  0  0
   -0.7768   -0.6838    0.0000 C   0  0  0  0  0  0  0  0  0
   -1.3289   -1.2969    0.0000 C   0  0  0  0  0  0  0  0  0
   -2.1358   -1.1254    0.0000 C   0  0  0  0  0  0  0  0  0
   -2.3908   -0.3408    0.0000 C   0  0  0  0  0  0  0  0  0
   -3.1977   -0.1692    0.0000 O   0  0  0  0  0  0  0  0  0
   -3.7498   -0.7823    0.0000 S   0  0  0  0  0  0  0  0  0
   -3.1367   -1.3344    0.0000 O   0  0  0  0  0  0  0  0  0
   -4.5035   -0.4468    0.0000 O   0  0  0  0  0  0  0  0  0
   -4.3018   -1.3954    0.0000 C   0  0  0  0  0  0  0  0  0
   -4.8538   -2.0085    0.0000 F   0  0  0  0  0  0  0  0  0
   -3.6887   -1.9475    0.0000 F   0  0  0  0  0  0  0  0  0
   -4.9149   -0.8434    0.0000 F   0  0  0  0  0  0  0  0  0
   -1.8387    0.2723    0.0000 C   0  0  0  0  0  0  0  0  0
   -2.0937    1.0569    0.0000 C   0  0  0  0  0  0  0  0  0
   -2.8082    1.4694    0.0000 C   0  0  0  0  0  0  0  0  0
   -2.8082    2.2944    0.0000 C   0  0  0  0  0  0  0  0  0
   -3.5226    2.7069    0.0000 C   0  0  0  0  0  0  0  0  0
   -4.2371    2.2944    0.0000 C   0  0  0  0  0  0  0  0  0
   -4.9516    2.7069    0.0000 N   0  0  0  0  0  0  0  0  0
   -5.6660    2.2944    0.0000 C   0  0  0  0  0  0  0  0  0
   -5.6660    1.4694    0.0000 C   0  0  0  0  0  0  0  0  0
   -4.9516    1.0569    0.0000 C   0  0  0  0  0  0  0  0  0
   -4.2371    1.4694    0.0000 C   0  0  0  0  0  0  0  0  0
   -3.5226    1.0569    0.0000 C   0  0  0  0  0  0  0  0  0
   -3.5226    0.2319    0.0000 C   0  0  0  0  0  0  0  0  0
   -4.2371   -0.1806    0.0000 C   0  0  0  0  0  0  0  0  0
   -4.9516    0.2319    0.0000 C   0  0  0  0  0  0  0  0  0
   -4.9516    3.5319    0.0000 C   0  0  0  0  0  0  0  0  0
   -2.0937    2.7069    0.0000 C   0  0  0  0  0  0  0  0  0
   -1.3792    2.2944    0.0000 C   0  0  0  0  0  0  0  0  0
   -1.3792    1.4694    0.0000 C   0  0  0  0  0  0  0  0  0
    0.1557   -0.2646    0.0000 O   0  0  0  0  0  0  0  0  0
    0.4988    1.3493    0.0000 O   0  0  0  0  0  0  0  0  0
    1.1342    0.3708    0.0000 C   0  0  0  0  0  0  0  0  0
    0.9627   -0.4361    0.0000 F   0  0  0  0  0  0  0  0  0
    1.3057    1.1778    0.0000 F   0  0  0  0  0  0  0  0  0
    1.9412    0.1993    0.0000 F   0  0  0  0  0  0  0  0  0
  1  2  1  0  0  0  0
  1 35  2  0  0  0  0
  1 36  2  0  0  0  0
  1 37  1  0  0  0  0
  2  3  1  0  0  0  0
  3  4  4  0  0  0  0
  3 16  4  0  0  0  0
  4  5  4  0  0  0  0
  5  6  4  0  0  0  0
  6  7  4  0  0  0  0
  7  8  1  0  0  0  0
  7 16  4  0  0  0  0
  8  9  1  0  0  0  0
  9 10  2  0  0  0  0
  9 11  2  0  0  0  0
  9 12  1  0  0  0  0
 12 13  1  0  0  0  0
 12 14  1  0  0  0  0
 12 15  1  0  0  0  0
 16 17  1  0  0  0  0
 17 18  4  0  0  0  0
 17 34  4  0  0  0  0
 18 19  4  0  0  0  0
 18 27  1  0  0  0  0
 19 20  1  0  0  0  0
 19 32  4  0  0  0  0
 20 21  1  0  0  0  0
 21 22  1  0  0  0  0
 21 26  1  0  0  0  0
 22 23  1  0  0  0  0
 22 31  1  0  0  0  0
 23 24  1  0  0  0  0
 24 25  1  0  0  0  0
 25 26  4  0  0  0  0
 25 30  4  0  0  0  0
 26 27  4  0  0  0  0
 27 28  4  0  0  0  0
 28 29  4  0  0  0  0
 29 30  4  0  0  0  0
 32 33  4  0  0  0  0
 33 34  4  0  0  0  0
 37 38  1  0  0  0  0
 37 39  1  0  0  0  0
 37 40  1  0  0  0  0
M  END
>  <Name_Molregno>
35623

>  <5-HT1A>
5

>  <DOPAMINE D2>
5.65

$$$$
35672
  Marvin  02231216192D 0   1.00000     0.00000     0

 28 32  0  0  1  0  0  0  0  0999 V2000
    2.1657   -1.3598    0.0000 O   0  0  0  0  0  0  0  0  0
    2.9727   -1.5313    0.0000 C   0  0  0  0  0  0  0  0  0
    1.6137   -1.9729    0.0000 C   0  0  0  0  0  0  0  0  0
    1.8686   -2.7575    0.0000 C   0  0  0  0  0  0  0  0  0
    1.3166   -3.3706    0.0000 C   0  0  0  0  0  0  0  0  0
    0.5096   -3.1991    0.0000 C   0  0  0  0  0  0  0  0  0
    0.2547   -2.4144    0.0000 C   0  0  0  0  0  0  0  0  0
   -0.5523   -2.2429    0.0000 O   0  0  0  0  0  0  0  0  0
   -1.1043   -2.8560    0.0000 C   0  0  0  0  0  0  0  0  0
    0.8067   -1.8013    0.0000 C   0  0  0  0  0  0  0  0  0
    0.5518   -1.0167    0.0000 C   0  0  0  0  0  0  0  0  0
   -0.1627   -0.6042    0.0000 C   0  0  0  0  0  0  0  0  0
   -0.1627    0.2208    0.0000 C   0  0  0  0  0  0  0  0  0
   -0.8772    0.6333    0.0000 C   0  0  0  0  0  0  0  0  0
   -1.5917    0.2208    0.0000 C   0  0  0  0  0  0  0  0  0
   -2.3061    0.6333    0.0000 N   0  0  0  0  0  0  0  0  0
   -3.0206    0.2208    0.0000 C   0  0  0  0  0  0  0  0  0
   -3.0206   -0.6042    0.0000 C   0  0  0  0  0  0  0  0  0
   -2.3061   -1.0167    0.0000 C   0  0  0  0  0  0  0  0  0
   -1.5917   -0.6042    0.0000 C   0  0  0  0  0  0  0  0  0
   -0.8772   -1.0167    0.0000 C   0  0  0  0  0  0  0  0  0
   -0.8772   -1.8417    0.0000 C   0  0  0  0  0  0  0  0  0
   -1.5917   -2.2542    0.0000 C   0  0  0  0  0  0  0  0  0
   -2.3061   -1.8417    0.0000 C   0  0  0  0  0  0  0  0  0
   -2.3061    1.4583    0.0000 C   0  0  0  0  0  0  0  0  0
    0.5518    0.6333    0.0000 C   0  0  0  0  0  0  0  0  0
    1.2662    0.2208    0.0000 C   0  0  0  0  0  0  0  0  0
    1.2662   -0.6042    0.0000 C   0  0  0  0  0  0  0  0  0
  1  2  1  0  0  0  0
  1  3  1  0  0  0  0
  3  4  4  0  0  0  0
  3 10  4  0  0  0  0
  4  5  4  0  0  0  0
  5  6  4  0  0  0  0
  6  7  4  0  0  0  0
  7  8  1  0  0  0  0
  7 10  4  0  0  0  0
  8  9  1  0  0  0  0
 10 11  1  0  0  0  0
 11 12  4  0  0  0  0
 11 28  4  0  0  0  0
 12 13  4  0  0  0  0
 12 21  1  0  0  0  0
 13 14  1  0  0  0  0
 13 26  4  0  0  0  0
 14 15  1  0  0  0  0
 15 16  1  0  0  0  0
 15 20  1  0  0  0  0
 16 17  1  0  0  0  0
 16 25  1  0  0  0  0
 17 18  1  0  0  0  0
 18 19  1  0  0  0  0
 19 20  4  0  0  0  0
 19 24  4  0  0  0  0
 20 21  4  0  0  0  0
 21 22  4  0  0  0  0
 22 23  4  0  0  0  0
 23 24  4  0  0  0  0
 26 27  4  0  0  0  0
 27 28  4  0  0  0  0
M  END
>  <Name_Molregno>
35672

>  <5-HT1A>
6.26

>  <DOPAMINE D2>
5.69

$$$$
35706
  Marvin  02231216192D 0   1.00000     0.00000     0

 27 31  0  0  1  0  0  0  0  0999 V2000
    1.9978    0.2722    0.0000 N   0  0  0  0  0  0  0  0  0
    2.4738   -0.5655    0.0000 C   0  0  0  0  0  0  0  0  0
    3.2820   -0.3456    0.0000 C   0  0  0  0  0  0  0  0  0
    3.2820   -1.1706    0.0000 C   0  0  0  0  0  0  0  0  0
    3.9965   -1.5831    0.0000 C   0  0  0  0  0  0  0  0  0
    4.7110   -1.1706    0.0000 C   0  0  0  0  0  0  0  0  0
    4.7110   -0.3456    0.0000 C   0  0  0  0  0  0  0  0  0
    5.4528    0.0554    0.0000 C   0  0  0  0  0  0  0  0  0
    3.9965    0.0669    0.0000 C   0  0  0  0  0  0  0  0  0
    3.9965    0.8919    0.0000 C   0  0  0  0  0  0  0  0  0
    3.2820    1.3044    0.0000 C   0  0  0  0  0  0  0  0  0
    3.2820    2.1294    0.0000 C   0  0  0  0  0  0  0  0  0
    2.5676    2.5419    0.0000 C   0  0  0  0  0  0  0  0  0
    1.8531    2.1294    0.0000 C   0  0  0  0  0  0  0  0  0
    1.1386    2.5419    0.0000 N   0  0  0  0  0  0  0  0  0
    0.4242    2.1294    0.0000 C   0  0  0  0  0  0  0  0  0
    0.4242    1.3044    0.0000 C   0  0  0  0  0  0  0  0  0
    1.1386    0.8919    0.0000 C   0  0  0  0  0  0  0  0  0
    1.8531    1.3044    0.0000 C   0  0  0  0  0  0  0  0  0
    2.5676    0.8919    0.0000 C   0  0  0  0  0  0  0  0  0
    2.5676    0.0669    0.0000 C   0  0  0  0  0  0  0  0  0
    1.8531   -0.3456    0.0000 C   0  0  0  0  0  0  0  0  0
    1.1386    0.0669    0.0000 C   0  0  0  0  0  0  0  0  0
    1.1314    3.3853    0.0000 C   0  0  0  0  0  0  0  0  0
    3.9965    2.5419    0.0000 C   0  0  0  0  0  0  0  0  0
    4.7110    2.1294    0.0000 C   0  0  0  0  0  0  0  0  0
    4.7110    1.3044    0.0000 C   0  0  0  0  0  0  0  0  0
  1  2  3  0  0  0  0
  2  3  1  0  0  0  0
  3  4  4  0  0  0  0
  3  9  4  0  0  0  0
  4  5  4  0  0  0  0
  5  6  4  0  0  0  0
  6  7  4  0  0  0  0
  7  8  1  0  0  0  0
  7  9  4  0  0  0  0
  9 10  1  0  0  0  0
 10 11  4  0  0  0  0
 10 27  4  0  0  0  0
 11 12  4  0  0  0  0
 11 20  1  0  0  0  0
 12 13  1  0  0  0  0
 12 25  4  0  0  0  0
 13 14  1  0  0  0  0
 14 15  1  0  0  0  0
 14 19  1  0  0  0  0
 15 16  1  0  0  0  0
 15 24  1  0  0  0  0
 16 17  1  0  0  0  0
 17 18  1  0  0  0  0
 18 19  4  0  0  0  0
 18 23  4  0  0  0  0
 19 20  4  0  0  0  0
 20 21  4  0  0  0  0
 21 22  4  0  0  0  0
 22 23  4  0  0  0  0
 25 26  4  0  0  0  0
 26 27  4  0  0  0  0
M  END
>  <Name_Molregno>
35706

>  <5-HT1A>
6.48

>  <5-HT7>
8.05

>  <DOPAMINE D2>
5.96

$$$$
35905
  Marvin  02231216192D 0   1.00000     0.00000     0

 17 19  0  0  0  0  0  0  0  0999 V2000
   -0.0157   -1.6688    0.0000 O   0  0  0  0  0  0  0  0  0
   -0.4503   -0.9675    0.0000 C   0  0  0  0  0  0  0  0  0
   -0.0603   -0.2405    0.0000 C   0  0  0  0  0  0  0  0  0
    0.7643   -0.2148    0.0000 C   0  0  0  0  0  0  0  0  0
    1.1989   -0.9160    0.0000 C   0  0  0  0  0  0  0  0  0
    2.0235   -0.8903    0.0000 C   0  0  0  0  0  0  0  0  0
    2.4581   -1.5915    0.0000 C   0  0  0  0  0  0  0  0  0
    3.2593   -1.3949    0.0000 N   0  0  0  0  0  0  0  0  0
    3.3199   -0.5721    0.0000 C   0  0  0  0  0  0  0  0  0
    2.5561   -0.2602    0.0000 C   0  0  0  0  0  0  0  0  0
    2.3595    0.5410    0.0000 C   0  0  0  0  0  0  0  0  0
    2.9550    1.1119    0.0000 C   0  0  0  0  0  0  0  0  0
    2.7584    1.9131    0.0000 N   0  0  0  0  0  0  0  0  0
    3.8894   -1.9275    0.0000 C   0  0  0  0  0  0  0  0  0
    2.0681   -2.3185    0.0000 C   0  0  0  0  0  0  0  0  0
    1.2435   -2.3443    0.0000 C   0  0  0  0  0  0  0  0  0
    0.8089   -1.6430    0.0000 C   0  0  0  0  0  0  0  0  0
  1  2  1  0  0  0  0
  1 17  1  0  0  0  0
  2  3  1  0  0  0  0
  3  4  1  0  0  0  0
  4  5  1  0  0  0  0
  5  6  4  0  0  0  0
  5 17  4  0  0  0  0
  6  7  4  0  0  0  0
  6 10  4  0  0  0  0
  7  8  4  0  0  0  0
  7 15  4  0  0  0  0
  8  9  4  0  0  0  0
  8 14  1  0  0  0  0
  9 10  4  0  0  0  0
 10 11  1  0  0  0  0
 11 12  1  0  0  0  0
 12 13  1  0  0  0  0
 15 16  4  0  0  0  0
 16 17  4  0  0  0  0
M  END
>  <Name_Molregno>
35905

>  <5-HT1A>
5.08

>  <5-HT2A>
8.09

$$$$
36144
  Marvin  02231216192D 0   1.00000     0.00000     0

 26 30  0  0  1  0  0  0  0  0999 V2000
   -1.3872    0.1461    0.0000 O   0  0  0  0  0  0  0  0  0
   -0.5667    0.2324    0.0000 C   0  0  0  0  0  0  0  0  0
   -0.5667   -0.5926    0.0000 C   0  0  0  0  0  0  0  0  0
    0.1477   -1.0051    0.0000 C   0  0  0  0  0  0  0  0  0
    0.8622   -0.5926    0.0000 C   0  0  0  0  0  0  0  0  0
    0.8622    0.2324    0.0000 C   0  0  0  0  0  0  0  0  0
    1.5767    0.6449    0.0000 C   0  0  0  0  0  0  0  0  0
    0.1477    0.6449    0.0000 C   0  0  0  0  0  0  0  0  0
    0.1477    1.4699    0.0000 C   0  0  0  0  0  0  0  0  0
   -0.5667    1.8824    0.0000 C   0  0  0  0  0  0  0  0  0
   -0.5667    2.7074    0.0000 C   0  0  0  0  0  0  0  0  0
   -1.2812    3.1199    0.0000 C   0  0  0  0  0  0  0  0  0
   -1.9957    2.7074    0.0000 C   0  0  0  0  0  0  0  0  0
   -2.7101    3.1199    0.0000 N   0  0  0  0  0  0  0  0  0
   -3.4246    2.7074    0.0000 C   0  0  0  0  0  0  0  0  0
   -3.4246    1.8824    0.0000 C   0  0  0  0  0  0  0  0  0
   -2.7101    1.4699    0.0000 C   0  0  0  0  0  0  0  0  0
   -1.9957    1.8824    0.0000 C   0  0  0  0  0  0  0  0  0
   -1.2812    1.4699    0.0000 C   0  0  0  0  0  0  0  0  0
   -1.2812    0.6449    0.0000 C   0  0  0  0  0  0  0  0  0
   -1.9957    0.2324    0.0000 C   0  0  0  0  0  0  0  0  0
   -2.7101    0.6449    0.0000 C   0  0  0  0  0  0  0  0  0
   -2.7101    3.9449    0.0000 C   0  0  0  0  0  0  0  0  0
    0.1477    3.1199    0.0000 C   0  0  0  0  0  0  0  0  0
    0.8622    2.7074    0.0000 C   0  0  0  0  0  0  0  0  0
    0.8622    1.8824    0.0000 C   0  0  0  0  0  0  0  0  0
  1  2  1  0  0  0  0
  2  3  4  0  0  0  0
  2  8  4  0  0  0  0
  3  4  4  0  0  0  0
  4  5  4  0  0  0  0
  5  6  4  0  0  0  0
  6  7  1  0  0  0  0
  6  8  4  0  0  0  0
  8  9  1  0  0  0  0
  9 10  4  0  0  0  0
  9 26  4  0  0  0  0
 10 11  4  0  0  0  0
 10 19  1  0  0  0  0
 11 12  1  0  0  0  0
 11 24  4  0  0  0  0
 12 13  1  0  0  0  0
 13 14  1  0  0  0  0
 13 18  1  0  0  0  0
 14 15  1  0  0  0  0
 14 23  1  0  0  0  0
 15 16  1  0  0  0  0
 16 17  1  0  0  0  0
 17 18  4  0  0  0  0
 17 22  4  0  0  0  0
 18 19  4  0  0  0  0
 19 20  4  0  0  0  0
 20 21  4  0  0  0  0
 21 22  4  0  0  0  0
 24 25  4  0  0  0  0
 25 26  4  0  0  0  0
M  END
>  <Name_Molregno>
36144

>  <5-HT1A>
6.9

>  <DOPAMINE D2>
5.53

$$$$
36287
  Marvin  02231216192D 0   1.00000     0.00000     0

 26 30  0  0  1  0  0  0  0  0999 V2000
    1.5767    0.6449    0.0000 O   0  0  0  0  0  0  0  0  0
    0.8622    0.2324    0.0000 C   0  0  0  0  0  0  0  0  0
    0.8622   -0.5926    0.0000 C   0  0  0  0  0  0  0  0  0
    0.1477   -1.0051    0.0000 C   0  0  0  0  0  0  0  0  0
   -0.5667   -0.5926    0.0000 C   0  0  0  0  0  0  0  0  0
   -0.5667    0.2324    0.0000 C   0  0  0  0  0  0  0  0  0
   -1.3872    0.1461    0.0000 O   0  0  0  0  0  0  0  0  0
    0.1477    0.6449    0.0000 C   0  0  0  0  0  0  0  0  0
    0.1477    1.4699    0.0000 C   0  0  0  0  0  0  0  0  0
   -0.5667    1.8824    0.0000 C   0  0  0  0  0  0  0  0  0
   -0.5667    2.7074    0.0000 C   0  0  0  0  0  0  0  0  0
   -1.2812    3.1199    0.0000 C   0  0  0  0  0  0  0  0  0
   -1.9957    2.7074    0.0000 C   0  0  0  0  0  0  0  0  0
   -2.7101    3.1199    0.0000 N   0  0  0  0  0  0  0  0  0
   -3.4246    2.7074    0.0000 C   0  0  0  0  0  0  0  0  0
   -3.4246    1.8824    0.0000 C   0  0  0  0  0  0  0  0  0
   -2.7101    1.4699    0.0000 C   0  0  0  0  0  0  0  0  0
   -1.9957    1.8824    0.0000 C   0  0  0  0  0  0  0  0  0
   -1.2812    1.4699    0.0000 C   0  0  0  0  0  0  0  0  0
   -1.2812    0.6449    0.0000 C   0  0  0  0  0  0  0  0  0
   -1.9957    0.2324    0.0000 C   0  0  0  0  0  0  0  0  0
   -2.7101    0.6449    0.0000 C   0  0  0  0  0  0  0  0  0
   -2.7101    3.9449    0.0000 C   0  0  0  0  0  0  0  0  0
    0.1477    3.1199    0.0000 C   0  0  0  0  0  0  0  0  0
    0.8622    2.7074    0.0000 C   0  0  0  0  0  0  0  0  0
    0.8622    1.8824    0.0000 C   0  0  0  0  0  0  0  0  0
  1  2  1  0  0  0  0
  2  3  4  0  0  0  0
  2  8  4  0  0  0  0
  3  4  4  0  0  0  0
  4  5  4  0  0  0  0
  5  6  4  0  0  0  0
  6  7  1  0  0  0  0
  6  8  4  0  0  0  0
  8  9  1  0  0  0  0
  9 10  4  0  0  0  0
  9 26  4  0  0  0  0
 10 11  4  0  0  0  0
 10 19  1  0  0  0  0
 11 12  1  0  0  0  0
 11 24  4  0  0  0  0
 12 13  1  0  0  0  0
 13 14  1  0  0  0  0
 13 18  1  0  0  0  0
 14 15  1  0  0  0  0
 14 23  1  0  0  0  0
 15 16  1  0  0  0  0
 16 17  1  0  0  0  0
 17 18  4  0  0  0  0
 17 22  4  0  0  0  0
 18 19  4  0  0  0  0
 19 20  4  0  0  0  0
 20 21  4  0  0  0  0
 21 22  4  0  0  0  0
 24 25  4  0  0  0  0
 25 26  4  0  0  0  0
M  END
>  <Name_Molregno>
36287

>  <5-HT1A>
6.86

>  <DOPAMINE D2>
6

$$$$
36324
  Marvin  02231216192D 0   1.00000     0.00000     0

 24 28  0  0  1  0  0  0  0  0999 V2000
   -3.7992   -2.1397    0.0000 N   0  0  0  0  0  0  0  0  0
   -3.0848   -1.7272    0.0000 C   0  0  0  0  0  0  0  0  0
   -2.3703   -2.1397    0.0000 C   0  0  0  0  0  0  0  0  0
   -1.6558   -1.7272    0.0000 C   0  0  0  0  0  0  0  0  0
   -1.6558   -0.9022    0.0000 C   0  0  0  0  0  0  0  0  0
   -2.3703   -0.4897    0.0000 C   0  0  0  0  0  0  0  0  0
   -3.0848   -0.9022    0.0000 C   0  0  0  0  0  0  0  0  0
   -3.7992   -0.4897    0.0000 C   0  0  0  0  0  0  0  0  0
   -4.5137   -0.9022    0.0000 C   0  0  0  0  0  0  0  0  0
   -4.5137   -1.7272    0.0000 C   0  0  0  0  0  0  0  0  0
   -3.7992    0.3353    0.0000 C   0  0  0  0  0  0  0  0  0
   -3.0848    0.7478    0.0000 C   0  0  0  0  0  0  0  0  0
   -2.3703    0.3353    0.0000 C   0  0  0  0  0  0  0  0  0
   -0.9414   -0.4897    0.0000 C   0  0  0  0  0  0  0  0  0
   -0.2269   -0.9022    0.0000 C   0  0  0  0  0  0  0  0  0
   -0.2269   -1.7272    0.0000 C   0  0  0  0  0  0  0  0  0
   -0.9414   -2.1397    0.0000 C   0  0  0  0  0  0  0  0  0
   -0.9414    0.3353    0.0000 C   0  0  0  0  0  0  0  0  0
   -1.6558    0.7478    0.0000 C   0  0  0  0  0  0  0  0  0
   -1.6558    1.5728    0.0000 C   0  0  0  0  0  0  0  0  0
   -0.9414    1.9853    0.0000 C   0  0  0  0  0  0  0  0  0
   -0.2269    1.5728    0.0000 C   0  0  0  0  0  0  0  0  0
   -0.2269    0.7478    0.0000 C   0  0  0  0  0  0  0  0  0
   -3.7992   -2.9647    0.0000 C   0  0  0  0  0  0  0  0  0
  1  2  1  0  0  0  0
  1 10  1  0  0  0  0
  1 24  1  0  0  0  0
  2  3  1  0  0  0  0
  2  7  1  0  0  0  0
  3  4  1  0  0  0  0
  4  5  4  0  0  0  0
  4 17  4  0  0  0  0
  5  6  1  0  0  0  0
  5 14  4  0  0  0  0
  6  7  4  0  0  0  0
  6 13  4  0  0  0  0
  7  8  4  0  0  0  0
  8  9  1  0  0  0  0
  8 11  4  0  0  0  0
  9 10  1  0  0  0  0
 11 12  4  0  0  0  0
 12 13  4  0  0  0  0
 14 15  4  0  0  0  0
 14 18  1  0  0  0  0
 15 16  4  0  0  0  0
 16 17  4  0  0  0  0
 18 19  4  0  0  0  0
 18 23  4  0  0  0  0
 19 20  4  0  0  0  0
 20 21  4  0  0  0  0
 21 22  4  0  0  0  0
 22 23  4  0  0  0  0
M  END
>  <Name_Molregno>
36324

>  <5-HT1A>
8.74

>  <5-HT7>
8.01

>  <DOPAMINE D2>
6.63

$$$$
36357
  Marvin  02231216192D 0   1.00000     0.00000     0

 20 24  0  0  1  0  0  0  0  0999 V2000
    3.5977    3.0746    0.0000 N   0  0  0  0  0  0  0  0  0
    3.1852    2.3601    0.0000 C   0  0  0  0  0  0  0  0  0
    2.1932    2.2919    0.0000 C   0  0  0  0  0  0  0  0  0
    2.1932    1.4669    0.0000 C   0  0  0  0  0  0  0  0  0
    2.9076    1.0544    0.0000 C   0  0  0  0  0  0  0  0  0
    3.6221    1.4669    0.0000 C   0  0  0  0  0  0  0  0  0
    4.3366    1.0544    0.0000 C   0  0  0  0  0  0  0  0  0
    4.3366    0.2294    0.0000 C   0  0  0  0  0  0  0  0  0
    3.6221   -0.1831    0.0000 C   0  0  0  0  0  0  0  0  0
    2.9076    0.2294    0.0000 C   0  0  0  0  0  0  0  0  0
    2.1932   -0.1831    0.0000 C   0  0  0  0  0  0  0  0  0
    1.4787    0.2294    0.0000 C   0  0  0  0  0  0  0  0  0
    0.7642   -0.1831    0.0000 N   0  0  0  0  0  0  0  0  0
    0.0497    0.2294    0.0000 C   0  0  0  0  0  0  0  0  0
    0.0497    1.0544    0.0000 C   0  0  0  0  0  0  0  0  0
    0.7642    1.4669    0.0000 C   0  0  0  0  0  0  0  0  0
    1.4787    1.0544    0.0000 C   0  0  0  0  0  0  0  0  0
    0.7642    2.2919    0.0000 C   0  0  0  0  0  0  0  0  0
    1.4787    2.7044    0.0000 C   0  0  0  0  0  0  0  0  0
    0.7642   -1.0081    0.0000 C   0  0  0  0  0  0  0  0  0
  1  2  1  0  0  0  0
  2  3  1  0  0  0  0
  2  6  1  0  0  0  0
  3  4  4  0  0  0  0
  3 19  4  0  0  0  0
  4  5  1  0  0  0  0
  4 17  4  0  0  0  0
  5  6  4  0  0  0  0
  5 10  4  0  0  0  0
  6  7  4  0  0  0  0
  7  8  4  0  0  0  0
  8  9  4  0  0  0  0
  9 10  4  0  0  0  0
 10 11  1  0  0  0  0
 11 12  1  0  0  0  0
 12 13  1  0  0  0  0
 12 17  1  0  0  0  0
 13 14  1  0  0  0  0
 13 20  1  0  0  0  0
 14 15  1  0  0  0  0
 15 16  1  0  0  0  0
 16 17  4  0  0  0  0
 16 18  4  0  0  0  0
 18 19  4  0  0  0  0
M  END
>  <Name_Molregno>
36357

>  <5-HT1A>
6.45

>  <5-HT7>
7.8

>  <DOPAMINE D2>
5.96

$$$$
36730
  Marvin  02231216192D 0   1.00000     0.00000     0

 24 26  0  0  1  0  0  0  0  0999 V2000
    0.1506    0.0052    0.0000 S   0  0  0  0  0  0  0  0  0
    0.9756    0.0052    0.0000 O   0  0  0  0  0  0  0  0  0
   -0.6744    0.0052    0.0000 O   0  0  0  0  0  0  0  0  0
    0.1506   -0.8198    0.0000 N   0  0  0  0  0  0  0  0  0
    0.8180   -1.3047    0.0000 C   0  0  0  0  0  0  0  0  0
    0.5631   -2.0893    0.0000 C   0  0  0  0  0  0  0  0  0
   -0.2619   -2.0893    0.0000 C   0  0  0  0  0  0  0  0  0
   -0.5168   -1.3047    0.0000 C   0  0  0  0  0  0  0  0  0
   -1.3015   -1.0498    0.0000 C   0  0  0  0  0  0  0  0  0
   -1.9146   -1.6018    0.0000 C   0  0  0  0  0  0  0  0  0
   -2.6992   -1.3469    0.0000 N   0  0  0  0  0  0  0  0  0
   -3.3123   -1.8989    0.0000 C   0  0  0  0  0  0  0  0  0
   -4.0969   -1.6440    0.0000 C   0  0  0  0  0  0  0  0  0
   -4.2684   -0.8370    0.0000 C   0  0  0  0  0  0  0  0  0
   -3.6553   -0.2850    0.0000 C   0  0  0  0  0  0  0  0  0
   -2.8707   -0.5399    0.0000 C   0  0  0  0  0  0  0  0  0
   -5.0530   -0.5821    0.0000 C   0  0  0  0  0  0  0  0  0
    0.1506    0.8302    0.0000 C   0  0  0  0  0  0  0  0  0
   -0.5639    1.2427    0.0000 C   0  0  0  0  0  0  0  0  0
   -0.5639    2.0677    0.0000 C   0  0  0  0  0  0  0  0  0
   -1.2783    2.4802    0.0000 O   0  0  0  0  0  0  0  0  0
    0.1506    2.4802    0.0000 C   0  0  0  0  0  0  0  0  0
    0.8651    2.0677    0.0000 C   0  0  0  0  0  0  0  0  0
    0.8651    1.2427    0.0000 C   0  0  0  0  0  0  0  0  0
  1  2  2  0  0  0  0
  1  3  2  0  0  0  0
  1  4  1  0  0  0  0
  1 18  1  0  0  0  0
  4  5  1  0  0  0  0
  4  8  1  0  0  0  0
  5  6  1  0  0  0  0
  6  7  1  0  0  0  0
  7  8  1  0  0  0  0
  8  9  1  0  0  0  0
  9 10  1  0  0  0  0
 10 11  1  0  0  0  0
 11 12  1  0  0  0  0
 11 16  1  0  0  0  0
 12 13  1  0  0  0  0
 13 14  1  0  0  0  0
 14 15  1  0  0  0  0
 14 17  1  0  0  0  0
 15 16  1  0  0  0  0
 18 19  4  0  0  0  0
 18 24  4  0  0  0  0
 19 20  4  0  0  0  0
 20 21  1  0  0  0  0
 20 22  4  0  0  0  0
 22 23  4  0  0  0  0
 23 24  4  0  0  0  0
M  END
>  <Name_Molregno>
36730

>  <5-HT1A>
5

>  <5-HT2A>
5

>  <5-HT7>
8.91

>  <DOPAMINE D2>
6.5

$$$$
36732
  Marvin  02231216192D 0   1.00000     0.00000     0

 29 33  0  0  1  0  0  0  0  0999 V2000
   -0.6035   -1.3955    0.0000 O   0  0  0  0  0  0  0  0  0
   -0.1261   -2.0684    0.0000 C   0  0  0  0  0  0  0  0  0
    0.6989   -2.0684    0.0000 N   0  0  0  0  0  0  0  0  0
    1.0042   -2.9255    0.0000 C   0  0  0  0  0  0  0  0  0
    0.2864   -3.3380    0.0000 C   0  0  0  0  0  0  0  0  0
    0.2864   -4.1630    0.0000 C   0  0  0  0  0  0  0  0  0
   -0.4261   -4.5755    0.0000 C   0  0  0  0  0  0  0  0  0
   -1.1386   -4.1630    0.0000 C   0  0  0  0  0  0  0  0  0
   -1.1386   -3.3380    0.0000 C   0  0  0  0  0  0  0  0  0
   -0.4261   -2.9255    0.0000 C   0  0  0  0  0  0  0  0  0
   -1.0617   -2.3995    0.0000 C   0  0  0  0  0  0  0  0  0
   -0.9239   -1.5861    0.0000 C   0  0  0  0  0  0  0  0  0
   -1.5595   -1.0601    0.0000 C   0  0  0  0  0  0  0  0  0
   -1.4218   -0.2467    0.0000 C   0  0  0  0  0  0  0  0  0
   -2.0574    0.2793    0.0000 N   0  0  0  0  0  0  0  0  0
   -2.8307   -0.0081    0.0000 C   0  0  0  0  0  0  0  0  0
   -3.4662    0.5179    0.0000 C   0  0  0  0  0  0  0  0  0
   -3.3285    1.3313    0.0000 C   0  0  0  0  0  0  0  0  0
   -2.5552    1.6187    0.0000 C   0  0  0  0  0  0  0  0  0
   -1.9196    1.0927    0.0000 C   0  0  0  0  0  0  0  0  0
   -3.9641    1.8573    0.0000 C   0  0  0  0  0  0  0  0  0
   -4.7374    1.5699    0.0000 C   0  0  0  0  0  0  0  0  0
   -5.3730    2.0959    0.0000 C   0  0  0  0  0  0  0  0  0
   -5.2352    2.9093    0.0000 C   0  0  0  0  0  0  0  0  0
   -4.4619    3.1967    0.0000 C   0  0  0  0  0  0  0  0  0
   -3.8263    2.6707    0.0000 C   0  0  0  0  0  0  0  0  0
    1.0042   -4.5755    0.0000 C   0  0  0  0  0  0  0  0  0
    1.7167   -4.1630    0.0000 C   0  0  0  0  0  0  0  0  0
    1.7167   -3.3380    0.0000 C   0  0  0  0  0  0  0  0  0
  1  2  2  0  0  0  0
  2  3  1  0  0  0  0
  2 10  1  0  0  0  0
  3  4  1  0  0  0  0
  4  5  4  0  0  0  0
  4 29  4  0  0  0  0
  5  6  4  0  0  0  0
  5 10  1  0  0  0  0
  6  7  1  0  0  0  0
  6 27  4  0  0  0  0
  7  8  1  0  0  0  0
  8  9  1  0  0  0  0
  9 10  1  0  0  0  0
 10 11  1  0  0  0  0
 11 12  1  0  0  0  0
 12 13  1  0  0  0  0
 13 14  1  0  0  0  0
 14 15  1  0  0  0  0
 15 16  1  0  0  0  0
 15 20  1  0  0  0  0
 16 17  1  0  0  0  0
 17 18  1  0  0  0  0
 18 19  2  0  0  0  0
 18 21  1  0  0  0  0
 19 20  1  0  0  0  0
 21 22  4  0  0  0  0
 21 26  4  0  0  0  0
 22 23  4  0  0  0  0
 23 24  4  0  0  0  0
 24 25  4  0  0  0  0
 25 26  4  0  0  0  0
 27 28  4  0  0  0  0
 28 29  4  0  0  0  0
M  END
>  <Name_Molregno>
36732

>  <5-HT1A>
6.77

>  <5-HT7>
8.7

>  <DOPAMINE D2>
6.98

$$$$
36988
  Marvin  02231216192D 0   1.00000     0.00000     0

 19 22  0  0  1  0  0  0  0  0999 V2000
   -2.9668   -0.8240    0.0000 N   0  0  0  0  0  0  0  0  0
   -2.2523   -0.4115    0.0000 C   0  0  0  0  0  0  0  0  0
   -1.5379   -0.8240    0.0000 C   0  0  0  0  0  0  0  0  0
   -0.8234   -0.4115    0.0000 C   0  0  0  0  0  0  0  0  0
   -0.8234    0.4135    0.0000 C   0  0  0  0  0  0  0  0  0
   -1.5379    0.8260    0.0000 C   0  0  0  0  0  0  0  0  0
   -2.2523    0.4135    0.0000 C   0  0  0  0  0  0  0  0  0
   -2.9668    0.8260    0.0000 C   0  0  0  0  0  0  0  0  0
   -3.6813    0.4135    0.0000 C   0  0  0  0  0  0  0  0  0
   -3.6813   -0.4115    0.0000 C   0  0  0  0  0  0  0  0  0
   -2.9668    1.6510    0.0000 C   0  0  0  0  0  0  0  0  0
   -2.2523    2.0635    0.0000 C   0  0  0  0  0  0  0  0  0
   -1.5379    1.6510    0.0000 C   0  0  0  0  0  0  0  0  0
   -0.1089    0.8260    0.0000 C   0  0  0  0  0  0  0  0  0
    0.6055    0.4135    0.0000 C   0  0  0  0  0  0  0  0  0
    0.6055   -0.4115    0.0000 C   0  0  0  0  0  0  0  0  0
   -0.1089   -0.8240    0.0000 C   0  0  0  0  0  0  0  0  0
   -0.1089    1.6510    0.0000 C   0  0  0  0  0  0  0  0  0
   -2.9668   -1.6490    0.0000 C   0  0  0  0  0  0  0  0  0
  1  2  1  0  0  0  0
  1 10  1  0  0  0  0
  1 19  1  0  0  0  0
  2  3  1  0  0  0  0
  2  7  1  0  0  0  0
  3  4  1  0  0  0  0
  4  5  4  0  0  0  0
  4 17  4  0  0  0  0
  5  6  1  0  0  0  0
  5 14  4  0  0  0  0
  6  7  4  0  0  0  0
  6 13  4  0  0  0  0
  7  8  4  0  0  0  0
  8  9  1  0  0  0  0
  8 11  4  0  0  0  0
  9 10  1  0  0  0  0
 11 12  4  0  0  0  0
 12 13  4  0  0  0  0
 14 15  4  0  0  0  0
 14 18  1  0  0  0  0
 15 16  4  0  0  0  0
 16 17  4  0  0  0  0
M  END
>  <Name_Molregno>
36988

>  <5-HT1A>
7.84

>  <DOPAMINE D2>
6.7

$$$$
37323
  Marvin  02231216192D 0   1.00000     0.00000     0

 19 23  0  0  1  0  0  0  0  0999 V2000
   -2.9450    0.7635    0.0000 N   0  0  0  0  0  0  0  0  0
   -2.2305    0.3510    0.0000 C   0  0  0  0  0  0  0  0  0
   -1.5161    0.7635    0.0000 C   0  0  0  0  0  0  0  0  0
   -0.8016    0.3510    0.0000 C   0  0  0  0  0  0  0  0  0
   -0.8016   -0.4740    0.0000 C   0  0  0  0  0  0  0  0  0
   -1.5161   -0.8865    0.0000 C   0  0  0  0  0  0  0  0  0
   -2.2305   -0.4740    0.0000 C   0  0  0  0  0  0  0  0  0
   -2.9450   -0.8865    0.0000 C   0  0  0  0  0  0  0  0  0
   -3.6595   -0.4740    0.0000 C   0  0  0  0  0  0  0  0  0
   -3.6595    0.3510    0.0000 C   0  0  0  0  0  0  0  0  0
   -2.9450   -1.7115    0.0000 C   0  0  0  0  0  0  0  0  0
   -2.2305   -2.1240    0.0000 C   0  0  0  0  0  0  0  0  0
   -1.5161   -1.7115    0.0000 C   0  0  0  0  0  0  0  0  0
   -0.5240   -1.7797    0.0000 C   0  0  0  0  0  0  0  0  0
   -0.0871   -0.8865    0.0000 C   0  0  0  0  0  0  0  0  0
    0.6274   -0.4740    0.0000 C   0  0  0  0  0  0  0  0  0
    0.6274    0.3510    0.0000 C   0  0  0  0  0  0  0  0  0
   -0.0871    0.7635    0.0000 C   0  0  0  0  0  0  0  0  0
   -2.9450    1.5885    0.0000 C   0  0  0  0  0  0  0  0  0
  1  2  1  0  0  0  0
  1 10  1  0  0  0  0
  1 19  1  0  0  0  0
  2  3  1  0  0  0  0
  2  7  1  0  0  0  0
  3  4  1  0  0  0  0
  4  5  4  0  0  0  0
  4 18  4  0  0  0  0
  5  6  1  0  0  0  0
  5 15  4  0  0  0  0
  6  7  4  0  0  0  0
  6 13  4  0  0  0  0
  7  8  4  0  0  0  0
  8  9  1  0  0  0  0
  8 11  4  0  0  0  0
  9 10  1  0  0  0  0
 11 12  4  0  0  0  0
 12 13  4  0  0  0  0
 13 14  1  0  0  0  0
 14 15  1  0  0  0  0
 15 16  4  0  0  0  0
 16 17  4  0  0  0  0
 17 18  4  0  0  0  0
M  END
>  <Name_Molregno>
37323

>  <5-HT1A>
7.39

$$$$
37476
  Marvin  02231216192D 0   1.00000     0.00000     0

 20 24  0  0  1  0  0  0  0  0999 V2000
   -3.1305    0.8016    0.0000 N   0  0  0  0  0  0  0  0  0
   -2.4161    0.3891    0.0000 C   0  0  0  0  0  0  0  0  0
   -1.7016    0.8016    0.0000 C   0  0  0  0  0  0  0  0  0
   -0.9871    0.3891    0.0000 C   0  0  0  0  0  0  0  0  0
   -0.9871   -0.4359    0.0000 C   0  0  0  0  0  0  0  0  0
   -0.2727   -0.8484    0.0000 C   0  0  0  0  0  0  0  0  0
    0.4418   -0.4359    0.0000 C   0  0  0  0  0  0  0  0  0
    0.4418    0.3891    0.0000 C   0  0  0  0  0  0  0  0  0
   -0.2727    0.8016    0.0000 C   0  0  0  0  0  0  0  0  0
   -0.7096   -1.7416    0.0000 C   0  0  0  0  0  0  0  0  0
   -1.7016   -1.6734    0.0000 C   0  0  0  0  0  0  0  0  0
   -1.7016   -0.8484    0.0000 C   0  0  0  0  0  0  0  0  0
   -2.4161   -0.4359    0.0000 C   0  0  0  0  0  0  0  0  0
   -3.1305   -0.8484    0.0000 C   0  0  0  0  0  0  0  0  0
   -3.8450   -0.4359    0.0000 C   0  0  0  0  0  0  0  0  0
   -3.8450    0.3891    0.0000 C   0  0  0  0  0  0  0  0  0
   -3.1305   -1.6734    0.0000 C   0  0  0  0  0  0  0  0  0
   -2.4161   -2.0859    0.0000 C   0  0  0  0  0  0  0  0  0
   -0.2971   -2.4561    0.0000 C   0  0  0  0  0  0  0  0  0
   -3.1305    1.6266    0.0000 C   0  0  0  0  0  0  0  0  0
  1  2  1  0  0  0  0
  1 16  1  0  0  0  0
  1 20  1  0  0  0  0
  2  3  1  0  0  0  0
  2 13  1  0  0  0  0
  3  4  1  0  0  0  0
  4  5  4  0  0  0  0
  4  9  4  0  0  0  0
  5  6  4  0  0  0  0
  5 12  1  0  0  0  0
  6  7  4  0  0  0  0
  6 10  1  0  0  0  0
  7  8  4  0  0  0  0
  8  9  4  0  0  0  0
 10 11  1  0  0  0  0
 10 19  1  0  0  0  0
 11 12  4  0  0  0  0
 11 18  4  0  0  0  0
 12 13  4  0  0  0  0
 13 14  4  0  0  0  0
 14 15  1  0  0  0  0
 14 17  4  0  0  0  0
 15 16  1  0  0  0  0
 17 18  4  0  0  0  0
M  END
>  <Name_Molregno>
37476

>  <5-HT1A>
7.91

$$$$
38445
  Marvin  02231216192D 0   1.00000     0.00000     0

 29 32  0  0  0  0  0  0  0  0999 V2000
    9.5911   -1.5592    0.0000 Cl  0  0  0  0  0  0  0  0  0
    8.8766   -1.1467    0.0000 C   0  0  0  0  0  0  0  0  0
    8.1622   -1.5592    0.0000 C   0  0  0  0  0  0  0  0  0
    7.4477   -1.1467    0.0000 C   0  0  0  0  0  0  0  0  0
    7.4477   -0.3217    0.0000 C   0  0  0  0  0  0  0  0  0
    6.6631   -0.0667    0.0000 S   0  0  0  0  0  0  0  0  0
    6.1782   -0.7342    0.0000 C   0  0  0  0  0  0  0  0  0
    5.3532   -0.7342    0.0000 S   0  0  0  0  0  0  0  0  0
    5.3532    0.0908    0.0000 O   0  0  0  0  0  0  0  0  0
    5.3532   -1.5592    0.0000 O   0  0  0  0  0  0  0  0  0
    4.5282   -0.7342    0.0000 N   0  0  0  0  0  0  0  0  0
    4.1157   -0.0197    0.0000 C   0  0  0  0  0  0  0  0  0
    3.2907   -0.0197    0.0000 C   0  0  0  0  0  0  0  0  0
    2.8782    0.6948    0.0000 C   0  0  0  0  0  0  0  0  0
    2.0532    0.6948    0.0000 N   0  0  0  0  0  0  0  0  0
    1.6407   -0.0197    0.0000 C   0  0  0  0  0  0  0  0  0
    0.8157   -0.0197    0.0000 C   0  0  0  0  0  0  0  0  0
    0.4032    0.6948    0.0000 N   0  0  0  0  0  0  0  0  0
    0.8157    1.4092    0.0000 C   0  0  0  0  0  0  0  0  0
    1.6407    1.4092    0.0000 C   0  0  0  0  0  0  0  0  0
    3.2907    1.4092    0.0000 C   0  0  0  0  0  0  0  0  0
    2.8782    2.1237    0.0000 O   0  0  0  0  0  0  0  0  0
    3.2907    2.8382    0.0000 C   0  0  0  0  0  0  0  0  0
    4.1157    1.4092    0.0000 C   0  0  0  0  0  0  0  0  0
    4.5282    0.6948    0.0000 C   0  0  0  0  0  0  0  0  0
    6.6631   -1.4016    0.0000 C   0  0  0  0  0  0  0  0  0
    6.4081   -2.1862    0.0000 C   0  0  0  0  0  0  0  0  0
    8.1622    0.0908    0.0000 C   0  0  0  0  0  0  0  0  0
    8.8766   -0.3217    0.0000 C   0  0  0  0  0  0  0  0  0
  1  2  1  0  0  0  0
  2  3  4  0  0  0  0
  2 29  4  0  0  0  0
  3  4  4  0  0  0  0
  4  5  4  0  0  0  0
  4 26  4  0  0  0  0
  5  6  4  0  0  0  0
  5 28  4  0  0  0  0
  6  7  4  0  0  0  0
  7  8  1  0  0  0  0
  7 26  4  0  0  0  0
  8  9  2  0  0  0  0
  8 10  2  0  0  0  0
  8 11  1  0  0  0  0
 11 12  1  0  0  0  0
 12 13  4  0  0  0  0
 12 25  4  0  0  0  0
 13 14  4  0  0  0  0
 14 15  1  0  0  0  0
 14 21  4  0  0  0  0
 15 16  1  0  0  0  0
 15 20  1  0  0  0  0
 16 17  1  0  0  0  0
 17 18  1  0  0  0  0
 18 19  1  0  0  0  0
 19 20  1  0  0  0  0
 21 22  1  0  0  0  0
 21 24  4  0  0  0  0
 22 23  1  0  0  0  0
 24 25  4  0  0  0  0
 26 27  1  0  0  0  0
 28 29  4  0  0  0  0
M  END
>  <Name_Molregno>
38445

>  <5-HT1A>
6.47

>  <5-HT2A>
5.76

>  <5-HT2C>
6.28

>  <5-HT6>
8.87

>  <5-HT7>
6.59

>  <DOPAMINE D1>
6.92

>  <DOPAMINE D2>
6.34

>  <DOPAMINE D3>
5.88

>  <DOPAMINE D4>
6.89

$$$$
40060
  Marvin  02231216192D 0   1.00000     0.00000     0

 23 26  0  0  0  0  0  0  0  0999 V2000
   -5.1381   -0.8657    0.0000 F   0  0  0  0  0  0  0  0  0
   -5.3930   -0.0811    0.0000 C   0  0  0  0  0  0  0  0  0
   -6.2000    0.0904    0.0000 C   0  0  0  0  0  0  0  0  0
   -6.4549    0.8751    0.0000 C   0  0  0  0  0  0  0  0  0
   -5.9029    1.4882    0.0000 C   0  0  0  0  0  0  0  0  0
   -5.0959    1.3166    0.0000 C   0  0  0  0  0  0  0  0  0
   -4.8410    0.5320    0.0000 C   0  0  0  0  0  0  0  0  0
   -4.0340    0.3605    0.0000 N   0  0  0  0  0  0  0  0  0
   -3.4820    0.9736    0.0000 C   0  0  0  0  0  0  0  0  0
   -2.6750    0.8021    0.0000 C   0  0  0  0  0  0  0  0  0
   -2.4201    0.0174    0.0000 N   0  0  0  0  0  0  0  0  0
   -2.9721   -0.5957    0.0000 C   0  0  0  0  0  0  0  0  0
   -3.7791   -0.4241    0.0000 C   0  0  0  0  0  0  0  0  0
   -1.6131   -0.1541    0.0000 C   0  0  0  0  0  0  0  0  0
   -1.3581   -0.9387    0.0000 C   0  0  0  0  0  0  0  0  0
   -0.5735   -1.1937    0.0000 C   0  0  0  0  0  0  0  0  0
    0.1409   -0.7812    0.0000 C   0  0  0  0  0  0  0  0  0
    0.8554   -1.1937    0.0000 C   0  0  0  0  0  0  0  0  0
    0.8554   -2.0187    0.0000 C   0  0  0  0  0  0  0  0  0
    0.1409   -2.4312    0.0000 N   0  0  0  0  0  0  0  0  0
   -0.5735   -2.0187    0.0000 C   0  0  0  0  0  0  0  0  0
   -1.3581   -2.2736    0.0000 N   0  0  0  0  0  0  0  0  0
   -1.8431   -1.6062    0.0000 C   0  0  0  0  0  0  0  0  0
  1  2  1  0  0  0  0
  2  3  4  0  0  0  0
  2  7  4  0  0  0  0
  3  4  4  0  0  0  0
  4  5  4  0  0  0  0
  5  6  4  0  0  0  0
  6  7  4  0  0  0  0
  7  8  1  0  0  0  0
  8  9  1  0  0  0  0
  8 13  1  0  0  0  0
  9 10  1  0  0  0  0
 10 11  1  0  0  0  0
 11 12  1  0  0  0  0
 11 14  1  0  0  0  0
 12 13  1  0  0  0  0
 14 15  1  0  0  0  0
 15 16  4  0  0  0  0
 15 23  4  0  0  0  0
 16 17  4  0  0  0  0
 16 21  4  0  0  0  0
 17 18  4  0  0  0  0
 18 19  4  0  0  0  0
 19 20  4  0  0  0  0
 20 21  4  0  0  0  0
 21 22  4  0  0  0  0
 22 23  4  0  0  0  0
M  STY  1   1 DAT
M  SAL   1  1  22
M  SDT   1 MRV_IMPLICIT_H                                        
M  SDD   1     0.0000    0.0000    DR    ALL  0       0  
M  SED   1 IMPL_H1
M  END
>  <Name_Molregno>
40060

>  <5-HT1A>
6

>  <5-HT1B>
5

>  <5-HT1D>
5

>  <5-HT1E>
5

>  <5-HT2A>
6.62

>  <5-HT2C>
5

>  <5-HT5>
5

>  <5-HT6>
5

>  <5-HT7>
6.67

$$$$
40138
  Marvin  02231216192D 0   1.00000     0.00000     0

 28 32  0  0  0  0  0  0  0  0999 V2000
    1.1413   -2.5831    0.0000 N   0  0  0  0  0  0  0  0  0
    0.6563   -1.9156    0.0000 C   0  0  0  0  0  0  0  0  0
    1.1413   -1.2482    0.0000 C   0  0  0  0  0  0  0  0  0
    1.9259   -1.5031    0.0000 C   0  0  0  0  0  0  0  0  0
    2.6403   -1.0906    0.0000 C   0  0  0  0  0  0  0  0  0
    3.3548   -1.5031    0.0000 C   0  0  0  0  0  0  0  0  0
    3.3548   -2.3281    0.0000 C   0  0  0  0  0  0  0  0  0
    2.6403   -2.7406    0.0000 N   0  0  0  0  0  0  0  0  0
    1.9259   -2.3281    0.0000 C   0  0  0  0  0  0  0  0  0
    0.8863   -0.4636    0.0000 C   0  0  0  0  0  0  0  0  0
    1.4384    0.1495    0.0000 N   0  0  0  0  0  0  0  0  0
    1.1834    0.9341    0.0000 C   0  0  0  0  0  0  0  0  0
    1.7354    1.5472    0.0000 C   0  0  0  0  0  0  0  0  0
    2.5424    1.3757    0.0000 N   0  0  0  0  0  0  0  0  0
    2.7974    0.5911    0.0000 C   0  0  0  0  0  0  0  0  0
    2.2453   -0.0220    0.0000 C   0  0  0  0  0  0  0  0  0
    3.0944    1.9888    0.0000 C   0  0  0  0  0  0  0  0  0
    2.8395    2.7734    0.0000 C   0  0  0  0  0  0  0  0  0
    3.3915    3.3865    0.0000 C   0  0  0  0  0  0  0  0  0
    4.1985    3.2150    0.0000 C   0  0  0  0  0  0  0  0  0
    4.4535    2.4304    0.0000 C   0  0  0  0  0  0  0  0  0
    3.9014    1.8173    0.0000 C   0  0  0  0  0  0  0  0  0
    4.7505    3.8281    0.0000 C   0  0  0  0  0  0  0  0  0
    4.4956    4.6127    0.0000 C   0  0  0  0  0  0  0  0  0
    5.0476    5.2258    0.0000 C   0  0  0  0  0  0  0  0  0
    5.8546    5.0543    0.0000 C   0  0  0  0  0  0  0  0  0
    6.1096    4.2697    0.0000 C   0  0  0  0  0  0  0  0  0
    5.5575    3.6566    0.0000 C   0  0  0  0  0  0  0  0  0
  1  2  4  0  0  0  0
  1  9  4  0  0  0  0
  2  3  4  0  0  0  0
  3  4  4  0  0  0  0
  3 10  1  0  0  0  0
  4  5  4  0  0  0  0
  4  9  4  0  0  0  0
  5  6  4  0  0  0  0
  6  7  4  0  0  0  0
  7  8  4  0  0  0  0
  8  9  4  0  0  0  0
 10 11  1  0  0  0  0
 11 12  1  0  0  0  0
 11 16  1  0  0  0  0
 12 13  1  0  0  0  0
 13 14  1  0  0  0  0
 14 15  1  0  0  0  0
 14 17  1  0  0  0  0
 15 16  1  0  0  0  0
 17 18  4  0  0  0  0
 17 22  4  0  0  0  0
 18 19  4  0  0  0  0
 19 20  4  0  0  0  0
 20 21  4  0  0  0  0
 20 23  1  0  0  0  0
 21 22  4  0  0  0  0
 23 24  4  0  0  0  0
 23 28  4  0  0  0  0
 24 25  4  0  0  0  0
 25 26  4  0  0  0  0
 26 27  4  0  0  0  0
 27 28  4  0  0  0  0
M  STY  1   1 DAT
M  SAL   1  1   1
M  SDT   1 MRV_IMPLICIT_H                                        
M  SDD   1     0.0000    0.0000    DR    ALL  0       0  
M  SED   1 IMPL_H1
M  END
>  <Name_Molregno>
40138

>  <5-HT1A>
5

>  <5-HT1B>
5

>  <5-HT1D>
5

>  <5-HT1E>
5

>  <5-HT2A>
5.71

>  <5-HT2C>
5

>  <5-HT5>
5

>  <5-HT6>
5

>  <5-HT7>
5

$$$$
40141
  Marvin  02231216192D 0   1.00000     0.00000     0

 25 28  0  0  0  0  0  0  0  0999 V2000
    0.8591   -2.0056    0.0000 N   0  0  0  0  0  0  0  0  0
    0.3742   -1.3381    0.0000 C   0  0  0  0  0  0  0  0  0
    0.8591   -0.6707    0.0000 C   0  0  0  0  0  0  0  0  0
    1.6437   -0.9256    0.0000 C   0  0  0  0  0  0  0  0  0
    2.3582   -0.5131    0.0000 C   0  0  0  0  0  0  0  0  0
    3.0727   -0.9256    0.0000 C   0  0  0  0  0  0  0  0  0
    3.0727   -1.7506    0.0000 C   0  0  0  0  0  0  0  0  0
    2.3582   -2.1631    0.0000 N   0  0  0  0  0  0  0  0  0
    1.6437   -1.7506    0.0000 C   0  0  0  0  0  0  0  0  0
    0.6042    0.1139    0.0000 C   0  0  0  0  0  0  0  0  0
    1.1562    0.7270    0.0000 N   0  0  0  0  0  0  0  0  0
    0.9013    1.5116    0.0000 C   0  0  0  0  0  0  0  0  0
    1.4533    2.1247    0.0000 C   0  0  0  0  0  0  0  0  0
    2.2603    1.9532    0.0000 N   0  0  0  0  0  0  0  0  0
    2.5152    1.1686    0.0000 C   0  0  0  0  0  0  0  0  0
    1.9632    0.5555    0.0000 C   0  0  0  0  0  0  0  0  0
    2.8123    2.5663    0.0000 C   0  0  0  0  0  0  0  0  0
    2.5574    3.3509    0.0000 C   0  0  0  0  0  0  0  0  0
    3.1094    3.9640    0.0000 C   0  0  0  0  0  0  0  0  0
    3.9164    3.7925    0.0000 C   0  0  0  0  0  0  0  0  0
    4.1713    3.0079    0.0000 C   0  0  0  0  0  0  0  0  0
    3.6193    2.3948    0.0000 C   0  0  0  0  0  0  0  0  0
    4.4684    4.4056    0.0000 C   0  0  0  0  0  0  0  0  0
    5.2754    4.2341    0.0000 C   0  0  0  0  0  0  0  0  0
    5.8274    4.8472    0.0000 C   0  0  0  0  0  0  0  0  0
  1  2  4  0  0  0  0
  1  9  4  0  0  0  0
  2  3  4  0  0  0  0
  3  4  4  0  0  0  0
  3 10  1  0  0  0  0
  4  5  4  0  0  0  0
  4  9  4  0  0  0  0
  5  6  4  0  0  0  0
  6  7  4  0  0  0  0
  7  8  4  0  0  0  0
  8  9  4  0  0  0  0
 10 11  1  0  0  0  0
 11 12  1  0  0  0  0
 11 16  1  0  0  0  0
 12 13  1  0  0  0  0
 13 14  1  0  0  0  0
 14 15  1  0  0  0  0
 14 17  1  0  0  0  0
 15 16  1  0  0  0  0
 17 18  4  0  0  0  0
 17 22  4  0  0  0  0
 18 19  4  0  0  0  0
 19 20  4  0  0  0  0
 20 21  4  0  0  0  0
 20 23  1  0  0  0  0
 21 22  4  0  0  0  0
 23 24  1  0  0  0  0
 24 25  1  0  0  0  0
M  STY  1   1 DAT
M  SAL   1  1   1
M  SDT   1 MRV_IMPLICIT_H                                        
M  SDD   1     0.0000    0.0000    DR    ALL  0       0  
M  SED   1 IMPL_H1
M  END
>  <Name_Molregno>
40141

>  <5-HT1A>
5

>  <5-HT1B>
5

>  <5-HT1D>
5

>  <5-HT1E>
5

>  <5-HT2A>
5

>  <5-HT2C>
5

>  <5-HT5>
5

>  <5-HT6>
5.19

>  <5-HT7>
6.15

$$$$
40142
  Marvin  02231216192D 0   1.00000     0.00000     0

 24 27  0  0  0  0  0  0  0  0999 V2000
    0.8175   -1.8909    0.0000 N   0  0  0  0  0  0  0  0  0
    0.3326   -1.2235    0.0000 C   0  0  0  0  0  0  0  0  0
    0.8175   -0.5560    0.0000 C   0  0  0  0  0  0  0  0  0
    1.6022   -0.8110    0.0000 C   0  0  0  0  0  0  0  0  0
    2.3166   -0.3985    0.0000 C   0  0  0  0  0  0  0  0  0
    3.0311   -0.8110    0.0000 C   0  0  0  0  0  0  0  0  0
    3.0311   -1.6360    0.0000 C   0  0  0  0  0  0  0  0  0
    2.3166   -2.0485    0.0000 N   0  0  0  0  0  0  0  0  0
    1.6022   -1.6360    0.0000 C   0  0  0  0  0  0  0  0  0
    0.5626    0.2286    0.0000 C   0  0  0  0  0  0  0  0  0
    1.1146    0.8417    0.0000 N   0  0  0  0  0  0  0  0  0
    0.8597    1.6263    0.0000 C   0  0  0  0  0  0  0  0  0
    1.4117    2.2394    0.0000 C   0  0  0  0  0  0  0  0  0
    2.2187    2.0679    0.0000 N   0  0  0  0  0  0  0  0  0
    2.4736    1.2832    0.0000 C   0  0  0  0  0  0  0  0  0
    1.9216    0.6701    0.0000 C   0  0  0  0  0  0  0  0  0
    2.7707    2.6810    0.0000 C   0  0  0  0  0  0  0  0  0
    2.5158    3.4656    0.0000 C   0  0  0  0  0  0  0  0  0
    3.0678    4.0787    0.0000 C   0  0  0  0  0  0  0  0  0
    3.8748    3.9071    0.0000 C   0  0  0  0  0  0  0  0  0
    4.1297    3.1225    0.0000 C   0  0  0  0  0  0  0  0  0
    3.5777    2.5094    0.0000 C   0  0  0  0  0  0  0  0  0
    4.4268    4.5202    0.0000 C   0  0  0  0  0  0  0  0  0
    4.1719    5.3049    0.0000 C   0  0  0  0  0  0  0  0  0
  1  2  4  0  0  0  0
  1  9  4  0  0  0  0
  2  3  4  0  0  0  0
  3  4  4  0  0  0  0
  3 10  1  0  0  0  0
  4  5  4  0  0  0  0
  4  9  4  0  0  0  0
  5  6  4  0  0  0  0
  6  7  4  0  0  0  0
  7  8  4  0  0  0  0
  8  9  4  0  0  0  0
 10 11  1  0  0  0  0
 11 12  1  0  0  0  0
 11 16  1  0  0  0  0
 12 13  1  0  0  0  0
 13 14  1  0  0  0  0
 14 15  1  0  0  0  0
 14 17  1  0  0  0  0
 15 16  1  0  0  0  0
 17 18  4  0  0  0  0
 17 22  4  0  0  0  0
 18 19  4  0  0  0  0
 19 20  4  0  0  0  0
 20 21  4  0  0  0  0
 20 23  1  0  0  0  0
 21 22  4  0  0  0  0
 23 24  1  0  0  0  0
M  STY  1   1 DAT
M  SAL   1  1   1
M  SDT   1 MRV_IMPLICIT_H                                        
M  SDD   1     0.0000    0.0000    DR    ALL  0       0  
M  SED   1 IMPL_H1
M  END
>  <Name_Molregno>
40142

>  <5-HT1A>
5

>  <5-HT1B>
5

>  <5-HT1D>
5

>  <5-HT1E>
5

>  <5-HT2A>
6.2

>  <5-HT2C>
5

>  <5-HT5>
5

>  <5-HT6>
5.35

>  <5-HT7>
6.39

$$$$
40143
  Marvin  02231216192D 0   1.00000     0.00000     0

 24 27  0  0  0  0  0  0  0  0999 V2000
   -4.8672   -0.8164    0.0000 O   0  0  0  0  0  0  0  0  0
   -5.4192   -1.4295    0.0000 C   0  0  0  0  0  0  0  0  0
   -5.1221   -0.0318    0.0000 C   0  0  0  0  0  0  0  0  0
   -5.9291    0.1397    0.0000 C   0  0  0  0  0  0  0  0  0
   -6.1840    0.9243    0.0000 C   0  0  0  0  0  0  0  0  0
   -5.6320    1.5374    0.0000 C   0  0  0  0  0  0  0  0  0
   -4.8250    1.3659    0.0000 C   0  0  0  0  0  0  0  0  0
   -4.5701    0.5813    0.0000 C   0  0  0  0  0  0  0  0  0
   -3.7631    0.4098    0.0000 N   0  0  0  0  0  0  0  0  0
   -3.2111    1.0229    0.0000 C   0  0  0  0  0  0  0  0  0
   -2.4041    0.8513    0.0000 C   0  0  0  0  0  0  0  0  0
   -2.1492    0.0667    0.0000 N   0  0  0  0  0  0  0  0  0
   -2.7012   -0.5464    0.0000 C   0  0  0  0  0  0  0  0  0
   -3.5082   -0.3749    0.0000 C   0  0  0  0  0  0  0  0  0
   -1.3422   -0.1048    0.0000 C   0  0  0  0  0  0  0  0  0
   -1.0873   -0.8894    0.0000 C   0  0  0  0  0  0  0  0  0
   -0.3026   -1.1444    0.0000 C   0  0  0  0  0  0  0  0  0
    0.4118   -0.7319    0.0000 C   0  0  0  0  0  0  0  0  0
    1.1263   -1.1444    0.0000 C   0  0  0  0  0  0  0  0  0
    1.1263   -1.9694    0.0000 C   0  0  0  0  0  0  0  0  0
    0.4118   -2.3819    0.0000 N   0  0  0  0  0  0  0  0  0
   -0.3026   -1.9694    0.0000 C   0  0  0  0  0  0  0  0  0
   -1.0873   -2.2243    0.0000 N   0  0  0  0  0  0  0  0  0
   -1.5722   -1.5569    0.0000 C   0  0  0  0  0  0  0  0  0
  1  2  1  0  0  0  0
  1  3  1  0  0  0  0
  3  4  4  0  0  0  0
  3  8  4  0  0  0  0
  4  5  4  0  0  0  0
  5  6  4  0  0  0  0
  6  7  4  0  0  0  0
  7  8  4  0  0  0  0
  8  9  1  0  0  0  0
  9 10  1  0  0  0  0
  9 14  1  0  0  0  0
 10 11  1  0  0  0  0
 11 12  1  0  0  0  0
 12 13  1  0  0  0  0
 12 15  1  0  0  0  0
 13 14  1  0  0  0  0
 15 16  1  0  0  0  0
 16 17  4  0  0  0  0
 16 24  4  0  0  0  0
 17 18  4  0  0  0  0
 17 22  4  0  0  0  0
 18 19  4  0  0  0  0
 19 20  4  0  0  0  0
 20 21  4  0  0  0  0
 21 22  4  0  0  0  0
 22 23  4  0  0  0  0
 23 24  4  0  0  0  0
M  STY  1   1 DAT
M  SAL   1  1  23
M  SDT   1 MRV_IMPLICIT_H                                        
M  SDD   1     0.0000    0.0000    DR    ALL  0       0  
M  SED   1 IMPL_H1
M  END
>  <Name_Molregno>
40143

>  <5-HT1A>
6.39

>  <5-HT1B>
5

>  <5-HT1D>
5

>  <5-HT1E>
5

>  <5-HT2A>
5.64

>  <5-HT2C>
5

>  <5-HT5>
5

>  <5-HT6>
5.13

>  <5-HT7>
6.99

$$$$
40144
  Marvin  02231216192D 0   1.00000     0.00000     0

 24 27  0  0  0  0  0  0  0  0999 V2000
    0.8175   -1.8909    0.0000 N   0  0  0  0  0  0  0  0  0
    0.3326   -1.2235    0.0000 C   0  0  0  0  0  0  0  0  0
    0.8175   -0.5560    0.0000 C   0  0  0  0  0  0  0  0  0
    1.6022   -0.8110    0.0000 C   0  0  0  0  0  0  0  0  0
    2.3166   -0.3985    0.0000 C   0  0  0  0  0  0  0  0  0
    3.0311   -0.8110    0.0000 C   0  0  0  0  0  0  0  0  0
    3.0311   -1.6360    0.0000 C   0  0  0  0  0  0  0  0  0
    2.3166   -2.0485    0.0000 N   0  0  0  0  0  0  0  0  0
    1.6022   -1.6360    0.0000 C   0  0  0  0  0  0  0  0  0
    0.5626    0.2286    0.0000 C   0  0  0  0  0  0  0  0  0
    1.1146    0.8417    0.0000 N   0  0  0  0  0  0  0  0  0
    0.8597    1.6263    0.0000 C   0  0  0  0  0  0  0  0  0
    1.4117    2.2394    0.0000 C   0  0  0  0  0  0  0  0  0
    2.2187    2.0679    0.0000 N   0  0  0  0  0  0  0  0  0
    2.4736    1.2832    0.0000 C   0  0  0  0  0  0  0  0  0
    1.9216    0.6701    0.0000 C   0  0  0  0  0  0  0  0  0
    2.7707    2.6810    0.0000 C   0  0  0  0  0  0  0  0  0
    2.5158    3.4656    0.0000 C   0  0  0  0  0  0  0  0  0
    3.0678    4.0787    0.0000 C   0  0  0  0  0  0  0  0  0
    3.8748    3.9071    0.0000 C   0  0  0  0  0  0  0  0  0
    4.1297    3.1225    0.0000 C   0  0  0  0  0  0  0  0  0
    3.5777    2.5094    0.0000 C   0  0  0  0  0  0  0  0  0
    4.4268    4.5202    0.0000 C   0  0  0  0  0  0  0  0  0
    4.1719    5.3049    0.0000 C   0  0  0  0  0  0  0  0  0
  1  2  4  0  0  0  0
  1  9  4  0  0  0  0
  2  3  4  0  0  0  0
  3  4  4  0  0  0  0
  3 10  1  0  0  0  0
  4  5  4  0  0  0  0
  4  9  4  0  0  0  0
  5  6  4  0  0  0  0
  6  7  4  0  0  0  0
  7  8  4  0  0  0  0
  8  9  4  0  0  0  0
 10 11  1  0  0  0  0
 11 12  1  0  0  0  0
 11 16  1  0  0  0  0
 12 13  1  0  0  0  0
 13 14  1  0  0  0  0
 14 15  1  0  0  0  0
 14 17  1  0  0  0  0
 15 16  1  0  0  0  0
 17 18  4  0  0  0  0
 17 22  4  0  0  0  0
 18 19  4  0  0  0  0
 19 20  4  0  0  0  0
 20 21  4  0  0  0  0
 20 23  1  0  0  0  0
 21 22  4  0  0  0  0
 23 24  2  0  0  0  0
M  STY  1   1 DAT
M  SAL   1  1   1
M  SDT   1 MRV_IMPLICIT_H                                        
M  SDD   1     0.0000    0.0000    DR    ALL  0       0  
M  SED   1 IMPL_H1
M  END
>  <Name_Molregno>
40144

>  <5-HT1A>
5.4

>  <5-HT1B>
5

>  <5-HT1D>
5

>  <5-HT1E>
5

>  <5-HT2A>
6.29

>  <5-HT2C>
5

>  <5-HT5>
5

>  <5-HT6>
5

>  <5-HT7>
5

$$$$
40145
  Marvin  02231216192D 0   1.00000     0.00000     0

 26 29  0  0  0  0  0  0  0  0999 V2000
    0.0657    1.7835    0.0000 F   0  0  0  0  0  0  0  0  0
    0.8727    1.6120    0.0000 C   0  0  0  0  0  0  0  0  0
    0.7011    0.8050    0.0000 F   0  0  0  0  0  0  0  0  0
    1.0442    2.4190    0.0000 F   0  0  0  0  0  0  0  0  0
    1.6796    1.4405    0.0000 C   0  0  0  0  0  0  0  0  0
    2.2317    2.0536    0.0000 C   0  0  0  0  0  0  0  0  0
    3.0386    1.8820    0.0000 C   0  0  0  0  0  0  0  0  0
    3.2936    1.0974    0.0000 C   0  0  0  0  0  0  0  0  0
    4.1005    0.9259    0.0000 N   0  0  0  0  0  0  0  0  0
    4.6526    1.5390    0.0000 C   0  0  0  0  0  0  0  0  0
    5.4595    1.3675    0.0000 C   0  0  0  0  0  0  0  0  0
    5.7145    0.5828    0.0000 N   0  0  0  0  0  0  0  0  0
    5.1625   -0.0303    0.0000 C   0  0  0  0  0  0  0  0  0
    4.3555    0.1413    0.0000 C   0  0  0  0  0  0  0  0  0
    6.5215    0.4113    0.0000 C   0  0  0  0  0  0  0  0  0
    6.7764   -0.3733    0.0000 C   0  0  0  0  0  0  0  0  0
    7.5610   -0.6282    0.0000 C   0  0  0  0  0  0  0  0  0
    8.2755   -0.2157    0.0000 C   0  0  0  0  0  0  0  0  0
    8.9900   -0.6282    0.0000 C   0  0  0  0  0  0  0  0  0
    8.9900   -1.4532    0.0000 C   0  0  0  0  0  0  0  0  0
    8.2755   -1.8657    0.0000 N   0  0  0  0  0  0  0  0  0
    7.5610   -1.4532    0.0000 C   0  0  0  0  0  0  0  0  0
    6.7764   -1.7082    0.0000 N   0  0  0  0  0  0  0  0  0
    6.2915   -1.0407    0.0000 C   0  0  0  0  0  0  0  0  0
    2.7415    0.4843    0.0000 C   0  0  0  0  0  0  0  0  0
    1.9346    0.6559    0.0000 C   0  0  0  0  0  0  0  0  0
  1  2  1  0  0  0  0
  2  3  1  0  0  0  0
  2  4  1  0  0  0  0
  2  5  1  0  0  0  0
  5  6  4  0  0  0  0
  5 26  4  0  0  0  0
  6  7  4  0  0  0  0
  7  8  4  0  0  0  0
  8  9  1  0  0  0  0
  8 25  4  0  0  0  0
  9 10  1  0  0  0  0
  9 14  1  0  0  0  0
 10 11  1  0  0  0  0
 11 12  1  0  0  0  0
 12 13  1  0  0  0  0
 12 15  1  0  0  0  0
 13 14  1  0  0  0  0
 15 16  1  0  0  0  0
 16 17  4  0  0  0  0
 16 24  4  0  0  0  0
 17 18  4  0  0  0  0
 17 22  4  0  0  0  0
 18 19  4  0  0  0  0
 19 20  4  0  0  0  0
 20 21  4  0  0  0  0
 21 22  4  0  0  0  0
 22 23  4  0  0  0  0
 23 24  4  0  0  0  0
 25 26  4  0  0  0  0
M  STY  1   1 DAT
M  SAL   1  1  23
M  SDT   1 MRV_IMPLICIT_H                                        
M  SDD   1     0.0000    0.0000    DR    ALL  0       0  
M  SED   1 IMPL_H1
M  END
>  <Name_Molregno>
40145

>  <5-HT1A>
5

>  <5-HT1B>
5

>  <5-HT1D>
5

>  <5-HT1E>
5

>  <5-HT2A>
5.55

>  <5-HT2C>
5

>  <5-HT5>
5

>  <5-HT6>
5.15

>  <5-HT7>
6.5

$$$$
40178
  Marvin  02231216192D 0   1.00000     0.00000     0

 24 27  0  0  0  0  0  0  0  0999 V2000
   -8.4666    1.7569    0.0000 S   0  0  0  0  0  0  0  0  0
   -9.0187    1.1438    0.0000 C   0  0  0  0  0  0  0  0  0
   -7.6597    1.5853    0.0000 C   0  0  0  0  0  0  0  0  0
   -7.1076    2.1984    0.0000 C   0  0  0  0  0  0  0  0  0
   -6.3007    2.0269    0.0000 C   0  0  0  0  0  0  0  0  0
   -6.0457    1.2423    0.0000 C   0  0  0  0  0  0  0  0  0
   -5.2387    1.0708    0.0000 N   0  0  0  0  0  0  0  0  0
   -4.6867    1.6839    0.0000 C   0  0  0  0  0  0  0  0  0
   -3.8797    1.5123    0.0000 C   0  0  0  0  0  0  0  0  0
   -3.6248    0.7277    0.0000 N   0  0  0  0  0  0  0  0  0
   -4.1768    0.1146    0.0000 C   0  0  0  0  0  0  0  0  0
   -4.9838    0.2861    0.0000 C   0  0  0  0  0  0  0  0  0
   -2.8178    0.5562    0.0000 C   0  0  0  0  0  0  0  0  0
   -2.5629   -0.2284    0.0000 C   0  0  0  0  0  0  0  0  0
   -1.7783   -0.4834    0.0000 C   0  0  0  0  0  0  0  0  0
   -1.0638   -0.0709    0.0000 C   0  0  0  0  0  0  0  0  0
   -0.3493   -0.4834    0.0000 C   0  0  0  0  0  0  0  0  0
   -0.3493   -1.3084    0.0000 C   0  0  0  0  0  0  0  0  0
   -1.0638   -1.7209    0.0000 N   0  0  0  0  0  0  0  0  0
   -1.7783   -1.3084    0.0000 C   0  0  0  0  0  0  0  0  0
   -2.5629   -1.5633    0.0000 N   0  0  0  0  0  0  0  0  0
   -3.0478   -0.8959    0.0000 C   0  0  0  0  0  0  0  0  0
   -6.5977    0.6292    0.0000 C   0  0  0  0  0  0  0  0  0
   -7.4047    0.8007    0.0000 C   0  0  0  0  0  0  0  0  0
  1  2  1  0  0  0  0
  1  3  1  0  0  0  0
  3  4  4  0  0  0  0
  3 24  4  0  0  0  0
  4  5  4  0  0  0  0
  5  6  4  0  0  0  0
  6  7  1  0  0  0  0
  6 23  4  0  0  0  0
  7  8  1  0  0  0  0
  7 12  1  0  0  0  0
  8  9  1  0  0  0  0
  9 10  1  0  0  0  0
 10 11  1  0  0  0  0
 10 13  1  0  0  0  0
 11 12  1  0  0  0  0
 13 14  1  0  0  0  0
 14 15  4  0  0  0  0
 14 22  4  0  0  0  0
 15 16  4  0  0  0  0
 15 20  4  0  0  0  0
 16 17  4  0  0  0  0
 17 18  4  0  0  0  0
 18 19  4  0  0  0  0
 19 20  4  0  0  0  0
 20 21  4  0  0  0  0
 21 22  4  0  0  0  0
 23 24  4  0  0  0  0
M  STY  1   1 DAT
M  SAL   1  1  21
M  SDT   1 MRV_IMPLICIT_H                                        
M  SDD   1     0.0000    0.0000    DR    ALL  0       0  
M  SED   1 IMPL_H1
M  END
>  <Name_Molregno>
40178

>  <5-HT1A>
5

>  <5-HT1B>
5

>  <5-HT1D>
5

>  <5-HT1E>
5

>  <5-HT2A>
5

>  <5-HT2C>
5

>  <5-HT5>
5

>  <5-HT6>
5

>  <5-HT7>
6.47

$$$$
40961
  Marvin  02231216192D 0   1.00000     0.00000     0

 24 27  0  0  0  0  0  0  0  0999 V2000
   -8.4666    1.7569    0.0000 O   0  0  0  0  0  0  0  0  0
   -9.0187    1.1438    0.0000 C   0  0  0  0  0  0  0  0  0
   -7.6597    1.5853    0.0000 C   0  0  0  0  0  0  0  0  0
   -7.1076    2.1984    0.0000 C   0  0  0  0  0  0  0  0  0
   -6.3007    2.0269    0.0000 C   0  0  0  0  0  0  0  0  0
   -6.0457    1.2423    0.0000 C   0  0  0  0  0  0  0  0  0
   -5.2387    1.0708    0.0000 N   0  0  0  0  0  0  0  0  0
   -4.6867    1.6839    0.0000 C   0  0  0  0  0  0  0  0  0
   -3.8797    1.5123    0.0000 C   0  0  0  0  0  0  0  0  0
   -3.6248    0.7277    0.0000 N   0  0  0  0  0  0  0  0  0
   -4.1768    0.1146    0.0000 C   0  0  0  0  0  0  0  0  0
   -4.9838    0.2861    0.0000 C   0  0  0  0  0  0  0  0  0
   -2.8178    0.5562    0.0000 C   0  0  0  0  0  0  0  0  0
   -2.5629   -0.2284    0.0000 C   0  0  0  0  0  0  0  0  0
   -1.7783   -0.4834    0.0000 C   0  0  0  0  0  0  0  0  0
   -1.0638   -0.0709    0.0000 C   0  0  0  0  0  0  0  0  0
   -0.3493   -0.4834    0.0000 C   0  0  0  0  0  0  0  0  0
   -0.3493   -1.3084    0.0000 C   0  0  0  0  0  0  0  0  0
   -1.0638   -1.7209    0.0000 N   0  0  0  0  0  0  0  0  0
   -1.7783   -1.3084    0.0000 C   0  0  0  0  0  0  0  0  0
   -2.5629   -1.5633    0.0000 N   0  0  0  0  0  0  0  0  0
   -3.0478   -0.8959    0.0000 C   0  0  0  0  0  0  0  0  0
   -6.5977    0.6292    0.0000 C   0  0  0  0  0  0  0  0  0
   -7.4047    0.8007    0.0000 C   0  0  0  0  0  0  0  0  0
  1  2  1  0  0  0  0
  1  3  1  0  0  0  0
  3  4  4  0  0  0  0
  3 24  4  0  0  0  0
  4  5  4  0  0  0  0
  5  6  4  0  0  0  0
  6  7  1  0  0  0  0
  6 23  4  0  0  0  0
  7  8  1  0  0  0  0
  7 12  1  0  0  0  0
  8  9  1  0  0  0  0
  9 10  1  0  0  0  0
 10 11  1  0  0  0  0
 10 13  1  0  0  0  0
 11 12  1  0  0  0  0
 13 14  1  0  0  0  0
 14 15  4  0  0  0  0
 14 22  4  0  0  0  0
 15 16  4  0  0  0  0
 15 20  4  0  0  0  0
 16 17  4  0  0  0  0
 17 18  4  0  0  0  0
 18 19  4  0  0  0  0
 19 20  4  0  0  0  0
 20 21  4  0  0  0  0
 21 22  4  0  0  0  0
 23 24  4  0  0  0  0
M  STY  1   1 DAT
M  SAL   1  1  21
M  SDT   1 MRV_IMPLICIT_H                                        
M  SDD   1     0.0000    0.0000    DR    ALL  0       0  
M  SED   1 IMPL_H1
M  END
>  <Name_Molregno>
40961

>  <5-HT1A>
5

>  <5-HT1B>
5

>  <5-HT1D>
5

>  <5-HT1E>
5

>  <5-HT2A>
5

>  <5-HT2C>
5

>  <5-HT5>
5

>  <5-HT6>
5

>  <5-HT7>
5

>  <DOPAMINE D2>
5.82

>  <DOPAMINE D3>
5.41

>  <DOPAMINE D4>
8.89

$$$$
40962
  Marvin  02231216192D 0   1.00000     0.00000     0

 23 26  0  0  0  0  0  0  0  0999 V2000
    0.0748    1.8640    0.0000 F   0  0  0  0  0  0  0  0  0
    0.8818    1.6925    0.0000 C   0  0  0  0  0  0  0  0  0
    1.4339    2.3056    0.0000 C   0  0  0  0  0  0  0  0  0
    2.2408    2.1340    0.0000 C   0  0  0  0  0  0  0  0  0
    2.4958    1.3494    0.0000 C   0  0  0  0  0  0  0  0  0
    3.3027    1.1779    0.0000 N   0  0  0  0  0  0  0  0  0
    3.8548    1.7910    0.0000 C   0  0  0  0  0  0  0  0  0
    4.6617    1.6194    0.0000 C   0  0  0  0  0  0  0  0  0
    4.9167    0.8348    0.0000 N   0  0  0  0  0  0  0  0  0
    4.3646    0.2217    0.0000 C   0  0  0  0  0  0  0  0  0
    3.5577    0.3933    0.0000 C   0  0  0  0  0  0  0  0  0
    5.7237    0.6633    0.0000 C   0  0  0  0  0  0  0  0  0
    5.9786   -0.1213    0.0000 C   0  0  0  0  0  0  0  0  0
    6.7632   -0.3763    0.0000 C   0  0  0  0  0  0  0  0  0
    7.4777    0.0362    0.0000 C   0  0  0  0  0  0  0  0  0
    8.1922   -0.3763    0.0000 C   0  0  0  0  0  0  0  0  0
    8.1922   -1.2013    0.0000 C   0  0  0  0  0  0  0  0  0
    7.4777   -1.6138    0.0000 N   0  0  0  0  0  0  0  0  0
    6.7632   -1.2013    0.0000 C   0  0  0  0  0  0  0  0  0
    5.9786   -1.4562    0.0000 N   0  0  0  0  0  0  0  0  0
    5.4937   -0.7888    0.0000 C   0  0  0  0  0  0  0  0  0
    1.9437    0.7363    0.0000 C   0  0  0  0  0  0  0  0  0
    1.1368    0.9078    0.0000 C   0  0  0  0  0  0  0  0  0
  1  2  1  0  0  0  0
  2  3  4  0  0  0  0
  2 23  4  0  0  0  0
  3  4  4  0  0  0  0
  4  5  4  0  0  0  0
  5  6  1  0  0  0  0
  5 22  4  0  0  0  0
  6  7  1  0  0  0  0
  6 11  1  0  0  0  0
  7  8  1  0  0  0  0
  8  9  1  0  0  0  0
  9 10  1  0  0  0  0
  9 12  1  0  0  0  0
 10 11  1  0  0  0  0
 12 13  1  0  0  0  0
 13 14  4  0  0  0  0
 13 21  4  0  0  0  0
 14 15  4  0  0  0  0
 14 19  4  0  0  0  0
 15 16  4  0  0  0  0
 16 17  4  0  0  0  0
 17 18  4  0  0  0  0
 18 19  4  0  0  0  0
 19 20  4  0  0  0  0
 20 21  4  0  0  0  0
 22 23  4  0  0  0  0
M  STY  1   1 DAT
M  SAL   1  1  20
M  SDT   1 MRV_IMPLICIT_H                                        
M  SDD   1     0.0000    0.0000    DR    ALL  0       0  
M  SED   1 IMPL_H1
M  END
>  <Name_Molregno>
40962

>  <5-HT1A>
5.56

>  <5-HT1B>
5

>  <5-HT1D>
5

>  <5-HT1E>
5

>  <5-HT2A>
6.63

>  <5-HT2C>
5

>  <5-HT5>
5

>  <5-HT6>
5

>  <5-HT7>
6.38

$$$$
42179
  Marvin  02231216192D 0   1.00000     0.00000     0

 31 34  0  0  0  0  0  0  0  0999 V2000
    0.8929    1.6421    0.0000 O   0  0  0  0  0  0  0  0  0
    1.6074    2.0546    0.0000 C   0  0  0  0  0  0  0  0  0
    0.8929    0.8171    0.0000 C   0  0  0  0  0  0  0  0  0
    1.6074    0.4046    0.0000 C   0  0  0  0  0  0  0  0  0
    1.6074   -0.4204    0.0000 C   0  0  0  0  0  0  0  0  0
    0.8929   -0.8329    0.0000 C   0  0  0  0  0  0  0  0  0
    0.1785   -0.4204    0.0000 C   0  0  0  0  0  0  0  0  0
    0.1785    0.4046    0.0000 C   0  0  0  0  0  0  0  0  0
   -0.5360    0.8171    0.0000 N   0  0  0  0  0  0  0  0  0
   -1.2505    0.4046    0.0000 C   0  0  0  0  0  0  0  0  0
   -1.9649    0.8171    0.0000 C   0  0  0  0  0  0  0  0  0
   -1.9649    1.6421    0.0000 N   0  0  0  0  0  0  0  0  0
   -1.2505    2.0546    0.0000 C   0  0  0  0  0  0  0  0  0
   -0.5360    1.6421    0.0000 C   0  0  0  0  0  0  0  0  0
   -2.6794    2.0546    0.0000 C   0  0  0  0  0  0  0  0  0
   -3.3939    1.6421    0.0000 C   0  0  0  0  0  0  0  0  0
   -4.1083    2.0546    0.0000 N   0  0  0  0  0  0  0  0  0
   -4.8228    1.6421    0.0000 C   0  0  0  0  0  0  0  0  0
   -4.8228    0.8171    0.0000 O   0  0  0  0  0  0  0  0  0
   -5.5373    2.0546    0.0000 C   0  0  0  0  0  0  0  0  0
   -6.2518    1.6421    0.0000 C   0  0  0  0  0  0  0  0  0
   -6.9662    2.0546    0.0000 C   0  0  0  0  0  0  0  0  0
   -6.9662    2.8796    0.0000 C   0  0  0  0  0  0  0  0  0
   -6.2518    3.2921    0.0000 C   0  0  0  0  0  0  0  0  0
   -5.5373    2.8796    0.0000 C   0  0  0  0  0  0  0  0  0
   -4.1083    2.8796    0.0000 C   0  0  0  0  0  0  0  0  0
   -4.8228    3.2921    0.0000 N   0  0  0  0  0  0  0  0  0
   -4.8228    4.1171    0.0000 C   0  0  0  0  0  0  0  0  0
   -4.1083    4.5296    0.0000 C   0  0  0  0  0  0  0  0  0
   -3.3939    4.1171    0.0000 C   0  0  0  0  0  0  0  0  0
   -3.3939    3.2921    0.0000 C   0  0  0  0  0  0  0  0  0
  1  2  1  0  0  0  0
  1  3  1  0  0  0  0
  3  4  4  0  0  0  0
  3  8  4  0  0  0  0
  4  5  4  0  0  0  0
  5  6  4  0  0  0  0
  6  7  4  0  0  0  0
  7  8  4  0  0  0  0
  8  9  1  0  0  0  0
  9 10  1  0  0  0  0
  9 14  1  0  0  0  0
 10 11  1  0  0  0  0
 11 12  1  0  0  0  0
 12 13  1  0  0  0  0
 12 15  1  0  0  0  0
 13 14  1  0  0  0  0
 15 16  1  0  0  0  0
 16 17  1  0  0  0  0
 17 18  1  0  0  0  0
 17 26  1  0  0  0  0
 18 19  2  0  0  0  0
 18 20  1  0  0  0  0
 20 21  1  0  0  0  0
 20 25  1  0  0  0  0
 21 22  1  0  0  0  0
 22 23  1  0  0  0  0
 23 24  1  0  0  0  0
 24 25  1  0  0  0  0
 26 27  4  0  0  0  0
 26 31  4  0  0  0  0
 27 28  4  0  0  0  0
 28 29  4  0  0  0  0
 29 30  4  0  0  0  0
 30 31  4  0  0  0  0
M  END
>  <Name_Molregno>
42179

>  <5-HT1A>
9.12

>  <5-HT1B>
5

>  <5-HT1D>
5

>  <5-HT1E>
5

>  <5-HT2A>
5.2

>  <5-HT5>
5

>  <5-HT6>
5

>  <5-HT7>
5

>  <Alpha-1A>
7.71

>  <Alpha-1B>
6.33

>  <Alpha-2A>
5

>  <Alpha-2B>
5

>  <Alpha-2C>
5.59

>  <DOPAMINE D1>
5

>  <DOPAMINE D2>
6.57

>  <DOPAMINE D3>
7.17

>  <DOPAMINE D4>
7.79

>  <DOPAMINE D5>
5

>  <HISTAMINE H1>
5

>  <HISTAMINE H2>
5

>  <HISTAMINE H4>
5

>  <Muscarinic acetylcholine receptor M2>
5

>  <Muscarinic acetylcholine receptor M5>
5

$$$$
52338
  Marvin  02231216192D 0   1.00000     0.00000     0

 18 19  0  0  1  0  0  0  0  0999 V2000
   -4.9210   -2.8534    0.0000 O   0  0  0  0  0  0  0  0  0
   -4.2065   -2.4409    0.0000 C   0  0  0  0  0  0  0  0  0
   -4.2065   -1.6159    0.0000 C   0  0  0  0  0  0  0  0  0
   -3.4921   -1.2034    0.0000 C   0  0  0  0  0  0  0  0  0
   -3.4921   -0.3784    0.0000 C   0  0  0  0  0  0  0  0  0
   -2.7776    0.0341    0.0000 C   0  0  0  0  0  0  0  0  0
   -2.7776    0.8591    0.0000 N   0  0  0  0  0  0  0  0  0
   -3.4921    1.2716    0.0000 C   0  0  0  0  0  0  0  0  0
   -3.4921    2.0966    0.0000 C   0  0  0  0  0  0  0  0  0
   -4.2065    2.5091    0.0000 C   0  0  0  0  0  0  0  0  0
   -2.0631    1.2716    0.0000 C   0  0  0  0  0  0  0  0  0
   -2.0631    2.0966    0.0000 C   0  0  0  0  0  0  0  0  0
   -1.3487    2.5091    0.0000 C   0  0  0  0  0  0  0  0  0
   -2.0631   -0.3784    0.0000 C   0  0  0  0  0  0  0  0  0
   -2.0631   -1.2034    0.0000 C   0  0  0  0  0  0  0  0  0
   -2.7776   -1.6159    0.0000 C   0  0  0  0  0  0  0  0  0
   -2.7776   -2.4409    0.0000 C   0  0  0  0  0  0  0  0  0
   -3.4921   -2.8534    0.0000 C   0  0  0  0  0  0  0  0  0
  1  2  1  0  0  0  0
  2  3  4  0  0  0  0
  2 18  4  0  0  0  0
  3  4  4  0  0  0  0
  4  5  1  0  0  0  0
  4 16  4  0  0  0  0
  5  6  1  0  0  0  0
  6  7  1  0  0  0  0
  6 14  1  0  0  0  0
  7  8  1  0  0  0  0
  7 11  1  0  0  0  0
  8  9  1  0  0  0  0
  9 10  1  0  0  0  0
 11 12  1  0  0  0  0
 12 13  1  0  0  0  0
 14 15  1  0  0  0  0
 15 16  1  0  0  0  0
 16 17  4  0  0  0  0
 17 18  4  0  0  0  0
M  END
>  <Name_Molregno>
52338

>  <5-HT1A>
7.07

>  <DOPAMINE D2>
6.97

>  <DOPAMINE D3>
8.62

>  <DOPAMINE D4>
6.45

>  <HISTAMINE H1>
5.82

$$$$
63644
  Marvin  02231216192D 0   1.00000     0.00000     0

 31 34  0  0  1  0  0  0  0  0999 V2000
   -0.0241    0.0184    0.0000 S   0  0  0  0  0  0  0  0  0
   -0.7385    0.4309    0.0000 C   0  0  0  0  0  0  0  0  0
   -1.4530    0.0184    0.0000 C   0  0  0  0  0  0  0  0  0
   -2.1675    0.4309    0.0000 C   0  0  0  0  0  0  0  0  0
   -2.1675    1.2559    0.0000 C   0  0  0  0  0  0  0  0  0
   -1.4530    1.6684    0.0000 C   0  0  0  0  0  0  0  0  0
   -0.7385    1.2559    0.0000 C   0  0  0  0  0  0  0  0  0
   -1.4530   -0.8066    0.0000 C   0  0  0  0  0  0  0  0  0
   -0.7385   -1.2191    0.0000 C   0  0  0  0  0  0  0  0  0
   -0.0241   -0.8066    0.0000 C   0  0  0  0  0  0  0  0  0
    0.6904   -1.2191    0.0000 C   0  0  0  0  0  0  0  0  0
    1.4049   -0.8066    0.0000 N   0  0  0  0  0  0  0  0  0
    2.1193   -1.2191    0.0000 C   0  0  0  0  0  0  0  0  0
    2.8338   -0.8066    0.0000 C   0  0  0  0  0  0  0  0  0
    3.5483   -1.2191    0.0000 O   0  0  0  0  0  0  0  0  0
    4.2627   -0.8066    0.0000 C   0  0  0  0  0  0  0  0  0
    4.2627    0.0184    0.0000 C   0  0  0  0  0  0  0  0  0
    3.5483    0.4309    0.0000 O   0  0  0  0  0  0  0  0  0
    3.5483    1.2559    0.0000 C   0  0  0  0  0  0  0  0  0
    4.9772    0.4309    0.0000 C   0  0  0  0  0  0  0  0  0
    5.6917    0.0184    0.0000 C   0  0  0  0  0  0  0  0  0
    5.6917   -0.8066    0.0000 C   0  0  0  0  0  0  0  0  0
    4.9772   -1.2191    0.0000 C   0  0  0  0  0  0  0  0  0
    4.9772   -2.0441    0.0000 O   0  0  0  0  0  0  0  0  0
    5.6917   -2.4566    0.0000 C   0  0  0  0  0  0  0  0  0
   -2.1675   -1.2191    0.0000 C   0  0  0  0  0  0  0  0  0
   -2.1675   -2.0441    0.0000 C   0  0  0  0  0  0  0  0  0
   -2.8820   -2.4566    0.0000 C   0  0  0  0  0  0  0  0  0
   -3.5964   -2.0441    0.0000 C   0  0  0  0  0  0  0  0  0
   -3.5964   -1.2191    0.0000 C   0  0  0  0  0  0  0  0  0
   -2.8820   -0.8066    0.0000 C   0  0  0  0  0  0  0  0  0
  1  2  1  0  0  0  0
  1 10  1  0  0  0  0
  2  3  4  0  0  0  0
  2  7  4  0  0  0  0
  3  4  4  0  0  0  0
  3  8  1  0  0  0  0
  4  5  4  0  0  0  0
  5  6  4  0  0  0  0
  6  7  4  0  0  0  0
  8  9  1  0  0  0  0
  8 26  1  0  0  0  0
  9 10  1  0  0  0  0
 10 11  1  0  0  0  0
 11 12  1  0  0  0  0
 12 13  1  0  0  0  0
 13 14  1  0  0  0  0
 14 15  1  0  0  0  0
 15 16  1  0  0  0  0
 16 17  4  0  0  0  0
 16 23  4  0  0  0  0
 17 18  1  0  0  0  0
 17 20  4  0  0  0  0
 18 19  1  0  0  0  0
 20 21  4  0  0  0  0
 21 22  4  0  0  0  0
 22 23  4  0  0  0  0
 23 24  1  0  0  0  0
 24 25  1  0  0  0  0
 26 27  4  0  0  0  0
 26 31  4  0  0  0  0
 27 28  4  0  0  0  0
 28 29  4  0  0  0  0
 29 30  4  0  0  0  0
 30 31  4  0  0  0  0
M  END
>  <Name_Molregno>
63644

>  <5-HT1A>
7.91

>  <Alpha-1A>
9.34

>  <Alpha-1B>
8.25

$$$$
63680
  Marvin  02231216192D 0   1.00000     0.00000     0

 31 34  0  0  1  0  0  0  0  0999 V2000
   -0.0241    0.0184    0.0000 O   0  0  0  0  0  0  0  0  0
   -0.7385    0.4309    0.0000 C   0  0  0  0  0  0  0  0  0
   -1.4530    0.0184    0.0000 C   0  0  0  0  0  0  0  0  0
   -2.1675    0.4309    0.0000 C   0  0  0  0  0  0  0  0  0
   -2.1675    1.2559    0.0000 C   0  0  0  0  0  0  0  0  0
   -1.4530    1.6684    0.0000 C   0  0  0  0  0  0  0  0  0
   -0.7385    1.2559    0.0000 C   0  0  0  0  0  0  0  0  0
   -1.4530   -0.8066    0.0000 C   0  0  0  0  0  0  0  0  0
   -0.7385   -1.2191    0.0000 C   0  0  0  0  0  0  0  0  0
   -0.0241   -0.8066    0.0000 C   0  0  0  0  0  0  0  0  0
    0.6904   -1.2191    0.0000 C   0  0  0  0  0  0  0  0  0
    1.4049   -0.8066    0.0000 N   0  0  0  0  0  0  0  0  0
    2.1193   -1.2191    0.0000 C   0  0  0  0  0  0  0  0  0
    2.8338   -0.8066    0.0000 C   0  0  0  0  0  0  0  0  0
    3.5483   -1.2191    0.0000 O   0  0  0  0  0  0  0  0  0
    4.2627   -0.8066    0.0000 C   0  0  0  0  0  0  0  0  0
    4.2627    0.0184    0.0000 C   0  0  0  0  0  0  0  0  0
    3.5483    0.4309    0.0000 O   0  0  0  0  0  0  0  0  0
    3.5483    1.2559    0.0000 C   0  0  0  0  0  0  0  0  0
    4.9772    0.4309    0.0000 C   0  0  0  0  0  0  0  0  0
    5.6917    0.0184    0.0000 C   0  0  0  0  0  0  0  0  0
    5.6917   -0.8066    0.0000 C   0  0  0  0  0  0  0  0  0
    4.9772   -1.2191    0.0000 C   0  0  0  0  0  0  0  0  0
    4.9772   -2.0441    0.0000 O   0  0  0  0  0  0  0  0  0
    5.6917   -2.4566    0.0000 C   0  0  0  0  0  0  0  0  0
   -2.1675   -1.2191    0.0000 C   0  0  0  0  0  0  0  0  0
   -2.1675   -2.0441    0.0000 C   0  0  0  0  0  0  0  0  0
   -2.8820   -2.4566    0.0000 C   0  0  0  0  0  0  0  0  0
   -3.5964   -2.0441    0.0000 C   0  0  0  0  0  0  0  0  0
   -3.5964   -1.2191    0.0000 C   0  0  0  0  0  0  0  0  0
   -2.8820   -0.8066    0.0000 C   0  0  0  0  0  0  0  0  0
  1  2  1  0  0  0  0
  1 10  1  0  0  0  0
  2  3  4  0  0  0  0
  2  7  4  0  0  0  0
  3  4  4  0  0  0  0
  3  8  1  0  0  0  0
  4  5  4  0  0  0  0
  5  6  4  0  0  0  0
  6  7  4  0  0  0  0
  8  9  1  0  0  0  0
  8 26  1  0  0  0  0
  9 10  1  0  0  0  0
 10 11  1  0  0  0  0
 11 12  1  0  0  0  0
 12 13  1  0  0  0  0
 13 14  1  0  0  0  0
 14 15  1  0  0  0  0
 15 16  1  0  0  0  0
 16 17  4  0  0  0  0
 16 23  4  0  0  0  0
 17 18  1  0  0  0  0
 17 20  4  0  0  0  0
 18 19  1  0  0  0  0
 20 21  4  0  0  0  0
 21 22  4  0  0  0  0
 22 23  4  0  0  0  0
 23 24  1  0  0  0  0
 24 25  1  0  0  0  0
 26 27  4  0  0  0  0
 26 31  4  0  0  0  0
 27 28  4  0  0  0  0
 28 29  4  0  0  0  0
 29 30  4  0  0  0  0
 30 31  4  0  0  0  0
M  END
>  <Name_Molregno>
63680

>  <5-HT1A>
8.19

>  <Alpha-1A>
10.3

>  <Alpha-1B>
10.4

$$$$
63702
  Marvin  02231216192D 0   1.00000     0.00000     0

 31 34  0  0  1  0  0  0  0  0999 V2000
   -0.1114   -0.0238    0.0000 O   0  0  0  0  0  0  0  0  0
    0.6031    0.3887    0.0000 C   0  0  0  0  0  0  0  0  0
    1.3175   -0.0238    0.0000 C   0  0  0  0  0  0  0  0  0
    2.0320    0.3887    0.0000 N   0  0  0  0  0  0  0  0  0
    2.7465   -0.0238    0.0000 C   0  0  0  0  0  0  0  0  0
    3.4610    0.3887    0.0000 C   0  0  0  0  0  0  0  0  0
    4.1754   -0.0238    0.0000 C   0  0  0  0  0  0  0  0  0
    4.8899    0.3887    0.0000 C   0  0  0  0  0  0  0  0  0
    4.8899    1.2137    0.0000 C   0  0  0  0  0  0  0  0  0
    4.1754    1.6262    0.0000 C   0  0  0  0  0  0  0  0  0
    3.4610    1.2137    0.0000 C   0  0  0  0  0  0  0  0  0
    4.1754    2.4512    0.0000 C   0  0  0  0  0  0  0  0  0
    4.8899    2.8637    0.0000 C   0  0  0  0  0  0  0  0  0
    5.6044    2.4512    0.0000 C   0  0  0  0  0  0  0  0  0
    5.6044    1.6262    0.0000 C   0  0  0  0  0  0  0  0  0
    5.6044   -0.0238    0.0000 C   0  0  0  0  0  0  0  0  0
    6.3188    0.3887    0.0000 C   0  0  0  0  0  0  0  0  0
    7.0333   -0.0238    0.0000 C   0  0  0  0  0  0  0  0  0
    7.0333   -0.8488    0.0000 C   0  0  0  0  0  0  0  0  0
    6.3188   -1.2613    0.0000 C   0  0  0  0  0  0  0  0  0
    5.6044   -0.8488    0.0000 C   0  0  0  0  0  0  0  0  0
   -0.8259    0.3887    0.0000 C   0  0  0  0  0  0  0  0  0
   -1.5403   -0.0238    0.0000 C   0  0  0  0  0  0  0  0  0
   -1.5403   -0.8488    0.0000 O   0  0  0  0  0  0  0  0  0
   -0.8259   -1.2613    0.0000 C   0  0  0  0  0  0  0  0  0
   -2.2548    0.3887    0.0000 C   0  0  0  0  0  0  0  0  0
   -2.2548    1.2137    0.0000 C   0  0  0  0  0  0  0  0  0
   -1.5403    1.6262    0.0000 C   0  0  0  0  0  0  0  0  0
   -0.8259    1.2137    0.0000 C   0  0  0  0  0  0  0  0  0
   -0.1114    1.6262    0.0000 O   0  0  0  0  0  0  0  0  0
   -0.1114    2.4512    0.0000 C   0  0  0  0  0  0  0  0  0
  1  2  1  0  0  0  0
  1 22  1  0  0  0  0
  2  3  1  0  0  0  0
  3  4  1  0  0  0  0
  4  5  1  0  0  0  0
  5  6  1  0  0  0  0
  6  7  1  0  0  0  0
  6 11  1  0  0  0  0
  7  8  1  0  0  0  0
  8  9  1  0  0  0  0
  8 16  1  0  0  0  0
  9 10  4  0  0  0  0
  9 15  4  0  0  0  0
 10 11  1  0  0  0  0
 10 12  4  0  0  0  0
 12 13  4  0  0  0  0
 13 14  4  0  0  0  0
 14 15  4  0  0  0  0
 16 17  4  0  0  0  0
 16 21  4  0  0  0  0
 17 18  4  0  0  0  0
 18 19  4  0  0  0  0
 19 20  4  0  0  0  0
 20 21  4  0  0  0  0
 22 23  4  0  0  0  0
 22 29  4  0  0  0  0
 23 24  1  0  0  0  0
 23 26  4  0  0  0  0
 24 25  1  0  0  0  0
 26 27  4  0  0  0  0
 27 28  4  0  0  0  0
 28 29  4  0  0  0  0
 29 30  1  0  0  0  0
 30 31  1  0  0  0  0
M  END
>  <Name_Molregno>
63702

>  <5-HT1A>
8.2

>  <Alpha-1A>
9.29

>  <Alpha-1B>
7.91

$$$$
64104
  Marvin  02231216192D 0   1.00000     0.00000     0

 32 35  0  0  1  0  0  0  0  0999 V2000
   -0.1227   -0.8791    0.0000 O   0  0  0  0  0  0  0  0  0
    0.5917   -0.4666    0.0000 C   0  0  0  0  0  0  0  0  0
    1.3062   -0.8791    0.0000 C   0  0  0  0  0  0  0  0  0
    2.0207   -0.4666    0.0000 N   0  0  0  0  0  0  0  0  0
    2.7352   -0.8791    0.0000 C   0  0  0  0  0  0  0  0  0
    3.4496   -0.4666    0.0000 C   0  0  0  0  0  0  0  0  0
    4.1641   -0.8791    0.0000 C   0  0  0  0  0  0  0  0  0
    4.8786   -0.4666    0.0000 C   0  0  0  0  0  0  0  0  0
    4.8786    0.3584    0.0000 C   0  0  0  0  0  0  0  0  0
    4.1641    0.7709    0.0000 C   0  0  0  0  0  0  0  0  0
    4.1641    1.5959    0.0000 C   0  0  0  0  0  0  0  0  0
    4.8786    2.0084    0.0000 C   0  0  0  0  0  0  0  0  0
    5.5930    1.5959    0.0000 C   0  0  0  0  0  0  0  0  0
    5.5930    0.7709    0.0000 C   0  0  0  0  0  0  0  0  0
    3.4496    0.3584    0.0000 C   0  0  0  0  0  0  0  0  0
    2.7352    0.7709    0.0000 O   0  0  0  0  0  0  0  0  0
    5.5930   -0.8791    0.0000 C   0  0  0  0  0  0  0  0  0
    6.3075   -0.4666    0.0000 C   0  0  0  0  0  0  0  0  0
    7.0220   -0.8791    0.0000 C   0  0  0  0  0  0  0  0  0
    7.0220   -1.7041    0.0000 C   0  0  0  0  0  0  0  0  0
    6.3075   -2.1166    0.0000 C   0  0  0  0  0  0  0  0  0
    5.5930   -1.7041    0.0000 C   0  0  0  0  0  0  0  0  0
   -0.8372   -0.4666    0.0000 C   0  0  0  0  0  0  0  0  0
   -1.5517   -0.8791    0.0000 C   0  0  0  0  0  0  0  0  0
   -1.5517   -1.7041    0.0000 O   0  0  0  0  0  0  0  0  0
   -0.8372   -2.1166    0.0000 C   0  0  0  0  0  0  0  0  0
   -2.2661   -0.4666    0.0000 C   0  0  0  0  0  0  0  0  0
   -2.2661    0.3584    0.0000 C   0  0  0  0  0  0  0  0  0
   -1.5517    0.7709    0.0000 C   0  0  0  0  0  0  0  0  0
   -0.8372    0.3584    0.0000 C   0  0  0  0  0  0  0  0  0
   -0.1227    0.7709    0.0000 O   0  0  0  0  0  0  0  0  0
   -0.1227    1.5959    0.0000 C   0  0  0  0  0  0  0  0  0
  1  2  1  0  0  0  0
  1 23  1  0  0  0  0
  2  3  1  0  0  0  0
  3  4  1  0  0  0  0
  4  5  1  0  0  0  0
  5  6  1  0  0  0  0
  6  7  1  0  0  0  0
  6 15  1  0  0  0  0
  7  8  1  0  0  0  0
  8  9  1  0  0  0  0
  8 17  1  0  0  0  0
  9 10  4  0  0  0  0
  9 14  4  0  0  0  0
 10 11  4  0  0  0  0
 10 15  1  0  0  0  0
 11 12  4  0  0  0  0
 12 13  4  0  0  0  0
 13 14  4  0  0  0  0
 15 16  2  0  0  0  0
 17 18  4  0  0  0  0
 17 22  4  0  0  0  0
 18 19  4  0  0  0  0
 19 20  4  0  0  0  0
 20 21  4  0  0  0  0
 21 22  4  0  0  0  0
 23 24  4  0  0  0  0
 23 30  4  0  0  0  0
 24 25  1  0  0  0  0
 24 27  4  0  0  0  0
 25 26  1  0  0  0  0
 27 28  4  0  0  0  0
 28 29  4  0  0  0  0
 29 30  4  0  0  0  0
 30 31  1  0  0  0  0
 31 32  1  0  0  0  0
M  END
>  <Name_Molregno>
64104

>  <5-HT1A>
7.96

>  <Alpha-1A>
9.6

>  <Alpha-1B>
8.91

$$$$
64134
  Marvin  02231216192D 0   1.00000     0.00000     0

 31 33  0  0  0  0  0  0  0  0999 V2000
   -5.5906   -1.5108    0.0000 O   0  0  0  0  0  0  0  0  0
   -4.8761   -1.0983    0.0000 C   0  0  0  0  0  0  0  0  0
   -4.1616   -1.5108    0.0000 C   0  0  0  0  0  0  0  0  0
   -3.4471   -1.0983    0.0000 N   0  0  0  0  0  0  0  0  0
   -2.7327   -1.5108    0.0000 C   0  0  0  0  0  0  0  0  0
   -2.0182   -1.0983    0.0000 C   0  0  0  0  0  0  0  0  0
   -1.3037   -1.5108    0.0000 O   0  0  0  0  0  0  0  0  0
   -0.5893   -1.0983    0.0000 C   0  0  0  0  0  0  0  0  0
   -0.5893   -0.2733    0.0000 C   0  0  0  0  0  0  0  0  0
    0.1252    0.1392    0.0000 C   0  0  0  0  0  0  0  0  0
    0.8397   -0.2733    0.0000 C   0  0  0  0  0  0  0  0  0
    0.8397   -1.0983    0.0000 C   0  0  0  0  0  0  0  0  0
    0.1252   -1.5108    0.0000 C   0  0  0  0  0  0  0  0  0
    0.1252   -2.3358    0.0000 O   0  0  0  0  0  0  0  0  0
    0.8397   -2.7483    0.0000 C   0  0  0  0  0  0  0  0  0
    1.5542   -2.3358    0.0000 C   0  0  0  0  0  0  0  0  0
    1.5542   -1.5108    0.0000 C   0  0  0  0  0  0  0  0  0
    2.2686   -1.0983    0.0000 C   0  0  0  0  0  0  0  0  0
    2.9831   -1.5108    0.0000 C   0  0  0  0  0  0  0  0  0
    2.9831   -2.3358    0.0000 C   0  0  0  0  0  0  0  0  0
    2.2686   -2.7483    0.0000 C   0  0  0  0  0  0  0  0  0
   -6.3050   -1.0983    0.0000 C   0  0  0  0  0  0  0  0  0
   -7.0195   -1.5108    0.0000 C   0  0  0  0  0  0  0  0  0
   -7.0195   -2.3358    0.0000 O   0  0  0  0  0  0  0  0  0
   -7.7340   -2.7483    0.0000 C   0  0  0  0  0  0  0  0  0
   -7.7340   -1.0983    0.0000 C   0  0  0  0  0  0  0  0  0
   -7.7340   -0.2733    0.0000 C   0  0  0  0  0  0  0  0  0
   -7.0195    0.1392    0.0000 C   0  0  0  0  0  0  0  0  0
   -6.3050   -0.2733    0.0000 C   0  0  0  0  0  0  0  0  0
   -5.5906    0.1392    0.0000 O   0  0  0  0  0  0  0  0  0
   -5.5906    0.9642    0.0000 C   0  0  0  0  0  0  0  0  0
  1  2  1  0  0  0  0
  1 22  1  0  0  0  0
  2  3  1  0  0  0  0
  3  4  1  0  0  0  0
  4  5  1  0  0  0  0
  5  6  1  0  0  0  0
  6  7  1  0  0  0  0
  7  8  1  0  0  0  0
  8  9  4  0  0  0  0
  8 13  4  0  0  0  0
  9 10  4  0  0  0  0
 10 11  4  0  0  0  0
 11 12  4  0  0  0  0
 12 13  4  0  0  0  0
 13 14  1  0  0  0  0
 14 15  1  0  0  0  0
 15 16  1  0  0  0  0
 16 17  4  0  0  0  0
 16 21  4  0  0  0  0
 17 18  4  0  0  0  0
 18 19  4  0  0  0  0
 19 20  4  0  0  0  0
 20 21  4  0  0  0  0
 22 23  4  0  0  0  0
 22 29  4  0  0  0  0
 23 24  1  0  0  0  0
 23 26  4  0  0  0  0
 24 25  1  0  0  0  0
 26 27  4  0  0  0  0
 27 28  4  0  0  0  0
 28 29  4  0  0  0  0
 29 30  1  0  0  0  0
 30 31  1  0  0  0  0
M  END
>  <Name_Molregno>
64134

>  <5-HT1A>
8.68

>  <Alpha-1A>
9.33

>  <Alpha-1B>
9.27

$$$$
64271
  Marvin  02231216192D 0   1.00000     0.00000     0

 30 32  0  0  0  0  0  0  0  0999 V2000
   -0.5476    1.3992    0.0000 O   0  0  0  0  0  0  0  0  0
    0.1668    1.8117    0.0000 C   0  0  0  0  0  0  0  0  0
    0.8813    1.3992    0.0000 C   0  0  0  0  0  0  0  0  0
    1.5958    1.8117    0.0000 N   0  0  0  0  0  0  0  0  0
    2.3103    1.3992    0.0000 C   0  0  0  0  0  0  0  0  0
    3.0247    1.8117    0.0000 C   0  0  0  0  0  0  0  0  0
    3.7392    1.3992    0.0000 O   0  0  0  0  0  0  0  0  0
    4.4537    1.8117    0.0000 C   0  0  0  0  0  0  0  0  0
    4.4537    2.6367    0.0000 C   0  0  0  0  0  0  0  0  0
    5.1681    3.0492    0.0000 C   0  0  0  0  0  0  0  0  0
    5.8826    2.6367    0.0000 C   0  0  0  0  0  0  0  0  0
    5.8826    1.8117    0.0000 C   0  0  0  0  0  0  0  0  0
    5.1681    1.3992    0.0000 C   0  0  0  0  0  0  0  0  0
    5.1681    0.5742    0.0000 C   0  0  0  0  0  0  0  0  0
    5.8826    0.1617    0.0000 C   0  0  0  0  0  0  0  0  0
    6.5971    0.5742    0.0000 C   0  0  0  0  0  0  0  0  0
    7.3116    0.1617    0.0000 C   0  0  0  0  0  0  0  0  0
    7.3116   -0.6633    0.0000 C   0  0  0  0  0  0  0  0  0
    6.5971   -1.0758    0.0000 C   0  0  0  0  0  0  0  0  0
    5.8826   -0.6633    0.0000 C   0  0  0  0  0  0  0  0  0
   -1.2621    1.8117    0.0000 C   0  0  0  0  0  0  0  0  0
   -1.9766    1.3992    0.0000 C   0  0  0  0  0  0  0  0  0
   -1.9766    0.5742    0.0000 O   0  0  0  0  0  0  0  0  0
   -1.2621    0.1617    0.0000 C   0  0  0  0  0  0  0  0  0
   -2.6910    1.8117    0.0000 C   0  0  0  0  0  0  0  0  0
   -2.6910    2.6367    0.0000 C   0  0  0  0  0  0  0  0  0
   -1.9766    3.0492    0.0000 C   0  0  0  0  0  0  0  0  0
   -1.2621    2.6367    0.0000 C   0  0  0  0  0  0  0  0  0
   -0.5476    3.0492    0.0000 O   0  0  0  0  0  0  0  0  0
   -0.5476    3.8742    0.0000 C   0  0  0  0  0  0  0  0  0
  1  2  1  0  0  0  0
  1 21  1  0  0  0  0
  2  3  1  0  0  0  0
  3  4  1  0  0  0  0
  4  5  1  0  0  0  0
  5  6  1  0  0  0  0
  6  7  1  0  0  0  0
  7  8  1  0  0  0  0
  8  9  4  0  0  0  0
  8 13  4  0  0  0  0
  9 10  4  0  0  0  0
 10 11  4  0  0  0  0
 11 12  4  0  0  0  0
 12 13  4  0  0  0  0
 13 14  1  0  0  0  0
 14 15  1  0  0  0  0
 15 16  4  0  0  0  0
 15 20  4  0  0  0  0
 16 17  4  0  0  0  0
 17 18  4  0  0  0  0
 18 19  4  0  0  0  0
 19 20  4  0  0  0  0
 21 22  4  0  0  0  0
 21 28  4  0  0  0  0
 22 23  1  0  0  0  0
 22 25  4  0  0  0  0
 23 24  1  0  0  0  0
 25 26  4  0  0  0  0
 26 27  4  0  0  0  0
 27 28  4  0  0  0  0
 28 29  1  0  0  0  0
 29 30  1  0  0  0  0
M  END
>  <Name_Molregno>
64271

>  <5-HT1A>
7.97

>  <Alpha-1A>
9.4

>  <Alpha-1B>
8.55

$$$$
64323
  Marvin  02231216192D 0   1.00000     0.00000     0

 32 35  0  0  1  0  0  0  0  0999 V2000
   -5.4644   -0.2704    0.0000 O   0  0  0  0  0  0  0  0  0
   -5.4644   -1.0954    0.0000 C   0  0  0  0  0  0  0  0  0
   -4.7500   -1.5079    0.0000 C   0  0  0  0  0  0  0  0  0
   -4.0355   -1.0954    0.0000 O   0  0  0  0  0  0  0  0  0
   -4.0355   -0.2704    0.0000 C   0  0  0  0  0  0  0  0  0
   -3.3210    0.1421    0.0000 C   0  0  0  0  0  0  0  0  0
   -2.6065   -0.2704    0.0000 N   0  0  0  0  0  0  0  0  0
   -1.8921    0.1421    0.0000 C   0  0  0  0  0  0  0  0  0
   -1.1776   -0.2704    0.0000 C   0  0  0  0  0  0  0  0  0
   -0.4631    0.1421    0.0000 O   0  0  0  0  0  0  0  0  0
    0.2513   -0.2704    0.0000 C   0  0  0  0  0  0  0  0  0
    0.9658    0.1421    0.0000 C   0  0  0  0  0  0  0  0  0
    0.9658    0.9671    0.0000 O   0  0  0  0  0  0  0  0  0
    1.6803    1.3796    0.0000 C   0  0  0  0  0  0  0  0  0
    1.6803   -0.2704    0.0000 C   0  0  0  0  0  0  0  0  0
    1.6803   -1.0954    0.0000 C   0  0  0  0  0  0  0  0  0
    0.9658   -1.5079    0.0000 C   0  0  0  0  0  0  0  0  0
    0.2513   -1.0954    0.0000 C   0  0  0  0  0  0  0  0  0
   -0.4631   -1.5079    0.0000 O   0  0  0  0  0  0  0  0  0
   -0.4631   -2.3329    0.0000 C   0  0  0  0  0  0  0  0  0
   -4.7500    0.1421    0.0000 C   0  0  0  0  0  0  0  0  0
   -4.7500    0.9671    0.0000 C   0  0  0  0  0  0  0  0  0
   -5.4644    1.3796    0.0000 C   0  0  0  0  0  0  0  0  0
   -5.4644    2.2046    0.0000 C   0  0  0  0  0  0  0  0  0
   -4.7500    2.6171    0.0000 C   0  0  0  0  0  0  0  0  0
   -4.0355    2.2046    0.0000 C   0  0  0  0  0  0  0  0  0
   -4.0355    1.3796    0.0000 C   0  0  0  0  0  0  0  0  0
   -4.7500    3.4421    0.0000 C   0  0  0  0  0  0  0  0  0
   -4.7500   -2.3329    0.0000 C   0  0  0  0  0  0  0  0  0
   -5.4644   -2.7454    0.0000 C   0  0  0  0  0  0  0  0  0
   -6.1789   -2.3329    0.0000 C   0  0  0  0  0  0  0  0  0
   -6.1789   -1.5079    0.0000 C   0  0  0  0  0  0  0  0  0
  1  2  1  0  0  0  0
  1 21  1  0  0  0  0
  2  3  4  0  0  0  0
  2 32  4  0  0  0  0
  3  4  1  0  0  0  0
  3 29  4  0  0  0  0
  4  5  1  0  0  0  0
  5  6  1  0  0  0  0
  5 21  1  0  0  0  0
  6  7  1  0  0  0  0
  7  8  1  0  0  0  0
  8  9  1  0  0  0  0
  9 10  1  0  0  0  0
 10 11  1  0  0  0  0
 11 12  4  0  0  0  0
 11 18  4  0  0  0  0
 12 13  1  0  0  0  0
 12 15  4  0  0  0  0
 13 14  1  0  0  0  0
 15 16  4  0  0  0  0
 16 17  4  0  0  0  0
 17 18  4  0  0  0  0
 18 19  1  0  0  0  0
 19 20  1  0  0  0  0
 21 22  1  0  0  0  0
 22 23  4  0  0  0  0
 22 27  4  0  0  0  0
 23 24  4  0  0  0  0
 24 25  4  0  0  0  0
 25 26  4  0  0  0  0
 25 28  1  0  0  0  0
 26 27  4  0  0  0  0
 29 30  4  0  0  0  0
 30 31  4  0  0  0  0
 31 32  4  0  0  0  0
M  END
>  <Name_Molregno>
64323

>  <5-HT1A>
7.93

>  <Alpha-1A>
8.93

$$$$
66613
  Marvin  02231216192D 0   1.00000     0.00000     0

 14 15  0  0  1  0  0  0  0  0999 V2000
   -3.5937   -0.7341    0.0000 O   0  0  0  0  0  0  0  0  0
   -2.8091   -0.9890    0.0000 C   0  0  0  0  0  0  0  0  0
   -2.0946   -0.5765    0.0000 C   0  0  0  0  0  0  0  0  0
   -1.3801   -0.9890    0.0000 C   0  0  0  0  0  0  0  0  0
   -1.3801   -1.8140    0.0000 C   0  0  0  0  0  0  0  0  0
   -2.0946   -2.2265    0.0000 C   0  0  0  0  0  0  0  0  0
   -2.8091   -1.8140    0.0000 C   0  0  0  0  0  0  0  0  0
   -3.5937   -2.0690    0.0000 O   0  0  0  0  0  0  0  0  0
   -4.0786   -1.4015    0.0000 C   0  0  0  0  0  0  0  0  0
   -0.6657   -0.5765    0.0000 C   0  0  0  0  0  0  0  0  0
   -0.6657    0.2485    0.0000 C   0  0  0  0  0  0  0  0  0
    0.0488    0.6610    0.0000 N   0  0  0  0  0  0  0  0  0
    0.0488    1.4860    0.0000 C   0  0  0  0  0  0  0  0  0
   -1.3801    0.6610    0.0000 C   0  0  0  0  0  0  0  0  0
  1  2  1  0  0  0  0
  1  9  1  0  0  0  0
  2  3  4  0  0  0  0
  2  7  4  0  0  0  0
  3  4  4  0  0  0  0
  4  5  4  0  0  0  0
  4 10  1  0  0  0  0
  5  6  4  0  0  0  0
  6  7  4  0  0  0  0
  7  8  1  0  0  0  0
  8  9  1  0  0  0  0
 10 11  1  0  0  0  0
 11 12  1  0  0  0  0
 11 14  1  0  0  0  0
 12 13  1  0  0  0  0
M  END
>  <Name_Molregno>
66613

>  <5-HT1A>
5

>  <5-HT1B>
5

>  <5-HT1D>
5

>  <5-HT1E>
5

>  <5-HT2A>
5

>  <5-HT3>
5

>  <5-HT5>
5

>  <5-HT6>
5

>  <5-HT7>
5

>  <Alpha-1A>
5

>  <Alpha-1B>
5

>  <Alpha-2A>
5.6

>  <Alpha-2B>
5.75

>  <Alpha-2C>
5.95

>  <Beta-1>
5

>  <Beta-2>
5

>  <DOPAMINE D1>
5

>  <DOPAMINE D2>
5

>  <DOPAMINE D3>
5

>  <DOPAMINE D4>
5

>  <DOPAMINE D5>
5

>  <Dopamine transporter>
5

>  <HISTAMINE H1>
5.67

>  <HISTAMINE H2>
5

>  <Muscarinic acetylcholine receptor M1>
5

>  <Muscarinic acetylcholine receptor M2>
5

>  <Muscarinic acetylcholine receptor M3>
5.73

>  <Muscarinic acetylcholine receptor M4>
5.08

>  <Muscarinic acetylcholine receptor M5>
5.2

>  <Norepinephrine transporter>
5

>  <Serotonin transporter>
7.24

$$$$
87271
  Marvin  02231216192D 0   1.00000     0.00000     0

 32 36  0  0  1  0  0  0  0  0999 V2000
    2.0378   -2.1494    0.0000 S   0  0  0  0  0  0  0  0  0
    2.2927   -2.9340    0.0000 C   0  0  0  0  0  0  0  0  0
    3.1177   -2.9340    0.0000 C   0  0  0  0  0  0  0  0  0
    3.3726   -2.1494    0.0000 C   0  0  0  0  0  0  0  0  0
    2.7052   -1.6645    0.0000 C   0  0  0  0  0  0  0  0  0
    2.7052   -0.8395    0.0000 C   0  0  0  0  0  0  0  0  0
    1.9907   -0.4270    0.0000 C   0  0  0  0  0  0  0  0  0
    1.9907    0.3980    0.0000 C   0  0  0  0  0  0  0  0  0
    2.7052    0.8105    0.0000 N   0  0  0  0  0  0  0  0  0
    3.4197    0.3980    0.0000 C   0  0  0  0  0  0  0  0  0
    3.4197   -0.4270    0.0000 C   0  0  0  0  0  0  0  0  0
    2.7052    1.6355    0.0000 C   0  0  0  0  0  0  0  0  0
    3.4197    2.0480    0.0000 C   0  0  0  0  0  0  0  0  0
    4.1341    1.6355    0.0000 O   0  0  0  0  0  0  0  0  0
    3.4197    2.8730    0.0000 C   0  0  0  0  0  0  0  0  0
    4.1341    3.2855    0.0000 O   0  0  0  0  0  0  0  0  0
    4.1341    4.1105    0.0000 C   0  0  0  0  0  0  0  0  0
    3.4197    4.5230    0.0000 C   0  0  0  0  0  0  0  0  0
    2.6351    4.2681    0.0000 C   0  0  0  0  0  0  0  0  0
    2.1501    4.9355    0.0000 C   0  0  0  0  0  0  0  0  0
    2.6351    5.6030    0.0000 N   0  0  0  0  0  0  0  0  0
    3.4197    5.3480    0.0000 C   0  0  0  0  0  0  0  0  0
    4.1341    5.7605    0.0000 C   0  0  0  0  0  0  0  0  0
    4.8486    5.3480    0.0000 C   0  0  0  0  0  0  0  0  0
    4.8486    4.5230    0.0000 C   0  0  0  0  0  0  0  0  0
    1.3251    4.9355    0.0000 C   0  0  0  0  0  0  0  0  0
    3.5302   -3.6485    0.0000 C   0  0  0  0  0  0  0  0  0
    4.3552   -3.6485    0.0000 O   0  0  0  0  0  0  0  0  0
    4.7677   -4.3630    0.0000 C   0  0  0  0  0  0  0  0  0
    3.1177   -4.3630    0.0000 C   0  0  0  0  0  0  0  0  0
    2.2927   -4.3630    0.0000 C   0  0  0  0  0  0  0  0  0
    1.8802   -3.6485    0.0000 C   0  0  0  0  0  0  0  0  0
  1  2  4  0  0  0  0
  1  5  4  0  0  0  0
  2  3  4  0  0  0  0
  2 32  4  0  0  0  0
  3  4  4  0  0  0  0
  3 27  4  0  0  0  0
  4  5  4  0  0  0  0
  5  6  1  0  0  0  0
  6  7  1  0  0  0  0
  6 11  1  0  0  0  0
  7  8  1  0  0  0  0
  8  9  1  0  0  0  0
  9 10  1  0  0  0  0
  9 12  1  0  0  0  0
 10 11  1  0  0  0  0
 12 13  1  0  0  0  0
 13 14  1  0  0  0  0
 13 15  1  0  0  0  0
 15 16  1  0  0  0  0
 16 17  1  0  0  0  0
 17 18  4  0  0  0  0
 17 25  4  0  0  0  0
 18 19  4  0  0  0  0
 18 22  4  0  0  0  0
 19 20  4  0  0  0  0
 20 21  4  0  0  0  0
 20 26  1  0  0  0  0
 21 22  4  0  0  0  0
 22 23  4  0  0  0  0
 23 24  4  0  0  0  0
 24 25  4  0  0  0  0
 27 28  1  0  0  0  0
 27 30  4  0  0  0  0
 28 29  1  0  0  0  0
 30 31  4  0  0  0  0
 31 32  4  0  0  0  0
M  STY  1   1 DAT
M  SAL   1  1  21
M  SDT   1 MRV_IMPLICIT_H                                        
M  SDD   1     0.0000    0.0000    DR    ALL  0       0  
M  SED   1 IMPL_H1
M  END
>  <Name_Molregno>
87271

>  <5-HT1A>
8.32

>  <Serotonin transporter>
7.29

$$$$
87285
  Marvin  02231216192D 0   1.00000     0.00000     0

 30 34  0  0  1  0  0  0  0  0999 V2000
    4.4580   -3.5093    0.0000 S   0  0  0  0  0  0  0  0  0
    4.2030   -4.2939    0.0000 C   0  0  0  0  0  0  0  0  0
    4.6155   -5.0084    0.0000 C   0  0  0  0  0  0  0  0  0
    4.2030   -5.7229    0.0000 C   0  0  0  0  0  0  0  0  0
    4.6155   -6.4373    0.0000 F   0  0  0  0  0  0  0  0  0
    3.3780   -5.7229    0.0000 C   0  0  0  0  0  0  0  0  0
    2.9655   -5.0084    0.0000 C   0  0  0  0  0  0  0  0  0
    3.3780   -4.2939    0.0000 C   0  0  0  0  0  0  0  0  0
    3.1231   -3.5093    0.0000 C   0  0  0  0  0  0  0  0  0
    3.7905   -3.0244    0.0000 C   0  0  0  0  0  0  0  0  0
    3.7905   -2.1994    0.0000 C   0  0  0  0  0  0  0  0  0
    3.0761   -1.7869    0.0000 C   0  0  0  0  0  0  0  0  0
    3.0761   -0.9619    0.0000 C   0  0  0  0  0  0  0  0  0
    3.7905   -0.5494    0.0000 N   0  0  0  0  0  0  0  0  0
    4.5050   -0.9619    0.0000 C   0  0  0  0  0  0  0  0  0
    4.5050   -1.7869    0.0000 C   0  0  0  0  0  0  0  0  0
    3.7905    0.2756    0.0000 C   0  0  0  0  0  0  0  0  0
    3.0761    0.6881    0.0000 C   0  0  0  0  0  0  0  0  0
    2.3616    0.2756    0.0000 O   0  0  0  0  0  0  0  0  0
    3.0761    1.5131    0.0000 C   0  0  0  0  0  0  0  0  0
    2.3616    1.9256    0.0000 O   0  0  0  0  0  0  0  0  0
    2.3616    2.7506    0.0000 C   0  0  0  0  0  0  0  0  0
    1.6471    3.1631    0.0000 C   0  0  0  0  0  0  0  0  0
    1.6471    3.9881    0.0000 C   0  0  0  0  0  0  0  0  0
    0.8625    4.2430    0.0000 N   0  0  0  0  0  0  0  0  0
    0.3776    3.5756    0.0000 C   0  0  0  0  0  0  0  0  0
    0.8625    2.9082    0.0000 C   0  0  0  0  0  0  0  0  0
    2.3616    4.4006    0.0000 C   0  0  0  0  0  0  0  0  0
    3.0761    3.9881    0.0000 C   0  0  0  0  0  0  0  0  0
    3.0761    3.1631    0.0000 C   0  0  0  0  0  0  0  0  0
  1  2  4  0  0  0  0
  1 10  4  0  0  0  0
  2  3  4  0  0  0  0
  2  8  4  0  0  0  0
  3  4  4  0  0  0  0
  4  5  1  0  0  0  0
  4  6  4  0  0  0  0
  6  7  4  0  0  0  0
  7  8  4  0  0  0  0
  8  9  4  0  0  0  0
  9 10  4  0  0  0  0
 10 11  1  0  0  0  0
 11 12  1  0  0  0  0
 11 16  1  0  0  0  0
 12 13  1  0  0  0  0
 13 14  1  0  0  0  0
 14 15  1  0  0  0  0
 14 17  1  0  0  0  0
 15 16  1  0  0  0  0
 17 18  1  0  0  0  0
 18 19  1  0  0  0  0
 18 20  1  0  0  0  0
 20 21  1  0  0  0  0
 21 22  1  0  0  0  0
 22 23  4  0  0  0  0
 22 30  4  0  0  0  0
 23 24  4  0  0  0  0
 23 27  4  0  0  0  0
 24 25  4  0  0  0  0
 24 28  4  0  0  0  0
 25 26  4  0  0  0  0
 26 27  4  0  0  0  0
 28 29  4  0  0  0  0
 29 30  4  0  0  0  0
M  STY  1   1 DAT
M  SAL   1  1  25
M  SDT   1 MRV_IMPLICIT_H                                        
M  SDD   1     0.0000    0.0000    DR    ALL  0       0  
M  SED   1 IMPL_H1
M  END
>  <Name_Molregno>
87285

>  <5-HT1A>
8.03

>  <Serotonin transporter>
8.7

$$$$
87762
  Marvin  02231216192D 0   1.00000     0.00000     0

 29 33  0  0  1  0  0  0  0  0999 V2000
    2.2058   -2.5696    0.0000 S   0  0  0  0  0  0  0  0  0
    2.4608   -3.3542    0.0000 C   0  0  0  0  0  0  0  0  0
    3.2858   -3.3542    0.0000 C   0  0  0  0  0  0  0  0  0
    3.5407   -2.5696    0.0000 C   0  0  0  0  0  0  0  0  0
    2.8733   -2.0847    0.0000 C   0  0  0  0  0  0  0  0  0
    2.8733   -1.2597    0.0000 C   0  0  0  0  0  0  0  0  0
    2.1588   -0.8472    0.0000 C   0  0  0  0  0  0  0  0  0
    2.1588   -0.0222    0.0000 C   0  0  0  0  0  0  0  0  0
    2.8733    0.3903    0.0000 N   0  0  0  0  0  0  0  0  0
    3.5877   -0.0222    0.0000 C   0  0  0  0  0  0  0  0  0
    3.5877   -0.8472    0.0000 C   0  0  0  0  0  0  0  0  0
    2.8733    1.2153    0.0000 C   0  0  0  0  0  0  0  0  0
    3.5877    1.6278    0.0000 C   0  0  0  0  0  0  0  0  0
    4.3022    1.2153    0.0000 O   0  0  0  0  0  0  0  0  0
    3.5877    2.4528    0.0000 C   0  0  0  0  0  0  0  0  0
    4.3022    2.8653    0.0000 O   0  0  0  0  0  0  0  0  0
    4.3022    3.6903    0.0000 C   0  0  0  0  0  0  0  0  0
    3.5877    4.1028    0.0000 C   0  0  0  0  0  0  0  0  0
    3.5877    4.9278    0.0000 C   0  0  0  0  0  0  0  0  0
    2.8031    5.1828    0.0000 N   0  0  0  0  0  0  0  0  0
    2.3182    4.5153    0.0000 C   0  0  0  0  0  0  0  0  0
    2.8031    3.8479    0.0000 C   0  0  0  0  0  0  0  0  0
    4.3022    5.3403    0.0000 C   0  0  0  0  0  0  0  0  0
    5.0167    4.9278    0.0000 C   0  0  0  0  0  0  0  0  0
    5.0167    4.1028    0.0000 C   0  0  0  0  0  0  0  0  0
    3.6983   -4.0687    0.0000 C   0  0  0  0  0  0  0  0  0
    3.2858   -4.7831    0.0000 C   0  0  0  0  0  0  0  0  0
    2.4608   -4.7831    0.0000 C   0  0  0  0  0  0  0  0  0
    2.0483   -4.0687    0.0000 C   0  0  0  0  0  0  0  0  0
  1  2  4  0  0  0  0
  1  5  4  0  0  0  0
  2  3  4  0  0  0  0
  2 29  4  0  0  0  0
  3  4  4  0  0  0  0
  3 26  4  0  0  0  0
  4  5  4  0  0  0  0
  5  6  1  0  0  0  0
  6  7  1  0  0  0  0
  6 11  1  0  0  0  0
  7  8  1  0  0  0  0
  8  9  1  0  0  0  0
  9 10  1  0  0  0  0
  9 12  1  0  0  0  0
 10 11  1  0  0  0  0
 12 13  1  0  0  0  0
 13 14  1  0  0  0  0
 13 15  1  0  0  0  0
 15 16  1  0  0  0  0
 16 17  1  0  0  0  0
 17 18  4  0  0  0  0
 17 25  4  0  0  0  0
 18 19  4  0  0  0  0
 18 22  4  0  0  0  0
 19 20  4  0  0  0  0
 19 23  4  0  0  0  0
 20 21  4  0  0  0  0
 21 22  4  0  0  0  0
 23 24  4  0  0  0  0
 24 25  4  0  0  0  0
 26 27  4  0  0  0  0
 27 28  4  0  0  0  0
 28 29  4  0  0  0  0
M  STY  1   1 DAT
M  SAL   1  1  20
M  SDT   1 MRV_IMPLICIT_H                                        
M  SDD   1     0.0000    0.0000    DR    ALL  0       0  
M  SED   1 IMPL_H1
M  END
>  <Name_Molregno>
87762

>  <5-HT1A>
8.43

>  <Serotonin transporter>
7.78

$$$$
87769
  Marvin  02231216192D 0   1.00000     0.00000     0

 31 35  0  0  1  0  0  0  0  0999 V2000
    1.5401   -2.7046    0.0000 S   0  0  0  0  0  0  0  0  0
    1.7951   -3.4892    0.0000 C   0  0  0  0  0  0  0  0  0
    2.6201   -3.4892    0.0000 C   0  0  0  0  0  0  0  0  0
    2.8750   -2.7046    0.0000 C   0  0  0  0  0  0  0  0  0
    2.2076   -2.2197    0.0000 C   0  0  0  0  0  0  0  0  0
    2.2076   -1.3947    0.0000 C   0  0  0  0  0  0  0  0  0
    1.4931   -0.9822    0.0000 C   0  0  0  0  0  0  0  0  0
    1.4931   -0.1572    0.0000 C   0  0  0  0  0  0  0  0  0
    2.2076    0.2553    0.0000 N   0  0  0  0  0  0  0  0  0
    2.9220   -0.1572    0.0000 C   0  0  0  0  0  0  0  0  0
    2.9220   -0.9822    0.0000 C   0  0  0  0  0  0  0  0  0
    2.2076    1.0803    0.0000 C   0  0  0  0  0  0  0  0  0
    2.9220    1.4928    0.0000 C   0  0  0  0  0  0  0  0  0
    3.6365    1.0803    0.0000 O   0  0  0  0  0  0  0  0  0
    2.9220    2.3178    0.0000 C   0  0  0  0  0  0  0  0  0
    3.6365    2.7303    0.0000 O   0  0  0  0  0  0  0  0  0
    3.6365    3.5553    0.0000 C   0  0  0  0  0  0  0  0  0
    2.9220    3.9678    0.0000 C   0  0  0  0  0  0  0  0  0
    2.9220    4.7928    0.0000 C   0  0  0  0  0  0  0  0  0
    2.1374    5.0478    0.0000 N   0  0  0  0  0  0  0  0  0
    1.6525    4.3803    0.0000 C   0  0  0  0  0  0  0  0  0
    2.1374    3.7129    0.0000 C   0  0  0  0  0  0  0  0  0
    3.6365    5.2053    0.0000 C   0  0  0  0  0  0  0  0  0
    4.3510    4.7928    0.0000 C   0  0  0  0  0  0  0  0  0
    4.3510    3.9678    0.0000 C   0  0  0  0  0  0  0  0  0
    3.0326   -4.2037    0.0000 C   0  0  0  0  0  0  0  0  0
    3.8576   -4.2037    0.0000 O   0  0  0  0  0  0  0  0  0
    4.2701   -4.9182    0.0000 C   0  0  0  0  0  0  0  0  0
    2.6201   -4.9182    0.0000 C   0  0  0  0  0  0  0  0  0
    1.7951   -4.9182    0.0000 C   0  0  0  0  0  0  0  0  0
    1.3826   -4.2037    0.0000 C   0  0  0  0  0  0  0  0  0
  1  2  4  0  0  0  0
  1  5  4  0  0  0  0
  2  3  4  0  0  0  0
  2 31  4  0  0  0  0
  3  4  4  0  0  0  0
  3 26  4  0  0  0  0
  4  5  4  0  0  0  0
  5  6  1  0  0  0  0
  6  7  1  0  0  0  0
  6 11  1  0  0  0  0
  7  8  1  0  0  0  0
  8  9  1  0  0  0  0
  9 10  1  0  0  0  0
  9 12  1  0  0  0  0
 10 11  1  0  0  0  0
 12 13  1  0  0  0  0
 13 14  1  0  0  0  0
 13 15  1  0  0  0  0
 15 16  1  0  0  0  0
 16 17  1  0  0  0  0
 17 18  4  0  0  0  0
 17 25  4  0  0  0  0
 18 19  4  0  0  0  0
 18 22  4  0  0  0  0
 19 20  4  0  0  0  0
 19 23  4  0  0  0  0
 20 21  4  0  0  0  0
 21 22  4  0  0  0  0
 23 24  4  0  0  0  0
 24 25  4  0  0  0  0
 26 27  1  0  0  0  0
 26 29  4  0  0  0  0
 27 28  1  0  0  0  0
 29 30  4  0  0  0  0
 30 31  4  0  0  0  0
M  STY  1   1 DAT
M  SAL   1  1  20
M  SDT   1 MRV_IMPLICIT_H                                        
M  SDD   1     0.0000    0.0000    DR    ALL  0       0  
M  SED   1 IMPL_H1
M  END
>  <Name_Molregno>
87769

>  <5-HT1A>
8.72

>  <Serotonin transporter>
7.9

$$$$
87828
  Marvin  02231216192D 0   1.00000     0.00000     0

 27 30  0  0  0  0  0  0  0  0999 V2000
   -0.3655    1.7342    0.0000 F   0  0  0  0  0  0  0  0  0
    0.0470    1.0197    0.0000 C   0  0  0  0  0  0  0  0  0
    0.8720    1.0197    0.0000 C   0  0  0  0  0  0  0  0  0
    1.2845    0.3052    0.0000 C   0  0  0  0  0  0  0  0  0
    0.8720   -0.4092    0.0000 C   0  0  0  0  0  0  0  0  0
    0.0470   -0.4092    0.0000 C   0  0  0  0  0  0  0  0  0
   -0.3655    0.3052    0.0000 C   0  0  0  0  0  0  0  0  0
   -1.1905    0.3052    0.0000 N   0  0  0  0  0  0  0  0  0
   -1.6030   -0.4092    0.0000 C   0  0  0  0  0  0  0  0  0
   -2.4280   -0.4092    0.0000 C   0  0  0  0  0  0  0  0  0
   -2.8405    0.3052    0.0000 N   0  0  0  0  0  0  0  0  0
   -2.4280    1.0197    0.0000 C   0  0  0  0  0  0  0  0  0
   -1.6030    1.0197    0.0000 C   0  0  0  0  0  0  0  0  0
   -3.6655    0.3052    0.0000 C   0  0  0  0  0  0  0  0  0
   -4.0780   -0.4092    0.0000 C   0  0  0  0  0  0  0  0  0
   -4.9030   -0.4092    0.0000 N   0  0  0  0  0  0  0  0  0
   -5.3155   -1.1237    0.0000 C   0  0  0  0  0  0  0  0  0
   -4.9030   -1.8382    0.0000 O   0  0  0  0  0  0  0  0  0
   -6.1405   -1.1237    0.0000 C   0  0  0  0  0  0  0  0  0
   -6.5530   -0.4092    0.0000 C   0  0  0  0  0  0  0  0  0
   -6.1405    0.3052    0.0000 C   0  0  0  0  0  0  0  0  0
   -5.3155    0.3052    0.0000 C   0  0  0  0  0  0  0  0  0
   -4.9030    1.0197    0.0000 O   0  0  0  0  0  0  0  0  0
   -7.0379   -1.0767    0.0000 C   0  0  0  0  0  0  0  0  0
   -7.8225   -0.8217    0.0000 C   0  0  0  0  0  0  0  0  0
   -7.8225    0.0033    0.0000 C   0  0  0  0  0  0  0  0  0
   -7.0379    0.2582    0.0000 C   0  0  0  0  0  0  0  0  0
  1  2  1  0  0  0  0
  2  3  4  0  0  0  0
  2  7  4  0  0  0  0
  3  4  4  0  0  0  0
  4  5  4  0  0  0  0
  5  6  4  0  0  0  0
  6  7  4  0  0  0  0
  7  8  1  0  0  0  0
  8  9  1  0  0  0  0
  8 13  1  0  0  0  0
  9 10  1  0  0  0  0
 10 11  1  0  0  0  0
 11 12  1  0  0  0  0
 11 14  1  0  0  0  0
 12 13  1  0  0  0  0
 14 15  1  0  0  0  0
 15 16  1  0  0  0  0
 16 17  1  0  0  0  0
 16 22  1  0  0  0  0
 17 18  2  0  0  0  0
 17 19  1  0  0  0  0
 19 20  1  0  0  0  0
 20 21  1  0  0  0  0
 20 24  1  0  0  0  0
 20 27  1  0  0  0  0
 21 22  1  0  0  0  0
 22 23  2  0  0  0  0
 24 25  1  0  0  0  0
 25 26  1  0  0  0  0
 26 27  1  0  0  0  0
M  END
>  <Name_Molregno>
87828

>  <5-HT1A>
8.12

>  <Alpha-1A>
6.2

>  <Alpha-1B>
7.17

$$$$
87847
  Marvin  02231216192D 0   1.00000     0.00000     0

 28 31  0  0  0  0  0  0  0  0999 V2000
   -0.4114    1.6633    0.0000 F   0  0  0  0  0  0  0  0  0
    0.0011    0.9488    0.0000 C   0  0  0  0  0  0  0  0  0
    0.8261    0.9488    0.0000 C   0  0  0  0  0  0  0  0  0
    1.2386    0.2343    0.0000 C   0  0  0  0  0  0  0  0  0
    0.8261   -0.4801    0.0000 C   0  0  0  0  0  0  0  0  0
    1.2386   -1.1946    0.0000 F   0  0  0  0  0  0  0  0  0
    0.0011   -0.4801    0.0000 C   0  0  0  0  0  0  0  0  0
   -0.4114    0.2343    0.0000 C   0  0  0  0  0  0  0  0  0
   -1.2364    0.2343    0.0000 N   0  0  0  0  0  0  0  0  0
   -1.6489   -0.4801    0.0000 C   0  0  0  0  0  0  0  0  0
   -2.4739   -0.4801    0.0000 C   0  0  0  0  0  0  0  0  0
   -2.8864    0.2343    0.0000 N   0  0  0  0  0  0  0  0  0
   -2.4739    0.9488    0.0000 C   0  0  0  0  0  0  0  0  0
   -1.6489    0.9488    0.0000 C   0  0  0  0  0  0  0  0  0
   -3.7114    0.2343    0.0000 C   0  0  0  0  0  0  0  0  0
   -4.1239   -0.4801    0.0000 C   0  0  0  0  0  0  0  0  0
   -4.9489   -0.4801    0.0000 N   0  0  0  0  0  0  0  0  0
   -5.3614   -1.1946    0.0000 C   0  0  0  0  0  0  0  0  0
   -4.9489   -1.9091    0.0000 O   0  0  0  0  0  0  0  0  0
   -6.1864   -1.1946    0.0000 C   0  0  0  0  0  0  0  0  0
   -6.5989   -0.4801    0.0000 C   0  0  0  0  0  0  0  0  0
   -6.1864    0.2343    0.0000 C   0  0  0  0  0  0  0  0  0
   -5.3614    0.2343    0.0000 C   0  0  0  0  0  0  0  0  0
   -4.9489    0.9488    0.0000 O   0  0  0  0  0  0  0  0  0
   -7.0838   -1.1476    0.0000 C   0  0  0  0  0  0  0  0  0
   -7.8684   -0.8926    0.0000 C   0  0  0  0  0  0  0  0  0
   -7.8684   -0.0676    0.0000 C   0  0  0  0  0  0  0  0  0
   -7.0838    0.1873    0.0000 C   0  0  0  0  0  0  0  0  0
  1  2  1  0  0  0  0
  2  3  4  0  0  0  0
  2  8  4  0  0  0  0
  3  4  4  0  0  0  0
  4  5  4  0  0  0  0
  5  6  1  0  0  0  0
  5  7  4  0  0  0  0
  7  8  4  0  0  0  0
  8  9  1  0  0  0  0
  9 10  1  0  0  0  0
  9 14  1  0  0  0  0
 10 11  1  0  0  0  0
 11 12  1  0  0  0  0
 12 13  1  0  0  0  0
 12 15  1  0  0  0  0
 13 14  1  0  0  0  0
 15 16  1  0  0  0  0
 16 17  1  0  0  0  0
 17 18  1  0  0  0  0
 17 23  1  0  0  0  0
 18 19  2  0  0  0  0
 18 20  1  0  0  0  0
 20 21  1  0  0  0  0
 21 22  1  0  0  0  0
 21 25  1  0  0  0  0
 21 28  1  0  0  0  0
 22 23  1  0  0  0  0
 23 24  2  0  0  0  0
 25 26  1  0  0  0  0
 26 27  1  0  0  0  0
 27 28  1  0  0  0  0
M  END
>  <Name_Molregno>
87847

>  <5-HT1A>
7.6

>  <Alpha-1A>
6

>  <Alpha-1B>
7.27

$$$$
88463
  Marvin  02231216192D 0   1.00000     0.00000     0

 27 30  0  0  0  0  0  0  0  0999 V2000
   10.6629    0.6525    0.0000 F   0  0  0  0  0  0  0  0  0
    9.8379    0.6525    0.0000 C   0  0  0  0  0  0  0  0  0
    9.4254   -0.0620    0.0000 C   0  0  0  0  0  0  0  0  0
    8.6004   -0.0620    0.0000 C   0  0  0  0  0  0  0  0  0
    8.1879    0.6525    0.0000 C   0  0  0  0  0  0  0  0  0
    7.3629    0.6525    0.0000 N   0  0  0  0  0  0  0  0  0
    6.9504   -0.0620    0.0000 C   0  0  0  0  0  0  0  0  0
    6.1254   -0.0620    0.0000 C   0  0  0  0  0  0  0  0  0
    5.7129    0.6525    0.0000 N   0  0  0  0  0  0  0  0  0
    6.1254    1.3669    0.0000 C   0  0  0  0  0  0  0  0  0
    6.9504    1.3669    0.0000 C   0  0  0  0  0  0  0  0  0
    4.8879    0.6525    0.0000 C   0  0  0  0  0  0  0  0  0
    4.4754   -0.0620    0.0000 C   0  0  0  0  0  0  0  0  0
    3.6504   -0.0620    0.0000 N   0  0  0  0  0  0  0  0  0
    3.2379   -0.7765    0.0000 C   0  0  0  0  0  0  0  0  0
    3.6504   -1.4910    0.0000 O   0  0  0  0  0  0  0  0  0
    2.4129   -0.7765    0.0000 C   0  0  0  0  0  0  0  0  0
    2.0004   -0.0620    0.0000 C   0  0  0  0  0  0  0  0  0
    2.4129    0.6525    0.0000 C   0  0  0  0  0  0  0  0  0
    3.2379    0.6525    0.0000 C   0  0  0  0  0  0  0  0  0
    3.6504    1.3669    0.0000 O   0  0  0  0  0  0  0  0  0
    1.5155   -0.7295    0.0000 C   0  0  0  0  0  0  0  0  0
    0.7309   -0.4745    0.0000 C   0  0  0  0  0  0  0  0  0
    0.7309    0.3505    0.0000 C   0  0  0  0  0  0  0  0  0
    1.5155    0.6054    0.0000 C   0  0  0  0  0  0  0  0  0
    8.6004    1.3669    0.0000 C   0  0  0  0  0  0  0  0  0
    9.4254    1.3669    0.0000 C   0  0  0  0  0  0  0  0  0
  1  2  1  0  0  0  0
  2  3  4  0  0  0  0
  2 27  4  0  0  0  0
  3  4  4  0  0  0  0
  4  5  4  0  0  0  0
  5  6  1  0  0  0  0
  5 26  4  0  0  0  0
  6  7  1  0  0  0  0
  6 11  1  0  0  0  0
  7  8  1  0  0  0  0
  8  9  1  0  0  0  0
  9 10  1  0  0  0  0
  9 12  1  0  0  0  0
 10 11  1  0  0  0  0
 12 13  1  0  0  0  0
 13 14  1  0  0  0  0
 14 15  1  0  0  0  0
 14 20  1  0  0  0  0
 15 16  2  0  0  0  0
 15 17  1  0  0  0  0
 17 18  1  0  0  0  0
 18 19  1  0  0  0  0
 18 22  1  0  0  0  0
 18 25  1  0  0  0  0
 19 20  1  0  0  0  0
 20 21  2  0  0  0  0
 22 23  1  0  0  0  0
 23 24  1  0  0  0  0
 24 25  1  0  0  0  0
 26 27  4  0  0  0  0
M  END
>  <Name_Molregno>
88463

>  <5-HT1A>
7.27

>  <Alpha-1A>
6.21

>  <Alpha-1B>
6.59

$$$$
88815
  Marvin  02231216192D 0   1.00000     0.00000     0

 14 15  0  0  1  0  0  0  0  0999 V2000
   -3.2072   -0.1654    0.0000 S   0  0  0  0  0  0  0  0  0
   -2.4226   -0.4204    0.0000 C   0  0  0  0  0  0  0  0  0
   -1.7081   -0.0079    0.0000 C   0  0  0  0  0  0  0  0  0
   -0.9937   -0.4204    0.0000 C   0  0  0  0  0  0  0  0  0
   -0.2792   -0.0079    0.0000 N   0  0  0  0  0  0  0  0  0
    0.4353   -0.4204    0.0000 C   0  0  0  0  0  0  0  0  0
    1.1498   -0.0079    0.0000 C   0  0  0  0  0  0  0  0  0
    1.8642   -0.4204    0.0000 C   0  0  0  0  0  0  0  0  0
   -0.9937   -1.2454    0.0000 C   0  0  0  0  0  0  0  0  0
   -1.7081   -1.6579    0.0000 C   0  0  0  0  0  0  0  0  0
   -2.4226   -1.2454    0.0000 C   0  0  0  0  0  0  0  0  0
   -3.2072   -1.5003    0.0000 N   0  0  0  0  0  0  0  0  0
   -3.6921   -0.8329    0.0000 C   0  0  0  0  0  0  0  0  0
   -4.5171   -0.8329    0.0000 N   0  0  0  0  0  0  0  0  0
  1  2  4  0  0  0  0
  1 13  4  0  0  0  0
  2  3  1  0  0  0  0
  2 11  4  0  0  0  0
  3  4  1  0  0  0  0
  4  5  1  0  0  0  0
  4  9  1  0  0  0  0
  5  6  1  0  0  0  0
  6  7  1  0  0  0  0
  7  8  1  0  0  0  0
  9 10  1  0  0  0  0
 10 11  1  0  0  0  0
 11 12  4  0  0  0  0
 12 13  4  0  0  0  0
 13 14  1  0  0  0  0
M  END
>  <Name_Molregno>
88815

>  <5-HT1A>
5.67

>  <5-HT1B>
5.26

>  <5-HT1D>
5.39

>  <5-HT1E>
5

>  <5-HT2A>
5

>  <5-HT2C>
5

>  <5-HT3>
5

>  <5-HT5>
5

>  <5-HT6>
5

>  <5-HT7>
5.93

>  <Alpha-1A>
5

>  <Alpha-1B>
5

>  <Alpha-2A>
6.44

>  <Alpha-2B>
6.68

>  <Alpha-2C>
6.14

>  <Beta-1>
5

>  <Beta-2>
5

>  <DOPAMINE D1>
5

>  <DOPAMINE D2>
6.55

>  <DOPAMINE D3>
8.51

>  <DOPAMINE D4>
7.4

>  <DOPAMINE D5>
5

>  <Dopamine transporter>
5

>  <HISTAMINE H1>
5

>  <HISTAMINE H2>
5.57

>  <HISTAMINE H4>
5

>  <Muscarinic acetylcholine receptor M1>
5

>  <Muscarinic acetylcholine receptor M2>
5

>  <Muscarinic acetylcholine receptor M3>
5

>  <Muscarinic acetylcholine receptor M4>
5

>  <Muscarinic acetylcholine receptor M5>
5

>  <Norepinephrine transporter>
5

>  <Serotonin transporter>
5

$$$$
95917
  Marvin  02231216192D 0   1.00000     0.00000     0

 34 38  0  0  0  0  0  0  0  0999 V2000
   -0.1357    0.0002    0.0000 Cl  0  0  0  0  0  0  0  0  0
   -0.1357   -0.8248    0.0000 C   0  0  0  0  0  0  0  0  0
    0.5788   -1.2373    0.0000 C   0  0  0  0  0  0  0  0  0
    1.2932   -0.8248    0.0000 N   0  0  0  0  0  0  0  0  0
    1.2932    0.0002    0.0000 C   0  0  0  0  0  0  0  0  0
    2.0077    0.4127    0.0000 C   0  0  0  0  0  0  0  0  0
    2.7222    0.0002    0.0000 N   0  0  0  0  0  0  0  0  0
    2.7222   -0.8248    0.0000 C   0  0  0  0  0  0  0  0  0
    2.0077   -1.2373    0.0000 C   0  0  0  0  0  0  0  0  0
    3.4366    0.4127    0.0000 C   0  0  0  0  0  0  0  0  0
    4.1511    0.0002    0.0000 C   0  0  0  0  0  0  0  0  0
    4.8656    0.4127    0.0000 C   0  0  0  0  0  0  0  0  0
    5.5800    0.0002    0.0000 C   0  0  0  0  0  0  0  0  0
    6.2945    0.4127    0.0000 N   0  0  0  0  0  0  0  0  0
    7.0090    0.0002    0.0000 C   0  0  0  0  0  0  0  0  0
    7.0090   -0.8248    0.0000 O   0  0  0  0  0  0  0  0  0
    7.7235    0.4127    0.0000 C   0  0  0  0  0  0  0  0  0
    8.4379    0.0002    0.0000 C   0  0  0  0  0  0  0  0  0
    9.1524    0.4127    0.0000 C   0  0  0  0  0  0  0  0  0
    9.9370    0.1578    0.0000 C   0  0  0  0  0  0  0  0  0
   10.4219    0.8252    0.0000 C   0  0  0  0  0  0  0  0  0
    9.9370    1.4927    0.0000 C   0  0  0  0  0  0  0  0  0
    9.1524    1.2377    0.0000 C   0  0  0  0  0  0  0  0  0
    8.4379    1.6502    0.0000 C   0  0  0  0  0  0  0  0  0
    7.7235    1.2377    0.0000 C   0  0  0  0  0  0  0  0  0
   10.2726    2.2464    0.0000 C   0  0  0  0  0  0  0  0  0
   11.0931    2.3326    0.0000 C   0  0  0  0  0  0  0  0  0
   11.5780    1.6652    0.0000 C   0  0  0  0  0  0  0  0  0
   11.2424    0.9115    0.0000 C   0  0  0  0  0  0  0  0  0
    0.5788   -2.0623    0.0000 C   0  0  0  0  0  0  0  0  0
   -0.1357   -2.4748    0.0000 C   0  0  0  0  0  0  0  0  0
   -0.8502   -2.0623    0.0000 C   0  0  0  0  0  0  0  0  0
   -0.8502   -1.2373    0.0000 C   0  0  0  0  0  0  0  0  0
   -1.5647   -0.8248    0.0000 Cl  0  0  0  0  0  0  0  0  0
  1  2  1  0  0  0  0
  2  3  4  0  0  0  0
  2 33  4  0  0  0  0
  3  4  1  0  0  0  0
  3 30  4  0  0  0  0
  4  5  1  0  0  0  0
  4  9  1  0  0  0  0
  5  6  1  0  0  0  0
  6  7  1  0  0  0  0
  7  8  1  0  0  0  0
  7 10  1  0  0  0  0
  8  9  1  0  0  0  0
 10 11  1  0  0  0  0
 11 12  1  0  0  0  0
 12 13  1  0  0  0  0
 13 14  1  0  0  0  0
 14 15  1  0  0  0  0
 15 16  2  0  0  0  0
 15 17  1  0  0  0  0
 17 18  4  0  0  0  0
 17 25  4  0  0  0  0
 18 19  4  0  0  0  0
 19 20  1  0  0  0  0
 19 23  4  0  0  0  0
 20 21  1  0  0  0  0
 21 22  4  0  0  0  0
 21 29  4  0  0  0  0
 22 23  1  0  0  0  0
 22 26  4  0  0  0  0
 23 24  4  0  0  0  0
 24 25  4  0  0  0  0
 26 27  4  0  0  0  0
 27 28  4  0  0  0  0
 28 29  4  0  0  0  0
 30 31  4  0  0  0  0
 31 32  4  0  0  0  0
 32 33  4  0  0  0  0
 33 34  1  0  0  0  0
M  END
>  <Name_Molregno>
95917

>  <5-HT1A>
5.69

>  <5-HT2A>
6.17

>  <5-HT2C>
6.39

>  <DOPAMINE D2>
6.75

>  <DOPAMINE D3>
8.69

>  <DOPAMINE D4>
5.3

$$$$
110260
  Marvin  02231216192D 0   1.00000     0.00000     0

 33 36  0  0  0  0  0  0  0  0999 V2000
   -9.9587   -0.0242    0.0000 Cl  0  0  0  0  0  0  0  0  0
   -9.9587   -0.8492    0.0000 C   0  0  0  0  0  0  0  0  0
   -9.2442   -1.2617    0.0000 C   0  0  0  0  0  0  0  0  0
   -8.5297   -0.8492    0.0000 N   0  0  0  0  0  0  0  0  0
   -8.5297   -0.0242    0.0000 C   0  0  0  0  0  0  0  0  0
   -7.8152    0.3883    0.0000 C   0  0  0  0  0  0  0  0  0
   -7.1008   -0.0242    0.0000 N   0  0  0  0  0  0  0  0  0
   -7.1008   -0.8492    0.0000 C   0  0  0  0  0  0  0  0  0
   -7.8152   -1.2617    0.0000 C   0  0  0  0  0  0  0  0  0
   -6.3863    0.3883    0.0000 C   0  0  0  0  0  0  0  0  0
   -5.6718   -0.0242    0.0000 C   0  0  0  0  0  0  0  0  0
   -4.9574    0.3883    0.0000 C   0  0  0  0  0  0  0  0  0
   -4.2429   -0.0242    0.0000 C   0  0  0  0  0  0  0  0  0
   -3.5284    0.3883    0.0000 N   0  0  0  0  0  0  0  0  0
   -2.8139   -0.0242    0.0000 C   0  0  0  0  0  0  0  0  0
   -2.8139   -0.8492    0.0000 O   0  0  0  0  0  0  0  0  0
   -2.0995    0.3883    0.0000 C   0  0  0  0  0  0  0  0  0
   -2.0995    1.2133    0.0000 C   0  0  0  0  0  0  0  0  0
   -1.3850    1.6258    0.0000 C   0  0  0  0  0  0  0  0  0
   -0.6705    1.2133    0.0000 C   0  0  0  0  0  0  0  0  0
   -0.6705    0.3883    0.0000 C   0  0  0  0  0  0  0  0  0
   -1.3850   -0.0242    0.0000 C   0  0  0  0  0  0  0  0  0
    0.0439    1.6258    0.0000 C   0  0  0  0  0  0  0  0  0
    0.0439    2.4508    0.0000 N   0  0  0  0  0  0  0  0  0
    0.7584    2.8633    0.0000 C   0  0  0  0  0  0  0  0  0
    1.4729    2.4508    0.0000 C   0  0  0  0  0  0  0  0  0
    1.4729    1.6258    0.0000 C   0  0  0  0  0  0  0  0  0
    0.7584    1.2133    0.0000 C   0  0  0  0  0  0  0  0  0
   -9.2442   -2.0867    0.0000 C   0  0  0  0  0  0  0  0  0
   -9.9587   -2.4992    0.0000 C   0  0  0  0  0  0  0  0  0
  -10.6731   -2.0867    0.0000 C   0  0  0  0  0  0  0  0  0
  -10.6731   -1.2617    0.0000 C   0  0  0  0  0  0  0  0  0
  -11.3876   -0.8492    0.0000 Cl  0  0  0  0  0  0  0  0  0
  1  2  1  0  0  0  0
  2  3  4  0  0  0  0
  2 32  4  0  0  0  0
  3  4  1  0  0  0  0
  3 29  4  0  0  0  0
  4  5  1  0  0  0  0
  4  9  1  0  0  0  0
  5  6  1  0  0  0  0
  6  7  1  0  0  0  0
  7  8  1  0  0  0  0
  7 10  1  0  0  0  0
  8  9  1  0  0  0  0
 10 11  1  0  0  0  0
 11 12  1  0  0  0  0
 12 13  1  0  0  0  0
 13 14  1  0  0  0  0
 14 15  1  0  0  0  0
 15 16  2  0  0  0  0
 15 17  1  0  0  0  0
 17 18  4  0  0  0  0
 17 22  4  0  0  0  0
 18 19  4  0  0  0  0
 19 20  4  0  0  0  0
 20 21  4  0  0  0  0
 20 23  1  0  0  0  0
 21 22  4  0  0  0  0
 23 24  4  0  0  0  0
 23 28  4  0  0  0  0
 24 25  4  0  0  0  0
 25 26  4  0  0  0  0
 26 27  4  0  0  0  0
 27 28  4  0  0  0  0
 29 30  4  0  0  0  0
 30 31  4  0  0  0  0
 31 32  4  0  0  0  0
 32 33  1  0  0  0  0
M  END
>  <Name_Molregno>
110260

>  <5-HT1A>
7.63

>  <5-HT2A>
7.64

>  <5-HT2C>
7.28

>  <DOPAMINE D2>
7.51

>  <DOPAMINE D3>
9.16

$$$$
110358
  Marvin  02231216192D 0   1.00000     0.00000     0

 34 38  0  0  0  0  0  0  0  0999 V2000
    3.1957   -3.8270    0.0000 Cl  0  0  0  0  0  0  0  0  0
    4.0027   -3.6555    0.0000 C   0  0  0  0  0  0  0  0  0
    4.2577   -2.8709    0.0000 C   0  0  0  0  0  0  0  0  0
    3.7056   -2.2578    0.0000 N   0  0  0  0  0  0  0  0  0
    2.8986   -2.4293    0.0000 C   0  0  0  0  0  0  0  0  0
    2.3466   -1.8162    0.0000 C   0  0  0  0  0  0  0  0  0
    2.6016   -1.0316    0.0000 N   0  0  0  0  0  0  0  0  0
    3.4085   -0.8601    0.0000 C   0  0  0  0  0  0  0  0  0
    3.9606   -1.4732    0.0000 C   0  0  0  0  0  0  0  0  0
    2.0495   -0.4185    0.0000 C   0  0  0  0  0  0  0  0  0
    2.3045    0.3661    0.0000 C   0  0  0  0  0  0  0  0  0
    3.1114    0.5377    0.0000 C   0  0  0  0  0  0  0  0  0
    3.3664    1.3223    0.0000 C   0  0  0  0  0  0  0  0  0
    4.1733    1.4938    0.0000 N   0  0  0  0  0  0  0  0  0
    4.4283    2.2784    0.0000 C   0  0  0  0  0  0  0  0  0
    3.8763    2.8915    0.0000 O   0  0  0  0  0  0  0  0  0
    5.2353    2.4500    0.0000 C   0  0  0  0  0  0  0  0  0
    5.7873    1.8369    0.0000 C   0  0  0  0  0  0  0  0  0
    6.5943    2.0084    0.0000 C   0  0  0  0  0  0  0  0  0
    7.2617    1.5235    0.0000 C   0  0  0  0  0  0  0  0  0
    7.9291    2.0084    0.0000 C   0  0  0  0  0  0  0  0  0
    7.6742    2.7930    0.0000 C   0  0  0  0  0  0  0  0  0
    6.8492    2.7930    0.0000 C   0  0  0  0  0  0  0  0  0
    6.2972    3.4061    0.0000 C   0  0  0  0  0  0  0  0  0
    5.4902    3.2346    0.0000 C   0  0  0  0  0  0  0  0  0
    8.2262    3.4061    0.0000 C   0  0  0  0  0  0  0  0  0
    9.0332    3.2346    0.0000 C   0  0  0  0  0  0  0  0  0
    9.2881    2.4500    0.0000 C   0  0  0  0  0  0  0  0  0
    8.7361    1.8369    0.0000 C   0  0  0  0  0  0  0  0  0
    5.0646   -2.6993    0.0000 C   0  0  0  0  0  0  0  0  0
    5.6167   -3.3124    0.0000 C   0  0  0  0  0  0  0  0  0
    5.3617   -4.0971    0.0000 C   0  0  0  0  0  0  0  0  0
    4.5547   -4.2686    0.0000 C   0  0  0  0  0  0  0  0  0
    4.2998   -5.0532    0.0000 Cl  0  0  0  0  0  0  0  0  0
  1  2  1  0  0  0  0
  2  3  4  0  0  0  0
  2 33  4  0  0  0  0
  3  4  1  0  0  0  0
  3 30  4  0  0  0  0
  4  5  1  0  0  0  0
  4  9  1  0  0  0  0
  5  6  1  0  0  0  0
  6  7  1  0  0  0  0
  7  8  1  0  0  0  0
  7 10  1  0  0  0  0
  8  9  1  0  0  0  0
 10 11  1  0  0  0  0
 11 12  2  0  0  0  0
 12 13  1  0  0  0  0
 13 14  1  0  0  0  0
 14 15  1  0  0  0  0
 15 16  2  0  0  0  0
 15 17  1  0  0  0  0
 17 18  4  0  0  0  0
 17 25  4  0  0  0  0
 18 19  4  0  0  0  0
 19 20  1  0  0  0  0
 19 23  4  0  0  0  0
 20 21  1  0  0  0  0
 21 22  4  0  0  0  0
 21 29  4  0  0  0  0
 22 23  1  0  0  0  0
 22 26  4  0  0  0  0
 23 24  4  0  0  0  0
 24 25  4  0  0  0  0
 26 27  4  0  0  0  0
 27 28  4  0  0  0  0
 28 29  4  0  0  0  0
 30 31  4  0  0  0  0
 31 32  4  0  0  0  0
 32 33  4  0  0  0  0
 33 34  1  0  0  0  0
M  END
>  <Name_Molregno>
110358

>  <5-HT1A>
6.03

>  <5-HT2A>
6.48

>  <5-HT2C>
6.88

>  <DOPAMINE D2>
6.33

>  <DOPAMINE D3>
8.69

>  <DOPAMINE D4>
5.99

$$$$
120674
  Marvin  02231216192D 0   1.00000     0.00000     0

 27 29  0  0  1  0  0  0  0  0999 V2000
    4.4208    6.3587    0.0000 F   0  0  0  0  0  0  0  0  0
    4.4208    5.5337    0.0000 C   0  0  0  0  0  0  0  0  0
    5.1353    5.1212    0.0000 C   0  0  0  0  0  0  0  0  0
    5.1353    4.2962    0.0000 C   0  0  0  0  0  0  0  0  0
    4.4208    3.8837    0.0000 C   0  0  0  0  0  0  0  0  0
    3.7063    4.2962    0.0000 C   0  0  0  0  0  0  0  0  0
    3.7063    5.1212    0.0000 C   0  0  0  0  0  0  0  0  0
    4.4208    3.0587    0.0000 C   0  0  0  0  0  0  0  0  0
    5.1353    2.6462    0.0000 C   0  0  0  0  0  0  0  0  0
    5.1353    1.8212    0.0000 N   0  0  0  0  0  0  0  0  0
    5.8497    1.4087    0.0000 C   0  0  0  0  0  0  0  0  0
    5.8497    0.5837    0.0000 C   0  0  0  0  0  0  0  0  0
    5.1353    0.1712    0.0000 C   0  0  0  0  0  0  0  0  0
    4.4208    0.5837    0.0000 C   0  0  0  0  0  0  0  0  0
    4.4208    1.4087    0.0000 C   0  0  0  0  0  0  0  0  0
    5.1353   -0.6538    0.0000 C   0  0  0  0  0  0  0  0  0
    4.4208   -1.0663    0.0000 O   0  0  0  0  0  0  0  0  0
    5.8497   -1.0663    0.0000 C   0  0  0  0  0  0  0  0  0
    6.5642   -0.6538    0.0000 C   0  0  0  0  0  0  0  0  0
    7.2787   -1.0663    0.0000 C   0  0  0  0  0  0  0  0  0
    7.2787   -1.8913    0.0000 C   0  0  0  0  0  0  0  0  0
    6.5642   -2.3038    0.0000 C   0  0  0  0  0  0  0  0  0
    6.5642   -3.1288    0.0000 O   0  0  0  0  0  0  0  0  0
    7.2787   -3.5413    0.0000 C   0  0  0  0  0  0  0  0  0
    5.8497   -1.8913    0.0000 C   0  0  0  0  0  0  0  0  0
    5.1353   -2.3038    0.0000 O   0  0  0  0  0  0  0  0  0
    5.1353   -3.1288    0.0000 C   0  0  0  0  0  0  0  0  0
  1  2  1  0  0  0  0
  2  3  4  0  0  0  0
  2  7  4  0  0  0  0
  3  4  4  0  0  0  0
  4  5  4  0  0  0  0
  5  6  4  0  0  0  0
  5  8  1  0  0  0  0
  6  7  4  0  0  0  0
  8  9  1  0  0  0  0
  9 10  1  0  0  0  0
 10 11  1  0  0  0  0
 10 15  1  0  0  0  0
 11 12  1  0  0  0  0
 12 13  1  0  0  0  0
 13 14  1  0  0  0  0
 13 16  1  0  0  0  0
 14 15  1  0  0  0  0
 16 17  1  0  0  0  0
 16 18  1  0  0  0  0
 18 19  4  0  0  0  0
 18 25  4  0  0  0  0
 19 20  4  0  0  0  0
 20 21  4  0  0  0  0
 21 22  4  0  0  0  0
 22 23  1  0  0  0  0
 22 25  4  0  0  0  0
 23 24  1  0  0  0  0
 25 26  1  0  0  0  0
 26 27  1  0  0  0  0
M  END
>  <Name_Molregno>
120674

>  <5-HT1A>
5

>  <5-HT1E>
5

>  <5-HT2A>
9.16

>  <5-HT2C>
7.37

>  <5-HT3>
5

>  <5-HT5>
5

>  <5-HT6>
5.46

>  <Alpha-1A>
6.41

>  <Alpha-1B>
6.37

>  <Alpha-2A>
5.72

>  <Alpha-2B>
6.57

>  <Alpha-2C>
5.84

>  <Beta-1>
5

>  <Beta-2>
5

>  <DOPAMINE D1>
5.67

>  <DOPAMINE D2>
5.23

>  <DOPAMINE D4>
5.42

>  <DOPAMINE D5>
5

>  <Dopamine transporter>
5

>  <HISTAMINE H1>
7.18

>  <HISTAMINE H4>
5

>  <Muscarinic acetylcholine receptor M1>
5

>  <Muscarinic acetylcholine receptor M2>
5

>  <Muscarinic acetylcholine receptor M3>
5

>  <Muscarinic acetylcholine receptor M4>
5

>  <Muscarinic acetylcholine receptor M5>
5

>  <Norepinephrine transporter>
5

>  <Serotonin transporter>
5

$$$$
125615
  Marvin  02231216192D 0   1.00000     0.00000     0

 32 36  0  0  1  0  0  0  0  0999 V2000
    1.6052   -2.6425    0.0000 S   0  0  0  0  0  0  0  0  0
    1.8601   -3.4271    0.0000 C   0  0  0  0  0  0  0  0  0
    2.6851   -3.4271    0.0000 C   0  0  0  0  0  0  0  0  0
    2.9401   -2.6425    0.0000 C   0  0  0  0  0  0  0  0  0
    2.2726   -2.1576    0.0000 C   0  0  0  0  0  0  0  0  0
    2.2726   -1.3326    0.0000 C   0  0  0  0  0  0  0  0  0
    1.5582   -0.9201    0.0000 C   0  0  0  0  0  0  0  0  0
    1.5582   -0.0951    0.0000 C   0  0  0  0  0  0  0  0  0
    2.2726    0.3174    0.0000 N   0  0  0  0  0  0  0  0  0
    2.9871   -0.0951    0.0000 C   0  0  0  0  0  0  0  0  0
    2.9871   -0.9201    0.0000 C   0  0  0  0  0  0  0  0  0
    2.2726    1.1424    0.0000 C   0  0  0  0  0  0  0  0  0
    2.9871    1.5549    0.0000 C   0  0  0  0  0  0  0  0  0
    3.7016    1.1424    0.0000 O   0  0  0  0  0  0  0  0  0
    2.9871    2.3799    0.0000 C   0  0  0  0  0  0  0  0  0
    3.7016    2.7924    0.0000 O   0  0  0  0  0  0  0  0  0
    3.7016    3.6174    0.0000 C   0  0  0  0  0  0  0  0  0
    2.9871    4.0299    0.0000 C   0  0  0  0  0  0  0  0  0
    2.9871    4.8549    0.0000 C   0  0  0  0  0  0  0  0  0
    2.2025    5.1099    0.0000 N   0  0  0  0  0  0  0  0  0
    1.7176    4.4424    0.0000 C   0  0  0  0  0  0  0  0  0
    2.2025    3.7750    0.0000 C   0  0  0  0  0  0  0  0  0
    3.7016    5.2674    0.0000 C   0  0  0  0  0  0  0  0  0
    4.4160    4.8549    0.0000 C   0  0  0  0  0  0  0  0  0
    4.4160    4.0299    0.0000 C   0  0  0  0  0  0  0  0  0
    0.8437    0.3174    0.0000 C   0  0  0  0  0  0  0  0  0
    3.0976   -4.1416    0.0000 C   0  0  0  0  0  0  0  0  0
    3.9226   -4.1416    0.0000 O   0  0  0  0  0  0  0  0  0
    4.3351   -4.8561    0.0000 C   0  0  0  0  0  0  0  0  0
    2.6851   -4.8561    0.0000 C   0  0  0  0  0  0  0  0  0
    1.8601   -4.8561    0.0000 C   0  0  0  0  0  0  0  0  0
    1.4476   -4.1416    0.0000 C   0  0  0  0  0  0  0  0  0
  1  2  4  0  0  0  0
  1  5  4  0  0  0  0
  2  3  4  0  0  0  0
  2 32  4  0  0  0  0
  3  4  4  0  0  0  0
  3 27  4  0  0  0  0
  4  5  4  0  0  0  0
  5  6  1  0  0  0  0
  6  7  1  0  0  0  0
  6 11  1  0  0  0  0
  7  8  1  0  0  0  0
  8  9  1  0  0  0  0
  8 26  1  0  0  0  0
  9 10  1  0  0  0  0
  9 12  1  0  0  0  0
 10 11  1  0  0  0  0
 12 13  1  0  0  0  0
 13 14  1  0  0  0  0
 13 15  1  0  0  0  0
 15 16  1  0  0  0  0
 16 17  1  0  0  0  0
 17 18  4  0  0  0  0
 17 25  4  0  0  0  0
 18 19  4  0  0  0  0
 18 22  4  0  0  0  0
 19 20  4  0  0  0  0
 19 23  4  0  0  0  0
 20 21  4  0  0  0  0
 21 22  4  0  0  0  0
 23 24  4  0  0  0  0
 24 25  4  0  0  0  0
 27 28  1  0  0  0  0
 27 30  4  0  0  0  0
 28 29  1  0  0  0  0
 30 31  4  0  0  0  0
 31 32  4  0  0  0  0
M  STY  1   1 DAT
M  SAL   1  1  20
M  SDT   1 MRV_IMPLICIT_H                                        
M  SDD   1     0.0000    0.0000    DR    ALL  0       0  
M  SED   1 IMPL_H1
M  END
>  <Name_Molregno>
125615

>  <5-HT1A>
8.23

>  <Serotonin transporter>
8.55

$$$$
126049
  Marvin  02231216192D 0   1.00000     0.00000     0

 31 35  0  0  1  0  0  0  0  0999 V2000
   -3.9493   -2.8853    0.0000 S   0  0  0  0  0  0  0  0  0
   -3.6943   -3.6699    0.0000 C   0  0  0  0  0  0  0  0  0
   -2.8693   -3.6699    0.0000 C   0  0  0  0  0  0  0  0  0
   -2.6144   -2.8853    0.0000 C   0  0  0  0  0  0  0  0  0
   -3.2818   -2.4004    0.0000 C   0  0  0  0  0  0  0  0  0
   -3.2818   -1.5754    0.0000 C   0  0  0  0  0  0  0  0  0
   -3.9963   -1.1629    0.0000 C   0  0  0  0  0  0  0  0  0
   -3.9963   -0.3379    0.0000 C   0  0  0  0  0  0  0  0  0
   -3.2818    0.0746    0.0000 N   0  0  0  0  0  0  0  0  0
   -2.5674   -0.3379    0.0000 C   0  0  0  0  0  0  0  0  0
   -2.5674   -1.1629    0.0000 C   0  0  0  0  0  0  0  0  0
   -3.2818    0.8996    0.0000 C   0  0  0  0  0  0  0  0  0
   -2.5674    1.3121    0.0000 C   0  0  0  0  0  0  0  0  0
   -1.8529    0.8996    0.0000 O   0  0  0  0  0  0  0  0  0
   -2.5674    2.1371    0.0000 C   0  0  0  0  0  0  0  0  0
   -1.8529    2.5496    0.0000 O   0  0  0  0  0  0  0  0  0
   -1.8529    3.3746    0.0000 C   0  0  0  0  0  0  0  0  0
   -2.5674    3.7871    0.0000 C   0  0  0  0  0  0  0  0  0
   -2.5674    4.6121    0.0000 C   0  0  0  0  0  0  0  0  0
   -3.3520    4.8670    0.0000 N   0  0  0  0  0  0  0  0  0
   -3.8369    4.1996    0.0000 C   0  0  0  0  0  0  0  0  0
   -3.3520    3.5322    0.0000 C   0  0  0  0  0  0  0  0  0
   -1.8529    5.0246    0.0000 C   0  0  0  0  0  0  0  0  0
   -1.1384    4.6121    0.0000 C   0  0  0  0  0  0  0  0  0
   -1.1384    3.7871    0.0000 C   0  0  0  0  0  0  0  0  0
   -4.7108    0.0746    0.0000 C   0  0  0  0  0  0  0  0  0
   -2.4568   -4.3844    0.0000 C   0  0  0  0  0  0  0  0  0
   -2.8693   -5.0989    0.0000 C   0  0  0  0  0  0  0  0  0
   -3.6943   -5.0989    0.0000 C   0  0  0  0  0  0  0  0  0
   -4.1068   -4.3844    0.0000 C   0  0  0  0  0  0  0  0  0
   -1.6318   -4.3844    0.0000 C   0  0  0  0  0  0  0  0  0
  1  2  4  0  0  0  0
  1  5  4  0  0  0  0
  2  3  4  0  0  0  0
  2 30  4  0  0  0  0
  3  4  4  0  0  0  0
  3 27  4  0  0  0  0
  4  5  4  0  0  0  0
  5  6  1  0  0  0  0
  6  7  1  0  0  0  0
  6 11  1  0  0  0  0
  7  8  1  0  0  0  0
  8  9  1  0  0  0  0
  8 26  1  0  0  0  0
  9 10  1  0  0  0  0
  9 12  1  0  0  0  0
 10 11  1  0  0  0  0
 12 13  1  0  0  0  0
 13 14  1  0  0  0  0
 13 15  1  0  0  0  0
 15 16  1  0  0  0  0
 16 17  1  0  0  0  0
 17 18  4  0  0  0  0
 17 25  4  0  0  0  0
 18 19  4  0  0  0  0
 18 22  4  0  0  0  0
 19 20  4  0  0  0  0
 19 23  4  0  0  0  0
 20 21  4  0  0  0  0
 21 22  4  0  0  0  0
 23 24  4  0  0  0  0
 24 25  4  0  0  0  0
 27 28  4  0  0  0  0
 27 31  1  0  0  0  0
 28 29  4  0  0  0  0
 29 30  4  0  0  0  0
M  STY  1   1 DAT
M  SAL   1  1  20
M  SDT   1 MRV_IMPLICIT_H                                        
M  SDD   1     0.0000    0.0000    DR    ALL  0       0  
M  SED   1 IMPL_H1
M  END
>  <Name_Molregno>
126049

>  <5-HT1A>
8.16

>  <Serotonin transporter>
9.36

$$$$
126251
  Marvin  02231216192D 0   1.00000     0.00000     0

 32 36  0  0  1  0  0  0  0  0999 V2000
    4.2343   -3.2296    0.0000 S   0  0  0  0  0  0  0  0  0
    3.9794   -4.0142    0.0000 C   0  0  0  0  0  0  0  0  0
    4.3919   -4.7287    0.0000 C   0  0  0  0  0  0  0  0  0
    3.9794   -5.4432    0.0000 C   0  0  0  0  0  0  0  0  0
    4.3919   -6.1576    0.0000 O   0  0  0  0  0  0  0  0  0
    3.9794   -6.8721    0.0000 C   0  0  0  0  0  0  0  0  0
    3.1544   -5.4432    0.0000 C   0  0  0  0  0  0  0  0  0
    2.7419   -4.7287    0.0000 C   0  0  0  0  0  0  0  0  0
    3.1544   -4.0142    0.0000 C   0  0  0  0  0  0  0  0  0
    2.8994   -3.2296    0.0000 C   0  0  0  0  0  0  0  0  0
    3.5669   -2.7447    0.0000 C   0  0  0  0  0  0  0  0  0
    3.5669   -1.9197    0.0000 C   0  0  0  0  0  0  0  0  0
    2.8524   -1.5072    0.0000 C   0  0  0  0  0  0  0  0  0
    2.8524   -0.6822    0.0000 C   0  0  0  0  0  0  0  0  0
    3.5669   -0.2697    0.0000 N   0  0  0  0  0  0  0  0  0
    4.2814   -0.6822    0.0000 C   0  0  0  0  0  0  0  0  0
    4.2814   -1.5072    0.0000 C   0  0  0  0  0  0  0  0  0
    3.5669    0.5553    0.0000 C   0  0  0  0  0  0  0  0  0
    2.8524    0.9678    0.0000 C   0  0  0  0  0  0  0  0  0
    2.1379    0.5553    0.0000 O   0  0  0  0  0  0  0  0  0
    2.8524    1.7928    0.0000 C   0  0  0  0  0  0  0  0  0
    2.1379    2.2053    0.0000 O   0  0  0  0  0  0  0  0  0
    2.1379    3.0303    0.0000 C   0  0  0  0  0  0  0  0  0
    1.4235    3.4428    0.0000 C   0  0  0  0  0  0  0  0  0
    1.4235    4.2678    0.0000 C   0  0  0  0  0  0  0  0  0
    0.6388    4.5228    0.0000 N   0  0  0  0  0  0  0  0  0
    0.1539    3.8553    0.0000 C   0  0  0  0  0  0  0  0  0
    0.6388    3.1879    0.0000 C   0  0  0  0  0  0  0  0  0
    2.1379    4.6803    0.0000 C   0  0  0  0  0  0  0  0  0
    2.8524    4.2678    0.0000 C   0  0  0  0  0  0  0  0  0
    2.8524    3.4428    0.0000 C   0  0  0  0  0  0  0  0  0
    2.1379   -0.2697    0.0000 C   0  0  0  0  0  0  0  0  0
  1  2  4  0  0  0  0
  1 11  4  0  0  0  0
  2  3  4  0  0  0  0
  2  9  4  0  0  0  0
  3  4  4  0  0  0  0
  4  5  1  0  0  0  0
  4  7  4  0  0  0  0
  5  6  1  0  0  0  0
  7  8  4  0  0  0  0
  8  9  4  0  0  0  0
  9 10  4  0  0  0  0
 10 11  4  0  0  0  0
 11 12  1  0  0  0  0
 12 13  1  0  0  0  0
 12 17  1  0  0  0  0
 13 14  1  0  0  0  0
 14 15  1  0  0  0  0
 14 32  1  0  0  0  0
 15 16  1  0  0  0  0
 15 18  1  0  0  0  0
 16 17  1  0  0  0  0
 18 19  1  0  0  0  0
 19 20  1  0  0  0  0
 19 21  1  0  0  0  0
 21 22  1  0  0  0  0
 22 23  1  0  0  0  0
 23 24  4  0  0  0  0
 23 31  4  0  0  0  0
 24 25  4  0  0  0  0
 24 28  4  0  0  0  0
 25 26  4  0  0  0  0
 25 29  4  0  0  0  0
 26 27  4  0  0  0  0
 27 28  4  0  0  0  0
 29 30  4  0  0  0  0
 30 31  4  0  0  0  0
M  STY  1   1 DAT
M  SAL   1  1  26
M  SDT   1 MRV_IMPLICIT_H                                        
M  SDD   1     0.0000    0.0000    DR    ALL  0       0  
M  SED   1 IMPL_H1
M  END
>  <Name_Molregno>
126251

>  <5-HT1A>
7.84

>  <Serotonin transporter>
8.96

$$$$
126314
  Marvin  02231216192D 0   1.00000     0.00000     0

 31 35  0  0  1  0  0  0  0  0999 V2000
    5.8262   -5.9861    0.0000 Cl  0  0  0  0  0  0  0  0  0
    6.2387   -5.2716    0.0000 C   0  0  0  0  0  0  0  0  0
    5.8262   -4.5572    0.0000 C   0  0  0  0  0  0  0  0  0
    6.2387   -3.8427    0.0000 C   0  0  0  0  0  0  0  0  0
    5.9837   -3.0581    0.0000 C   0  0  0  0  0  0  0  0  0
    6.6512   -2.5731    0.0000 C   0  0  0  0  0  0  0  0  0
    7.3186   -3.0581    0.0000 S   0  0  0  0  0  0  0  0  0
    7.0637   -3.8427    0.0000 C   0  0  0  0  0  0  0  0  0
    7.4762   -4.5572    0.0000 C   0  0  0  0  0  0  0  0  0
    7.0637   -5.2716    0.0000 C   0  0  0  0  0  0  0  0  0
    6.6512   -1.7481    0.0000 C   0  0  0  0  0  0  0  0  0
    5.9367   -1.3356    0.0000 C   0  0  0  0  0  0  0  0  0
    5.9367   -0.5106    0.0000 C   0  0  0  0  0  0  0  0  0
    6.6512   -0.0981    0.0000 N   0  0  0  0  0  0  0  0  0
    7.3656   -0.5106    0.0000 C   0  0  0  0  0  0  0  0  0
    7.3656   -1.3356    0.0000 C   0  0  0  0  0  0  0  0  0
    6.6512    0.7269    0.0000 C   0  0  0  0  0  0  0  0  0
    5.9367    1.1394    0.0000 C   0  0  0  0  0  0  0  0  0
    5.2222    0.7269    0.0000 O   0  0  0  0  0  0  0  0  0
    5.9367    1.9644    0.0000 C   0  0  0  0  0  0  0  0  0
    5.2222    2.3769    0.0000 O   0  0  0  0  0  0  0  0  0
    5.2222    3.2019    0.0000 C   0  0  0  0  0  0  0  0  0
    4.5078    3.6144    0.0000 C   0  0  0  0  0  0  0  0  0
    4.5078    4.4394    0.0000 C   0  0  0  0  0  0  0  0  0
    3.7231    4.6943    0.0000 N   0  0  0  0  0  0  0  0  0
    3.2382    4.0269    0.0000 C   0  0  0  0  0  0  0  0  0
    3.7231    3.3594    0.0000 C   0  0  0  0  0  0  0  0  0
    5.2222    4.8519    0.0000 C   0  0  0  0  0  0  0  0  0
    5.9367    4.4394    0.0000 C   0  0  0  0  0  0  0  0  0
    5.9367    3.6144    0.0000 C   0  0  0  0  0  0  0  0  0
    5.2222   -0.0981    0.0000 C   0  0  0  0  0  0  0  0  0
  1  2  1  0  0  0  0
  2  3  4  0  0  0  0
  2 10  4  0  0  0  0
  3  4  4  0  0  0  0
  4  5  4  0  0  0  0
  4  8  4  0  0  0  0
  5  6  4  0  0  0  0
  6  7  4  0  0  0  0
  6 11  1  0  0  0  0
  7  8  4  0  0  0  0
  8  9  4  0  0  0  0
  9 10  4  0  0  0  0
 11 12  1  0  0  0  0
 11 16  1  0  0  0  0
 12 13  1  0  0  0  0
 13 14  1  0  0  0  0
 13 31  1  0  0  0  0
 14 15  1  0  0  0  0
 14 17  1  0  0  0  0
 15 16  1  0  0  0  0
 17 18  1  0  0  0  0
 18 19  1  0  0  0  0
 18 20  1  0  0  0  0
 20 21  1  0  0  0  0
 21 22  1  0  0  0  0
 22 23  4  0  0  0  0
 22 30  4  0  0  0  0
 23 24  4  0  0  0  0
 23 27  4  0  0  0  0
 24 25  4  0  0  0  0
 24 28  4  0  0  0  0
 25 26  4  0  0  0  0
 26 27  4  0  0  0  0
 28 29  4  0  0  0  0
 29 30  4  0  0  0  0
M  STY  1   1 DAT
M  SAL   1  1  25
M  SDT   1 MRV_IMPLICIT_H                                        
M  SDD   1     0.0000    0.0000    DR    ALL  0       0  
M  SED   1 IMPL_H1
M  END
>  <Name_Molregno>
126314

>  <5-HT1A>
8.08

>  <Serotonin transporter>
9.24

$$$$
126389
  Marvin  02231216192D 0   1.00000     0.00000     0

 31 35  0  0  1  0  0  0  0  0999 V2000
    4.4984   -3.2017    0.0000 S   0  0  0  0  0  0  0  0  0
    4.2434   -3.9863    0.0000 C   0  0  0  0  0  0  0  0  0
    4.6559   -4.7008    0.0000 C   0  0  0  0  0  0  0  0  0
    4.2434   -5.4153    0.0000 C   0  0  0  0  0  0  0  0  0
    4.6559   -6.1298    0.0000 F   0  0  0  0  0  0  0  0  0
    3.4184   -5.4153    0.0000 C   0  0  0  0  0  0  0  0  0
    3.0059   -4.7008    0.0000 C   0  0  0  0  0  0  0  0  0
    3.4184   -3.9863    0.0000 C   0  0  0  0  0  0  0  0  0
    3.1635   -3.2017    0.0000 C   0  0  0  0  0  0  0  0  0
    3.8309   -2.7168    0.0000 C   0  0  0  0  0  0  0  0  0
    3.8309   -1.8918    0.0000 C   0  0  0  0  0  0  0  0  0
    3.1165   -1.4793    0.0000 C   0  0  0  0  0  0  0  0  0
    3.1165   -0.6543    0.0000 C   0  0  0  0  0  0  0  0  0
    3.8309   -0.2418    0.0000 N   0  0  0  0  0  0  0  0  0
    4.5454   -0.6543    0.0000 C   0  0  0  0  0  0  0  0  0
    4.5454   -1.4793    0.0000 C   0  0  0  0  0  0  0  0  0
    3.8309    0.5832    0.0000 C   0  0  0  0  0  0  0  0  0
    3.1165    0.9957    0.0000 C   0  0  0  0  0  0  0  0  0
    2.4020    0.5832    0.0000 O   0  0  0  0  0  0  0  0  0
    3.1165    1.8207    0.0000 C   0  0  0  0  0  0  0  0  0
    2.4020    2.2332    0.0000 O   0  0  0  0  0  0  0  0  0
    2.4020    3.0582    0.0000 C   0  0  0  0  0  0  0  0  0
    1.6875    3.4707    0.0000 C   0  0  0  0  0  0  0  0  0
    1.6875    4.2957    0.0000 C   0  0  0  0  0  0  0  0  0
    0.9029    4.5506    0.0000 N   0  0  0  0  0  0  0  0  0
    0.4180    3.8832    0.0000 C   0  0  0  0  0  0  0  0  0
    0.9029    3.2158    0.0000 C   0  0  0  0  0  0  0  0  0
    2.4020    4.7082    0.0000 C   0  0  0  0  0  0  0  0  0
    3.1165    4.2957    0.0000 C   0  0  0  0  0  0  0  0  0
    3.1165    3.4707    0.0000 C   0  0  0  0  0  0  0  0  0
    2.4020   -0.2418    0.0000 C   0  0  0  0  0  0  0  0  0
  1  2  4  0  0  0  0
  1 10  4  0  0  0  0
  2  3  4  0  0  0  0
  2  8  4  0  0  0  0
  3  4  4  0  0  0  0
  4  5  1  0  0  0  0
  4  6  4  0  0  0  0
  6  7  4  0  0  0  0
  7  8  4  0  0  0  0
  8  9  4  0  0  0  0
  9 10  4  0  0  0  0
 10 11  1  0  0  0  0
 11 12  1  0  0  0  0
 11 16  1  0  0  0  0
 12 13  1  0  0  0  0
 13 14  1  0  0  0  0
 13 31  1  0  0  0  0
 14 15  1  0  0  0  0
 14 17  1  0  0  0  0
 15 16  1  0  0  0  0
 17 18  1  0  0  0  0
 18 19  1  0  0  0  0
 18 20  1  0  0  0  0
 20 21  1  0  0  0  0
 21 22  1  0  0  0  0
 22 23  4  0  0  0  0
 22 30  4  0  0  0  0
 23 24  4  0  0  0  0
 23 27  4  0  0  0  0
 24 25  4  0  0  0  0
 24 28  4  0  0  0  0
 25 26  4  0  0  0  0
 26 27  4  0  0  0  0
 28 29  4  0  0  0  0
 29 30  4  0  0  0  0
M  STY  1   1 DAT
M  SAL   1  1  25
M  SDT   1 MRV_IMPLICIT_H                                        
M  SDD   1     0.0000    0.0000    DR    ALL  0       0  
M  SED   1 IMPL_H1
M  END
>  <Name_Molregno>
126389

>  <5-HT1A>
8.26

>  <Serotonin transporter>
9.51

$$$$
126442
  Marvin  02231216192D 0   1.00000     0.00000     0

 30 34  0  0  1  0  0  0  0  0999 V2000
    2.2605   -3.4511    0.0000 S   0  0  0  0  0  0  0  0  0
    2.5154   -4.2358    0.0000 C   0  0  0  0  0  0  0  0  0
    3.3404   -4.2358    0.0000 C   0  0  0  0  0  0  0  0  0
    3.5954   -3.4511    0.0000 C   0  0  0  0  0  0  0  0  0
    2.9279   -2.9662    0.0000 C   0  0  0  0  0  0  0  0  0
    2.9279   -2.1412    0.0000 C   0  0  0  0  0  0  0  0  0
    2.2134   -1.7287    0.0000 C   0  0  0  0  0  0  0  0  0
    2.2134   -0.9037    0.0000 C   0  0  0  0  0  0  0  0  0
    2.9279   -0.4912    0.0000 N   0  0  0  0  0  0  0  0  0
    3.6424   -0.9037    0.0000 C   0  0  0  0  0  0  0  0  0
    3.6424   -1.7287    0.0000 C   0  0  0  0  0  0  0  0  0
    2.9279    0.3338    0.0000 C   0  0  0  0  0  0  0  0  0
    3.6424    0.7463    0.0000 C   0  0  0  0  0  0  0  0  0
    4.3569    0.3338    0.0000 O   0  0  0  0  0  0  0  0  0
    3.6424    1.5713    0.0000 C   0  0  0  0  0  0  0  0  0
    4.3569    1.9838    0.0000 O   0  0  0  0  0  0  0  0  0
    4.3569    2.8088    0.0000 C   0  0  0  0  0  0  0  0  0
    3.6424    3.2213    0.0000 C   0  0  0  0  0  0  0  0  0
    3.6424    4.0463    0.0000 C   0  0  0  0  0  0  0  0  0
    2.8578    4.3012    0.0000 N   0  0  0  0  0  0  0  0  0
    2.3728    3.6338    0.0000 C   0  0  0  0  0  0  0  0  0
    2.8578    2.9663    0.0000 C   0  0  0  0  0  0  0  0  0
    4.3569    4.4588    0.0000 C   0  0  0  0  0  0  0  0  0
    5.0713    4.0463    0.0000 C   0  0  0  0  0  0  0  0  0
    5.0713    3.2213    0.0000 C   0  0  0  0  0  0  0  0  0
    1.4990   -0.4912    0.0000 C   0  0  0  0  0  0  0  0  0
    3.7529   -4.9502    0.0000 C   0  0  0  0  0  0  0  0  0
    3.3404   -5.6647    0.0000 C   0  0  0  0  0  0  0  0  0
    2.5154   -5.6647    0.0000 C   0  0  0  0  0  0  0  0  0
    2.1029   -4.9502    0.0000 C   0  0  0  0  0  0  0  0  0
  1  2  4  0  0  0  0
  1  5  4  0  0  0  0
  2  3  4  0  0  0  0
  2 30  4  0  0  0  0
  3  4  4  0  0  0  0
  3 27  4  0  0  0  0
  4  5  4  0  0  0  0
  5  6  1  0  0  0  0
  6  7  1  0  0  0  0
  6 11  1  0  0  0  0
  7  8  1  0  0  0  0
  8  9  1  0  0  0  0
  8 26  1  0  0  0  0
  9 10  1  0  0  0  0
  9 12  1  0  0  0  0
 10 11  1  0  0  0  0
 12 13  1  0  0  0  0
 13 14  1  0  0  0  0
 13 15  1  0  0  0  0
 15 16  1  0  0  0  0
 16 17  1  0  0  0  0
 17 18  4  0  0  0  0
 17 25  4  0  0  0  0
 18 19  4  0  0  0  0
 18 22  4  0  0  0  0
 19 20  4  0  0  0  0
 19 23  4  0  0  0  0
 20 21  4  0  0  0  0
 21 22  4  0  0  0  0
 23 24  4  0  0  0  0
 24 25  4  0  0  0  0
 27 28  4  0  0  0  0
 28 29  4  0  0  0  0
 29 30  4  0  0  0  0
M  STY  1   1 DAT
M  SAL   1  1  20
M  SDT   1 MRV_IMPLICIT_H                                        
M  SDD   1     0.0000    0.0000    DR    ALL  0       0  
M  SED   1 IMPL_H1
M  END
>  <Name_Molregno>
126442

>  <5-HT1A>
8.51

>  <Serotonin transporter>
9.29

$$$$
137398
  Marvin  02231216192D 0   1.00000     0.00000     0

 33 37  0  0  0  0  0  0  0  0999 V2000
    3.8943    2.1300    0.0000 O   0  0  0  0  0  0  0  0  0
    3.1798    2.5425    0.0000 C   0  0  0  0  0  0  0  0  0
    2.4653    2.1300    0.0000 N   0  0  0  0  0  0  0  0  0
    2.4653    1.3050    0.0000 C   0  0  0  0  0  0  0  0  0
    3.1798    0.8925    0.0000 C   0  0  0  0  0  0  0  0  0
    3.1798    0.0675    0.0000 C   0  0  0  0  0  0  0  0  0
    2.4653   -0.3450    0.0000 C   0  0  0  0  0  0  0  0  0
    1.7509    0.0675    0.0000 C   0  0  0  0  0  0  0  0  0
    1.7509    0.8925    0.0000 C   0  0  0  0  0  0  0  0  0
    2.4653   -1.1700    0.0000 C   0  0  0  0  0  0  0  0  0
    1.7509   -1.5825    0.0000 C   0  0  0  0  0  0  0  0  0
    1.7509   -2.4075    0.0000 N   0  0  0  0  0  0  0  0  0
    2.4653   -2.8200    0.0000 C   0  0  0  0  0  0  0  0  0
    2.4653   -3.6450    0.0000 C   0  0  0  0  0  0  0  0  0
    1.7509   -4.0575    0.0000 C   0  0  0  0  0  0  0  0  0
    1.7509   -4.8825    0.0000 C   0  0  0  0  0  0  0  0  0
    1.0364   -5.2950    0.0000 C   0  0  0  0  0  0  0  0  0
    0.3219   -4.8825    0.0000 C   0  0  0  0  0  0  0  0  0
    0.3219   -4.0575    0.0000 C   0  0  0  0  0  0  0  0  0
    1.0364   -3.6450    0.0000 C   0  0  0  0  0  0  0  0  0
    1.0364   -2.8200    0.0000 C   0  0  0  0  0  0  0  0  0
    1.0364   -6.1200    0.0000 C   0  0  0  0  0  0  0  0  0
    1.0364   -6.9450    0.0000 N   0  0  0  0  0  0  0  0  0
    3.1798    3.3675    0.0000 C   0  0  0  0  0  0  0  0  0
    3.8943    3.7800    0.0000 C   0  0  0  0  0  0  0  0  0
    3.8943    4.6050    0.0000 C   0  0  0  0  0  0  0  0  0
    3.1798    5.0175    0.0000 N   0  0  0  0  0  0  0  0  0
    2.4653    4.6050    0.0000 C   0  0  0  0  0  0  0  0  0
    2.4653    3.7800    0.0000 C   0  0  0  0  0  0  0  0  0
    4.6088    5.0175    0.0000 C   0  0  0  0  0  0  0  0  0
    5.3232    4.6050    0.0000 C   0  0  0  0  0  0  0  0  0
    5.3232    3.7800    0.0000 C   0  0  0  0  0  0  0  0  0
    4.6088    3.3675    0.0000 C   0  0  0  0  0  0  0  0  0
  1  2  2  0  0  0  0
  2  3  1  0  0  0  0
  2 24  1  0  0  0  0
  3  4  1  0  0  0  0
  4  5  1  0  0  0  0
  4  9  1  0  0  0  0
  5  6  1  0  0  0  0
  6  7  1  0  0  0  0
  7  8  1  0  0  0  0
  7 10  1  0  0  0  0
  8  9  1  0  0  0  0
 10 11  1  0  0  0  0
 11 12  1  0  0  0  0
 12 13  1  0  0  0  0
 12 21  1  0  0  0  0
 13 14  1  0  0  0  0
 14 15  1  0  0  0  0
 15 16  4  0  0  0  0
 15 20  4  0  0  0  0
 16 17  4  0  0  0  0
 17 18  4  0  0  0  0
 17 22  1  0  0  0  0
 18 19  4  0  0  0  0
 19 20  4  0  0  0  0
 20 21  1  0  0  0  0
 22 23  3  0  0  0  0
 24 25  4  0  0  0  0
 24 29  4  0  0  0  0
 25 26  4  0  0  0  0
 25 33  4  0  0  0  0
 26 27  4  0  0  0  0
 26 30  4  0  0  0  0
 27 28  4  0  0  0  0
 28 29  4  0  0  0  0
 30 31  4  0  0  0  0
 31 32  4  0  0  0  0
 32 33  4  0  0  0  0
M  END
>  <Name_Molregno>
137398

>  <5-HT1A>
5.3

>  <5-HT1B>
5.2

>  <5-HT1D>
5.85

>  <5-HT1E>
5

>  <5-HT2A>
5

>  <5-HT2C>
5

>  <5-HT6>
5

>  <5-HT7>
5

>  <DOPAMINE D2>
6.17

>  <DOPAMINE D3>
8.18

$$$$
144087
  Marvin  02231216192D 0   1.00000     0.00000     0

 31 35  0  0  1  0  0  0  0  0999 V2000
   -4.4193   -3.5385    0.0000 S   0  0  0  0  0  0  0  0  0
   -4.1644   -4.3231    0.0000 C   0  0  0  0  0  0  0  0  0
   -3.3394   -4.3231    0.0000 C   0  0  0  0  0  0  0  0  0
   -3.0844   -3.5385    0.0000 C   0  0  0  0  0  0  0  0  0
   -3.7519   -3.0535    0.0000 C   0  0  0  0  0  0  0  0  0
   -3.7519   -2.2285    0.0000 C   0  0  0  0  0  0  0  0  0
   -4.4663   -1.8160    0.0000 C   0  0  0  0  0  0  0  0  0
   -4.4663   -0.9910    0.0000 C   0  0  0  0  0  0  0  0  0
   -3.7519   -0.5785    0.0000 N   0  0  0  0  0  0  0  0  0
   -3.0374   -0.9910    0.0000 C   0  0  0  0  0  0  0  0  0
   -3.0374   -1.8160    0.0000 C   0  0  0  0  0  0  0  0  0
   -3.7519    0.2465    0.0000 C   0  0  0  0  0  0  0  0  0
   -3.0374    0.6590    0.0000 C   0  0  0  0  0  0  0  0  0
   -2.3229    0.2465    0.0000 O   0  0  0  0  0  0  0  0  0
   -3.0374    1.4840    0.0000 C   0  0  0  0  0  0  0  0  0
   -2.3229    1.8965    0.0000 O   0  0  0  0  0  0  0  0  0
   -2.3229    2.7215    0.0000 C   0  0  0  0  0  0  0  0  0
   -3.0374    3.1340    0.0000 C   0  0  0  0  0  0  0  0  0
   -3.8220    2.8790    0.0000 C   0  0  0  0  0  0  0  0  0
   -4.3069    3.5465    0.0000 C   0  0  0  0  0  0  0  0  0
   -3.8220    4.2139    0.0000 N   0  0  0  0  0  0  0  0  0
   -3.0374    3.9590    0.0000 C   0  0  0  0  0  0  0  0  0
   -2.3229    4.3715    0.0000 C   0  0  0  0  0  0  0  0  0
   -1.6084    3.9590    0.0000 C   0  0  0  0  0  0  0  0  0
   -1.6084    3.1340    0.0000 C   0  0  0  0  0  0  0  0  0
   -5.1319    3.5465    0.0000 C   0  0  0  0  0  0  0  0  0
   -5.1808   -0.5785    0.0000 C   0  0  0  0  0  0  0  0  0
   -2.9269   -5.0376    0.0000 C   0  0  0  0  0  0  0  0  0
   -3.3394   -5.7520    0.0000 C   0  0  0  0  0  0  0  0  0
   -4.1644   -5.7520    0.0000 C   0  0  0  0  0  0  0  0  0
   -4.5769   -5.0376    0.0000 C   0  0  0  0  0  0  0  0  0
  1  2  4  0  0  0  0
  1  5  4  0  0  0  0
  2  3  4  0  0  0  0
  2 31  4  0  0  0  0
  3  4  4  0  0  0  0
  3 28  4  0  0  0  0
  4  5  4  0  0  0  0
  5  6  1  0  0  0  0
  6  7  1  0  0  0  0
  6 11  1  0  0  0  0
  7  8  1  0  0  0  0
  8  9  1  0  0  0  0
  8 27  1  0  0  0  0
  9 10  1  0  0  0  0
  9 12  1  0  0  0  0
 10 11  1  0  0  0  0
 12 13  1  0  0  0  0
 13 14  1  0  0  0  0
 13 15  1  0  0  0  0
 15 16  1  0  0  0  0
 16 17  1  0  0  0  0
 17 18  4  0  0  0  0
 17 25  4  0  0  0  0
 18 19  4  0  0  0  0
 18 22  4  0  0  0  0
 19 20  4  0  0  0  0
 20 21  4  0  0  0  0
 20 26  1  0  0  0  0
 21 22  4  0  0  0  0
 22 23  4  0  0  0  0
 23 24  4  0  0  0  0
 24 25  4  0  0  0  0
 28 29  4  0  0  0  0
 29 30  4  0  0  0  0
 30 31  4  0  0  0  0
M  STY  1   1 DAT
M  SAL   1  1  21
M  SDT   1 MRV_IMPLICIT_H                                        
M  SDD   1     0.0000    0.0000    DR    ALL  0       0  
M  SED   1 IMPL_H1
M  END
>  <Name_Molregno>
144087

>  <5-HT1A>
8.15

>  <Serotonin transporter>
9.28

$$$$
144118
  Marvin  02231216192D 0   1.00000     0.00000     0

 33 37  0  0  1  0  0  0  0  0999 V2000
   -4.2068   -2.2278    0.0000 S   0  0  0  0  0  0  0  0  0
   -3.9518   -3.0124    0.0000 C   0  0  0  0  0  0  0  0  0
   -3.1268   -3.0124    0.0000 C   0  0  0  0  0  0  0  0  0
   -2.8719   -2.2278    0.0000 C   0  0  0  0  0  0  0  0  0
   -3.5393   -1.7429    0.0000 C   0  0  0  0  0  0  0  0  0
   -3.5393   -0.9179    0.0000 C   0  0  0  0  0  0  0  0  0
   -4.2538   -0.5054    0.0000 C   0  0  0  0  0  0  0  0  0
   -4.2538    0.3196    0.0000 C   0  0  0  0  0  0  0  0  0
   -3.5393    0.7321    0.0000 N   0  0  0  0  0  0  0  0  0
   -2.8249    0.3196    0.0000 C   0  0  0  0  0  0  0  0  0
   -2.8249   -0.5054    0.0000 C   0  0  0  0  0  0  0  0  0
   -3.5393    1.5571    0.0000 C   0  0  0  0  0  0  0  0  0
   -2.8249    1.9696    0.0000 C   0  0  0  0  0  0  0  0  0
   -2.1104    1.5571    0.0000 O   0  0  0  0  0  0  0  0  0
   -2.8249    2.7946    0.0000 C   0  0  0  0  0  0  0  0  0
   -2.1104    3.2071    0.0000 O   0  0  0  0  0  0  0  0  0
   -2.1104    4.0321    0.0000 C   0  0  0  0  0  0  0  0  0
   -2.8249    4.4446    0.0000 C   0  0  0  0  0  0  0  0  0
   -3.6095    4.1897    0.0000 C   0  0  0  0  0  0  0  0  0
   -4.0944    4.8571    0.0000 C   0  0  0  0  0  0  0  0  0
   -3.6095    5.5246    0.0000 N   0  0  0  0  0  0  0  0  0
   -2.8249    5.2696    0.0000 C   0  0  0  0  0  0  0  0  0
   -2.1104    5.6821    0.0000 C   0  0  0  0  0  0  0  0  0
   -1.3959    5.2696    0.0000 C   0  0  0  0  0  0  0  0  0
   -1.3959    4.4446    0.0000 C   0  0  0  0  0  0  0  0  0
   -4.9194    4.8571    0.0000 C   0  0  0  0  0  0  0  0  0
   -4.9683    0.7321    0.0000 C   0  0  0  0  0  0  0  0  0
   -2.7143   -3.7269    0.0000 C   0  0  0  0  0  0  0  0  0
   -1.8893   -3.7269    0.0000 O   0  0  0  0  0  0  0  0  0
   -1.4768   -4.4414    0.0000 C   0  0  0  0  0  0  0  0  0
   -3.1268   -4.4414    0.0000 C   0  0  0  0  0  0  0  0  0
   -3.9518   -4.4414    0.0000 C   0  0  0  0  0  0  0  0  0
   -4.3643   -3.7269    0.0000 C   0  0  0  0  0  0  0  0  0
  1  2  4  0  0  0  0
  1  5  4  0  0  0  0
  2  3  4  0  0  0  0
  2 33  4  0  0  0  0
  3  4  4  0  0  0  0
  3 28  4  0  0  0  0
  4  5  4  0  0  0  0
  5  6  1  0  0  0  0
  6  7  1  0  0  0  0
  6 11  1  0  0  0  0
  7  8  1  0  0  0  0
  8  9  1  0  0  0  0
  8 27  1  0  0  0  0
  9 10  1  0  0  0  0
  9 12  1  0  0  0  0
 10 11  1  0  0  0  0
 12 13  1  0  0  0  0
 13 14  1  0  0  0  0
 13 15  1  0  0  0  0
 15 16  1  0  0  0  0
 16 17  1  0  0  0  0
 17 18  4  0  0  0  0
 17 25  4  0  0  0  0
 18 19  4  0  0  0  0
 18 22  4  0  0  0  0
 19 20  4  0  0  0  0
 20 21  4  0  0  0  0
 20 26  1  0  0  0  0
 21 22  4  0  0  0  0
 22 23  4  0  0  0  0
 23 24  4  0  0  0  0
 24 25  4  0  0  0  0
 28 29  1  0  0  0  0
 28 31  4  0  0  0  0
 29 30  1  0  0  0  0
 31 32  4  0  0  0  0
 32 33  4  0  0  0  0
M  STY  1   1 DAT
M  SAL   1  1  21
M  SDT   1 MRV_IMPLICIT_H                                        
M  SDD   1     0.0000    0.0000    DR    ALL  0       0  
M  SED   1 IMPL_H1
M  END
>  <Name_Molregno>
144118

>  <5-HT1A>
7.84

>  <Serotonin transporter>
9.07

$$$$
148955
  Marvin  02231216192D 0   1.00000     0.00000     0

 16 18  0  0  1  0  0  0  0  0999 V2000
    6.0007   -1.6378    0.0000 F   0  0  0  0  0  0  0  0  0
    5.2862   -1.2253    0.0000 C   0  0  0  0  0  0  0  0  0
    4.5717   -1.6378    0.0000 C   0  0  0  0  0  0  0  0  0
    3.8572   -1.2253    0.0000 C   0  0  0  0  0  0  0  0  0
    3.0726   -1.4803    0.0000 C   0  0  0  0  0  0  0  0  0
    2.5877   -0.8128    0.0000 C   0  0  0  0  0  0  0  0  0
    3.0726   -0.1454    0.0000 C   0  0  0  0  0  0  0  0  0
    3.8572   -0.4003    0.0000 C   0  0  0  0  0  0  0  0  0
    4.5717    0.0122    0.0000 C   0  0  0  0  0  0  0  0  0
    5.2862   -0.4003    0.0000 C   0  0  0  0  0  0  0  0  0
    1.7627   -0.8128    0.0000 C   0  0  0  0  0  0  0  0  0
    1.3502   -0.0984    0.0000 C   0  0  0  0  0  0  0  0  0
    0.5297   -0.0121    0.0000 N   0  0  0  0  0  0  0  0  0
    0.3582    0.7948    0.0000 C   0  0  0  0  0  0  0  0  0
    1.0727    1.2073    0.0000 N   0  0  0  0  0  0  0  0  0
    1.6858    0.6553    0.0000 C   0  0  0  0  0  0  0  0  0
  1  2  1  0  0  0  0
  2  3  4  0  0  0  0
  2 10  4  0  0  0  0
  3  4  4  0  0  0  0
  4  5  1  0  0  0  0
  4  8  4  0  0  0  0
  5  6  1  0  0  0  0
  6  7  1  0  0  0  0
  6 11  1  0  0  0  0
  7  8  1  0  0  0  0
  8  9  4  0  0  0  0
  9 10  4  0  0  0  0
 11 12  1  0  0  0  0
 12 13  1  0  0  0  0
 12 16  1  0  0  0  0
 13 14  1  0  0  0  0
 14 15  2  0  0  0  0
 15 16  1  0  0  0  0
M  END
>  <Name_Molregno>
148955

>  <5-HT1A>
6.11

>  <5-HT2A>
6

>  <5-HT2C>
6

>  <5-HT7>
6

>  <Alpha-2A>
8.23

>  <Alpha-2B>
7.64

>  <Alpha-2C>
7.72

>  <HISTAMINE H1>
6

>  <Serotonin transporter>
7.11

$$$$
152080
  Marvin  02231216192D 0   1.00000     0.00000     0

 20 22  0  0  1  0  0  0  0  0999 V2000
    4.0231    0.7002    0.0000 O   0  0  0  0  0  0  0  0  0
    3.2162    0.5287    0.0000 C   0  0  0  0  0  0  0  0  0
    2.8037   -0.1858    0.0000 C   0  0  0  0  0  0  0  0  0
    3.2162   -0.9003    0.0000 C   0  0  0  0  0  0  0  0  0
    2.8037   -1.6147    0.0000 C   0  0  0  0  0  0  0  0  0
    1.9787   -1.6147    0.0000 C   0  0  0  0  0  0  0  0  0
    1.5662   -2.3292    0.0000 N   0  0  0  0  0  0  0  0  0
    0.7412   -2.3292    0.0000 C   0  0  0  0  0  0  0  0  0
    0.3287   -3.0437    0.0000 C   0  0  0  0  0  0  0  0  0
   -0.4963   -3.0437    0.0000 C   0  0  0  0  0  0  0  0  0
    1.9787   -3.0437    0.0000 C   0  0  0  0  0  0  0  0  0
    2.8037   -3.0437    0.0000 C   0  0  0  0  0  0  0  0  0
    3.2162   -3.7582    0.0000 C   0  0  0  0  0  0  0  0  0
    1.5662   -0.9003    0.0000 C   0  0  0  0  0  0  0  0  0
    1.9787   -0.1858    0.0000 C   0  0  0  0  0  0  0  0  0
    1.5662    0.5287    0.0000 C   0  0  0  0  0  0  0  0  0
    1.9787    1.2431    0.0000 C   0  0  0  0  0  0  0  0  0
    2.8037    1.2431    0.0000 C   0  0  0  0  0  0  0  0  0
    3.3557    1.8562    0.0000 C   0  0  0  0  0  0  0  0  0
    4.1094    1.5207    0.0000 C   0  0  0  0  0  0  0  0  0
  1  2  4  0  0  0  0
  1 20  4  0  0  0  0
  2  3  4  0  0  0  0
  2 18  4  0  0  0  0
  3  4  1  0  0  0  0
  3 15  4  0  0  0  0
  4  5  1  0  0  0  0
  5  6  1  0  0  0  0
  6  7  1  0  0  0  0
  6 14  1  0  0  0  0
  7  8  1  0  0  0  0
  7 11  1  0  0  0  0
  8  9  1  0  0  0  0
  9 10  1  0  0  0  0
 11 12  1  0  0  0  0
 12 13  1  0  0  0  0
 14 15  1  0  0  0  0
 15 16  4  0  0  0  0
 16 17  4  0  0  0  0
 17 18  4  0  0  0  0
 18 19  4  0  0  0  0
 19 20  4  0  0  0  0
M  END
>  <Name_Molregno>
152080

>  <5-HT1A>
6.68

>  <DOPAMINE D3>
7.25

$$$$
152134
  Marvin  02231216192D 0   1.00000     0.00000     0

 21 23  0  0  1  0  0  0  0  0999 V2000
    3.1457   -1.4715    0.0000 O   0  0  0  0  0  0  0  0  0
    2.5326   -0.9195    0.0000 C   0  0  0  0  0  0  0  0  0
    2.5326   -0.0945    0.0000 C   0  0  0  0  0  0  0  0  0
    1.8182    0.3180    0.0000 C   0  0  0  0  0  0  0  0  0
    1.1037   -0.0945    0.0000 C   0  0  0  0  0  0  0  0  0
    1.1037   -0.9195    0.0000 C   0  0  0  0  0  0  0  0  0
    1.8182   -1.3320    0.0000 C   0  0  0  0  0  0  0  0  0
    1.9897   -2.1389    0.0000 C   0  0  0  0  0  0  0  0  0
    2.8102   -2.2252    0.0000 C   0  0  0  0  0  0  0  0  0
    1.8182    1.1430    0.0000 C   0  0  0  0  0  0  0  0  0
    1.1037    1.5555    0.0000 C   0  0  0  0  0  0  0  0  0
    2.5326    1.5555    0.0000 C   0  0  0  0  0  0  0  0  0
    2.5326    2.3805    0.0000 N   0  0  0  0  0  0  0  0  0
    1.8182    2.7930    0.0000 C   0  0  0  0  0  0  0  0  0
    1.8182    3.6180    0.0000 C   0  0  0  0  0  0  0  0  0
    1.1037    4.0305    0.0000 C   0  0  0  0  0  0  0  0  0
    3.2471    2.7930    0.0000 C   0  0  0  0  0  0  0  0  0
    3.2471    3.6180    0.0000 C   0  0  0  0  0  0  0  0  0
    3.9616    4.0305    0.0000 C   0  0  0  0  0  0  0  0  0
    3.2471    1.1430    0.0000 C   0  0  0  0  0  0  0  0  0
    3.2471    0.3180    0.0000 C   0  0  0  0  0  0  0  0  0
  1  2  4  0  0  0  0
  1  9  4  0  0  0  0
  2  3  4  0  0  0  0
  2  7  4  0  0  0  0
  3  4  4  0  0  0  0
  3 21  1  0  0  0  0
  4  5  4  0  0  0  0
  4 10  1  0  0  0  0
  5  6  4  0  0  0  0
  6  7  4  0  0  0  0
  7  8  4  0  0  0  0
  8  9  4  0  0  0  0
 10 11  1  0  0  0  0
 10 12  1  0  0  0  0
 12 13  1  0  0  0  0
 12 20  1  0  0  0  0
 13 14  1  0  0  0  0
 13 17  1  0  0  0  0
 14 15  1  0  0  0  0
 15 16  1  0  0  0  0
 17 18  1  0  0  0  0
 18 19  1  0  0  0  0
 20 21  1  0  0  0  0
M  END
>  <Name_Molregno>
152134

>  <5-HT1A>
6.92

>  <5-HT2A>
7.15

>  <5-HT2C>
7.15

>  <DOPAMINE D3>
7.57

>  <DOPAMINE D4>
7.26

$$$$
152137
  Marvin  02231216192D 0   1.00000     0.00000     0

 20 22  0  0  1  0  0  0  0  0999 V2000
   -4.4658   -2.3057    0.0000 O   0  0  0  0  0  0  0  0  0
   -3.6812   -2.0508    0.0000 C   0  0  0  0  0  0  0  0  0
   -3.6812   -1.2258    0.0000 C   0  0  0  0  0  0  0  0  0
   -2.9667   -0.8133    0.0000 C   0  0  0  0  0  0  0  0  0
   -2.9667    0.0117    0.0000 C   0  0  0  0  0  0  0  0  0
   -2.2523    0.4242    0.0000 C   0  0  0  0  0  0  0  0  0
   -2.2523    1.2492    0.0000 N   0  0  0  0  0  0  0  0  0
   -2.9667    1.6617    0.0000 C   0  0  0  0  0  0  0  0  0
   -2.9667    2.4867    0.0000 C   0  0  0  0  0  0  0  0  0
   -3.6812    2.8992    0.0000 C   0  0  0  0  0  0  0  0  0
   -1.5378    1.6617    0.0000 C   0  0  0  0  0  0  0  0  0
   -1.5378    2.4867    0.0000 C   0  0  0  0  0  0  0  0  0
   -0.8233    2.8992    0.0000 C   0  0  0  0  0  0  0  0  0
   -1.5378    0.0117    0.0000 C   0  0  0  0  0  0  0  0  0
   -1.5378   -0.8133    0.0000 C   0  0  0  0  0  0  0  0  0
   -2.2523   -1.2258    0.0000 C   0  0  0  0  0  0  0  0  0
   -2.2523   -2.0508    0.0000 C   0  0  0  0  0  0  0  0  0
   -2.9667   -2.4633    0.0000 C   0  0  0  0  0  0  0  0  0
   -4.4658   -0.9708    0.0000 C   0  0  0  0  0  0  0  0  0
   -4.9507   -1.6383    0.0000 C   0  0  0  0  0  0  0  0  0
  1  2  4  0  0  0  0
  1 20  4  0  0  0  0
  2  3  4  0  0  0  0
  2 18  4  0  0  0  0
  3  4  4  0  0  0  0
  3 19  4  0  0  0  0
  4  5  1  0  0  0  0
  4 16  4  0  0  0  0
  5  6  1  0  0  0  0
  6  7  1  0  0  0  0
  6 14  1  0  0  0  0
  7  8  1  0  0  0  0
  7 11  1  0  0  0  0
  8  9  1  0  0  0  0
  9 10  1  0  0  0  0
 11 12  1  0  0  0  0
 12 13  1  0  0  0  0
 14 15  1  0  0  0  0
 15 16  1  0  0  0  0
 16 17  4  0  0  0  0
 17 18  4  0  0  0  0
 19 20  4  0  0  0  0
M  END
>  <Name_Molregno>
152137

>  <5-HT1A>
8.11

>  <DOPAMINE D3>
7.35

$$$$
152260
  Marvin  02231216192D 0   1.00000     0.00000     0

 20 22  0  0  1  0  0  0  0  0999 V2000
    0.2789   -1.1600    0.0000 O   0  0  0  0  0  0  0  0  0
   -0.2732   -0.5469    0.0000 C   0  0  0  0  0  0  0  0  0
   -1.0982   -0.5469    0.0000 C   0  0  0  0  0  0  0  0  0
   -1.5107   -1.2614    0.0000 C   0  0  0  0  0  0  0  0  0
   -2.3357   -1.2614    0.0000 C   0  0  0  0  0  0  0  0  0
   -2.7482   -1.9758    0.0000 N   0  0  0  0  0  0  0  0  0
   -3.5732   -1.9758    0.0000 C   0  0  0  0  0  0  0  0  0
   -3.9857   -2.6903    0.0000 C   0  0  0  0  0  0  0  0  0
   -4.8107   -2.6903    0.0000 C   0  0  0  0  0  0  0  0  0
   -2.3357   -2.6903    0.0000 C   0  0  0  0  0  0  0  0  0
   -1.5107   -2.6903    0.0000 C   0  0  0  0  0  0  0  0  0
   -1.0982   -3.4048    0.0000 C   0  0  0  0  0  0  0  0  0
   -2.7482   -0.5469    0.0000 C   0  0  0  0  0  0  0  0  0
   -2.3357    0.1676    0.0000 C   0  0  0  0  0  0  0  0  0
   -1.5107    0.1676    0.0000 C   0  0  0  0  0  0  0  0  0
   -1.0982    0.8820    0.0000 C   0  0  0  0  0  0  0  0  0
   -0.2732    0.8820    0.0000 C   0  0  0  0  0  0  0  0  0
    0.1393    0.1676    0.0000 C   0  0  0  0  0  0  0  0  0
    0.9463   -0.0040    0.0000 C   0  0  0  0  0  0  0  0  0
    1.0325   -0.8244    0.0000 C   0  0  0  0  0  0  0  0  0
  1  2  4  0  0  0  0
  1 20  4  0  0  0  0
  2  3  4  0  0  0  0
  2 18  4  0  0  0  0
  3  4  1  0  0  0  0
  3 15  4  0  0  0  0
  4  5  1  0  0  0  0
  5  6  1  0  0  0  0
  5 13  1  0  0  0  0
  6  7  1  0  0  0  0
  6 10  1  0  0  0  0
  7  8  1  0  0  0  0
  8  9  1  0  0  0  0
 10 11  1  0  0  0  0
 11 12  1  0  0  0  0
 13 14  1  0  0  0  0
 14 15  1  0  0  0  0
 15 16  4  0  0  0  0
 16 17  4  0  0  0  0
 17 18  4  0  0  0  0
 18 19  4  0  0  0  0
 19 20  4  0  0  0  0
M  END
>  <Name_Molregno>
152260

>  <5-HT1A>
8.21

>  <DOPAMINE D3>
7.79

$$$$
152295
  Marvin  02231216192D 0   1.00000     0.00000     0

 19 22  0  0  1  0  0  0  0  0999 V2000
   -2.7246    2.1114    0.0000 O   0  0  0  0  0  0  0  0  0
   -2.5530    1.3044    0.0000 C   0  0  0  0  0  0  0  0  0
   -1.8386    0.8919    0.0000 C   0  0  0  0  0  0  0  0  0
   -1.1241    1.3044    0.0000 C   0  0  0  0  0  0  0  0  0
   -0.4096    0.8919    0.0000 C   0  0  0  0  0  0  0  0  0
    0.2035    1.4439    0.0000 N   0  0  0  0  0  0  0  0  0
   -0.1321    2.1976    0.0000 C   0  0  0  0  0  0  0  0  0
   -0.9526    2.1114    0.0000 C   0  0  0  0  0  0  0  0  0
    1.0104    1.2724    0.0000 C   0  0  0  0  0  0  0  0  0
    1.5625    1.8855    0.0000 C   0  0  0  0  0  0  0  0  0
    2.3694    1.7140    0.0000 C   0  0  0  0  0  0  0  0  0
   -0.4096    0.0669    0.0000 C   0  0  0  0  0  0  0  0  0
   -1.1241   -0.3456    0.0000 C   0  0  0  0  0  0  0  0  0
   -1.8386    0.0669    0.0000 C   0  0  0  0  0  0  0  0  0
   -2.5530   -0.3456    0.0000 C   0  0  0  0  0  0  0  0  0
   -3.2675    0.0669    0.0000 C   0  0  0  0  0  0  0  0  0
   -3.2675    0.8919    0.0000 C   0  0  0  0  0  0  0  0  0
   -3.8806    1.4439    0.0000 C   0  0  0  0  0  0  0  0  0
   -3.5450    2.1976    0.0000 C   0  0  0  0  0  0  0  0  0
  1  2  4  0  0  0  0
  1 19  4  0  0  0  0
  2  3  4  0  0  0  0
  2 17  4  0  0  0  0
  3  4  1  0  0  0  0
  3 14  4  0  0  0  0
  4  5  1  0  0  0  0
  4  8  1  0  0  0  0
  5  6  1  0  0  0  0
  5 12  1  0  0  0  0
  6  7  1  0  0  0  0
  6  9  1  0  0  0  0
  7  8  1  0  0  0  0
  9 10  1  0  0  0  0
 10 11  1  0  0  0  0
 12 13  1  0  0  0  0
 13 14  1  0  0  0  0
 14 15  4  0  0  0  0
 15 16  4  0  0  0  0
 16 17  4  0  0  0  0
 17 18  4  0  0  0  0
 18 19  4  0  0  0  0
M  END
>  <Name_Molregno>
152295

>  <5-HT1A>
8.41

>  <5-HT2A>
6.84

>  <5-HT2C>
6.84

>  <DOPAMINE D3>
6.49

>  <DOPAMINE D4>
5.39

$$$$
157077
  Marvin  02231216192D 0   1.00000     0.00000     0

 32 36  0  0  0  0  0  0  0  0999 V2000
   -0.2324    0.2724    0.0000 S   0  0  0  0  0  0  0  0  0
    0.1801    0.9869    0.0000 O   0  0  0  0  0  0  0  0  0
   -0.6449   -0.4420    0.0000 O   0  0  0  0  0  0  0  0  0
    0.4820   -0.1401    0.0000 N   0  0  0  0  0  0  0  0  0
    1.1965    0.2724    0.0000 C   0  0  0  0  0  0  0  0  0
    1.9110   -0.1401    0.0000 C   0  0  0  0  0  0  0  0  0
    2.6254    0.2724    0.0000 C   0  0  0  0  0  0  0  0  0
    2.6254    1.0974    0.0000 C   0  0  0  0  0  0  0  0  0
    3.3399    1.5099    0.0000 N   0  0  0  0  0  0  0  0  0
    4.0544    1.0974    0.0000 C   0  0  0  0  0  0  0  0  0
    4.0544    0.2724    0.0000 C   0  0  0  0  0  0  0  0  0
    3.3399   -0.1401    0.0000 C   0  0  0  0  0  0  0  0  0
    3.3399   -0.9651    0.0000 N   0  0  0  0  0  0  0  0  0
    4.0544   -1.3776    0.0000 C   0  0  0  0  0  0  0  0  0
    4.0544   -2.2026    0.0000 C   0  0  0  0  0  0  0  0  0
    3.3399   -2.6151    0.0000 N   0  0  0  0  0  0  0  0  0
    2.6254   -2.2026    0.0000 C   0  0  0  0  0  0  0  0  0
    2.6254   -1.3776    0.0000 C   0  0  0  0  0  0  0  0  0
    1.9110    1.5099    0.0000 C   0  0  0  0  0  0  0  0  0
    1.1965    1.0974    0.0000 C   0  0  0  0  0  0  0  0  0
   -0.9469    0.6849    0.0000 C   0  0  0  0  0  0  0  0  0
   -1.6614    0.2724    0.0000 C   0  0  0  0  0  0  0  0  0
   -2.3759    0.6849    0.0000 C   0  0  0  0  0  0  0  0  0
   -2.3759    1.5099    0.0000 C   0  0  0  0  0  0  0  0  0
   -1.6614    1.9224    0.0000 C   0  0  0  0  0  0  0  0  0
   -0.9469    1.5099    0.0000 C   0  0  0  0  0  0  0  0  0
   -3.0903    1.9224    0.0000 C   0  0  0  0  0  0  0  0  0
   -3.8048    1.5099    0.0000 C   0  0  0  0  0  0  0  0  0
   -4.5193    1.9224    0.0000 C   0  0  0  0  0  0  0  0  0
   -4.5193    2.7474    0.0000 C   0  0  0  0  0  0  0  0  0
   -3.8048    3.1599    0.0000 C   0  0  0  0  0  0  0  0  0
   -3.0903    2.7474    0.0000 C   0  0  0  0  0  0  0  0  0
  1  2  2  0  0  0  0
  1  3  2  0  0  0  0
  1  4  1  0  0  0  0
  1 21  1  0  0  0  0
  4  5  1  0  0  0  0
  5  6  4  0  0  0  0
  5 20  4  0  0  0  0
  6  7  4  0  0  0  0
  7  8  4  0  0  0  0
  7 12  4  0  0  0  0
  8  9  4  0  0  0  0
  8 19  4  0  0  0  0
  9 10  4  0  0  0  0
 10 11  4  0  0  0  0
 11 12  4  0  0  0  0
 12 13  1  0  0  0  0
 13 14  1  0  0  0  0
 13 18  1  0  0  0  0
 14 15  1  0  0  0  0
 15 16  1  0  0  0  0
 16 17  1  0  0  0  0
 17 18  1  0  0  0  0
 19 20  4  0  0  0  0
 21 22  4  0  0  0  0
 21 26  4  0  0  0  0
 22 23  4  0  0  0  0
 23 24  4  0  0  0  0
 24 25  4  0  0  0  0
 24 27  1  0  0  0  0
 25 26  4  0  0  0  0
 27 28  4  0  0  0  0
 27 32  4  0  0  0  0
 28 29  4  0  0  0  0
 29 30  4  0  0  0  0
 30 31  4  0  0  0  0
 31 32  4  0  0  0  0
M  STY  1   1 DAT
M  SAL   1  1   9
M  SDT   1 MRV_IMPLICIT_H                                        
M  SDD   1     0.0000    0.0000    DR    ALL  0       0  
M  SED   1 IMPL_H1
M  END
>  <Name_Molregno>
157077

>  <5-HT1A>
6.2

>  <5-HT1B>
6.5

>  <5-HT1D>
6.8

>  <5-HT2A>
6.3

>  <5-HT6>
9.3

>  <5-HT7>
5

>  <DOPAMINE D2>
5.3

>  <DOPAMINE D3>
5.5

$$$$
157459
  Marvin  02231216192D 0   1.00000     0.00000     0

 32 36  0  0  0  0  0  0  0  0999 V2000
    0.5977    1.2497    0.0000 Cl  0  0  0  0  0  0  0  0  0
    1.0102    0.5352    0.0000 C   0  0  0  0  0  0  0  0  0
    1.8352    0.5352    0.0000 C   0  0  0  0  0  0  0  0  0
    2.2477   -0.1792    0.0000 C   0  0  0  0  0  0  0  0  0
    1.8352   -0.8937    0.0000 C   0  0  0  0  0  0  0  0  0
    2.3873   -1.5068    0.0000 S   0  0  0  0  0  0  0  0  0
    3.1409   -1.1712    0.0000 C   0  0  0  0  0  0  0  0  0
    3.8554   -1.5837    0.0000 S   0  0  0  0  0  0  0  0  0
    3.4429   -2.2982    0.0000 O   0  0  0  0  0  0  0  0  0
    4.2679   -0.8693    0.0000 O   0  0  0  0  0  0  0  0  0
    4.5699   -1.9962    0.0000 N   0  0  0  0  0  0  0  0  0
    5.2843   -1.5837    0.0000 C   0  0  0  0  0  0  0  0  0
    5.9988   -1.9962    0.0000 C   0  0  0  0  0  0  0  0  0
    6.7133   -1.5837    0.0000 C   0  0  0  0  0  0  0  0  0
    6.7133   -0.7587    0.0000 C   0  0  0  0  0  0  0  0  0
    7.4278   -0.3462    0.0000 N   0  0  0  0  0  0  0  0  0
    8.1422   -0.7587    0.0000 C   0  0  0  0  0  0  0  0  0
    8.1422   -1.5837    0.0000 C   0  0  0  0  0  0  0  0  0
    7.4278   -1.9962    0.0000 C   0  0  0  0  0  0  0  0  0
    7.4278   -2.8212    0.0000 N   0  0  0  0  0  0  0  0  0
    8.1422   -3.2337    0.0000 C   0  0  0  0  0  0  0  0  0
    8.1422   -4.0587    0.0000 C   0  0  0  0  0  0  0  0  0
    7.4278   -4.4712    0.0000 N   0  0  0  0  0  0  0  0  0
    6.7133   -4.0587    0.0000 C   0  0  0  0  0  0  0  0  0
    6.7133   -3.2337    0.0000 C   0  0  0  0  0  0  0  0  0
    8.8567   -0.3462    0.0000 C   0  0  0  0  0  0  0  0  0
    5.9988   -0.3462    0.0000 C   0  0  0  0  0  0  0  0  0
    5.2843   -0.7587    0.0000 C   0  0  0  0  0  0  0  0  0
    3.0547   -0.3508    0.0000 C   0  0  0  0  0  0  0  0  0
    3.6678    0.2013    0.0000 C   0  0  0  0  0  0  0  0  0
    1.0102   -0.8937    0.0000 C   0  0  0  0  0  0  0  0  0
    0.5977   -0.1792    0.0000 C   0  0  0  0  0  0  0  0  0
  1  2  1  0  0  0  0
  2  3  4  0  0  0  0
  2 32  4  0  0  0  0
  3  4  4  0  0  0  0
  4  5  4  0  0  0  0
  4 29  4  0  0  0  0
  5  6  4  0  0  0  0
  5 31  4  0  0  0  0
  6  7  4  0  0  0  0
  7  8  1  0  0  0  0
  7 29  4  0  0  0  0
  8  9  2  0  0  0  0
  8 10  2  0  0  0  0
  8 11  1  0  0  0  0
 11 12  1  0  0  0  0
 12 13  4  0  0  0  0
 12 28  4  0  0  0  0
 13 14  4  0  0  0  0
 14 15  4  0  0  0  0
 14 19  4  0  0  0  0
 15 16  4  0  0  0  0
 15 27  4  0  0  0  0
 16 17  4  0  0  0  0
 17 18  4  0  0  0  0
 17 26  1  0  0  0  0
 18 19  4  0  0  0  0
 19 20  1  0  0  0  0
 20 21  1  0  0  0  0
 20 25  1  0  0  0  0
 21 22  1  0  0  0  0
 22 23  1  0  0  0  0
 23 24  1  0  0  0  0
 24 25  1  0  0  0  0
 27 28  4  0  0  0  0
 29 30  1  0  0  0  0
 31 32  4  0  0  0  0
M  STY  1   1 DAT
M  SAL   1  1  16
M  SDT   1 MRV_IMPLICIT_H                                        
M  SDD   1     0.0000    0.0000    DR    ALL  0       0  
M  SED   1 IMPL_H1
M  END
>  <Name_Molregno>
157459

>  <5-HT1A>
6.1

>  <5-HT1B>
5.9

>  <5-HT1D>
6.5

>  <5-HT2A>
5.7

>  <5-HT2C>
5.6

>  <5-HT6>
8.9

>  <5-HT7>
5.3

>  <DOPAMINE D2>
5.2

>  <DOPAMINE D3>
6

$$$$
157806
  Marvin  02231216192D 0   1.00000     0.00000     0

 32 36  0  0  0  0  0  0  0  0999 V2000
    0.6766    1.5468    0.0000 Cl  0  0  0  0  0  0  0  0  0
    1.0891    0.8324    0.0000 C   0  0  0  0  0  0  0  0  0
    1.9141    0.8324    0.0000 C   0  0  0  0  0  0  0  0  0
    2.3266    0.1179    0.0000 C   0  0  0  0  0  0  0  0  0
    1.9141   -0.5966    0.0000 C   0  0  0  0  0  0  0  0  0
    2.4662   -1.2097    0.0000 S   0  0  0  0  0  0  0  0  0
    3.2198   -0.8741    0.0000 C   0  0  0  0  0  0  0  0  0
    3.9343   -1.2866    0.0000 S   0  0  0  0  0  0  0  0  0
    3.5218   -2.0011    0.0000 O   0  0  0  0  0  0  0  0  0
    4.3468   -0.5721    0.0000 O   0  0  0  0  0  0  0  0  0
    4.6488   -1.6991    0.0000 N   0  0  0  0  0  0  0  0  0
    5.3633   -1.2866    0.0000 C   0  0  0  0  0  0  0  0  0
    6.0777   -1.6991    0.0000 C   0  0  0  0  0  0  0  0  0
    6.7922   -1.2866    0.0000 C   0  0  0  0  0  0  0  0  0
    6.7922   -0.4616    0.0000 C   0  0  0  0  0  0  0  0  0
    7.5067   -0.0491    0.0000 N   0  0  0  0  0  0  0  0  0
    8.2211   -0.4616    0.0000 C   0  0  0  0  0  0  0  0  0
    8.2211   -1.2866    0.0000 C   0  0  0  0  0  0  0  0  0
    7.5067   -1.6991    0.0000 C   0  0  0  0  0  0  0  0  0
    7.5067   -2.5241    0.0000 N   0  0  0  0  0  0  0  0  0
    8.2211   -2.9366    0.0000 C   0  0  0  0  0  0  0  0  0
    8.2211   -3.7616    0.0000 C   0  0  0  0  0  0  0  0  0
    7.5067   -4.1741    0.0000 N   0  0  0  0  0  0  0  0  0
    6.7922   -3.7616    0.0000 C   0  0  0  0  0  0  0  0  0
    6.7922   -2.9366    0.0000 C   0  0  0  0  0  0  0  0  0
    7.5067   -4.9991    0.0000 C   0  0  0  0  0  0  0  0  0
    6.0777   -0.0491    0.0000 C   0  0  0  0  0  0  0  0  0
    5.3633   -0.4616    0.0000 C   0  0  0  0  0  0  0  0  0
    3.1336   -0.0536    0.0000 C   0  0  0  0  0  0  0  0  0
    3.7467    0.4984    0.0000 C   0  0  0  0  0  0  0  0  0
    1.0891   -0.5966    0.0000 C   0  0  0  0  0  0  0  0  0
    0.6766    0.1179    0.0000 C   0  0  0  0  0  0  0  0  0
  1  2  1  0  0  0  0
  2  3  4  0  0  0  0
  2 32  4  0  0  0  0
  3  4  4  0  0  0  0
  4  5  4  0  0  0  0
  4 29  4  0  0  0  0
  5  6  4  0  0  0  0
  5 31  4  0  0  0  0
  6  7  4  0  0  0  0
  7  8  1  0  0  0  0
  7 29  4  0  0  0  0
  8  9  2  0  0  0  0
  8 10  2  0  0  0  0
  8 11  1  0  0  0  0
 11 12  1  0  0  0  0
 12 13  4  0  0  0  0
 12 28  4  0  0  0  0
 13 14  4  0  0  0  0
 14 15  4  0  0  0  0
 14 19  4  0  0  0  0
 15 16  4  0  0  0  0
 15 27  4  0  0  0  0
 16 17  4  0  0  0  0
 17 18  4  0  0  0  0
 18 19  4  0  0  0  0
 19 20  1  0  0  0  0
 20 21  1  0  0  0  0
 20 25  1  0  0  0  0
 21 22  1  0  0  0  0
 22 23  1  0  0  0  0
 23 24  1  0  0  0  0
 23 26  1  0  0  0  0
 24 25  1  0  0  0  0
 27 28  4  0  0  0  0
 29 30  1  0  0  0  0
 31 32  4  0  0  0  0
M  STY  1   1 DAT
M  SAL   1  1  16
M  SDT   1 MRV_IMPLICIT_H                                        
M  SDD   1     0.0000    0.0000    DR    ALL  0       0  
M  SED   1 IMPL_H1
M  END
>  <Name_Molregno>
157806

>  <5-HT1A>
6.1

>  <5-HT1B>
6.3

>  <5-HT1D>
6.6

>  <5-HT2A>
6

>  <5-HT2C>
5.3

>  <5-HT6>
9

>  <5-HT7>
5.7

>  <DOPAMINE D2>
5.1

>  <DOPAMINE D3>
5.4

$$$$
157834
  Marvin  02231216192D 0   1.00000     0.00000     0

 31 35  0  0  0  0  0  0  0  0999 V2000
   -0.2147    0.7807    0.0000 Cl  0  0  0  0  0  0  0  0  0
    0.4998    1.1932    0.0000 C   0  0  0  0  0  0  0  0  0
    1.2143    0.7807    0.0000 C   0  0  0  0  0  0  0  0  0
    1.9287    1.1932    0.0000 C   0  0  0  0  0  0  0  0  0
    2.6432    0.7807    0.0000 C   0  0  0  0  0  0  0  0  0
    2.6432   -0.0443    0.0000 C   0  0  0  0  0  0  0  0  0
    3.3577   -0.4568    0.0000 S   0  0  0  0  0  0  0  0  0
    2.9452   -1.1712    0.0000 O   0  0  0  0  0  0  0  0  0
    3.7702    0.2577    0.0000 O   0  0  0  0  0  0  0  0  0
    4.0721   -0.8693    0.0000 N   0  0  0  0  0  0  0  0  0
    4.7866   -0.4568    0.0000 C   0  0  0  0  0  0  0  0  0
    5.5011   -0.8693    0.0000 C   0  0  0  0  0  0  0  0  0
    6.2156   -0.4568    0.0000 C   0  0  0  0  0  0  0  0  0
    6.2156    0.3682    0.0000 C   0  0  0  0  0  0  0  0  0
    6.9300    0.7807    0.0000 N   0  0  0  0  0  0  0  0  0
    7.6445    0.3682    0.0000 C   0  0  0  0  0  0  0  0  0
    7.6445   -0.4568    0.0000 C   0  0  0  0  0  0  0  0  0
    6.9300   -0.8693    0.0000 C   0  0  0  0  0  0  0  0  0
    6.9300   -1.6943    0.0000 N   0  0  0  0  0  0  0  0  0
    7.6445   -2.1068    0.0000 C   0  0  0  0  0  0  0  0  0
    7.6445   -2.9318    0.0000 C   0  0  0  0  0  0  0  0  0
    6.9300   -3.3443    0.0000 N   0  0  0  0  0  0  0  0  0
    6.2156   -2.9318    0.0000 C   0  0  0  0  0  0  0  0  0
    6.2156   -2.1068    0.0000 C   0  0  0  0  0  0  0  0  0
    5.5011    0.7807    0.0000 C   0  0  0  0  0  0  0  0  0
    4.7866    0.3682    0.0000 C   0  0  0  0  0  0  0  0  0
    1.9287   -0.4568    0.0000 C   0  0  0  0  0  0  0  0  0
    1.2143   -0.0443    0.0000 C   0  0  0  0  0  0  0  0  0
    1.9287    2.0182    0.0000 C   0  0  0  0  0  0  0  0  0
    1.2143    2.4307    0.0000 C   0  0  0  0  0  0  0  0  0
    0.4998    2.0182    0.0000 C   0  0  0  0  0  0  0  0  0
  1  2  1  0  0  0  0
  2  3  4  0  0  0  0
  2 31  4  0  0  0  0
  3  4  4  0  0  0  0
  3 28  4  0  0  0  0
  4  5  4  0  0  0  0
  4 29  4  0  0  0  0
  5  6  4  0  0  0  0
  6  7  1  0  0  0  0
  6 27  4  0  0  0  0
  7  8  2  0  0  0  0
  7  9  2  0  0  0  0
  7 10  1  0  0  0  0
 10 11  1  0  0  0  0
 11 12  4  0  0  0  0
 11 26  4  0  0  0  0
 12 13  4  0  0  0  0
 13 14  4  0  0  0  0
 13 18  4  0  0  0  0
 14 15  4  0  0  0  0
 14 25  4  0  0  0  0
 15 16  4  0  0  0  0
 16 17  4  0  0  0  0
 17 18  4  0  0  0  0
 18 19  1  0  0  0  0
 19 20  1  0  0  0  0
 19 24  1  0  0  0  0
 20 21  1  0  0  0  0
 21 22  1  0  0  0  0
 22 23  1  0  0  0  0
 23 24  1  0  0  0  0
 25 26  4  0  0  0  0
 27 28  4  0  0  0  0
 29 30  4  0  0  0  0
 30 31  4  0  0  0  0
M  STY  1   1 DAT
M  SAL   1  1  15
M  SDT   1 MRV_IMPLICIT_H                                        
M  SDD   1     0.0000    0.0000    DR    ALL  0       0  
M  SED   1 IMPL_H1
M  END
>  <Name_Molregno>
157834

>  <5-HT1A>
6.8

>  <5-HT1B>
6.2

>  <5-HT1D>
6.7

>  <5-HT2A>
6

>  <5-HT2C>
5.6

>  <5-HT6>
9

>  <5-HT7>
5.6

>  <DOPAMINE D2>
5.3

>  <DOPAMINE D3>
5.6

$$$$
157908
  Marvin  02231216192D 0   1.00000     0.00000     0

 30 33  0  0  0  0  0  0  0  0999 V2000
   -1.7605   -0.6940    0.0000 S   0  0  0  0  0  0  0  0  0
   -1.3480    0.0205    0.0000 O   0  0  0  0  0  0  0  0  0
   -2.1730   -1.4085    0.0000 O   0  0  0  0  0  0  0  0  0
   -1.0461   -1.1065    0.0000 N   0  0  0  0  0  0  0  0  0
   -0.3316   -0.6940    0.0000 C   0  0  0  0  0  0  0  0  0
    0.3829   -1.1065    0.0000 C   0  0  0  0  0  0  0  0  0
    1.0973   -0.6940    0.0000 C   0  0  0  0  0  0  0  0  0
    1.0973    0.1310    0.0000 C   0  0  0  0  0  0  0  0  0
    1.8118    0.5435    0.0000 N   0  0  0  0  0  0  0  0  0
    2.5263    0.1310    0.0000 C   0  0  0  0  0  0  0  0  0
    2.5263   -0.6940    0.0000 C   0  0  0  0  0  0  0  0  0
    1.8118   -1.1065    0.0000 C   0  0  0  0  0  0  0  0  0
    1.8118   -1.9315    0.0000 N   0  0  0  0  0  0  0  0  0
    2.5263   -2.3440    0.0000 C   0  0  0  0  0  0  0  0  0
    2.5263   -3.1690    0.0000 C   0  0  0  0  0  0  0  0  0
    1.8118   -3.5815    0.0000 N   0  0  0  0  0  0  0  0  0
    1.0973   -3.1690    0.0000 C   0  0  0  0  0  0  0  0  0
    1.0973   -2.3440    0.0000 C   0  0  0  0  0  0  0  0  0
    0.3829    0.5435    0.0000 C   0  0  0  0  0  0  0  0  0
   -0.3316    0.1310    0.0000 C   0  0  0  0  0  0  0  0  0
   -2.4750   -0.2815    0.0000 C   0  0  0  0  0  0  0  0  0
   -3.1895   -0.6940    0.0000 C   0  0  0  0  0  0  0  0  0
   -3.9040   -0.2815    0.0000 C   0  0  0  0  0  0  0  0  0
   -3.9040    0.5435    0.0000 C   0  0  0  0  0  0  0  0  0
   -3.1895    0.9560    0.0000 C   0  0  0  0  0  0  0  0  0
   -2.4750    0.5435    0.0000 C   0  0  0  0  0  0  0  0  0
   -4.6184    0.9560    0.0000 C   0  0  0  0  0  0  0  0  0
   -5.3329    1.3685    0.0000 C   0  0  0  0  0  0  0  0  0
   -4.2059    1.6705    0.0000 C   0  0  0  0  0  0  0  0  0
   -5.0309    0.2415    0.0000 C   0  0  0  0  0  0  0  0  0
  1  2  2  0  0  0  0
  1  3  2  0  0  0  0
  1  4  1  0  0  0  0
  1 21  1  0  0  0  0
  4  5  1  0  0  0  0
  5  6  4  0  0  0  0
  5 20  4  0  0  0  0
  6  7  4  0  0  0  0
  7  8  4  0  0  0  0
  7 12  4  0  0  0  0
  8  9  4  0  0  0  0
  8 19  4  0  0  0  0
  9 10  4  0  0  0  0
 10 11  4  0  0  0  0
 11 12  4  0  0  0  0
 12 13  1  0  0  0  0
 13 14  1  0  0  0  0
 13 18  1  0  0  0  0
 14 15  1  0  0  0  0
 15 16  1  0  0  0  0
 16 17  1  0  0  0  0
 17 18  1  0  0  0  0
 19 20  4  0  0  0  0
 21 22  4  0  0  0  0
 21 26  4  0  0  0  0
 22 23  4  0  0  0  0
 23 24  4  0  0  0  0
 24 25  4  0  0  0  0
 24 27  1  0  0  0  0
 25 26  4  0  0  0  0
 27 28  1  0  0  0  0
 27 29  1  0  0  0  0
 27 30  1  0  0  0  0
M  STY  1   1 DAT
M  SAL   1  1   9
M  SDT   1 MRV_IMPLICIT_H                                        
M  SDD   1     0.0000    0.0000    DR    ALL  0       0  
M  SED   1 IMPL_H1
M  END
>  <Name_Molregno>
157908

>  <5-HT1A>
6.1

>  <5-HT1B>
5.8

>  <5-HT1D>
5.9

>  <5-HT2A>
5.5

>  <5-HT2C>
5.7

>  <5-HT6>
9.2

>  <5-HT7>
5

>  <DOPAMINE D2>
5

>  <DOPAMINE D3>
5.3

$$$$
157986
  Marvin  02231216192D 0   1.00000     0.00000     0

 32 36  0  0  1  0  0  0  0  0999 V2000
    0.6566    1.4750    0.0000 Cl  0  0  0  0  0  0  0  0  0
    1.0691    0.7605    0.0000 C   0  0  0  0  0  0  0  0  0
    1.8941    0.7605    0.0000 C   0  0  0  0  0  0  0  0  0
    2.3066    0.0461    0.0000 C   0  0  0  0  0  0  0  0  0
    1.8941   -0.6684    0.0000 C   0  0  0  0  0  0  0  0  0
    2.4461   -1.2815    0.0000 S   0  0  0  0  0  0  0  0  0
    3.1998   -0.9460    0.0000 C   0  0  0  0  0  0  0  0  0
    3.9142   -1.3585    0.0000 S   0  0  0  0  0  0  0  0  0
    3.5017   -2.0729    0.0000 O   0  0  0  0  0  0  0  0  0
    4.3267   -0.6440    0.0000 O   0  0  0  0  0  0  0  0  0
    4.6287   -1.7710    0.0000 N   0  0  0  0  0  0  0  0  0
    5.3432   -1.3585    0.0000 C   0  0  0  0  0  0  0  0  0
    6.0576   -1.7710    0.0000 C   0  0  0  0  0  0  0  0  0
    6.7721   -1.3585    0.0000 C   0  0  0  0  0  0  0  0  0
    6.7721   -0.5335    0.0000 C   0  0  0  0  0  0  0  0  0
    7.4866   -0.1210    0.0000 N   0  0  0  0  0  0  0  0  0
    8.2011   -0.5335    0.0000 C   0  0  0  0  0  0  0  0  0
    8.2011   -1.3585    0.0000 C   0  0  0  0  0  0  0  0  0
    7.4866   -1.7710    0.0000 C   0  0  0  0  0  0  0  0  0
    7.4866   -2.5960    0.0000 N   0  0  0  0  0  0  0  0  0
    8.2011   -3.0085    0.0000 C   0  0  0  0  0  0  0  0  0
    8.2011   -3.8335    0.0000 C   0  0  0  0  0  0  0  0  0
    7.4866   -4.2460    0.0000 N   0  0  0  0  0  0  0  0  0
    6.7721   -3.8335    0.0000 C   0  0  0  0  0  0  0  0  0
    6.7721   -3.0085    0.0000 C   0  0  0  0  0  0  0  0  0
    8.9155   -4.2460    0.0000 C   0  0  0  0  0  0  0  0  0
    6.0576   -0.1210    0.0000 C   0  0  0  0  0  0  0  0  0
    5.3432   -0.5335    0.0000 C   0  0  0  0  0  0  0  0  0
    3.1135   -0.1255    0.0000 C   0  0  0  0  0  0  0  0  0
    3.7266    0.4266    0.0000 C   0  0  0  0  0  0  0  0  0
    1.0691   -0.6684    0.0000 C   0  0  0  0  0  0  0  0  0
    0.6566    0.0461    0.0000 C   0  0  0  0  0  0  0  0  0
  1  2  1  0  0  0  0
  2  3  4  0  0  0  0
  2 32  4  0  0  0  0
  3  4  4  0  0  0  0
  4  5  4  0  0  0  0
  4 29  4  0  0  0  0
  5  6  4  0  0  0  0
  5 31  4  0  0  0  0
  6  7  4  0  0  0  0
  7  8  1  0  0  0  0
  7 29  4  0  0  0  0
  8  9  2  0  0  0  0
  8 10  2  0  0  0  0
  8 11  1  0  0  0  0
 11 12  1  0  0  0  0
 12 13  4  0  0  0  0
 12 28  4  0  0  0  0
 13 14  4  0  0  0  0
 14 15  4  0  0  0  0
 14 19  4  0  0  0  0
 15 16  4  0  0  0  0
 15 27  4  0  0  0  0
 16 17  4  0  0  0  0
 17 18  4  0  0  0  0
 18 19  4  0  0  0  0
 19 20  1  0  0  0  0
 20 21  1  0  0  0  0
 20 25  1  0  0  0  0
 21 22  1  0  0  0  0
 22 23  1  0  0  0  0
 22 26  1  0  0  0  0
 23 24  1  0  0  0  0
 24 25  1  0  0  0  0
 27 28  4  0  0  0  0
 29 30  1  0  0  0  0
 31 32  4  0  0  0  0
M  STY  1   1 DAT
M  SAL   1  1  16
M  SDT   1 MRV_IMPLICIT_H                                        
M  SDD   1     0.0000    0.0000    DR    ALL  0       0  
M  SED   1 IMPL_H1
M  END
>  <Name_Molregno>
157986

>  <5-HT1A>
6

>  <5-HT1B>
5.6

>  <5-HT1D>
6.4

>  <5-HT2A>
5.6

>  <5-HT2C>
5.4

>  <5-HT6>
8.9

>  <5-HT7>
5.3

>  <DOPAMINE D2>
5.5

>  <DOPAMINE D3>
5.7

$$$$
158033
  Marvin  02231216192D 0   1.00000     0.00000     0

 31 35  0  0  0  0  0  0  0  0999 V2000
   -3.7032   -0.0442    0.0000 Cl  0  0  0  0  0  0  0  0  0
   -4.2552   -0.6573    0.0000 C   0  0  0  0  0  0  0  0  0
   -4.0003   -1.4419    0.0000 C   0  0  0  0  0  0  0  0  0
   -4.5523   -2.0550    0.0000 C   0  0  0  0  0  0  0  0  0
   -5.3593   -1.8835    0.0000 C   0  0  0  0  0  0  0  0  0
   -5.7718   -2.5979    0.0000 S   0  0  0  0  0  0  0  0  0
   -5.2198   -3.2110    0.0000 C   0  0  0  0  0  0  0  0  0
   -5.3913   -4.0180    0.0000 C   0  0  0  0  0  0  0  0  0
   -4.4661   -2.8755    0.0000 C   0  0  0  0  0  0  0  0  0
   -3.7516   -3.2880    0.0000 S   0  0  0  0  0  0  0  0  0
   -4.1641   -4.0024    0.0000 O   0  0  0  0  0  0  0  0  0
   -3.3391   -2.5735    0.0000 O   0  0  0  0  0  0  0  0  0
   -3.0372   -3.7005    0.0000 N   0  0  0  0  0  0  0  0  0
   -2.3227   -3.2880    0.0000 C   0  0  0  0  0  0  0  0  0
   -1.6082   -3.7005    0.0000 C   0  0  0  0  0  0  0  0  0
   -0.8937   -3.2880    0.0000 C   0  0  0  0  0  0  0  0  0
   -0.8937   -2.4630    0.0000 C   0  0  0  0  0  0  0  0  0
   -0.1793   -2.0505    0.0000 N   0  0  0  0  0  0  0  0  0
    0.5352   -2.4630    0.0000 C   0  0  0  0  0  0  0  0  0
    0.5352   -3.2880    0.0000 C   0  0  0  0  0  0  0  0  0
   -0.1793   -3.7005    0.0000 C   0  0  0  0  0  0  0  0  0
   -0.1793   -4.5255    0.0000 N   0  0  0  0  0  0  0  0  0
    0.5352   -4.9380    0.0000 C   0  0  0  0  0  0  0  0  0
    0.5352   -5.7630    0.0000 C   0  0  0  0  0  0  0  0  0
   -0.1793   -6.1755    0.0000 N   0  0  0  0  0  0  0  0  0
   -0.8937   -5.7630    0.0000 C   0  0  0  0  0  0  0  0  0
   -0.8937   -4.9380    0.0000 C   0  0  0  0  0  0  0  0  0
   -1.6082   -2.0505    0.0000 C   0  0  0  0  0  0  0  0  0
   -2.3227   -2.4630    0.0000 C   0  0  0  0  0  0  0  0  0
   -5.6142   -1.0988    0.0000 C   0  0  0  0  0  0  0  0  0
   -5.0622   -0.4858    0.0000 C   0  0  0  0  0  0  0  0  0
  1  2  1  0  0  0  0
  2  3  4  0  0  0  0
  2 31  4  0  0  0  0
  3  4  4  0  0  0  0
  4  5  4  0  0  0  0
  4  9  4  0  0  0  0
  5  6  4  0  0  0  0
  5 30  4  0  0  0  0
  6  7  4  0  0  0  0
  7  8  1  0  0  0  0
  7  9  4  0  0  0  0
  9 10  1  0  0  0  0
 10 11  2  0  0  0  0
 10 12  2  0  0  0  0
 10 13  1  0  0  0  0
 13 14  1  0  0  0  0
 14 15  4  0  0  0  0
 14 29  4  0  0  0  0
 15 16  4  0  0  0  0
 16 17  4  0  0  0  0
 16 21  4  0  0  0  0
 17 18  4  0  0  0  0
 17 28  4  0  0  0  0
 18 19  4  0  0  0  0
 19 20  4  0  0  0  0
 20 21  4  0  0  0  0
 21 22  1  0  0  0  0
 22 23  1  0  0  0  0
 22 27  1  0  0  0  0
 23 24  1  0  0  0  0
 24 25  1  0  0  0  0
 25 26  1  0  0  0  0
 26 27  1  0  0  0  0
 28 29  4  0  0  0  0
 30 31  4  0  0  0  0
M  STY  1   1 DAT
M  SAL   1  1  18
M  SDT   1 MRV_IMPLICIT_H                                        
M  SDD   1     0.0000    0.0000    DR    ALL  0       0  
M  SED   1 IMPL_H1
M  END
>  <Name_Molregno>
158033

>  <5-HT1A>
6.6

>  <5-HT1B>
6.3

>  <5-HT1D>
6.4

>  <5-HT2A>
5.7

>  <5-HT2C>
5.9

>  <5-HT6>
9

>  <5-HT7>
5.8

>  <DOPAMINE D2>
5.4

>  <DOPAMINE D3>
5.8

$$$$
158053
  Marvin  02231216192D 0   1.00000     0.00000     0

 31 35  0  0  0  0  0  0  0  0999 V2000
    0.7824    2.2935    0.0000 Cl  0  0  0  0  0  0  0  0  0
    1.1949    1.5790    0.0000 C   0  0  0  0  0  0  0  0  0
    2.0199    1.5790    0.0000 C   0  0  0  0  0  0  0  0  0
    2.4324    0.8645    0.0000 C   0  0  0  0  0  0  0  0  0
    2.0199    0.1501    0.0000 C   0  0  0  0  0  0  0  0  0
    2.5720   -0.4630    0.0000 S   0  0  0  0  0  0  0  0  0
    3.3256   -0.1275    0.0000 C   0  0  0  0  0  0  0  0  0
    4.0401   -0.5400    0.0000 S   0  0  0  0  0  0  0  0  0
    3.6276   -1.2545    0.0000 O   0  0  0  0  0  0  0  0  0
    4.4526    0.1745    0.0000 O   0  0  0  0  0  0  0  0  0
    4.7546   -0.9525    0.0000 N   0  0  0  0  0  0  0  0  0
    5.4691   -0.5400    0.0000 C   0  0  0  0  0  0  0  0  0
    6.1835   -0.9525    0.0000 C   0  0  0  0  0  0  0  0  0
    6.8980   -0.5400    0.0000 C   0  0  0  0  0  0  0  0  0
    6.8980    0.2850    0.0000 C   0  0  0  0  0  0  0  0  0
    7.6125    0.6975    0.0000 N   0  0  0  0  0  0  0  0  0
    8.3269    0.2850    0.0000 C   0  0  0  0  0  0  0  0  0
    8.3269   -0.5400    0.0000 C   0  0  0  0  0  0  0  0  0
    7.6125   -0.9525    0.0000 C   0  0  0  0  0  0  0  0  0
    7.6125   -1.7775    0.0000 N   0  0  0  0  0  0  0  0  0
    8.3269   -2.1900    0.0000 C   0  0  0  0  0  0  0  0  0
    8.3269   -3.0150    0.0000 C   0  0  0  0  0  0  0  0  0
    7.6125   -3.4275    0.0000 N   0  0  0  0  0  0  0  0  0
    6.8980   -3.0150    0.0000 C   0  0  0  0  0  0  0  0  0
    6.8980   -2.1900    0.0000 C   0  0  0  0  0  0  0  0  0
    6.1835    0.6975    0.0000 C   0  0  0  0  0  0  0  0  0
    5.4691    0.2850    0.0000 C   0  0  0  0  0  0  0  0  0
    3.2394    0.6930    0.0000 C   0  0  0  0  0  0  0  0  0
    3.8525    1.2450    0.0000 C   0  0  0  0  0  0  0  0  0
    1.1949    0.1501    0.0000 C   0  0  0  0  0  0  0  0  0
    0.7824    0.8645    0.0000 C   0  0  0  0  0  0  0  0  0
  1  2  1  0  0  0  0
  2  3  4  0  0  0  0
  2 31  4  0  0  0  0
  3  4  4  0  0  0  0
  4  5  4  0  0  0  0
  4 28  4  0  0  0  0
  5  6  4  0  0  0  0
  5 30  4  0  0  0  0
  6  7  4  0  0  0  0
  7  8  1  0  0  0  0
  7 28  4  0  0  0  0
  8  9  2  0  0  0  0
  8 10  2  0  0  0  0
  8 11  1  0  0  0  0
 11 12  1  0  0  0  0
 12 13  4  0  0  0  0
 12 27  4  0  0  0  0
 13 14  4  0  0  0  0
 14 15  4  0  0  0  0
 14 19  4  0  0  0  0
 15 16  4  0  0  0  0
 15 26  4  0  0  0  0
 16 17  4  0  0  0  0
 17 18  4  0  0  0  0
 18 19  4  0  0  0  0
 19 20  1  0  0  0  0
 20 21  1  0  0  0  0
 20 25  1  0  0  0  0
 21 22  1  0  0  0  0
 22 23  1  0  0  0  0
 23 24  1  0  0  0  0
 24 25  1  0  0  0  0
 26 27  4  0  0  0  0
 28 29  1  0  0  0  0
 30 31  4  0  0  0  0
M  STY  1   1 DAT
M  SAL   1  1  16
M  SDT   1 MRV_IMPLICIT_H                                        
M  SDD   1     0.0000    0.0000    DR    ALL  0       0  
M  SED   1 IMPL_H1
M  END
>  <Name_Molregno>
158053

>  <5-HT1A>
6

>  <5-HT1B>
5.7

>  <5-HT1D>
6.2

>  <5-HT2A>
5.6

>  <5-HT2C>
5.6

>  <5-HT6>
8.7

>  <5-HT7>
5.1

>  <DOPAMINE D2>
5

>  <DOPAMINE D3>
5.8

$$$$
158169
  Marvin  02231216192D 0   1.00000     0.00000     0

 32 36  0  0  0  0  0  0  0  0999 V2000
    0.7068    2.2807    0.0000 Cl  0  0  0  0  0  0  0  0  0
    1.1193    1.5662    0.0000 C   0  0  0  0  0  0  0  0  0
    1.9443    1.5662    0.0000 C   0  0  0  0  0  0  0  0  0
    2.3568    0.8517    0.0000 C   0  0  0  0  0  0  0  0  0
    1.9443    0.1373    0.0000 C   0  0  0  0  0  0  0  0  0
    2.4963   -0.4758    0.0000 S   0  0  0  0  0  0  0  0  0
    3.2500   -0.1403    0.0000 C   0  0  0  0  0  0  0  0  0
    3.9645   -0.5528    0.0000 S   0  0  0  0  0  0  0  0  0
    3.5520   -1.2672    0.0000 O   0  0  0  0  0  0  0  0  0
    4.3770    0.1617    0.0000 O   0  0  0  0  0  0  0  0  0
    4.6789   -0.9653    0.0000 N   0  0  0  0  0  0  0  0  0
    5.3934   -0.5528    0.0000 C   0  0  0  0  0  0  0  0  0
    6.1079   -0.9653    0.0000 C   0  0  0  0  0  0  0  0  0
    6.8223   -0.5528    0.0000 C   0  0  0  0  0  0  0  0  0
    6.8223    0.2722    0.0000 C   0  0  0  0  0  0  0  0  0
    7.5368    0.6847    0.0000 N   0  0  0  0  0  0  0  0  0
    8.2513    0.2722    0.0000 C   0  0  0  0  0  0  0  0  0
    8.2513   -0.5528    0.0000 C   0  0  0  0  0  0  0  0  0
    7.5368   -0.9653    0.0000 C   0  0  0  0  0  0  0  0  0
    7.5368   -1.7903    0.0000 N   0  0  0  0  0  0  0  0  0
    8.2513   -2.2028    0.0000 C   0  0  0  0  0  0  0  0  0
    8.2513   -3.0278    0.0000 C   0  0  0  0  0  0  0  0  0
    7.5368   -3.4403    0.0000 N   0  0  0  0  0  0  0  0  0
    6.8223   -3.0278    0.0000 C   0  0  0  0  0  0  0  0  0
    6.8223   -2.2028    0.0000 C   0  0  0  0  0  0  0  0  0
    6.1079    0.6847    0.0000 C   0  0  0  0  0  0  0  0  0
    5.3934    0.2722    0.0000 C   0  0  0  0  0  0  0  0  0
    3.1638    0.6802    0.0000 C   0  0  0  0  0  0  0  0  0
    3.7768    1.2322    0.0000 C   0  0  0  0  0  0  0  0  0
    4.5615    0.9773    0.0000 C   0  0  0  0  0  0  0  0  0
    1.1193    0.1373    0.0000 C   0  0  0  0  0  0  0  0  0
    0.7068    0.8517    0.0000 C   0  0  0  0  0  0  0  0  0
  1  2  1  0  0  0  0
  2  3  4  0  0  0  0
  2 32  4  0  0  0  0
  3  4  4  0  0  0  0
  4  5  4  0  0  0  0
  4 28  4  0  0  0  0
  5  6  4  0  0  0  0
  5 31  4  0  0  0  0
  6  7  4  0  0  0  0
  7  8  1  0  0  0  0
  7 28  4  0  0  0  0
  8  9  2  0  0  0  0
  8 10  2  0  0  0  0
  8 11  1  0  0  0  0
 11 12  1  0  0  0  0
 12 13  4  0  0  0  0
 12 27  4  0  0  0  0
 13 14  4  0  0  0  0
 14 15  4  0  0  0  0
 14 19  4  0  0  0  0
 15 16  4  0  0  0  0
 15 26  4  0  0  0  0
 16 17  4  0  0  0  0
 17 18  4  0  0  0  0
 18 19  4  0  0  0  0
 19 20  1  0  0  0  0
 20 21  1  0  0  0  0
 20 25  1  0  0  0  0
 21 22  1  0  0  0  0
 22 23  1  0  0  0  0
 23 24  1  0  0  0  0
 24 25  1  0  0  0  0
 26 27  4  0  0  0  0
 28 29  1  0  0  0  0
 29 30  1  0  0  0  0
 31 32  4  0  0  0  0
M  STY  1   1 DAT
M  SAL   1  1  16
M  SDT   1 MRV_IMPLICIT_H                                        
M  SDD   1     0.0000    0.0000    DR    ALL  0       0  
M  SED   1 IMPL_H1
M  END
>  <Name_Molregno>
158169

>  <5-HT1A>
5.4

>  <5-HT1B>
5.5

>  <5-HT1D>
5.6

>  <5-HT2A>
5.9

>  <5-HT2C>
5.9

>  <5-HT6>
8.9

>  <5-HT7>
5.3

>  <DOPAMINE D2>
6

>  <DOPAMINE D3>
5

$$$$
164041
  Marvin  02231216192D 0   1.00000     0.00000     0

 31 34  0  0  1  0  0  0  0  0999 V2000
   -5.5960   -0.0028    0.0000 O   0  0  0  0  0  0  0  0  0
   -5.5960   -0.8278    0.0000 C   0  0  0  0  0  0  0  0  0
   -4.8816   -1.2403    0.0000 C   0  0  0  0  0  0  0  0  0
   -4.1671   -0.8278    0.0000 C   0  0  0  0  0  0  0  0  0
   -4.1671   -0.0028    0.0000 C   0  0  0  0  0  0  0  0  0
   -3.4526    0.4097    0.0000 C   0  0  0  0  0  0  0  0  0
   -2.7381   -0.0028    0.0000 N   0  0  0  0  0  0  0  0  0
   -2.0237    0.4097    0.0000 C   0  0  0  0  0  0  0  0  0
   -1.3092   -0.0028    0.0000 C   0  0  0  0  0  0  0  0  0
   -0.5947    0.4097    0.0000 O   0  0  0  0  0  0  0  0  0
    0.1197   -0.0028    0.0000 C   0  0  0  0  0  0  0  0  0
    0.8342    0.4097    0.0000 C   0  0  0  0  0  0  0  0  0
    0.8342    1.2347    0.0000 O   0  0  0  0  0  0  0  0  0
    1.5487    1.6472    0.0000 C   0  0  0  0  0  0  0  0  0
    1.5487   -0.0028    0.0000 C   0  0  0  0  0  0  0  0  0
    1.5487   -0.8278    0.0000 C   0  0  0  0  0  0  0  0  0
    0.8342   -1.2403    0.0000 C   0  0  0  0  0  0  0  0  0
    0.1197   -0.8278    0.0000 C   0  0  0  0  0  0  0  0  0
   -0.5947   -1.2403    0.0000 O   0  0  0  0  0  0  0  0  0
   -0.5947   -2.0653    0.0000 C   0  0  0  0  0  0  0  0  0
   -4.8816    0.4097    0.0000 C   0  0  0  0  0  0  0  0  0
   -4.8816    1.2347    0.0000 C   0  0  0  0  0  0  0  0  0
   -5.5960    1.6472    0.0000 C   0  0  0  0  0  0  0  0  0
   -5.5960    2.4722    0.0000 C   0  0  0  0  0  0  0  0  0
   -4.8816    2.8847    0.0000 C   0  0  0  0  0  0  0  0  0
   -4.1671    2.4722    0.0000 C   0  0  0  0  0  0  0  0  0
   -4.1671    1.6472    0.0000 C   0  0  0  0  0  0  0  0  0
   -4.8816   -2.0653    0.0000 C   0  0  0  0  0  0  0  0  0
   -5.5960   -2.4778    0.0000 C   0  0  0  0  0  0  0  0  0
   -6.3105   -2.0653    0.0000 C   0  0  0  0  0  0  0  0  0
   -6.3105   -1.2403    0.0000 C   0  0  0  0  0  0  0  0  0
  1  2  1  0  0  0  0
  1 21  1  0  0  0  0
  2  3  4  0  0  0  0
  2 31  4  0  0  0  0
  3  4  1  0  0  0  0
  3 28  4  0  0  0  0
  4  5  2  0  0  0  0
  5  6  1  0  0  0  0
  5 21  1  0  0  0  0
  6  7  1  0  0  0  0
  7  8  1  0  0  0  0
  8  9  1  0  0  0  0
  9 10  1  0  0  0  0
 10 11  1  0  0  0  0
 11 12  4  0  0  0  0
 11 18  4  0  0  0  0
 12 13  1  0  0  0  0
 12 15  4  0  0  0  0
 13 14  1  0  0  0  0
 15 16  4  0  0  0  0
 16 17  4  0  0  0  0
 17 18  4  0  0  0  0
 18 19  1  0  0  0  0
 19 20  1  0  0  0  0
 21 22  1  0  0  0  0
 22 23  4  0  0  0  0
 22 27  4  0  0  0  0
 23 24  4  0  0  0  0
 24 25  4  0  0  0  0
 25 26  4  0  0  0  0
 26 27  4  0  0  0  0
 28 29  4  0  0  0  0
 29 30  4  0  0  0  0
 30 31  4  0  0  0  0
M  END
>  <Name_Molregno>
164041

>  <5-HT1A>
8.08

>  <Alpha-1A>
7.14

>  <Alpha-1B>
6.84

$$$$
164045
  Marvin  02231216192D 0   1.00000     0.00000     0

 31 34  0  0  1  0  0  0  0  0999 V2000
   -0.6165   -0.5469    0.0000 O   0  0  0  0  0  0  0  0  0
   -1.3309   -0.1344    0.0000 C   0  0  0  0  0  0  0  0  0
   -2.0454   -0.5469    0.0000 C   0  0  0  0  0  0  0  0  0
   -2.0454   -1.3719    0.0000 C   0  0  0  0  0  0  0  0  0
   -1.3309   -1.7844    0.0000 C   0  0  0  0  0  0  0  0  0
   -0.6165   -1.3719    0.0000 C   0  0  0  0  0  0  0  0  0
    0.0980   -1.7844    0.0000 C   0  0  0  0  0  0  0  0  0
    0.8125   -1.3719    0.0000 N   0  0  0  0  0  0  0  0  0
    1.5270   -1.7844    0.0000 C   0  0  0  0  0  0  0  0  0
    2.2414   -1.3719    0.0000 C   0  0  0  0  0  0  0  0  0
    2.9559   -1.7844    0.0000 O   0  0  0  0  0  0  0  0  0
    3.6704   -1.3719    0.0000 C   0  0  0  0  0  0  0  0  0
    3.6704   -0.5469    0.0000 C   0  0  0  0  0  0  0  0  0
    2.9559   -0.1344    0.0000 O   0  0  0  0  0  0  0  0  0
    2.9559    0.6906    0.0000 C   0  0  0  0  0  0  0  0  0
    4.3848   -0.1344    0.0000 C   0  0  0  0  0  0  0  0  0
    5.0993   -0.5469    0.0000 C   0  0  0  0  0  0  0  0  0
    5.0993   -1.3719    0.0000 C   0  0  0  0  0  0  0  0  0
    4.3848   -1.7844    0.0000 C   0  0  0  0  0  0  0  0  0
    4.3848   -2.6094    0.0000 O   0  0  0  0  0  0  0  0  0
    5.0993   -3.0219    0.0000 C   0  0  0  0  0  0  0  0  0
   -1.3309   -2.6094    0.0000 C   0  0  0  0  0  0  0  0  0
   -0.6165   -3.0219    0.0000 C   0  0  0  0  0  0  0  0  0
   -0.6165   -3.8469    0.0000 C   0  0  0  0  0  0  0  0  0
   -1.3309   -4.2594    0.0000 C   0  0  0  0  0  0  0  0  0
   -2.0454   -3.8469    0.0000 C   0  0  0  0  0  0  0  0  0
   -2.0454   -3.0219    0.0000 C   0  0  0  0  0  0  0  0  0
   -2.7599   -0.1344    0.0000 C   0  0  0  0  0  0  0  0  0
   -2.7599    0.6906    0.0000 C   0  0  0  0  0  0  0  0  0
   -2.0454    1.1031    0.0000 C   0  0  0  0  0  0  0  0  0
   -1.3309    0.6906    0.0000 C   0  0  0  0  0  0  0  0  0
  1  2  1  0  0  0  0
  1  6  1  0  0  0  0
  2  3  4  0  0  0  0
  2 31  4  0  0  0  0
  3  4  1  0  0  0  0
  3 28  4  0  0  0  0
  4  5  1  0  0  0  0
  5  6  1  0  0  0  0
  5 22  1  0  0  0  0
  6  7  1  0  0  0  0
  7  8  1  0  0  0  0
  8  9  1  0  0  0  0
  9 10  1  0  0  0  0
 10 11  1  0  0  0  0
 11 12  1  0  0  0  0
 12 13  4  0  0  0  0
 12 19  4  0  0  0  0
 13 14  1  0  0  0  0
 13 16  4  0  0  0  0
 14 15  1  0  0  0  0
 16 17  4  0  0  0  0
 17 18  4  0  0  0  0
 18 19  4  0  0  0  0
 19 20  1  0  0  0  0
 20 21  1  0  0  0  0
 22 23  4  0  0  0  0
 22 27  4  0  0  0  0
 23 24  4  0  0  0  0
 24 25  4  0  0  0  0
 25 26  4  0  0  0  0
 26 27  4  0  0  0  0
 28 29  4  0  0  0  0
 29 30  4  0  0  0  0
 30 31  4  0  0  0  0
M  END
>  <Name_Molregno>
164045

>  <5-HT1A>
6.8

>  <Alpha-1A>
7.64

>  <Alpha-1B>
6.55

$$$$
164312
  Marvin  02231216192D 0   1.00000     0.00000     0

 32 35  0  0  1  0  0  0  0  0999 V2000
   -0.0585   -0.8734    0.0000 O   0  0  0  0  0  0  0  0  0
    0.6560   -0.4609    0.0000 C   0  0  0  0  0  0  0  0  0
    1.3705   -0.8734    0.0000 C   0  0  0  0  0  0  0  0  0
    2.0849   -0.4609    0.0000 N   0  0  0  0  0  0  0  0  0
    2.7994   -0.8734    0.0000 C   0  0  0  0  0  0  0  0  0
    3.5139   -0.4609    0.0000 C   0  0  0  0  0  0  0  0  0
    4.2284   -0.8734    0.0000 C   0  0  0  0  0  0  0  0  0
    4.9428   -0.4609    0.0000 C   0  0  0  0  0  0  0  0  0
    4.9428    0.3641    0.0000 C   0  0  0  0  0  0  0  0  0
    4.2284    0.7766    0.0000 C   0  0  0  0  0  0  0  0  0
    4.2284    1.6016    0.0000 C   0  0  0  0  0  0  0  0  0
    4.9428    2.0141    0.0000 C   0  0  0  0  0  0  0  0  0
    5.6573    1.6016    0.0000 C   0  0  0  0  0  0  0  0  0
    5.6573    0.7766    0.0000 C   0  0  0  0  0  0  0  0  0
    3.5139    0.3641    0.0000 C   0  0  0  0  0  0  0  0  0
    2.7994    0.7766    0.0000 O   0  0  0  0  0  0  0  0  0
    4.2284   -1.6984    0.0000 C   0  0  0  0  0  0  0  0  0
    4.9428   -2.1109    0.0000 C   0  0  0  0  0  0  0  0  0
    4.9428   -2.9359    0.0000 C   0  0  0  0  0  0  0  0  0
    4.2284   -3.3484    0.0000 C   0  0  0  0  0  0  0  0  0
    3.5139   -2.9359    0.0000 C   0  0  0  0  0  0  0  0  0
    3.5139   -2.1109    0.0000 C   0  0  0  0  0  0  0  0  0
   -0.7729   -0.4609    0.0000 C   0  0  0  0  0  0  0  0  0
   -1.4874   -0.8734    0.0000 C   0  0  0  0  0  0  0  0  0
   -1.4874   -1.6984    0.0000 O   0  0  0  0  0  0  0  0  0
   -2.2019   -2.1109    0.0000 C   0  0  0  0  0  0  0  0  0
   -2.2019   -0.4609    0.0000 C   0  0  0  0  0  0  0  0  0
   -2.2019    0.3641    0.0000 C   0  0  0  0  0  0  0  0  0
   -1.4874    0.7766    0.0000 C   0  0  0  0  0  0  0  0  0
   -0.7729    0.3641    0.0000 C   0  0  0  0  0  0  0  0  0
   -0.0585    0.7766    0.0000 O   0  0  0  0  0  0  0  0  0
   -0.0585    1.6016    0.0000 C   0  0  0  0  0  0  0  0  0
  1  2  1  0  0  0  0
  1 23  1  0  0  0  0
  2  3  1  0  0  0  0
  3  4  1  0  0  0  0
  4  5  1  0  0  0  0
  5  6  1  0  0  0  0
  6  7  1  0  0  0  0
  6 15  1  0  0  0  0
  7  8  1  0  0  0  0
  7 17  1  0  0  0  0
  8  9  1  0  0  0  0
  9 10  4  0  0  0  0
  9 14  4  0  0  0  0
 10 11  4  0  0  0  0
 10 15  1  0  0  0  0
 11 12  4  0  0  0  0
 12 13  4  0  0  0  0
 13 14  4  0  0  0  0
 15 16  2  0  0  0  0
 17 18  4  0  0  0  0
 17 22  4  0  0  0  0
 18 19  4  0  0  0  0
 19 20  4  0  0  0  0
 20 21  4  0  0  0  0
 21 22  4  0  0  0  0
 23 24  4  0  0  0  0
 23 30  4  0  0  0  0
 24 25  1  0  0  0  0
 24 27  4  0  0  0  0
 25 26  1  0  0  0  0
 27 28  4  0  0  0  0
 28 29  4  0  0  0  0
 29 30  4  0  0  0  0
 30 31  1  0  0  0  0
 31 32  1  0  0  0  0
M  END
>  <Name_Molregno>
164312

>  <5-HT1A>
6.83

>  <Alpha-1A>
8.06

>  <Alpha-1B>
6.11

$$$$
164487
  Marvin  02231216192D 0   1.00000     0.00000     0

 32 35  0  0  1  0  0  0  0  0999 V2000
   -5.5535    0.0112    0.0000 S   0  0  0  0  0  0  0  0  0
   -5.5535   -0.8138    0.0000 C   0  0  0  0  0  0  0  0  0
   -4.8390   -1.2263    0.0000 C   0  0  0  0  0  0  0  0  0
   -4.8390   -2.0513    0.0000 C   0  0  0  0  0  0  0  0  0
   -5.5535   -2.4638    0.0000 C   0  0  0  0  0  0  0  0  0
   -6.2679   -2.0513    0.0000 C   0  0  0  0  0  0  0  0  0
   -6.2679   -1.2263    0.0000 C   0  0  0  0  0  0  0  0  0
   -4.1245   -0.8138    0.0000 C   0  0  0  0  0  0  0  0  0
   -3.4100   -1.2263    0.0000 O   0  0  0  0  0  0  0  0  0
   -4.1245    0.0112    0.0000 C   0  0  0  0  0  0  0  0  0
   -3.4100    0.4237    0.0000 C   0  0  0  0  0  0  0  0  0
   -2.6956    0.0112    0.0000 N   0  0  0  0  0  0  0  0  0
   -1.9811    0.4237    0.0000 C   0  0  0  0  0  0  0  0  0
   -1.2666    0.0112    0.0000 C   0  0  0  0  0  0  0  0  0
   -0.5522    0.4237    0.0000 O   0  0  0  0  0  0  0  0  0
    0.1623    0.0112    0.0000 C   0  0  0  0  0  0  0  0  0
    0.8768    0.4237    0.0000 C   0  0  0  0  0  0  0  0  0
    0.8768    1.2487    0.0000 O   0  0  0  0  0  0  0  0  0
    1.5913    1.6612    0.0000 C   0  0  0  0  0  0  0  0  0
    1.5913    0.0112    0.0000 C   0  0  0  0  0  0  0  0  0
    1.5913   -0.8138    0.0000 C   0  0  0  0  0  0  0  0  0
    0.8768   -1.2263    0.0000 C   0  0  0  0  0  0  0  0  0
    0.1623   -0.8138    0.0000 C   0  0  0  0  0  0  0  0  0
   -0.5522   -1.2263    0.0000 O   0  0  0  0  0  0  0  0  0
   -0.5522   -2.0513    0.0000 C   0  0  0  0  0  0  0  0  0
   -4.8390    0.4237    0.0000 C   0  0  0  0  0  0  0  0  0
   -4.8390    1.2487    0.0000 C   0  0  0  0  0  0  0  0  0
   -5.5535    1.6612    0.0000 C   0  0  0  0  0  0  0  0  0
   -5.5535    2.4862    0.0000 C   0  0  0  0  0  0  0  0  0
   -4.8390    2.8987    0.0000 C   0  0  0  0  0  0  0  0  0
   -4.1245    2.4862    0.0000 C   0  0  0  0  0  0  0  0  0
   -4.1245    1.6612    0.0000 C   0  0  0  0  0  0  0  0  0
  1  2  1  0  0  0  0
  1 26  1  0  0  0  0
  2  3  4  0  0  0  0
  2  7  4  0  0  0  0
  3  4  4  0  0  0  0
  3  8  1  0  0  0  0
  4  5  4  0  0  0  0
  5  6  4  0  0  0  0
  6  7  4  0  0  0  0
  8  9  2  0  0  0  0
  8 10  1  0  0  0  0
 10 11  1  0  0  0  0
 10 26  1  0  0  0  0
 11 12  1  0  0  0  0
 12 13  1  0  0  0  0
 13 14  1  0  0  0  0
 14 15  1  0  0  0  0
 15 16  1  0  0  0  0
 16 17  4  0  0  0  0
 16 23  4  0  0  0  0
 17 18  1  0  0  0  0
 17 20  4  0  0  0  0
 18 19  1  0  0  0  0
 20 21  4  0  0  0  0
 21 22  4  0  0  0  0
 22 23  4  0  0  0  0
 23 24  1  0  0  0  0
 24 25  1  0  0  0  0
 26 27  1  0  0  0  0
 27 28  4  0  0  0  0
 27 32  4  0  0  0  0
 28 29  4  0  0  0  0
 29 30  4  0  0  0  0
 30 31  4  0  0  0  0
 31 32  4  0  0  0  0
M  END
>  <Name_Molregno>
164487

>  <5-HT1A>
7.36

>  <Alpha-1A>
7.42

>  <Alpha-1B>
6

$$$$
164488
  Marvin  02231216192D 0   1.00000     0.00000     0

 32 35  0  0  1  0  0  0  0  0999 V2000
   -5.5535    0.0112    0.0000 O   0  0  0  0  0  0  0  0  0
   -5.5535   -0.8138    0.0000 C   0  0  0  0  0  0  0  0  0
   -4.8390   -1.2263    0.0000 C   0  0  0  0  0  0  0  0  0
   -4.8390   -2.0513    0.0000 C   0  0  0  0  0  0  0  0  0
   -5.5535   -2.4638    0.0000 C   0  0  0  0  0  0  0  0  0
   -6.2679   -2.0513    0.0000 C   0  0  0  0  0  0  0  0  0
   -6.2679   -1.2263    0.0000 C   0  0  0  0  0  0  0  0  0
   -4.1245   -0.8138    0.0000 C   0  0  0  0  0  0  0  0  0
   -3.4100   -1.2263    0.0000 O   0  0  0  0  0  0  0  0  0
   -4.1245    0.0112    0.0000 C   0  0  0  0  0  0  0  0  0
   -3.4100    0.4237    0.0000 C   0  0  0  0  0  0  0  0  0
   -2.6956    0.0112    0.0000 N   0  0  0  0  0  0  0  0  0
   -1.9811    0.4237    0.0000 C   0  0  0  0  0  0  0  0  0
   -1.2666    0.0112    0.0000 C   0  0  0  0  0  0  0  0  0
   -0.5522    0.4237    0.0000 O   0  0  0  0  0  0  0  0  0
    0.1623    0.0112    0.0000 C   0  0  0  0  0  0  0  0  0
    0.8768    0.4237    0.0000 C   0  0  0  0  0  0  0  0  0
    0.8768    1.2487    0.0000 O   0  0  0  0  0  0  0  0  0
    1.5913    1.6612    0.0000 C   0  0  0  0  0  0  0  0  0
    1.5913    0.0112    0.0000 C   0  0  0  0  0  0  0  0  0
    1.5913   -0.8138    0.0000 C   0  0  0  0  0  0  0  0  0
    0.8768   -1.2263    0.0000 C   0  0  0  0  0  0  0  0  0
    0.1623   -0.8138    0.0000 C   0  0  0  0  0  0  0  0  0
   -0.5522   -1.2263    0.0000 O   0  0  0  0  0  0  0  0  0
   -0.5522   -2.0513    0.0000 C   0  0  0  0  0  0  0  0  0
   -4.8390    0.4237    0.0000 C   0  0  0  0  0  0  0  0  0
   -4.8390    1.2487    0.0000 C   0  0  0  0  0  0  0  0  0
   -5.5535    1.6612    0.0000 C   0  0  0  0  0  0  0  0  0
   -5.5535    2.4862    0.0000 C   0  0  0  0  0  0  0  0  0
   -4.8390    2.8987    0.0000 C   0  0  0  0  0  0  0  0  0
   -4.1245    2.4862    0.0000 C   0  0  0  0  0  0  0  0  0
   -4.1245    1.6612    0.0000 C   0  0  0  0  0  0  0  0  0
  1  2  1  0  0  0  0
  1 26  1  0  0  0  0
  2  3  4  0  0  0  0
  2  7  4  0  0  0  0
  3  4  4  0  0  0  0
  3  8  1  0  0  0  0
  4  5  4  0  0  0  0
  5  6  4  0  0  0  0
  6  7  4  0  0  0  0
  8  9  2  0  0  0  0
  8 10  1  0  0  0  0
 10 11  1  0  0  0  0
 10 26  1  0  0  0  0
 11 12  1  0  0  0  0
 12 13  1  0  0  0  0
 13 14  1  0  0  0  0
 14 15  1  0  0  0  0
 15 16  1  0  0  0  0
 16 17  4  0  0  0  0
 16 23  4  0  0  0  0
 17 18  1  0  0  0  0
 17 20  4  0  0  0  0
 18 19  1  0  0  0  0
 20 21  4  0  0  0  0
 21 22  4  0  0  0  0
 22 23  4  0  0  0  0
 23 24  1  0  0  0  0
 24 25  1  0  0  0  0
 26 27  1  0  0  0  0
 27 28  4  0  0  0  0
 27 32  4  0  0  0  0
 28 29  4  0  0  0  0
 29 30  4  0  0  0  0
 30 31  4  0  0  0  0
 31 32  4  0  0  0  0
M  END
>  <Name_Molregno>
164488

>  <5-HT1A>
6.73

>  <Alpha-1A>
9.22

>  <Alpha-1B>
6.84

$$$$
166379
  Marvin  02231216192D 0   1.00000     0.00000     0

 24 27  0  0  0  0  0  0  0  0999 V2000
    1.0036   -0.3723    0.0000 N   0  0  0  0  0  0  0  0  0
    0.7486   -1.1569    0.0000 C   0  0  0  0  0  0  0  0  0
   -0.0764   -1.1569    0.0000 C   0  0  0  0  0  0  0  0  0
   -0.3313   -0.3723    0.0000 N   0  0  0  0  0  0  0  0  0
    0.3361    0.1126    0.0000 C   0  0  0  0  0  0  0  0  0
    0.3361    0.9376    0.0000 C   0  0  0  0  0  0  0  0  0
   -0.3783    1.3501    0.0000 C   0  0  0  0  0  0  0  0  0
   -0.3783    2.1751    0.0000 C   0  0  0  0  0  0  0  0  0
    0.3361    2.5876    0.0000 C   0  0  0  0  0  0  0  0  0
    1.0506    2.1751    0.0000 C   0  0  0  0  0  0  0  0  0
    1.0506    1.3501    0.0000 C   0  0  0  0  0  0  0  0  0
   -0.5613   -1.8244    0.0000 C   0  0  0  0  0  0  0  0  0
   -1.3818   -1.7381    0.0000 N   0  0  0  0  0  0  0  0  0
   -1.8667   -2.4056    0.0000 C   0  0  0  0  0  0  0  0  0
   -2.6872   -2.3193    0.0000 C   0  0  0  0  0  0  0  0  0
   -3.0227   -1.5657    0.0000 N   0  0  0  0  0  0  0  0  0
   -2.5378   -0.8982    0.0000 C   0  0  0  0  0  0  0  0  0
   -1.7173   -0.9845    0.0000 C   0  0  0  0  0  0  0  0  0
   -3.8432   -1.4794    0.0000 C   0  0  0  0  0  0  0  0  0
   -4.3281   -2.1469    0.0000 N   0  0  0  0  0  0  0  0  0
   -5.1486   -2.0606    0.0000 C   0  0  0  0  0  0  0  0  0
   -5.4842   -1.3070    0.0000 C   0  0  0  0  0  0  0  0  0
   -4.9992   -0.6395    0.0000 C   0  0  0  0  0  0  0  0  0
   -4.1788   -0.7257    0.0000 N   0  0  0  0  0  0  0  0  0
  1  2  4  0  0  0  0
  1  5  4  0  0  0  0
  2  3  4  0  0  0  0
  3  4  4  0  0  0  0
  3 12  1  0  0  0  0
  4  5  4  0  0  0  0
  5  6  1  0  0  0  0
  6  7  4  0  0  0  0
  6 11  4  0  0  0  0
  7  8  4  0  0  0  0
  8  9  4  0  0  0  0
  9 10  4  0  0  0  0
 10 11  4  0  0  0  0
 12 13  1  0  0  0  0
 13 14  1  0  0  0  0
 13 18  1  0  0  0  0
 14 15  1  0  0  0  0
 15 16  1  0  0  0  0
 16 17  1  0  0  0  0
 16 19  1  0  0  0  0
 17 18  1  0  0  0  0
 19 20  4  0  0  0  0
 19 24  4  0  0  0  0
 20 21  4  0  0  0  0
 21 22  4  0  0  0  0
 22 23  4  0  0  0  0
 23 24  4  0  0  0  0
M  STY  1   1 DAT
M  SAL   1  1   1
M  SDT   1 MRV_IMPLICIT_H                                        
M  SDD   1     0.0000    0.0000    DR    ALL  0       0  
M  SED   1 IMPL_H1
M  END
>  <Name_Molregno>
166379

>  <5-HT1A>
6.74

>  <DOPAMINE D2>
5.65

>  <DOPAMINE D3>
5.1

>  <DOPAMINE D4>
8.42

$$$$
170328
  Marvin  02231216192D 0   1.00000     0.00000     0

 26 29  0  0  0  0  0  0  0  0999 V2000
    7.8472   -4.0396    0.0000 F   0  0  0  0  0  0  0  0  0
    7.1328   -3.6271    0.0000 C   0  0  0  0  0  0  0  0  0
    6.4183   -4.0396    0.0000 C   0  0  0  0  0  0  0  0  0
    5.7038   -3.6271    0.0000 C   0  0  0  0  0  0  0  0  0
    5.7038   -2.8021    0.0000 C   0  0  0  0  0  0  0  0  0
    6.4183   -2.3896    0.0000 C   0  0  0  0  0  0  0  0  0
    7.1328   -2.8021    0.0000 C   0  0  0  0  0  0  0  0  0
    4.9894   -2.3896    0.0000 C   0  0  0  0  0  0  0  0  0
    4.9894   -1.5646    0.0000 O   0  0  0  0  0  0  0  0  0
    4.2749   -2.8021    0.0000 N   0  0  0  0  0  0  0  0  0
    3.5604   -2.3896    0.0000 C   0  0  0  0  0  0  0  0  0
    2.8459   -2.8021    0.0000 C   0  0  0  0  0  0  0  0  0
    2.1315   -2.3896    0.0000 C   0  0  0  0  0  0  0  0  0
    2.1315   -1.5646    0.0000 C   0  0  0  0  0  0  0  0  0
    1.3468   -1.3097    0.0000 N   0  0  0  0  0  0  0  0  0
    0.8619   -1.9771    0.0000 C   0  0  0  0  0  0  0  0  0
    1.3468   -2.6445    0.0000 C   0  0  0  0  0  0  0  0  0
    1.0919   -3.4292    0.0000 C   0  0  0  0  0  0  0  0  0
    1.6439   -4.0423    0.0000 C   0  0  0  0  0  0  0  0  0
    1.3890   -4.8269    0.0000 C   0  0  0  0  0  0  0  0  0
    0.5820   -4.9984    0.0000 N   0  0  0  0  0  0  0  0  0
    0.0300   -4.3853    0.0000 C   0  0  0  0  0  0  0  0  0
    0.2849   -3.6007    0.0000 C   0  0  0  0  0  0  0  0  0
    0.3271   -5.7830    0.0000 C   0  0  0  0  0  0  0  0  0
    2.8459   -1.1521    0.0000 C   0  0  0  0  0  0  0  0  0
    3.5604   -1.5646    0.0000 C   0  0  0  0  0  0  0  0  0
  1  2  1  0  0  0  0
  2  3  4  0  0  0  0
  2  7  4  0  0  0  0
  3  4  4  0  0  0  0
  4  5  4  0  0  0  0
  5  6  4  0  0  0  0
  5  8  1  0  0  0  0
  6  7  4  0  0  0  0
  8  9  2  0  0  0  0
  8 10  1  0  0  0  0
 10 11  1  0  0  0  0
 11 12  4  0  0  0  0
 11 26  4  0  0  0  0
 12 13  4  0  0  0  0
 13 14  4  0  0  0  0
 13 17  4  0  0  0  0
 14 15  4  0  0  0  0
 14 25  4  0  0  0  0
 15 16  4  0  0  0  0
 16 17  4  0  0  0  0
 17 18  1  0  0  0  0
 18 19  1  0  0  0  0
 18 23  1  0  0  0  0
 19 20  1  0  0  0  0
 20 21  1  0  0  0  0
 21 22  1  0  0  0  0
 21 24  1  0  0  0  0
 22 23  1  0  0  0  0
 25 26  4  0  0  0  0
M  STY  1   1 DAT
M  SAL   1  1  15
M  SDT   1 MRV_IMPLICIT_H                                        
M  SDD   1     0.0000    0.0000    DR    ALL  0       0  
M  SED   1 IMPL_H1
M  END
>  <Name_Molregno>
170328

>  <5-HT1A>
7.66

>  <5-HT1B>
6.93

>  <5-HT1D>
6.7

$$$$
172234
  Marvin  02231216192D 0   1.00000     0.00000     0

 27 31  0  0  0  0  0  0  0  0999 V2000
    0.1292    0.6057    0.0000 O   0  0  0  0  0  0  0  0  0
    0.8437    0.1932    0.0000 C   0  0  0  0  0  0  0  0  0
    0.8437   -0.6318    0.0000 C   0  0  0  0  0  0  0  0  0
    1.5581   -1.0443    0.0000 N   0  0  0  0  0  0  0  0  0
    2.2726   -0.6318    0.0000 C   0  0  0  0  0  0  0  0  0
    2.9871   -1.0443    0.0000 C   0  0  0  0  0  0  0  0  0
    2.9871   -1.8693    0.0000 C   0  0  0  0  0  0  0  0  0
    2.2726   -2.2818    0.0000 C   0  0  0  0  0  0  0  0  0
    1.5581   -1.8693    0.0000 C   0  0  0  0  0  0  0  0  0
    3.7015   -2.2818    0.0000 C   0  0  0  0  0  0  0  0  0
    4.4552   -1.9463    0.0000 C   0  0  0  0  0  0  0  0  0
    4.7102   -1.1617    0.0000 C   0  0  0  0  0  0  0  0  0
    5.5171   -0.9901    0.0000 C   0  0  0  0  0  0  0  0  0
    6.0692   -1.6032    0.0000 C   0  0  0  0  0  0  0  0  0
    5.8142   -2.3879    0.0000 N   0  0  0  0  0  0  0  0  0
    5.0073   -2.5594    0.0000 C   0  0  0  0  0  0  0  0  0
    4.5948   -3.2739    0.0000 N   0  0  0  0  0  0  0  0  0
    3.7878   -3.1023    0.0000 C   0  0  0  0  0  0  0  0  0
    0.1292    1.4307    0.0000 C   0  0  0  0  0  0  0  0  0
   -0.5853    1.8432    0.0000 C   0  0  0  0  0  0  0  0  0
   -0.5853    2.6682    0.0000 C   0  0  0  0  0  0  0  0  0
   -1.3699    2.9231    0.0000 N   0  0  0  0  0  0  0  0  0
   -1.8548    2.2557    0.0000 C   0  0  0  0  0  0  0  0  0
   -1.3699    1.5882    0.0000 C   0  0  0  0  0  0  0  0  0
    0.1292    3.0807    0.0000 C   0  0  0  0  0  0  0  0  0
    0.8437    2.6682    0.0000 C   0  0  0  0  0  0  0  0  0
    0.8437    1.8432    0.0000 C   0  0  0  0  0  0  0  0  0
  1  2  1  0  0  0  0
  1 19  1  0  0  0  0
  2  3  1  0  0  0  0
  3  4  1  0  0  0  0
  4  5  1  0  0  0  0
  4  9  1  0  0  0  0
  5  6  1  0  0  0  0
  6  7  1  0  0  0  0
  7  8  2  0  0  0  0
  7 10  1  0  0  0  0
  8  9  1  0  0  0  0
 10 11  4  0  0  0  0
 10 18  4  0  0  0  0
 11 12  4  0  0  0  0
 11 16  4  0  0  0  0
 12 13  4  0  0  0  0
 13 14  4  0  0  0  0
 14 15  4  0  0  0  0
 15 16  4  0  0  0  0
 16 17  4  0  0  0  0
 17 18  4  0  0  0  0
 19 20  4  0  0  0  0
 19 27  4  0  0  0  0
 20 21  4  0  0  0  0
 20 24  4  0  0  0  0
 21 22  4  0  0  0  0
 21 25  4  0  0  0  0
 22 23  4  0  0  0  0
 23 24  4  0  0  0  0
 25 26  4  0  0  0  0
 26 27  4  0  0  0  0
M  STY  2   1 DAT   2 DAT
M  SAL   1  1  17
M  SDT   1 MRV_IMPLICIT_H                                        
M  SDD   1     0.0000    0.0000    DR    ALL  0       0  
M  SED   1 IMPL_H1
M  SAL   2  1  22
M  SDT   2 MRV_IMPLICIT_H                                        
M  SDD   2     0.0000    0.0000    DR    ALL  0       0  
M  SED   2 IMPL_H1
M  END
>  <Name_Molregno>
172234

>  <5-HT1A>
7.96

>  <Alpha-1A>
9

>  <Alpha-1B>
9

>  <Serotonin transporter>
8.82

$$$$
177225
  Marvin  02231216192D 0   1.00000     0.00000     0

 29 32  0  0  0  0  0  0  0  0999 V2000
    0.2230   -0.9337    0.0000 O   0  0  0  0  0  0  0  0  0
    0.9374   -0.5212    0.0000 C   0  0  0  0  0  0  0  0  0
    1.6519   -0.9337    0.0000 C   0  0  0  0  0  0  0  0  0
    1.6519   -1.7587    0.0000 O   0  0  0  0  0  0  0  0  0
    2.3664   -0.5212    0.0000 N   0  0  0  0  0  0  0  0  0
    2.3664    0.3038    0.0000 C   0  0  0  0  0  0  0  0  0
    3.0808    0.7163    0.0000 C   0  0  0  0  0  0  0  0  0
    3.7953    0.3038    0.0000 N   0  0  0  0  0  0  0  0  0
    3.7953   -0.5212    0.0000 C   0  0  0  0  0  0  0  0  0
    3.0808   -0.9337    0.0000 C   0  0  0  0  0  0  0  0  0
    4.5098    0.7163    0.0000 C   0  0  0  0  0  0  0  0  0
    4.5098    1.5413    0.0000 C   0  0  0  0  0  0  0  0  0
    5.2243    1.9538    0.0000 C   0  0  0  0  0  0  0  0  0
    5.9387    1.5413    0.0000 C   0  0  0  0  0  0  0  0  0
    5.9387    0.7163    0.0000 C   0  0  0  0  0  0  0  0  0
    5.2243    0.3038    0.0000 C   0  0  0  0  0  0  0  0  0
    5.2243   -0.5212    0.0000 C   0  0  0  0  0  0  0  0  0
   -0.4915   -0.5212    0.0000 C   0  0  0  0  0  0  0  0  0
   -1.2060   -0.9337    0.0000 C   0  0  0  0  0  0  0  0  0
   -1.9205   -0.5212    0.0000 C   0  0  0  0  0  0  0  0  0
   -1.9205    0.3038    0.0000 C   0  0  0  0  0  0  0  0  0
   -2.7051    0.5588    0.0000 N   0  0  0  0  0  0  0  0  0
   -3.1900   -0.1087    0.0000 C   0  0  0  0  0  0  0  0  0
   -2.7051   -0.7761    0.0000 C   0  0  0  0  0  0  0  0  0
   -2.9600   -1.5607    0.0000 C   0  0  0  0  0  0  0  0  0
   -3.7670   -1.7323    0.0000 C   0  0  0  0  0  0  0  0  0
   -4.0219   -2.5169    0.0000 N   0  0  0  0  0  0  0  0  0
   -1.2060    0.7163    0.0000 C   0  0  0  0  0  0  0  0  0
   -0.4915    0.3038    0.0000 C   0  0  0  0  0  0  0  0  0
  1  2  1  0  0  0  0
  1 18  1  0  0  0  0
  2  3  1  0  0  0  0
  3  4  2  0  0  0  0
  3  5  1  0  0  0  0
  5  6  1  0  0  0  0
  5 10  1  0  0  0  0
  6  7  1  0  0  0  0
  7  8  1  0  0  0  0
  8  9  1  0  0  0  0
  8 11  1  0  0  0  0
  9 10  1  0  0  0  0
 11 12  4  0  0  0  0
 11 16  4  0  0  0  0
 12 13  4  0  0  0  0
 13 14  4  0  0  0  0
 14 15  4  0  0  0  0
 15 16  4  0  0  0  0
 16 17  1  0  0  0  0
 18 19  4  0  0  0  0
 18 29  4  0  0  0  0
 19 20  4  0  0  0  0
 20 21  4  0  0  0  0
 20 24  4  0  0  0  0
 21 22  4  0  0  0  0
 21 28  4  0  0  0  0
 22 23  4  0  0  0  0
 23 24  4  0  0  0  0
 24 25  1  0  0  0  0
 25 26  1  0  0  0  0
 26 27  1  0  0  0  0
 28 29  4  0  0  0  0
M  STY  1   1 DAT
M  SAL   1  1  22
M  SDT   1 MRV_IMPLICIT_H                                        
M  SDD   1     0.0000    0.0000    DR    ALL  0       0  
M  SED   1 IMPL_H1
M  END
>  <Name_Molregno>
177225

>  <5-HT1A>
8.1

>  <5-HT1B>
9.1

>  <5-HT1D>
8.7

$$$$
177267
  Marvin  02231216192D 0   1.00000     0.00000     0

 30 33  0  0  0  0  0  0  0  0999 V2000
    3.7370    3.7223    0.0000 Cl  0  0  0  0  0  0  0  0  0
    3.7370    2.8973    0.0000 C   0  0  0  0  0  0  0  0  0
    4.4515    2.4848    0.0000 C   0  0  0  0  0  0  0  0  0
    4.4515    1.6598    0.0000 C   0  0  0  0  0  0  0  0  0
    3.7370    1.2473    0.0000 C   0  0  0  0  0  0  0  0  0
    3.7370    0.4223    0.0000 O   0  0  0  0  0  0  0  0  0
    4.4515    0.0098    0.0000 C   0  0  0  0  0  0  0  0  0
    5.1659    0.4223    0.0000 O   0  0  0  0  0  0  0  0  0
    4.4515   -0.8152    0.0000 N   0  0  0  0  0  0  0  0  0
    5.1659   -1.2277    0.0000 C   0  0  0  0  0  0  0  0  0
    5.1659   -2.0527    0.0000 C   0  0  0  0  0  0  0  0  0
    4.4515   -2.4652    0.0000 N   0  0  0  0  0  0  0  0  0
    3.7370   -2.0527    0.0000 C   0  0  0  0  0  0  0  0  0
    3.7370   -1.2277    0.0000 C   0  0  0  0  0  0  0  0  0
    4.4515   -3.2902    0.0000 C   0  0  0  0  0  0  0  0  0
    5.1659   -3.7027    0.0000 C   0  0  0  0  0  0  0  0  0
    5.1659   -4.5277    0.0000 C   0  0  0  0  0  0  0  0  0
    4.4515   -4.9402    0.0000 C   0  0  0  0  0  0  0  0  0
    3.7370   -4.5277    0.0000 C   0  0  0  0  0  0  0  0  0
    3.7370   -3.7027    0.0000 C   0  0  0  0  0  0  0  0  0
    3.0225   -3.2902    0.0000 C   0  0  0  0  0  0  0  0  0
    3.0225    1.6598    0.0000 C   0  0  0  0  0  0  0  0  0
    3.0225    2.4848    0.0000 C   0  0  0  0  0  0  0  0  0
    2.3080    2.8973    0.0000 N   0  0  0  0  0  0  0  0  0
    1.5936    2.4848    0.0000 C   0  0  0  0  0  0  0  0  0
    0.8791    2.8973    0.0000 C   0  0  0  0  0  0  0  0  0
    0.8791    3.7223    0.0000 N   0  0  0  0  0  0  0  0  0
    1.5936    4.1348    0.0000 C   0  0  0  0  0  0  0  0  0
    2.3080    3.7223    0.0000 C   0  0  0  0  0  0  0  0  0
    0.1646    4.1348    0.0000 C   0  0  0  0  0  0  0  0  0
  1  2  1  0  0  0  0
  2  3  4  0  0  0  0
  2 23  4  0  0  0  0
  3  4  4  0  0  0  0
  4  5  4  0  0  0  0
  5  6  1  0  0  0  0
  5 22  4  0  0  0  0
  6  7  1  0  0  0  0
  7  8  2  0  0  0  0
  7  9  1  0  0  0  0
  9 10  1  0  0  0  0
  9 14  1  0  0  0  0
 10 11  1  0  0  0  0
 11 12  1  0  0  0  0
 12 13  1  0  0  0  0
 12 15  1  0  0  0  0
 13 14  1  0  0  0  0
 15 16  4  0  0  0  0
 15 20  4  0  0  0  0
 16 17  4  0  0  0  0
 17 18  4  0  0  0  0
 18 19  4  0  0  0  0
 19 20  4  0  0  0  0
 20 21  1  0  0  0  0
 22 23  4  0  0  0  0
 23 24  1  0  0  0  0
 24 25  1  0  0  0  0
 24 29  1  0  0  0  0
 25 26  1  0  0  0  0
 26 27  1  0  0  0  0
 27 28  1  0  0  0  0
 27 30  1  0  0  0  0
 28 29  1  0  0  0  0
M  END
>  <Name_Molregno>
177267

>  <5-HT1A>
6

>  <5-HT1B>
6.82

>  <5-HT1D>
8.44

$$$$
177307
  Marvin  02231216192D 0   1.00000     0.00000     0

 31 34  0  0  0  0  0  0  0  0999 V2000
    3.6257    3.5923    0.0000 O   0  0  0  0  0  0  0  0  0
    2.9112    4.0048    0.0000 C   0  0  0  0  0  0  0  0  0
    3.6257    2.7673    0.0000 C   0  0  0  0  0  0  0  0  0
    4.3402    2.3548    0.0000 C   0  0  0  0  0  0  0  0  0
    4.3402    1.5298    0.0000 C   0  0  0  0  0  0  0  0  0
    3.6257    1.1173    0.0000 C   0  0  0  0  0  0  0  0  0
    3.6257    0.2923    0.0000 N   0  0  0  0  0  0  0  0  0
    4.3402   -0.1202    0.0000 C   0  0  0  0  0  0  0  0  0
    5.0547    0.2923    0.0000 O   0  0  0  0  0  0  0  0  0
    4.3402   -0.9452    0.0000 N   0  0  0  0  0  0  0  0  0
    5.0547   -1.3577    0.0000 C   0  0  0  0  0  0  0  0  0
    5.0547   -2.1827    0.0000 C   0  0  0  0  0  0  0  0  0
    4.3402   -2.5952    0.0000 N   0  0  0  0  0  0  0  0  0
    3.6257   -2.1827    0.0000 C   0  0  0  0  0  0  0  0  0
    3.6257   -1.3577    0.0000 C   0  0  0  0  0  0  0  0  0
    4.3402   -3.4202    0.0000 C   0  0  0  0  0  0  0  0  0
    5.0547   -3.8327    0.0000 C   0  0  0  0  0  0  0  0  0
    5.0547   -4.6577    0.0000 C   0  0  0  0  0  0  0  0  0
    4.3402   -5.0702    0.0000 C   0  0  0  0  0  0  0  0  0
    3.6257   -4.6577    0.0000 C   0  0  0  0  0  0  0  0  0
    3.6257   -3.8327    0.0000 C   0  0  0  0  0  0  0  0  0
    2.9112   -3.4202    0.0000 C   0  0  0  0  0  0  0  0  0
    2.9112    1.5298    0.0000 C   0  0  0  0  0  0  0  0  0
    2.9112    2.3548    0.0000 C   0  0  0  0  0  0  0  0  0
    2.1968    2.7673    0.0000 N   0  0  0  0  0  0  0  0  0
    1.4823    2.3548    0.0000 C   0  0  0  0  0  0  0  0  0
    0.7678    2.7673    0.0000 C   0  0  0  0  0  0  0  0  0
    0.7678    3.5923    0.0000 N   0  0  0  0  0  0  0  0  0
    1.4823    4.0048    0.0000 C   0  0  0  0  0  0  0  0  0
    2.1968    3.5923    0.0000 C   0  0  0  0  0  0  0  0  0
    0.0534    4.0048    0.0000 C   0  0  0  0  0  0  0  0  0
  1  2  1  0  0  0  0
  1  3  1  0  0  0  0
  3  4  4  0  0  0  0
  3 24  4  0  0  0  0
  4  5  4  0  0  0  0
  5  6  4  0  0  0  0
  6  7  1  0  0  0  0
  6 23  4  0  0  0  0
  7  8  1  0  0  0  0
  8  9  2  0  0  0  0
  8 10  1  0  0  0  0
 10 11  1  0  0  0  0
 10 15  1  0  0  0  0
 11 12  1  0  0  0  0
 12 13  1  0  0  0  0
 13 14  1  0  0  0  0
 13 16  1  0  0  0  0
 14 15  1  0  0  0  0
 16 17  4  0  0  0  0
 16 21  4  0  0  0  0
 17 18  4  0  0  0  0
 18 19  4  0  0  0  0
 19 20  4  0  0  0  0
 20 21  4  0  0  0  0
 21 22  1  0  0  0  0
 23 24  4  0  0  0  0
 24 25  1  0  0  0  0
 25 26  1  0  0  0  0
 25 30  1  0  0  0  0
 26 27  1  0  0  0  0
 27 28  1  0  0  0  0
 28 29  1  0  0  0  0
 28 31  1  0  0  0  0
 29 30  1  0  0  0  0
M  END
>  <Name_Molregno>
177307

>  <5-HT1A>
6.41

>  <5-HT1B>
8.64

>  <5-HT1D>
7.32

$$$$
177339
  Marvin  02231216192D 0   1.00000     0.00000     0

 30 33  0  0  0  0  0  0  0  0999 V2000
    3.4944    3.5531    0.0000 O   0  0  0  0  0  0  0  0  0
    2.7800    3.9656    0.0000 C   0  0  0  0  0  0  0  0  0
    3.4944    2.7281    0.0000 C   0  0  0  0  0  0  0  0  0
    4.2089    2.3156    0.0000 C   0  0  0  0  0  0  0  0  0
    4.2089    1.4906    0.0000 C   0  0  0  0  0  0  0  0  0
    3.4944    1.0781    0.0000 C   0  0  0  0  0  0  0  0  0
    3.4944    0.2531    0.0000 N   0  0  0  0  0  0  0  0  0
    4.2089   -0.1594    0.0000 C   0  0  0  0  0  0  0  0  0
    4.9234    0.2531    0.0000 O   0  0  0  0  0  0  0  0  0
    4.2089   -0.9844    0.0000 N   0  0  0  0  0  0  0  0  0
    4.9234   -1.3969    0.0000 C   0  0  0  0  0  0  0  0  0
    4.9234   -2.2219    0.0000 C   0  0  0  0  0  0  0  0  0
    4.2089   -2.6344    0.0000 N   0  0  0  0  0  0  0  0  0
    3.4944   -2.2219    0.0000 C   0  0  0  0  0  0  0  0  0
    3.4944   -1.3969    0.0000 C   0  0  0  0  0  0  0  0  0
    4.2089   -3.4594    0.0000 C   0  0  0  0  0  0  0  0  0
    4.9234   -3.8719    0.0000 C   0  0  0  0  0  0  0  0  0
    4.9234   -4.6969    0.0000 C   0  0  0  0  0  0  0  0  0
    4.2089   -5.1094    0.0000 C   0  0  0  0  0  0  0  0  0
    3.4944   -4.6969    0.0000 C   0  0  0  0  0  0  0  0  0
    3.4944   -3.8719    0.0000 C   0  0  0  0  0  0  0  0  0
    2.7800    1.4906    0.0000 C   0  0  0  0  0  0  0  0  0
    2.7800    2.3156    0.0000 C   0  0  0  0  0  0  0  0  0
    2.0655    2.7281    0.0000 N   0  0  0  0  0  0  0  0  0
    1.3510    2.3156    0.0000 C   0  0  0  0  0  0  0  0  0
    0.6366    2.7281    0.0000 C   0  0  0  0  0  0  0  0  0
    0.6366    3.5531    0.0000 N   0  0  0  0  0  0  0  0  0
    1.3510    3.9656    0.0000 C   0  0  0  0  0  0  0  0  0
    2.0655    3.5531    0.0000 C   0  0  0  0  0  0  0  0  0
   -0.0779    3.9656    0.0000 C   0  0  0  0  0  0  0  0  0
  1  2  1  0  0  0  0
  1  3  1  0  0  0  0
  3  4  4  0  0  0  0
  3 23  4  0  0  0  0
  4  5  4  0  0  0  0
  5  6  4  0  0  0  0
  6  7  1  0  0  0  0
  6 22  4  0  0  0  0
  7  8  1  0  0  0  0
  8  9  2  0  0  0  0
  8 10  1  0  0  0  0
 10 11  1  0  0  0  0
 10 15  1  0  0  0  0
 11 12  1  0  0  0  0
 12 13  1  0  0  0  0
 13 14  1  0  0  0  0
 13 16  1  0  0  0  0
 14 15  1  0  0  0  0
 16 17  4  0  0  0  0
 16 21  4  0  0  0  0
 17 18  4  0  0  0  0
 18 19  4  0  0  0  0
 19 20  4  0  0  0  0
 20 21  4  0  0  0  0
 22 23  4  0  0  0  0
 23 24  1  0  0  0  0
 24 25  1  0  0  0  0
 24 29  1  0  0  0  0
 25 26  1  0  0  0  0
 26 27  1  0  0  0  0
 27 28  1  0  0  0  0
 27 30  1  0  0  0  0
 28 29  1  0  0  0  0
M  END
>  <Name_Molregno>
177339

>  <5-HT1A>
6.35

>  <5-HT1B>
7.74

>  <5-HT1D>
6.47

$$$$
177347
  Marvin  02231216192D 0   1.00000     0.00000     0

 31 34  0  0  0  0  0  0  0  0999 V2000
    2.4946    4.4361    0.0000 Cl  0  0  0  0  0  0  0  0  0
    2.4946    3.6111    0.0000 C   0  0  0  0  0  0  0  0  0
    3.2091    3.1986    0.0000 C   0  0  0  0  0  0  0  0  0
    3.2091    2.3736    0.0000 C   0  0  0  0  0  0  0  0  0
    2.4946    1.9611    0.0000 C   0  0  0  0  0  0  0  0  0
    2.4946    1.1361    0.0000 O   0  0  0  0  0  0  0  0  0
    3.2091    0.7236    0.0000 C   0  0  0  0  0  0  0  0  0
    3.2091   -0.1014    0.0000 C   0  0  0  0  0  0  0  0  0
    2.4946   -0.5139    0.0000 O   0  0  0  0  0  0  0  0  0
    3.9236   -0.5139    0.0000 N   0  0  0  0  0  0  0  0  0
    4.6380   -0.1014    0.0000 C   0  0  0  0  0  0  0  0  0
    5.3525   -0.5139    0.0000 C   0  0  0  0  0  0  0  0  0
    5.3525   -1.3389    0.0000 N   0  0  0  0  0  0  0  0  0
    4.6380   -1.7514    0.0000 C   0  0  0  0  0  0  0  0  0
    3.9236   -1.3389    0.0000 C   0  0  0  0  0  0  0  0  0
    6.0670   -1.7514    0.0000 C   0  0  0  0  0  0  0  0  0
    6.7814   -1.3389    0.0000 C   0  0  0  0  0  0  0  0  0
    7.4959   -1.7514    0.0000 C   0  0  0  0  0  0  0  0  0
    7.4959   -2.5764    0.0000 C   0  0  0  0  0  0  0  0  0
    6.7814   -2.9889    0.0000 C   0  0  0  0  0  0  0  0  0
    6.0670   -2.5764    0.0000 C   0  0  0  0  0  0  0  0  0
    5.3525   -2.9889    0.0000 C   0  0  0  0  0  0  0  0  0
    1.7801    2.3736    0.0000 C   0  0  0  0  0  0  0  0  0
    1.7801    3.1986    0.0000 C   0  0  0  0  0  0  0  0  0
    1.0657    3.6111    0.0000 N   0  0  0  0  0  0  0  0  0
    0.3512    3.1986    0.0000 C   0  0  0  0  0  0  0  0  0
   -0.3633    3.6111    0.0000 C   0  0  0  0  0  0  0  0  0
   -0.3633    4.4361    0.0000 N   0  0  0  0  0  0  0  0  0
    0.3512    4.8486    0.0000 C   0  0  0  0  0  0  0  0  0
    1.0657    4.4361    0.0000 C   0  0  0  0  0  0  0  0  0
   -1.0777    4.8486    0.0000 C   0  0  0  0  0  0  0  0  0
  1  2  1  0  0  0  0
  2  3  4  0  0  0  0
  2 24  4  0  0  0  0
  3  4  4  0  0  0  0
  4  5  4  0  0  0  0
  5  6  1  0  0  0  0
  5 23  4  0  0  0  0
  6  7  1  0  0  0  0
  7  8  1  0  0  0  0
  8  9  2  0  0  0  0
  8 10  1  0  0  0  0
 10 11  1  0  0  0  0
 10 15  1  0  0  0  0
 11 12  1  0  0  0  0
 12 13  1  0  0  0  0
 13 14  1  0  0  0  0
 13 16  1  0  0  0  0
 14 15  1  0  0  0  0
 16 17  4  0  0  0  0
 16 21  4  0  0  0  0
 17 18  4  0  0  0  0
 18 19  4  0  0  0  0
 19 20  4  0  0  0  0
 20 21  4  0  0  0  0
 21 22  1  0  0  0  0
 23 24  4  0  0  0  0
 24 25  1  0  0  0  0
 25 26  1  0  0  0  0
 25 30  1  0  0  0  0
 26 27  1  0  0  0  0
 27 28  1  0  0  0  0
 28 29  1  0  0  0  0
 28 31  1  0  0  0  0
 29 30  1  0  0  0  0
M  END
>  <Name_Molregno>
177347

>  <5-HT1A>
6

>  <5-HT1B>
7.96

>  <5-HT1D>
6.62

$$$$
177530
  Marvin  02231216192D 0   1.00000     0.00000     0

 32 35  0  0  0  0  0  0  0  0999 V2000
   -4.0497    4.2484    0.0000 O   0  0  0  0  0  0  0  0  0
   -4.7641    4.6609    0.0000 C   0  0  0  0  0  0  0  0  0
   -4.0497    3.4234    0.0000 C   0  0  0  0  0  0  0  0  0
   -3.3352    3.0109    0.0000 C   0  0  0  0  0  0  0  0  0
   -3.3352    2.1859    0.0000 C   0  0  0  0  0  0  0  0  0
   -4.0497    1.7734    0.0000 C   0  0  0  0  0  0  0  0  0
   -4.0497    0.9484    0.0000 N   0  0  0  0  0  0  0  0  0
   -3.3352    0.5359    0.0000 C   0  0  0  0  0  0  0  0  0
   -3.3352   -0.2891    0.0000 C   0  0  0  0  0  0  0  0  0
   -4.0497   -0.7016    0.0000 O   0  0  0  0  0  0  0  0  0
   -2.6207   -0.7016    0.0000 N   0  0  0  0  0  0  0  0  0
   -1.9062   -0.2891    0.0000 C   0  0  0  0  0  0  0  0  0
   -1.1918   -0.7016    0.0000 C   0  0  0  0  0  0  0  0  0
   -1.1918   -1.5266    0.0000 N   0  0  0  0  0  0  0  0  0
   -1.9062   -1.9391    0.0000 C   0  0  0  0  0  0  0  0  0
   -2.6207   -1.5266    0.0000 C   0  0  0  0  0  0  0  0  0
   -0.4773   -1.9391    0.0000 C   0  0  0  0  0  0  0  0  0
    0.2372   -1.5266    0.0000 C   0  0  0  0  0  0  0  0  0
    0.9516   -1.9391    0.0000 C   0  0  0  0  0  0  0  0  0
    0.9516   -2.7641    0.0000 C   0  0  0  0  0  0  0  0  0
    0.2372   -3.1766    0.0000 C   0  0  0  0  0  0  0  0  0
   -0.4773   -2.7641    0.0000 C   0  0  0  0  0  0  0  0  0
   -1.1918   -3.1766    0.0000 C   0  0  0  0  0  0  0  0  0
   -4.7641    2.1859    0.0000 C   0  0  0  0  0  0  0  0  0
   -4.7641    3.0109    0.0000 C   0  0  0  0  0  0  0  0  0
   -5.4786    3.4234    0.0000 N   0  0  0  0  0  0  0  0  0
   -6.1931    3.0109    0.0000 C   0  0  0  0  0  0  0  0  0
   -6.9075    3.4234    0.0000 C   0  0  0  0  0  0  0  0  0
   -6.9075    4.2484    0.0000 N   0  0  0  0  0  0  0  0  0
   -6.1931    4.6609    0.0000 C   0  0  0  0  0  0  0  0  0
   -5.4786    4.2484    0.0000 C   0  0  0  0  0  0  0  0  0
   -7.6220    4.6609    0.0000 C   0  0  0  0  0  0  0  0  0
  1  2  1  0  0  0  0
  1  3  1  0  0  0  0
  3  4  4  0  0  0  0
  3 25  4  0  0  0  0
  4  5  4  0  0  0  0
  5  6  4  0  0  0  0
  6  7  1  0  0  0  0
  6 24  4  0  0  0  0
  7  8  1  0  0  0  0
  8  9  1  0  0  0  0
  9 10  2  0  0  0  0
  9 11  1  0  0  0  0
 11 12  1  0  0  0  0
 11 16  1  0  0  0  0
 12 13  1  0  0  0  0
 13 14  1  0  0  0  0
 14 15  1  0  0  0  0
 14 17  1  0  0  0  0
 15 16  1  0  0  0  0
 17 18  4  0  0  0  0
 17 22  4  0  0  0  0
 18 19  4  0  0  0  0
 19 20  4  0  0  0  0
 20 21  4  0  0  0  0
 21 22  4  0  0  0  0
 22 23  1  0  0  0  0
 24 25  4  0  0  0  0
 25 26  1  0  0  0  0
 26 27  1  0  0  0  0
 26 31  1  0  0  0  0
 27 28  1  0  0  0  0
 28 29  1  0  0  0  0
 29 30  1  0  0  0  0
 29 32  1  0  0  0  0
 30 31  1  0  0  0  0
M  END
>  <Name_Molregno>
177530

>  <5-HT1A>
5.52

>  <5-HT1B>
7.4

>  <5-HT1D>
4.38

$$$$
177565
  Marvin  02231216192D 0   1.00000     0.00000     0

 32 35  0  0  0  0  0  0  0  0999 V2000
    3.7794    3.7364    0.0000 O   0  0  0  0  0  0  0  0  0
    3.0649    4.1489    0.0000 C   0  0  0  0  0  0  0  0  0
    3.7794    2.9114    0.0000 C   0  0  0  0  0  0  0  0  0
    4.4939    2.4989    0.0000 C   0  0  0  0  0  0  0  0  0
    4.4939    1.6739    0.0000 C   0  0  0  0  0  0  0  0  0
    3.7794    1.2614    0.0000 C   0  0  0  0  0  0  0  0  0
    3.7794    0.4364    0.0000 N   0  0  0  0  0  0  0  0  0
    4.4939    0.0239    0.0000 C   0  0  0  0  0  0  0  0  0
    5.2083    0.4364    0.0000 O   0  0  0  0  0  0  0  0  0
    4.4939   -0.8011    0.0000 N   0  0  0  0  0  0  0  0  0
    5.2083   -1.2136    0.0000 C   0  0  0  0  0  0  0  0  0
    5.2083   -2.0386    0.0000 C   0  0  0  0  0  0  0  0  0
    4.4939   -2.4511    0.0000 N   0  0  0  0  0  0  0  0  0
    3.7794   -2.0386    0.0000 C   0  0  0  0  0  0  0  0  0
    3.7794   -1.2136    0.0000 C   0  0  0  0  0  0  0  0  0
    4.4939   -3.2761    0.0000 C   0  0  0  0  0  0  0  0  0
    5.2083   -3.6886    0.0000 C   0  0  0  0  0  0  0  0  0
    5.2083   -4.5136    0.0000 C   0  0  0  0  0  0  0  0  0
    4.4939   -4.9261    0.0000 C   0  0  0  0  0  0  0  0  0
    3.7794   -4.5136    0.0000 C   0  0  0  0  0  0  0  0  0
    3.7794   -3.6886    0.0000 C   0  0  0  0  0  0  0  0  0
    3.0649   -3.2761    0.0000 C   0  0  0  0  0  0  0  0  0
    4.4939   -5.7511    0.0000 C   0  0  0  0  0  0  0  0  0
    3.0649    1.6739    0.0000 C   0  0  0  0  0  0  0  0  0
    3.0649    2.4989    0.0000 C   0  0  0  0  0  0  0  0  0
    2.3505    2.9114    0.0000 N   0  0  0  0  0  0  0  0  0
    1.6360    2.4989    0.0000 C   0  0  0  0  0  0  0  0  0
    0.9215    2.9114    0.0000 C   0  0  0  0  0  0  0  0  0
    0.9215    3.7364    0.0000 N   0  0  0  0  0  0  0  0  0
    1.6360    4.1489    0.0000 C   0  0  0  0  0  0  0  0  0
    2.3505    3.7364    0.0000 C   0  0  0  0  0  0  0  0  0
    0.2070    4.1489    0.0000 C   0  0  0  0  0  0  0  0  0
  1  2  1  0  0  0  0
  1  3  1  0  0  0  0
  3  4  4  0  0  0  0
  3 25  4  0  0  0  0
  4  5  4  0  0  0  0
  5  6  4  0  0  0  0
  6  7  1  0  0  0  0
  6 24  4  0  0  0  0
  7  8  1  0  0  0  0
  8  9  2  0  0  0  0
  8 10  1  0  0  0  0
 10 11  1  0  0  0  0
 10 15  1  0  0  0  0
 11 12  1  0  0  0  0
 12 13  1  0  0  0  0
 13 14  1  0  0  0  0
 13 16  1  0  0  0  0
 14 15  1  0  0  0  0
 16 17  4  0  0  0  0
 16 21  4  0  0  0  0
 17 18  4  0  0  0  0
 18 19  4  0  0  0  0
 19 20  4  0  0  0  0
 19 23  1  0  0  0  0
 20 21  4  0  0  0  0
 21 22  1  0  0  0  0
 24 25  4  0  0  0  0
 25 26  1  0  0  0  0
 26 27  1  0  0  0  0
 26 31  1  0  0  0  0
 27 28  1  0  0  0  0
 28 29  1  0  0  0  0
 29 30  1  0  0  0  0
 29 32  1  0  0  0  0
 30 31  1  0  0  0  0
M  END
>  <Name_Molregno>
177565

>  <5-HT1A>
6.24

>  <5-HT1B>
8.74

>  <5-HT1D>
7.06

$$$$
178068
  Marvin  02231216192D 0   1.00000     0.00000     0

 32 35  0  0  0  0  0  0  0  0999 V2000
    3.7835    3.5848    0.0000 O   0  0  0  0  0  0  0  0  0
    3.0690    3.9973    0.0000 C   0  0  0  0  0  0  0  0  0
    3.7835    2.7598    0.0000 C   0  0  0  0  0  0  0  0  0
    4.4980    2.3473    0.0000 C   0  0  0  0  0  0  0  0  0
    4.4980    1.5223    0.0000 C   0  0  0  0  0  0  0  0  0
    3.7835    1.1098    0.0000 C   0  0  0  0  0  0  0  0  0
    3.7835    0.2848    0.0000 N   0  0  0  0  0  0  0  0  0
    4.4980   -0.1277    0.0000 C   0  0  0  0  0  0  0  0  0
    5.2124    0.2848    0.0000 O   0  0  0  0  0  0  0  0  0
    4.4980   -0.9527    0.0000 N   0  0  0  0  0  0  0  0  0
    5.2124   -1.3652    0.0000 C   0  0  0  0  0  0  0  0  0
    5.2124   -2.1902    0.0000 C   0  0  0  0  0  0  0  0  0
    4.4980   -2.6027    0.0000 N   0  0  0  0  0  0  0  0  0
    3.7835   -2.1902    0.0000 C   0  0  0  0  0  0  0  0  0
    3.7835   -1.3652    0.0000 C   0  0  0  0  0  0  0  0  0
    4.4980   -3.4277    0.0000 C   0  0  0  0  0  0  0  0  0
    5.2124   -3.8402    0.0000 C   0  0  0  0  0  0  0  0  0
    5.2124   -4.6652    0.0000 C   0  0  0  0  0  0  0  0  0
    4.4980   -5.0777    0.0000 C   0  0  0  0  0  0  0  0  0
    3.7835   -4.6652    0.0000 C   0  0  0  0  0  0  0  0  0
    3.7835   -3.8402    0.0000 C   0  0  0  0  0  0  0  0  0
    3.0690   -3.4277    0.0000 O   0  0  0  0  0  0  0  0  0
    2.3546   -3.8402    0.0000 C   0  0  0  0  0  0  0  0  0
    3.0690    1.5223    0.0000 C   0  0  0  0  0  0  0  0  0
    3.0690    2.3473    0.0000 C   0  0  0  0  0  0  0  0  0
    2.3546    2.7598    0.0000 N   0  0  0  0  0  0  0  0  0
    1.6401    2.3473    0.0000 C   0  0  0  0  0  0  0  0  0
    0.9256    2.7598    0.0000 C   0  0  0  0  0  0  0  0  0
    0.9256    3.5848    0.0000 N   0  0  0  0  0  0  0  0  0
    1.6401    3.9973    0.0000 C   0  0  0  0  0  0  0  0  0
    2.3546    3.5848    0.0000 C   0  0  0  0  0  0  0  0  0
    0.2111    3.9973    0.0000 C   0  0  0  0  0  0  0  0  0
  1  2  1  0  0  0  0
  1  3  1  0  0  0  0
  3  4  4  0  0  0  0
  3 25  4  0  0  0  0
  4  5  4  0  0  0  0
  5  6  4  0  0  0  0
  6  7  1  0  0  0  0
  6 24  4  0  0  0  0
  7  8  1  0  0  0  0
  8  9  2  0  0  0  0
  8 10  1  0  0  0  0
 10 11  1  0  0  0  0
 10 15  1  0  0  0  0
 11 12  1  0  0  0  0
 12 13  1  0  0  0  0
 13 14  1  0  0  0  0
 13 16  1  0  0  0  0
 14 15  1  0  0  0  0
 16 17  4  0  0  0  0
 16 21  4  0  0  0  0
 17 18  4  0  0  0  0
 18 19  4  0  0  0  0
 19 20  4  0  0  0  0
 20 21  4  0  0  0  0
 21 22  1  0  0  0  0
 22 23  1  0  0  0  0
 24 25  4  0  0  0  0
 25 26  1  0  0  0  0
 26 27  1  0  0  0  0
 26 31  1  0  0  0  0
 27 28  1  0  0  0  0
 28 29  1  0  0  0  0
 29 30  1  0  0  0  0
 29 32  1  0  0  0  0
 30 31  1  0  0  0  0
M  END
>  <Name_Molregno>
178068

>  <5-HT1A>
6.17

>  <5-HT1B>
8.44

>  <5-HT1D>
7.02

>  <5-HT2A>
5.17

>  <5-HT2C>
5.71

>  <5-HT6>
5.62

>  <5-HT7>
5.85

>  <DOPAMINE D1>
5

>  <DOPAMINE D2>
5

>  <DOPAMINE D3>
5

>  <DOPAMINE D4>
5

>  <DOPAMINE D5>
5

>  <HISTAMINE H1>
5

>  <Muscarinic acetylcholine receptor M1>
5

>  <Muscarinic acetylcholine receptor M2>
5

>  <Muscarinic acetylcholine receptor M3>
5

>  <Muscarinic acetylcholine receptor M4>
5

>  <Muscarinic acetylcholine receptor M5>
5

$$$$
178086
  Marvin  02231216192D 0   1.00000     0.00000     0

 32 35  0  0  0  0  0  0  0  0999 V2000
    3.6590    3.7166    0.0000 O   0  0  0  0  0  0  0  0  0
    2.9445    4.1291    0.0000 C   0  0  0  0  0  0  0  0  0
    3.6590    2.8916    0.0000 C   0  0  0  0  0  0  0  0  0
    4.3734    2.4791    0.0000 C   0  0  0  0  0  0  0  0  0
    4.3734    1.6541    0.0000 C   0  0  0  0  0  0  0  0  0
    3.6590    1.2416    0.0000 C   0  0  0  0  0  0  0  0  0
    3.6590    0.4166    0.0000 N   0  0  0  0  0  0  0  0  0
    4.3734    0.0041    0.0000 C   0  0  0  0  0  0  0  0  0
    5.0879    0.4166    0.0000 O   0  0  0  0  0  0  0  0  0
    4.3734   -0.8209    0.0000 N   0  0  0  0  0  0  0  0  0
    5.0879   -1.2334    0.0000 C   0  0  0  0  0  0  0  0  0
    5.0879   -2.0584    0.0000 C   0  0  0  0  0  0  0  0  0
    4.3734   -2.4709    0.0000 N   0  0  0  0  0  0  0  0  0
    3.6590   -2.0584    0.0000 C   0  0  0  0  0  0  0  0  0
    3.6590   -1.2334    0.0000 C   0  0  0  0  0  0  0  0  0
    4.3734   -3.2959    0.0000 C   0  0  0  0  0  0  0  0  0
    5.0879   -3.7084    0.0000 C   0  0  0  0  0  0  0  0  0
    5.0879   -4.5334    0.0000 C   0  0  0  0  0  0  0  0  0
    4.3734   -4.9459    0.0000 C   0  0  0  0  0  0  0  0  0
    3.6590   -4.5334    0.0000 C   0  0  0  0  0  0  0  0  0
    3.6590   -3.7084    0.0000 C   0  0  0  0  0  0  0  0  0
    2.9445   -3.2959    0.0000 C   0  0  0  0  0  0  0  0  0
    5.8024   -3.2959    0.0000 C   0  0  0  0  0  0  0  0  0
    2.9445    1.6541    0.0000 C   0  0  0  0  0  0  0  0  0
    2.9445    2.4791    0.0000 C   0  0  0  0  0  0  0  0  0
    2.2300    2.8916    0.0000 N   0  0  0  0  0  0  0  0  0
    1.5155    2.4791    0.0000 C   0  0  0  0  0  0  0  0  0
    0.8011    2.8916    0.0000 C   0  0  0  0  0  0  0  0  0
    0.8011    3.7166    0.0000 N   0  0  0  0  0  0  0  0  0
    1.5155    4.1291    0.0000 C   0  0  0  0  0  0  0  0  0
    2.2300    3.7166    0.0000 C   0  0  0  0  0  0  0  0  0
    0.0866    4.1291    0.0000 C   0  0  0  0  0  0  0  0  0
  1  2  1  0  0  0  0
  1  3  1  0  0  0  0
  3  4  4  0  0  0  0
  3 25  4  0  0  0  0
  4  5  4  0  0  0  0
  5  6  4  0  0  0  0
  6  7  1  0  0  0  0
  6 24  4  0  0  0  0
  7  8  1  0  0  0  0
  8  9  2  0  0  0  0
  8 10  1  0  0  0  0
 10 11  1  0  0  0  0
 10 15  1  0  0  0  0
 11 12  1  0  0  0  0
 12 13  1  0  0  0  0
 13 14  1  0  0  0  0
 13 16  1  0  0  0  0
 14 15  1  0  0  0  0
 16 17  4  0  0  0  0
 16 21  4  0  0  0  0
 17 18  4  0  0  0  0
 17 23  1  0  0  0  0
 18 19  4  0  0  0  0
 19 20  4  0  0  0  0
 20 21  4  0  0  0  0
 21 22  1  0  0  0  0
 24 25  4  0  0  0  0
 25 26  1  0  0  0  0
 26 27  1  0  0  0  0
 26 31  1  0  0  0  0
 27 28  1  0  0  0  0
 28 29  1  0  0  0  0
 29 30  1  0  0  0  0
 29 32  1  0  0  0  0
 30 31  1  0  0  0  0
M  END
>  <Name_Molregno>
178086

>  <5-HT1A>
6.41

>  <5-HT1B>
8.89

>  <5-HT1D>
7.43

$$$$
178087
  Marvin  02231216192D 0   1.00000     0.00000     0

 34 38  0  0  0  0  0  0  0  0999 V2000
    3.6874    3.7289    0.0000 O   0  0  0  0  0  0  0  0  0
    2.9729    4.1414    0.0000 C   0  0  0  0  0  0  0  0  0
    3.6874    2.9039    0.0000 C   0  0  0  0  0  0  0  0  0
    4.4018    2.4914    0.0000 C   0  0  0  0  0  0  0  0  0
    4.4018    1.6664    0.0000 C   0  0  0  0  0  0  0  0  0
    3.6874    1.2539    0.0000 C   0  0  0  0  0  0  0  0  0
    3.6874    0.4289    0.0000 N   0  0  0  0  0  0  0  0  0
    4.4018    0.0164    0.0000 C   0  0  0  0  0  0  0  0  0
    5.1163    0.4289    0.0000 O   0  0  0  0  0  0  0  0  0
    4.4018   -0.8086    0.0000 N   0  0  0  0  0  0  0  0  0
    5.1163   -1.2211    0.0000 C   0  0  0  0  0  0  0  0  0
    5.1163   -2.0461    0.0000 C   0  0  0  0  0  0  0  0  0
    4.4018   -2.4586    0.0000 N   0  0  0  0  0  0  0  0  0
    3.6874   -2.0461    0.0000 C   0  0  0  0  0  0  0  0  0
    3.6874   -1.2211    0.0000 C   0  0  0  0  0  0  0  0  0
    4.4018   -3.2836    0.0000 C   0  0  0  0  0  0  0  0  0
    5.1163   -3.6961    0.0000 C   0  0  0  0  0  0  0  0  0
    5.8308   -3.2836    0.0000 C   0  0  0  0  0  0  0  0  0
    6.5452   -3.6961    0.0000 C   0  0  0  0  0  0  0  0  0
    6.5452   -4.5211    0.0000 C   0  0  0  0  0  0  0  0  0
    5.8308   -4.9336    0.0000 C   0  0  0  0  0  0  0  0  0
    5.1163   -4.5211    0.0000 C   0  0  0  0  0  0  0  0  0
    4.4018   -4.9336    0.0000 C   0  0  0  0  0  0  0  0  0
    3.6874   -4.5211    0.0000 C   0  0  0  0  0  0  0  0  0
    3.6874   -3.6961    0.0000 C   0  0  0  0  0  0  0  0  0
    2.9729    1.6664    0.0000 C   0  0  0  0  0  0  0  0  0
    2.9729    2.4914    0.0000 C   0  0  0  0  0  0  0  0  0
    2.2584    2.9039    0.0000 N   0  0  0  0  0  0  0  0  0
    1.5439    2.4914    0.0000 C   0  0  0  0  0  0  0  0  0
    0.8295    2.9039    0.0000 C   0  0  0  0  0  0  0  0  0
    0.8295    3.7289    0.0000 N   0  0  0  0  0  0  0  0  0
    1.5439    4.1414    0.0000 C   0  0  0  0  0  0  0  0  0
    2.2584    3.7289    0.0000 C   0  0  0  0  0  0  0  0  0
    0.1150    4.1414    0.0000 C   0  0  0  0  0  0  0  0  0
  1  2  1  0  0  0  0
  1  3  1  0  0  0  0
  3  4  4  0  0  0  0
  3 27  4  0  0  0  0
  4  5  4  0  0  0  0
  5  6  4  0  0  0  0
  6  7  1  0  0  0  0
  6 26  4  0  0  0  0
  7  8  1  0  0  0  0
  8  9  2  0  0  0  0
  8 10  1  0  0  0  0
 10 11  1  0  0  0  0
 10 15  1  0  0  0  0
 11 12  1  0  0  0  0
 12 13  1  0  0  0  0
 13 14  1  0  0  0  0
 13 16  1  0  0  0  0
 14 15  1  0  0  0  0
 16 17  4  0  0  0  0
 16 25  4  0  0  0  0
 17 18  1  0  0  0  0
 17 22  4  0  0  0  0
 18 19  1  0  0  0  0
 19 20  1  0  0  0  0
 20 21  1  0  0  0  0
 21 22  1  0  0  0  0
 22 23  4  0  0  0  0
 23 24  4  0  0  0  0
 24 25  4  0  0  0  0
 26 27  4  0  0  0  0
 27 28  1  0  0  0  0
 28 29  1  0  0  0  0
 28 33  1  0  0  0  0
 29 30  1  0  0  0  0
 30 31  1  0  0  0  0
 31 32  1  0  0  0  0
 31 34  1  0  0  0  0
 32 33  1  0  0  0  0
M  END
>  <Name_Molregno>
178087

>  <5-HT1A>
6.59

>  <5-HT1B>
9.3

>  <5-HT1D>
7.59

$$$$
178088
  Marvin  02231216192D 0   1.00000     0.00000     0

 32 35  0  0  0  0  0  0  0  0999 V2000
    3.8453    3.8330    0.0000 O   0  0  0  0  0  0  0  0  0
    3.1308    4.2455    0.0000 C   0  0  0  0  0  0  0  0  0
    3.8453    3.0080    0.0000 C   0  0  0  0  0  0  0  0  0
    4.5598    2.5955    0.0000 C   0  0  0  0  0  0  0  0  0
    4.5598    1.7705    0.0000 C   0  0  0  0  0  0  0  0  0
    3.8453    1.3580    0.0000 C   0  0  0  0  0  0  0  0  0
    3.8453    0.5330    0.0000 N   0  0  0  0  0  0  0  0  0
    4.5598    0.1205    0.0000 C   0  0  0  0  0  0  0  0  0
    5.2743    0.5330    0.0000 O   0  0  0  0  0  0  0  0  0
    4.5598   -0.7045    0.0000 N   0  0  0  0  0  0  0  0  0
    5.2743   -1.1170    0.0000 C   0  0  0  0  0  0  0  0  0
    5.2743   -1.9420    0.0000 C   0  0  0  0  0  0  0  0  0
    4.5598   -2.3545    0.0000 N   0  0  0  0  0  0  0  0  0
    3.8453   -1.9420    0.0000 C   0  0  0  0  0  0  0  0  0
    3.8453   -1.1170    0.0000 C   0  0  0  0  0  0  0  0  0
    4.5598   -3.1795    0.0000 C   0  0  0  0  0  0  0  0  0
    5.2743   -3.5920    0.0000 C   0  0  0  0  0  0  0  0  0
    5.2743   -4.4170    0.0000 C   0  0  0  0  0  0  0  0  0
    4.5598   -4.8295    0.0000 C   0  0  0  0  0  0  0  0  0
    4.5598   -5.6545    0.0000 O   0  0  0  0  0  0  0  0  0
    3.8453   -6.0670    0.0000 C   0  0  0  0  0  0  0  0  0
    3.8453   -4.4170    0.0000 C   0  0  0  0  0  0  0  0  0
    3.8453   -3.5920    0.0000 C   0  0  0  0  0  0  0  0  0
    3.1308    1.7705    0.0000 C   0  0  0  0  0  0  0  0  0
    3.1308    2.5955    0.0000 C   0  0  0  0  0  0  0  0  0
    2.4164    3.0080    0.0000 N   0  0  0  0  0  0  0  0  0
    1.7019    2.5955    0.0000 C   0  0  0  0  0  0  0  0  0
    0.9874    3.0080    0.0000 C   0  0  0  0  0  0  0  0  0
    0.9874    3.8330    0.0000 N   0  0  0  0  0  0  0  0  0
    1.7019    4.2455    0.0000 C   0  0  0  0  0  0  0  0  0
    2.4164    3.8330    0.0000 C   0  0  0  0  0  0  0  0  0
    0.2730    4.2455    0.0000 C   0  0  0  0  0  0  0  0  0
  1  2  1  0  0  0  0
  1  3  1  0  0  0  0
  3  4  4  0  0  0  0
  3 25  4  0  0  0  0
  4  5  4  0  0  0  0
  5  6  4  0  0  0  0
  6  7  1  0  0  0  0
  6 24  4  0  0  0  0
  7  8  1  0  0  0  0
  8  9  2  0  0  0  0
  8 10  1  0  0  0  0
 10 11  1  0  0  0  0
 10 15  1  0  0  0  0
 11 12  1  0  0  0  0
 12 13  1  0  0  0  0
 13 14  1  0  0  0  0
 13 16  1  0  0  0  0
 14 15  1  0  0  0  0
 16 17  4  0  0  0  0
 16 23  4  0  0  0  0
 17 18  4  0  0  0  0
 18 19  4  0  0  0  0
 19 20  1  0  0  0  0
 19 22  4  0  0  0  0
 20 21  1  0  0  0  0
 22 23  4  0  0  0  0
 24 25  4  0  0  0  0
 25 26  1  0  0  0  0
 26 27  1  0  0  0  0
 26 31  1  0  0  0  0
 27 28  1  0  0  0  0
 28 29  1  0  0  0  0
 29 30  1  0  0  0  0
 29 32  1  0  0  0  0
 30 31  1  0  0  0  0
M  END
>  <Name_Molregno>
178088

>  <5-HT1A>
6

>  <5-HT1B>
8.08

>  <5-HT1D>
6.64

$$$$
178089
  Marvin  02231216192D 0   1.00000     0.00000     0

 32 35  0  0  0  0  0  0  0  0999 V2000
   -3.5616    3.7572    0.0000 O   0  0  0  0  0  0  0  0  0
   -4.2761    4.1697    0.0000 C   0  0  0  0  0  0  0  0  0
   -3.5616    2.9322    0.0000 C   0  0  0  0  0  0  0  0  0
   -2.8472    2.5197    0.0000 C   0  0  0  0  0  0  0  0  0
   -2.8472    1.6947    0.0000 C   0  0  0  0  0  0  0  0  0
   -3.5616    1.2822    0.0000 C   0  0  0  0  0  0  0  0  0
   -3.5616    0.4572    0.0000 N   0  0  0  0  0  0  0  0  0
   -2.8472    0.0447    0.0000 C   0  0  0  0  0  0  0  0  0
   -2.1327    0.4572    0.0000 O   0  0  0  0  0  0  0  0  0
   -2.8472   -0.7803    0.0000 N   0  0  0  0  0  0  0  0  0
   -2.1327   -1.1928    0.0000 C   0  0  0  0  0  0  0  0  0
   -2.1327   -2.0178    0.0000 C   0  0  0  0  0  0  0  0  0
   -2.8472   -2.4303    0.0000 N   0  0  0  0  0  0  0  0  0
   -3.5616   -2.0178    0.0000 C   0  0  0  0  0  0  0  0  0
   -3.5616   -1.1928    0.0000 C   0  0  0  0  0  0  0  0  0
   -2.8472   -3.2553    0.0000 C   0  0  0  0  0  0  0  0  0
   -2.1327   -3.6678    0.0000 C   0  0  0  0  0  0  0  0  0
   -2.1327   -4.4928    0.0000 C   0  0  0  0  0  0  0  0  0
   -1.4182   -4.9053    0.0000 O   0  0  0  0  0  0  0  0  0
   -1.4182   -5.7303    0.0000 C   0  0  0  0  0  0  0  0  0
   -2.8472   -4.9053    0.0000 C   0  0  0  0  0  0  0  0  0
   -3.5616   -4.4928    0.0000 C   0  0  0  0  0  0  0  0  0
   -3.5616   -3.6678    0.0000 C   0  0  0  0  0  0  0  0  0
   -4.2761    1.6947    0.0000 C   0  0  0  0  0  0  0  0  0
   -4.2761    2.5197    0.0000 C   0  0  0  0  0  0  0  0  0
   -4.9906    2.9322    0.0000 N   0  0  0  0  0  0  0  0  0
   -5.7050    2.5197    0.0000 C   0  0  0  0  0  0  0  0  0
   -6.4195    2.9322    0.0000 C   0  0  0  0  0  0  0  0  0
   -6.4195    3.7572    0.0000 N   0  0  0  0  0  0  0  0  0
   -5.7050    4.1697    0.0000 C   0  0  0  0  0  0  0  0  0
   -4.9906    3.7572    0.0000 C   0  0  0  0  0  0  0  0  0
   -7.1340    4.1697    0.0000 C   0  0  0  0  0  0  0  0  0
  1  2  1  0  0  0  0
  1  3  1  0  0  0  0
  3  4  4  0  0  0  0
  3 25  4  0  0  0  0
  4  5  4  0  0  0  0
  5  6  4  0  0  0  0
  6  7  1  0  0  0  0
  6 24  4  0  0  0  0
  7  8  1  0  0  0  0
  8  9  2  0  0  0  0
  8 10  1  0  0  0  0
 10 11  1  0  0  0  0
 10 15  1  0  0  0  0
 11 12  1  0  0  0  0
 12 13  1  0  0  0  0
 13 14  1  0  0  0  0
 13 16  1  0  0  0  0
 14 15  1  0  0  0  0
 16 17  4  0  0  0  0
 16 23  4  0  0  0  0
 17 18  4  0  0  0  0
 18 19  1  0  0  0  0
 18 21  4  0  0  0  0
 19 20  1  0  0  0  0
 21 22  4  0  0  0  0
 22 23  4  0  0  0  0
 24 25  4  0  0  0  0
 25 26  1  0  0  0  0
 26 27  1  0  0  0  0
 26 31  1  0  0  0  0
 27 28  1  0  0  0  0
 28 29  1  0  0  0  0
 29 30  1  0  0  0  0
 29 32  1  0  0  0  0
 30 31  1  0  0  0  0
M  END
>  <Name_Molregno>
178089

>  <5-HT1A>
7.1

>  <5-HT1B>
8.1

>  <5-HT1D>
7.15

$$$$
181534
  Marvin  02231216192D 0   1.00000     0.00000     0

 30 34  0  0  1  0  0  0  0  0999 V2000
   -0.0922    0.7959    0.0000 O   0  0  0  0  0  0  0  0  0
    0.7274    0.8899    0.0000 C   0  0  0  0  0  0  0  0  0
    1.0701    0.1395    0.0000 C   0  0  0  0  0  0  0  0  0
    0.4623   -0.4184    0.0000 C   0  0  0  0  0  0  0  0  0
    0.6415   -1.2237    0.0000 C   0  0  0  0  0  0  0  0  0
    1.4285   -1.4711    0.0000 C   0  0  0  0  0  0  0  0  0
    2.0363   -0.9133    0.0000 C   0  0  0  0  0  0  0  0  0
    1.8571   -0.1080    0.0000 C   0  0  0  0  0  0  0  0  0
    2.4649    0.4499    0.0000 C   0  0  0  0  0  0  0  0  0
    3.2519    0.2024    0.0000 C   0  0  0  0  0  0  0  0  0
    3.4312   -0.6029    0.0000 C   0  0  0  0  0  0  0  0  0
    2.8233   -1.1607    0.0000 C   0  0  0  0  0  0  0  0  0
   -0.2561   -0.0127    0.0000 C   0  0  0  0  0  0  0  0  0
   -0.3345   -0.8340    0.0000 C   0  0  0  0  0  0  0  0  0
   -1.0849   -1.1767    0.0000 C   0  0  0  0  0  0  0  0  0
   -1.7570   -0.6982    0.0000 N   0  0  0  0  0  0  0  0  0
   -1.6785    0.1231    0.0000 C   0  0  0  0  0  0  0  0  0
   -0.9281    0.4658    0.0000 C   0  0  0  0  0  0  0  0  0
   -2.5074   -1.0409    0.0000 C   0  0  0  0  0  0  0  0  0
   -3.1794   -0.5623    0.0000 C   0  0  0  0  0  0  0  0  0
   -3.1010    0.2589    0.0000 O   0  0  0  0  0  0  0  0  0
   -3.9299   -0.9051    0.0000 C   0  0  0  0  0  0  0  0  0
   -4.6019   -0.4265    0.0000 O   0  0  0  0  0  0  0  0  0
   -5.3523   -0.7692    0.0000 C   0  0  0  0  0  0  0  0  0
   -6.0244   -0.2907    0.0000 C   0  0  0  0  0  0  0  0  0
   -6.7748   -0.6334    0.0000 C   0  0  0  0  0  0  0  0  0
   -7.4468   -0.1549    0.0000 C   0  0  0  0  0  0  0  0  0
   -7.3684    0.6664    0.0000 C   0  0  0  0  0  0  0  0  0
   -6.6180    1.0091    0.0000 C   0  0  0  0  0  0  0  0  0
   -5.9460    0.5306    0.0000 C   0  0  0  0  0  0  0  0  0
  1  2  1  0  0  0  0
  1 13  1  0  0  0  0
  2  3  1  0  0  0  0
  3  4  4  0  0  0  0
  3  8  4  0  0  0  0
  4  5  4  0  0  0  0
  4 13  1  0  0  0  0
  5  6  4  0  0  0  0
  6  7  4  0  0  0  0
  7  8  4  0  0  0  0
  7 12  4  0  0  0  0
  8  9  4  0  0  0  0
  9 10  4  0  0  0  0
 10 11  4  0  0  0  0
 11 12  4  0  0  0  0
 13 14  1  0  0  0  0
 13 18  1  0  0  0  0
 14 15  1  0  0  0  0
 15 16  1  0  0  0  0
 16 17  1  0  0  0  0
 16 19  1  0  0  0  0
 17 18  1  0  0  0  0
 19 20  1  0  0  0  0
 20 21  1  0  0  0  0
 20 22  1  0  0  0  0
 22 23  1  0  0  0  0
 23 24  1  0  0  0  0
 24 25  1  0  0  0  0
 25 26  4  0  0  0  0
 25 30  4  0  0  0  0
 26 27  4  0  0  0  0
 27 28  4  0  0  0  0
 28 29  4  0  0  0  0
 29 30  4  0  0  0  0
M  END
>  <Name_Molregno>
181534

>  <5-HT1A>
8.66

$$$$
181535
  Marvin  02231216192D 0   1.00000     0.00000     0

 29 33  0  0  1  0  0  0  0  0999 V2000
   -0.5846    1.5130    0.0000 O   0  0  0  0  0  0  0  0  0
    0.2350    1.6070    0.0000 C   0  0  0  0  0  0  0  0  0
    0.5778    0.8566    0.0000 C   0  0  0  0  0  0  0  0  0
   -0.0300    0.2987    0.0000 C   0  0  0  0  0  0  0  0  0
    0.1492   -0.5066    0.0000 C   0  0  0  0  0  0  0  0  0
    0.9362   -0.7540    0.0000 C   0  0  0  0  0  0  0  0  0
    1.5440   -0.1962    0.0000 C   0  0  0  0  0  0  0  0  0
    1.3648    0.6091    0.0000 C   0  0  0  0  0  0  0  0  0
    1.9726    1.1670    0.0000 C   0  0  0  0  0  0  0  0  0
    2.7596    0.9195    0.0000 C   0  0  0  0  0  0  0  0  0
    2.9388    0.1142    0.0000 C   0  0  0  0  0  0  0  0  0
    2.3310   -0.4436    0.0000 C   0  0  0  0  0  0  0  0  0
   -0.7484    0.7044    0.0000 C   0  0  0  0  0  0  0  0  0
   -0.8268   -0.1168    0.0000 C   0  0  0  0  0  0  0  0  0
   -1.5773   -0.4596    0.0000 C   0  0  0  0  0  0  0  0  0
   -2.2493    0.0190    0.0000 N   0  0  0  0  0  0  0  0  0
   -2.1709    0.8402    0.0000 C   0  0  0  0  0  0  0  0  0
   -1.4204    1.1830    0.0000 C   0  0  0  0  0  0  0  0  0
   -2.9997   -0.3238    0.0000 C   0  0  0  0  0  0  0  0  0
   -3.0782   -1.1450    0.0000 C   0  0  0  0  0  0  0  0  0
   -2.4061   -1.6236    0.0000 O   0  0  0  0  0  0  0  0  0
   -3.8286   -1.4877    0.0000 C   0  0  0  0  0  0  0  0  0
   -3.9070   -2.3090    0.0000 C   0  0  0  0  0  0  0  0  0
   -4.6575   -2.6517    0.0000 C   0  0  0  0  0  0  0  0  0
   -4.7359   -3.4730    0.0000 C   0  0  0  0  0  0  0  0  0
   -5.4863   -3.8157    0.0000 C   0  0  0  0  0  0  0  0  0
   -6.1583   -3.3372    0.0000 C   0  0  0  0  0  0  0  0  0
   -6.0799   -2.5159    0.0000 C   0  0  0  0  0  0  0  0  0
   -5.3295   -2.1732    0.0000 C   0  0  0  0  0  0  0  0  0
  1  2  1  0  0  0  0
  1 13  1  0  0  0  0
  2  3  1  0  0  0  0
  3  4  4  0  0  0  0
  3  8  4  0  0  0  0
  4  5  4  0  0  0  0
  4 13  1  0  0  0  0
  5  6  4  0  0  0  0
  6  7  4  0  0  0  0
  7  8  4  0  0  0  0
  7 12  4  0  0  0  0
  8  9  4  0  0  0  0
  9 10  4  0  0  0  0
 10 11  4  0  0  0  0
 11 12  4  0  0  0  0
 13 14  1  0  0  0  0
 13 18  1  0  0  0  0
 14 15  1  0  0  0  0
 15 16  1  0  0  0  0
 16 17  1  0  0  0  0
 16 19  1  0  0  0  0
 17 18  1  0  0  0  0
 19 20  1  0  0  0  0
 20 21  1  0  0  0  0
 20 22  1  0  0  0  0
 22 23  1  0  0  0  0
 23 24  1  0  0  0  0
 24 25  4  0  0  0  0
 24 29  4  0  0  0  0
 25 26  4  0  0  0  0
 26 27  4  0  0  0  0
 27 28  4  0  0  0  0
 28 29  4  0  0  0  0
M  END
>  <Name_Molregno>
181535

>  <5-HT1A>
8.08

>  <Serotonin transporter>
8

$$$$
181536
  Marvin  02231216192D 0   1.00000     0.00000     0

 30 34  0  0  1  0  0  0  0  0999 V2000
    6.8565    2.8173    0.0000 F   0  0  0  0  0  0  0  0  0
    7.5285    2.3387    0.0000 C   0  0  0  0  0  0  0  0  0
    8.2790    2.6815    0.0000 C   0  0  0  0  0  0  0  0  0
    8.9510    2.2029    0.0000 C   0  0  0  0  0  0  0  0  0
    8.8726    1.3816    0.0000 C   0  0  0  0  0  0  0  0  0
    8.1222    1.0389    0.0000 C   0  0  0  0  0  0  0  0  0
    7.4501    1.5175    0.0000 C   0  0  0  0  0  0  0  0  0
    6.6997    1.1747    0.0000 O   0  0  0  0  0  0  0  0  0
    6.6213    0.3535    0.0000 C   0  0  0  0  0  0  0  0  0
    5.8708    0.0107    0.0000 C   0  0  0  0  0  0  0  0  0
    5.1988    0.4893    0.0000 O   0  0  0  0  0  0  0  0  0
    5.7924   -0.8105    0.0000 C   0  0  0  0  0  0  0  0  0
    5.0420   -1.1532    0.0000 N   0  0  0  0  0  0  0  0  0
    4.9636   -1.9745    0.0000 C   0  0  0  0  0  0  0  0  0
    4.2131   -2.3172    0.0000 C   0  0  0  0  0  0  0  0  0
    3.5411   -1.8387    0.0000 C   0  0  0  0  0  0  0  0  0
    3.3773   -2.6473    0.0000 O   0  0  0  0  0  0  0  0  0
    2.5576   -2.7413    0.0000 C   0  0  0  0  0  0  0  0  0
    2.2149   -1.9909    0.0000 C   0  0  0  0  0  0  0  0  0
    2.8227   -1.4330    0.0000 C   0  0  0  0  0  0  0  0  0
    2.6435   -0.6277    0.0000 C   0  0  0  0  0  0  0  0  0
    1.8565   -0.3803    0.0000 C   0  0  0  0  0  0  0  0  0
    1.2487   -0.9381    0.0000 C   0  0  0  0  0  0  0  0  0
    1.4279   -1.7434    0.0000 C   0  0  0  0  0  0  0  0  0
    0.8201   -2.3013    0.0000 C   0  0  0  0  0  0  0  0  0
    0.0331   -2.0538    0.0000 C   0  0  0  0  0  0  0  0  0
   -0.1461   -1.2485    0.0000 C   0  0  0  0  0  0  0  0  0
    0.4617   -0.6907    0.0000 C   0  0  0  0  0  0  0  0  0
    3.6195   -1.0174    0.0000 C   0  0  0  0  0  0  0  0  0
    4.3699   -0.6747    0.0000 C   0  0  0  0  0  0  0  0  0
  1  2  1  0  0  0  0
  2  3  4  0  0  0  0
  2  7  4  0  0  0  0
  3  4  4  0  0  0  0
  4  5  4  0  0  0  0
  5  6  4  0  0  0  0
  6  7  4  0  0  0  0
  7  8  1  0  0  0  0
  8  9  1  0  0  0  0
  9 10  1  0  0  0  0
 10 11  1  0  0  0  0
 10 12  1  0  0  0  0
 12 13  1  0  0  0  0
 13 14  1  0  0  0  0
 13 30  1  0  0  0  0
 14 15  1  0  0  0  0
 15 16  1  0  0  0  0
 16 17  1  0  0  0  0
 16 20  1  0  0  0  0
 16 29  1  0  0  0  0
 17 18  1  0  0  0  0
 18 19  1  0  0  0  0
 19 20  4  0  0  0  0
 19 24  4  0  0  0  0
 20 21  4  0  0  0  0
 21 22  4  0  0  0  0
 22 23  4  0  0  0  0
 23 24  4  0  0  0  0
 23 28  4  0  0  0  0
 24 25  4  0  0  0  0
 25 26  4  0  0  0  0
 26 27  4  0  0  0  0
 27 28  4  0  0  0  0
 29 30  1  0  0  0  0
M  END
>  <Name_Molregno>
181536

>  <5-HT1A>
8.61

$$$$
181563
  Marvin  02231216192D 0   1.00000     0.00000     0

 34 39  0  0  1  0  0  0  0  0999 V2000
   10.2623    3.4234    0.0000 F   0  0  0  0  0  0  0  0  0
    9.5119    3.0807    0.0000 C   0  0  0  0  0  0  0  0  0
    8.8398    3.5592    0.0000 C   0  0  0  0  0  0  0  0  0
    8.0894    3.2165    0.0000 C   0  0  0  0  0  0  0  0  0
    7.4174    3.6950    0.0000 O   0  0  0  0  0  0  0  0  0
    7.4958    4.5163    0.0000 C   0  0  0  0  0  0  0  0  0
    8.2462    4.8590    0.0000 C   0  0  0  0  0  0  0  0  0
    8.9183    4.3805    0.0000 C   0  0  0  0  0  0  0  0  0
    8.0110    2.3952    0.0000 C   0  0  0  0  0  0  0  0  0
    7.2605    2.0525    0.0000 O   0  0  0  0  0  0  0  0  0
    7.1821    1.2312    0.0000 C   0  0  0  0  0  0  0  0  0
    6.4317    0.8885    0.0000 C   0  0  0  0  0  0  0  0  0
    5.7597    1.3670    0.0000 O   0  0  0  0  0  0  0  0  0
    6.3533    0.0672    0.0000 C   0  0  0  0  0  0  0  0  0
    5.6028   -0.2755    0.0000 N   0  0  0  0  0  0  0  0  0
    5.5244   -1.0968    0.0000 C   0  0  0  0  0  0  0  0  0
    4.7740   -1.4395    0.0000 C   0  0  0  0  0  0  0  0  0
    4.1019   -0.9609    0.0000 C   0  0  0  0  0  0  0  0  0
    3.9381   -1.7695    0.0000 O   0  0  0  0  0  0  0  0  0
    3.1185   -1.8636    0.0000 C   0  0  0  0  0  0  0  0  0
    2.7758   -1.1131    0.0000 C   0  0  0  0  0  0  0  0  0
    3.3836   -0.5553    0.0000 C   0  0  0  0  0  0  0  0  0
    3.2044    0.2500    0.0000 C   0  0  0  0  0  0  0  0  0
    2.4174    0.4975    0.0000 C   0  0  0  0  0  0  0  0  0
    1.8095   -0.0604    0.0000 C   0  0  0  0  0  0  0  0  0
    1.9888   -0.8657    0.0000 C   0  0  0  0  0  0  0  0  0
    1.3810   -1.4235    0.0000 C   0  0  0  0  0  0  0  0  0
    0.5939   -1.1761    0.0000 C   0  0  0  0  0  0  0  0  0
    0.4147   -0.3708    0.0000 C   0  0  0  0  0  0  0  0  0
    1.0225    0.1871    0.0000 C   0  0  0  0  0  0  0  0  0
    4.1804   -0.1397    0.0000 C   0  0  0  0  0  0  0  0  0
    4.9308    0.2031    0.0000 C   0  0  0  0  0  0  0  0  0
    8.6830    1.9167    0.0000 C   0  0  0  0  0  0  0  0  0
    9.4335    2.2594    0.0000 C   0  0  0  0  0  0  0  0  0
  1  2  1  0  0  0  0
  2  3  4  0  0  0  0
  2 34  4  0  0  0  0
  3  4  4  0  0  0  0
  3  8  1  0  0  0  0
  4  5  1  0  0  0  0
  4  9  4  0  0  0  0
  5  6  1  0  0  0  0
  6  7  1  0  0  0  0
  7  8  1  0  0  0  0
  9 10  1  0  0  0  0
  9 33  4  0  0  0  0
 10 11  1  0  0  0  0
 11 12  1  0  0  0  0
 12 13  1  0  0  0  0
 12 14  1  0  0  0  0
 14 15  1  0  0  0  0
 15 16  1  0  0  0  0
 15 32  1  0  0  0  0
 16 17  1  0  0  0  0
 17 18  1  0  0  0  0
 18 19  1  0  0  0  0
 18 22  1  0  0  0  0
 18 31  1  0  0  0  0
 19 20  1  0  0  0  0
 20 21  1  0  0  0  0
 21 22  4  0  0  0  0
 21 26  4  0  0  0  0
 22 23  4  0  0  0  0
 23 24  4  0  0  0  0
 24 25  4  0  0  0  0
 25 26  4  0  0  0  0
 25 30  4  0  0  0  0
 26 27  4  0  0  0  0
 27 28  4  0  0  0  0
 28 29  4  0  0  0  0
 29 30  4  0  0  0  0
 31 32  1  0  0  0  0
 33 34  4  0  0  0  0
M  END
>  <Name_Molregno>
181563

>  <5-HT1A>
8.55

$$$$
181587
  Marvin  02231216192D 0   1.00000     0.00000     0

 34 39  0  0  1  0  0  0  0  0999 V2000
   10.1850    3.7516    0.0000 F   0  0  0  0  0  0  0  0  0
    9.4345    3.4089    0.0000 C   0  0  0  0  0  0  0  0  0
    9.3561    2.5876    0.0000 C   0  0  0  0  0  0  0  0  0
    8.6057    2.2449    0.0000 C   0  0  0  0  0  0  0  0  0
    8.6997    1.4253    0.0000 C   0  0  0  0  0  0  0  0  0
    8.0919    0.8674    0.0000 O   0  0  0  0  0  0  0  0  0
    9.5083    1.2614    0.0000 C   0  0  0  0  0  0  0  0  0
    9.9140    1.9798    0.0000 C   0  0  0  0  0  0  0  0  0
    7.9337    2.7234    0.0000 C   0  0  0  0  0  0  0  0  0
    7.1832    2.3807    0.0000 O   0  0  0  0  0  0  0  0  0
    7.1048    1.5594    0.0000 C   0  0  0  0  0  0  0  0  0
    6.3544    1.2167    0.0000 C   0  0  0  0  0  0  0  0  0
    5.6823    1.6953    0.0000 O   0  0  0  0  0  0  0  0  0
    6.2759    0.3954    0.0000 C   0  0  0  0  0  0  0  0  0
    5.5255    0.0527    0.0000 N   0  0  0  0  0  0  0  0  0
    5.4471   -0.7685    0.0000 C   0  0  0  0  0  0  0  0  0
    4.6966   -1.1113    0.0000 C   0  0  0  0  0  0  0  0  0
    4.0246   -0.6327    0.0000 C   0  0  0  0  0  0  0  0  0
    3.8608   -1.4413    0.0000 O   0  0  0  0  0  0  0  0  0
    3.0412   -1.5353    0.0000 C   0  0  0  0  0  0  0  0  0
    2.6984   -0.7849    0.0000 C   0  0  0  0  0  0  0  0  0
    3.3062   -0.2271    0.0000 C   0  0  0  0  0  0  0  0  0
    3.1270    0.5782    0.0000 C   0  0  0  0  0  0  0  0  0
    2.3400    0.8257    0.0000 C   0  0  0  0  0  0  0  0  0
    1.7322    0.2679    0.0000 C   0  0  0  0  0  0  0  0  0
    1.9114   -0.5375    0.0000 C   0  0  0  0  0  0  0  0  0
    1.3036   -1.0953    0.0000 C   0  0  0  0  0  0  0  0  0
    0.5166   -0.8478    0.0000 C   0  0  0  0  0  0  0  0  0
    0.3374   -0.0425    0.0000 C   0  0  0  0  0  0  0  0  0
    0.9452    0.5153    0.0000 C   0  0  0  0  0  0  0  0  0
    4.1030    0.1885    0.0000 C   0  0  0  0  0  0  0  0  0
    4.8535    0.5313    0.0000 C   0  0  0  0  0  0  0  0  0
    8.0121    3.5447    0.0000 C   0  0  0  0  0  0  0  0  0
    8.7625    3.8874    0.0000 C   0  0  0  0  0  0  0  0  0
  1  2  1  0  0  0  0
  2  3  4  0  0  0  0
  2 34  4  0  0  0  0
  3  4  4  0  0  0  0
  3  8  1  0  0  0  0
  4  5  1  0  0  0  0
  4  9  4  0  0  0  0
  5  6  2  0  0  0  0
  5  7  1  0  0  0  0
  7  8  1  0  0  0  0
  9 10  1  0  0  0  0
  9 33  4  0  0  0  0
 10 11  1  0  0  0  0
 11 12  1  0  0  0  0
 12 13  1  0  0  0  0
 12 14  1  0  0  0  0
 14 15  1  0  0  0  0
 15 16  1  0  0  0  0
 15 32  1  0  0  0  0
 16 17  1  0  0  0  0
 17 18  1  0  0  0  0
 18 19  1  0  0  0  0
 18 22  1  0  0  0  0
 18 31  1  0  0  0  0
 19 20  1  0  0  0  0
 20 21  1  0  0  0  0
 21 22  4  0  0  0  0
 21 26  4  0  0  0  0
 22 23  4  0  0  0  0
 23 24  4  0  0  0  0
 24 25  4  0  0  0  0
 25 26  4  0  0  0  0
 25 30  4  0  0  0  0
 26 27  4  0  0  0  0
 27 28  4  0  0  0  0
 28 29  4  0  0  0  0
 29 30  4  0  0  0  0
 31 32  1  0  0  0  0
 33 34  4  0  0  0  0
M  END
>  <Name_Molregno>
181587

>  <5-HT1A>
8.64

$$$$
181623
  Marvin  02231216192D 0   1.00000     0.00000     0

 28 32  0  0  0  0  0  0  0  0999 V2000
   -0.5746    1.4387    0.0000 O   0  0  0  0  0  0  0  0  0
    0.2450    1.5328    0.0000 C   0  0  0  0  0  0  0  0  0
    0.5877    0.7823    0.0000 C   0  0  0  0  0  0  0  0  0
   -0.0201    0.2245    0.0000 C   0  0  0  0  0  0  0  0  0
    0.1591   -0.5808    0.0000 C   0  0  0  0  0  0  0  0  0
    0.9461   -0.8283    0.0000 C   0  0  0  0  0  0  0  0  0
    1.5539   -0.2704    0.0000 C   0  0  0  0  0  0  0  0  0
    1.3747    0.5349    0.0000 C   0  0  0  0  0  0  0  0  0
    1.9825    1.0927    0.0000 C   0  0  0  0  0  0  0  0  0
    2.7695    0.8453    0.0000 C   0  0  0  0  0  0  0  0  0
    2.9488    0.0400    0.0000 C   0  0  0  0  0  0  0  0  0
    2.3409   -0.5179    0.0000 C   0  0  0  0  0  0  0  0  0
   -0.7385    0.6302    0.0000 C   0  0  0  0  0  0  0  0  0
   -0.8169   -0.1911    0.0000 C   0  0  0  0  0  0  0  0  0
   -1.5673   -0.5338    0.0000 C   0  0  0  0  0  0  0  0  0
   -2.2394   -0.0553    0.0000 N   0  0  0  0  0  0  0  0  0
   -2.1609    0.7660    0.0000 C   0  0  0  0  0  0  0  0  0
   -1.4105    1.1087    0.0000 C   0  0  0  0  0  0  0  0  0
   -2.9898   -0.3980    0.0000 C   0  0  0  0  0  0  0  0  0
   -3.0682   -1.2193    0.0000 C   0  0  0  0  0  0  0  0  0
   -3.8187   -1.5620    0.0000 C   0  0  0  0  0  0  0  0  0
   -3.8971   -2.3833    0.0000 C   0  0  0  0  0  0  0  0  0
   -4.6475   -2.7260    0.0000 C   0  0  0  0  0  0  0  0  0
   -4.7259   -3.5473    0.0000 C   0  0  0  0  0  0  0  0  0
   -5.4764   -3.8900    0.0000 C   0  0  0  0  0  0  0  0  0
   -6.1484   -3.4114    0.0000 C   0  0  0  0  0  0  0  0  0
   -6.0700   -2.5902    0.0000 C   0  0  0  0  0  0  0  0  0
   -5.3195   -2.2475    0.0000 C   0  0  0  0  0  0  0  0  0
  1  2  1  0  0  0  0
  1 13  1  0  0  0  0
  2  3  1  0  0  0  0
  3  4  4  0  0  0  0
  3  8  4  0  0  0  0
  4  5  4  0  0  0  0
  4 13  1  0  0  0  0
  5  6  4  0  0  0  0
  6  7  4  0  0  0  0
  7  8  4  0  0  0  0
  7 12  4  0  0  0  0
  8  9  4  0  0  0  0
  9 10  4  0  0  0  0
 10 11  4  0  0  0  0
 11 12  4  0  0  0  0
 13 14  1  0  0  0  0
 13 18  1  0  0  0  0
 14 15  1  0  0  0  0
 15 16  1  0  0  0  0
 16 17  1  0  0  0  0
 16 19  1  0  0  0  0
 17 18  1  0  0  0  0
 19 20  1  0  0  0  0
 20 21  1  0  0  0  0
 21 22  1  0  0  0  0
 22 23  1  0  0  0  0
 23 24  4  0  0  0  0
 23 28  4  0  0  0  0
 24 25  4  0  0  0  0
 25 26  4  0  0  0  0
 26 27  4  0  0  0  0
 27 28  4  0  0  0  0
M  END
>  <Name_Molregno>
181623

>  <5-HT1A>
7.14

$$$$
181872
  Marvin  02231216192D 0   1.00000     0.00000     0

 29 33  0  0  1  0  0  0  0  0999 V2000
   -0.5846    1.5130    0.0000 O   0  0  0  0  0  0  0  0  0
    0.2350    1.6070    0.0000 C   0  0  0  0  0  0  0  0  0
    0.5778    0.8566    0.0000 C   0  0  0  0  0  0  0  0  0
   -0.0300    0.2987    0.0000 C   0  0  0  0  0  0  0  0  0
    0.1492   -0.5066    0.0000 C   0  0  0  0  0  0  0  0  0
    0.9362   -0.7540    0.0000 C   0  0  0  0  0  0  0  0  0
    1.5440   -0.1962    0.0000 C   0  0  0  0  0  0  0  0  0
    1.3648    0.6091    0.0000 C   0  0  0  0  0  0  0  0  0
    1.9726    1.1670    0.0000 C   0  0  0  0  0  0  0  0  0
    2.7596    0.9195    0.0000 C   0  0  0  0  0  0  0  0  0
    2.9388    0.1142    0.0000 C   0  0  0  0  0  0  0  0  0
    2.3310   -0.4436    0.0000 C   0  0  0  0  0  0  0  0  0
   -0.7484    0.7044    0.0000 C   0  0  0  0  0  0  0  0  0
   -0.8268   -0.1168    0.0000 C   0  0  0  0  0  0  0  0  0
   -1.5773   -0.4596    0.0000 C   0  0  0  0  0  0  0  0  0
   -2.2493    0.0190    0.0000 N   0  0  0  0  0  0  0  0  0
   -2.1709    0.8402    0.0000 C   0  0  0  0  0  0  0  0  0
   -1.4204    1.1830    0.0000 C   0  0  0  0  0  0  0  0  0
   -2.9997   -0.3238    0.0000 C   0  0  0  0  0  0  0  0  0
   -3.0782   -1.1450    0.0000 C   0  0  0  0  0  0  0  0  0
   -2.4061   -1.6236    0.0000 O   0  0  0  0  0  0  0  0  0
   -3.8286   -1.4877    0.0000 C   0  0  0  0  0  0  0  0  0
   -3.9070   -2.3090    0.0000 O   0  0  0  0  0  0  0  0  0
   -4.6575   -2.6517    0.0000 C   0  0  0  0  0  0  0  0  0
   -4.7359   -3.4730    0.0000 C   0  0  0  0  0  0  0  0  0
   -5.4863   -3.8157    0.0000 C   0  0  0  0  0  0  0  0  0
   -6.1583   -3.3372    0.0000 C   0  0  0  0  0  0  0  0  0
   -6.0799   -2.5159    0.0000 C   0  0  0  0  0  0  0  0  0
   -5.3295   -2.1732    0.0000 C   0  0  0  0  0  0  0  0  0
  1  2  1  0  0  0  0
  1 13  1  0  0  0  0
  2  3  1  0  0  0  0
  3  4  4  0  0  0  0
  3  8  4  0  0  0  0
  4  5  4  0  0  0  0
  4 13  1  0  0  0  0
  5  6  4  0  0  0  0
  6  7  4  0  0  0  0
  7  8  4  0  0  0  0
  7 12  4  0  0  0  0
  8  9  4  0  0  0  0
  9 10  4  0  0  0  0
 10 11  4  0  0  0  0
 11 12  4  0  0  0  0
 13 14  1  0  0  0  0
 13 18  1  0  0  0  0
 14 15  1  0  0  0  0
 15 16  1  0  0  0  0
 16 17  1  0  0  0  0
 16 19  1  0  0  0  0
 17 18  1  0  0  0  0
 19 20  1  0  0  0  0
 20 21  1  0  0  0  0
 20 22  1  0  0  0  0
 22 23  1  0  0  0  0
 23 24  1  0  0  0  0
 24 25  4  0  0  0  0
 24 29  4  0  0  0  0
 25 26  4  0  0  0  0
 26 27  4  0  0  0  0
 27 28  4  0  0  0  0
 28 29  4  0  0  0  0
M  END
>  <Name_Molregno>
181872

>  <5-HT1A>
8.96

$$$$
181965
  Marvin  02231216192D 0   1.00000     0.00000     0

 34 39  0  0  1  0  0  0  0  0999 V2000
   -5.7337   -5.1708    0.0000 F   0  0  0  0  0  0  0  0  0
   -5.0192   -4.7583    0.0000 C   0  0  0  0  0  0  0  0  0
   -5.0192   -3.9333    0.0000 C   0  0  0  0  0  0  0  0  0
   -4.3047   -3.5208    0.0000 C   0  0  0  0  0  0  0  0  0
   -4.3047   -2.6958    0.0000 O   0  0  0  0  0  0  0  0  0
   -5.0192   -2.2833    0.0000 C   0  0  0  0  0  0  0  0  0
   -5.0192   -1.4583    0.0000 C   0  0  0  0  0  0  0  0  0
   -4.3047   -1.0458    0.0000 O   0  0  0  0  0  0  0  0  0
   -5.7337   -1.0458    0.0000 C   0  0  0  0  0  0  0  0  0
   -5.7337   -0.2208    0.0000 N   0  0  0  0  0  0  0  0  0
   -6.4482    0.1917    0.0000 C   0  0  0  0  0  0  0  0  0
   -6.4482    1.0167    0.0000 C   0  0  0  0  0  0  0  0  0
   -5.7337    1.4292    0.0000 C   0  0  0  0  0  0  0  0  0
   -6.4011    1.9141    0.0000 O   0  0  0  0  0  0  0  0  0
   -6.1462    2.6987    0.0000 C   0  0  0  0  0  0  0  0  0
   -5.3212    2.6987    0.0000 C   0  0  0  0  0  0  0  0  0
   -5.0662    1.9141    0.0000 C   0  0  0  0  0  0  0  0  0
   -4.2593    1.7426    0.0000 C   0  0  0  0  0  0  0  0  0
   -3.7072    2.3557    0.0000 C   0  0  0  0  0  0  0  0  0
   -3.9622    3.1403    0.0000 C   0  0  0  0  0  0  0  0  0
   -4.7692    3.3118    0.0000 C   0  0  0  0  0  0  0  0  0
   -5.0241    4.0964    0.0000 C   0  0  0  0  0  0  0  0  0
   -4.4721    4.7095    0.0000 C   0  0  0  0  0  0  0  0  0
   -3.6651    4.5380    0.0000 C   0  0  0  0  0  0  0  0  0
   -3.4101    3.7534    0.0000 C   0  0  0  0  0  0  0  0  0
   -5.0192    1.0167    0.0000 C   0  0  0  0  0  0  0  0  0
   -5.0192    0.1917    0.0000 C   0  0  0  0  0  0  0  0  0
   -3.5903   -3.9333    0.0000 C   0  0  0  0  0  0  0  0  0
   -2.8758   -3.5208    0.0000 O   0  0  0  0  0  0  0  0  0
   -2.1613   -3.9333    0.0000 C   0  0  0  0  0  0  0  0  0
   -2.1613   -4.7583    0.0000 C   0  0  0  0  0  0  0  0  0
   -2.8758   -5.1708    0.0000 C   0  0  0  0  0  0  0  0  0
   -3.5903   -4.7583    0.0000 C   0  0  0  0  0  0  0  0  0
   -4.3047   -5.1708    0.0000 C   0  0  0  0  0  0  0  0  0
  1  2  1  0  0  0  0
  2  3  4  0  0  0  0
  2 34  4  0  0  0  0
  3  4  4  0  0  0  0
  4  5  1  0  0  0  0
  4 28  4  0  0  0  0
  5  6  1  0  0  0  0
  6  7  1  0  0  0  0
  7  8  1  0  0  0  0
  7  9  1  0  0  0  0
  9 10  1  0  0  0  0
 10 11  1  0  0  0  0
 10 27  1  0  0  0  0
 11 12  1  0  0  0  0
 12 13  1  0  0  0  0
 13 14  1  0  0  0  0
 13 17  1  0  0  0  0
 13 26  1  0  0  0  0
 14 15  1  0  0  0  0
 15 16  1  0  0  0  0
 16 17  4  0  0  0  0
 16 21  4  0  0  0  0
 17 18  4  0  0  0  0
 18 19  4  0  0  0  0
 19 20  4  0  0  0  0
 20 21  4  0  0  0  0
 20 25  4  0  0  0  0
 21 22  4  0  0  0  0
 22 23  4  0  0  0  0
 23 24  4  0  0  0  0
 24 25  4  0  0  0  0
 26 27  1  0  0  0  0
 28 29  1  0  0  0  0
 28 33  4  0  0  0  0
 29 30  1  0  0  0  0
 30 31  1  0  0  0  0
 31 32  1  0  0  0  0
 32 33  1  0  0  0  0
 33 34  4  0  0  0  0
M  END
>  <Name_Molregno>
181965

>  <5-HT1A>
8.26

$$$$
181997
  Marvin  02231216192D 0   1.00000     0.00000     0

 31 35  0  0  1  0  0  0  0  0999 V2000
    3.0700    1.9656    0.0000 O   0  0  0  0  0  0  0  0  0
    3.8896    2.0597    0.0000 C   0  0  0  0  0  0  0  0  0
    4.2323    1.3092    0.0000 C   0  0  0  0  0  0  0  0  0
    3.6245    0.7514    0.0000 C   0  0  0  0  0  0  0  0  0
    3.8037   -0.0539    0.0000 C   0  0  0  0  0  0  0  0  0
    4.5907   -0.3014    0.0000 C   0  0  0  0  0  0  0  0  0
    5.1985    0.2565    0.0000 C   0  0  0  0  0  0  0  0  0
    5.0193    1.0618    0.0000 C   0  0  0  0  0  0  0  0  0
    5.6271    1.6196    0.0000 C   0  0  0  0  0  0  0  0  0
    6.4142    1.3722    0.0000 C   0  0  0  0  0  0  0  0  0
    6.5934    0.5669    0.0000 C   0  0  0  0  0  0  0  0  0
    5.9856    0.0090    0.0000 C   0  0  0  0  0  0  0  0  0
    2.9061    1.1571    0.0000 C   0  0  0  0  0  0  0  0  0
    2.8277    0.3358    0.0000 C   0  0  0  0  0  0  0  0  0
    2.0773   -0.0069    0.0000 C   0  0  0  0  0  0  0  0  0
    1.4053    0.4716    0.0000 N   0  0  0  0  0  0  0  0  0
    1.4837    1.2929    0.0000 C   0  0  0  0  0  0  0  0  0
    2.2341    1.6356    0.0000 C   0  0  0  0  0  0  0  0  0
    0.6548    0.1289    0.0000 C   0  0  0  0  0  0  0  0  0
    0.5764   -0.6924    0.0000 C   0  0  0  0  0  0  0  0  0
    1.2484   -1.1709    0.0000 O   0  0  0  0  0  0  0  0  0
   -0.1740   -1.0351    0.0000 C   0  0  0  0  0  0  0  0  0
   -0.2525   -1.8564    0.0000 O   0  0  0  0  0  0  0  0  0
   -1.0029   -2.1991    0.0000 C   0  0  0  0  0  0  0  0  0
   -1.0813   -3.0204    0.0000 C   0  0  0  0  0  0  0  0  0
   -1.8318   -3.3631    0.0000 C   0  0  0  0  0  0  0  0  0
   -2.5038   -2.8845    0.0000 C   0  0  0  0  0  0  0  0  0
   -2.4254   -2.0633    0.0000 C   0  0  0  0  0  0  0  0  0
   -1.6749   -1.7205    0.0000 C   0  0  0  0  0  0  0  0  0
   -1.9102   -4.1843    0.0000 C   0  0  0  0  0  0  0  0  0
   -2.6606   -4.5271    0.0000 C   0  0  0  0  0  0  0  0  0
  1  2  1  0  0  0  0
  1 13  1  0  0  0  0
  2  3  1  0  0  0  0
  3  4  4  0  0  0  0
  3  8  4  0  0  0  0
  4  5  4  0  0  0  0
  4 13  1  0  0  0  0
  5  6  4  0  0  0  0
  6  7  4  0  0  0  0
  7  8  4  0  0  0  0
  7 12  4  0  0  0  0
  8  9  4  0  0  0  0
  9 10  4  0  0  0  0
 10 11  4  0  0  0  0
 11 12  4  0  0  0  0
 13 14  1  0  0  0  0
 13 18  1  0  0  0  0
 14 15  1  0  0  0  0
 15 16  1  0  0  0  0
 16 17  1  0  0  0  0
 16 19  1  0  0  0  0
 17 18  1  0  0  0  0
 19 20  1  0  0  0  0
 20 21  1  0  0  0  0
 20 22  1  0  0  0  0
 22 23  1  0  0  0  0
 23 24  1  0  0  0  0
 24 25  4  0  0  0  0
 24 29  4  0  0  0  0
 25 26  4  0  0  0  0
 26 27  4  0  0  0  0
 26 30  1  0  0  0  0
 27 28  4  0  0  0  0
 28 29  4  0  0  0  0
 30 31  1  0  0  0  0
M  END
>  <Name_Molregno>
181997

>  <5-HT1A>
8.77

$$$$
189733
  Marvin  02231216192D 0   1.00000     0.00000     0

 45 50  0  0  1  0  0  0  0  0999 V2000
   -2.9129   -5.9727    0.0000 F   0  0  0  0  0  0  0  0  0
   -2.1984   -5.5602    0.0000 C   0  0  0  0  0  0  0  0  0
   -2.1984   -4.7352    0.0000 C   0  0  0  0  0  0  0  0  0
   -1.4839   -4.3227    0.0000 C   0  0  0  0  0  0  0  0  0
   -0.7694   -4.7352    0.0000 C   0  0  0  0  0  0  0  0  0
   -0.7694   -5.5602    0.0000 C   0  0  0  0  0  0  0  0  0
   -1.4839   -5.9727    0.0000 C   0  0  0  0  0  0  0  0  0
   -0.0550   -4.3227    0.0000 C   0  0  0  0  0  0  0  0  0
   -0.0550   -3.4977    0.0000 C   0  0  0  0  0  0  0  0  0
    0.6595   -3.0852    0.0000 C   0  0  0  0  0  0  0  0  0
    1.3740   -3.4977    0.0000 N   0  0  0  0  0  0  0  0  0
    1.3740   -4.3227    0.0000 C   0  0  0  0  0  0  0  0  0
    0.6595   -4.7352    0.0000 C   0  0  0  0  0  0  0  0  0
    0.6595   -5.5602    0.0000 C   0  0  0  0  0  0  0  0  0
   -0.0550   -5.9727    0.0000 O   0  0  0  0  0  0  0  0  0
   -0.0550   -6.7977    0.0000 C   0  0  0  0  0  0  0  0  0
    0.6595   -7.2102    0.0000 C   0  0  0  0  0  0  0  0  0
    0.6595   -8.0352    0.0000 C   0  0  0  0  0  0  0  0  0
    1.2726   -8.5872    0.0000 O   0  0  0  0  0  0  0  0  0
    0.9370   -9.3409    0.0000 C   0  0  0  0  0  0  0  0  0
    0.1166   -9.2546    0.0000 O   0  0  0  0  0  0  0  0  0
   -0.0550   -8.4477    0.0000 C   0  0  0  0  0  0  0  0  0
   -0.7694   -8.0352    0.0000 C   0  0  0  0  0  0  0  0  0
   -0.7694   -7.2102    0.0000 C   0  0  0  0  0  0  0  0  0
    2.0884   -3.0852    0.0000 C   0  0  0  0  0  0  0  0  0
    2.8029   -3.4977    0.0000 C   0  0  0  0  0  0  0  0  0
    3.5174   -3.0852    0.0000 C   0  0  0  0  0  0  0  0  0
    4.2319   -3.4977    0.0000 C   0  0  0  0  0  0  0  0  0
    4.9463   -3.0852    0.0000 C   0  0  0  0  0  0  0  0  0
    5.6608   -3.4977    0.0000 C   0  0  0  0  0  0  0  0  0
    6.3753   -3.0852    0.0000 N   0  0  0  0  0  0  0  0  0
    7.0897   -3.4977    0.0000 C   0  0  0  0  0  0  0  0  0
    7.8042   -3.0852    0.0000 C   0  0  0  0  0  0  0  0  0
    7.8042   -2.2602    0.0000 O   0  0  0  0  0  0  0  0  0
    8.5187   -3.4977    0.0000 C   0  0  0  0  0  0  0  0  0
    9.2331   -3.0852    0.0000 O   0  0  0  0  0  0  0  0  0
    9.9476   -3.4977    0.0000 C   0  0  0  0  0  0  0  0  0
   10.6621   -3.0852    0.0000 C   0  0  0  0  0  0  0  0  0
   11.3766   -3.4977    0.0000 C   0  0  0  0  0  0  0  0  0
   11.9897   -2.9456    0.0000 N   0  0  0  0  0  0  0  0  0
   11.6541   -2.1920    0.0000 C   0  0  0  0  0  0  0  0  0
   10.8336   -2.2782    0.0000 C   0  0  0  0  0  0  0  0  0
   11.3766   -4.3227    0.0000 C   0  0  0  0  0  0  0  0  0
   10.6621   -4.7352    0.0000 C   0  0  0  0  0  0  0  0  0
    9.9476   -4.3227    0.0000 C   0  0  0  0  0  0  0  0  0
  1  2  1  0  0  0  0
  2  3  4  0  0  0  0
  2  7  4  0  0  0  0
  3  4  4  0  0  0  0
  4  5  4  0  0  0  0
  5  6  4  0  0  0  0
  5  8  1  0  0  0  0
  6  7  4  0  0  0  0
  8  9  1  0  0  0  0
  8 13  1  0  0  0  0
  9 10  1  0  0  0  0
 10 11  1  0  0  0  0
 11 12  1  0  0  0  0
 11 25  1  0  0  0  0
 12 13  1  0  0  0  0
 13 14  1  0  0  0  0
 14 15  1  0  0  0  0
 15 16  1  0  0  0  0
 16 17  4  0  0  0  0
 16 24  4  0  0  0  0
 17 18  4  0  0  0  0
 18 19  1  0  0  0  0
 18 22  4  0  0  0  0
 19 20  1  0  0  0  0
 20 21  1  0  0  0  0
 21 22  1  0  0  0  0
 22 23  4  0  0  0  0
 23 24  4  0  0  0  0
 25 26  1  0  0  0  0
 26 27  1  0  0  0  0
 27 28  1  0  0  0  0
 28 29  1  0  0  0  0
 29 30  1  0  0  0  0
 30 31  1  0  0  0  0
 31 32  1  0  0  0  0
 32 33  1  0  0  0  0
 33 34  1  0  0  0  0
 33 35  1  0  0  0  0
 35 36  1  0  0  0  0
 36 37  1  0  0  0  0
 37 38  4  0  0  0  0
 37 45  4  0  0  0  0
 38 39  4  0  0  0  0
 38 42  4  0  0  0  0
 39 40  4  0  0  0  0
 39 43  4  0  0  0  0
 40 41  4  0  0  0  0
 41 42  4  0  0  0  0
 43 44  4  0  0  0  0
 44 45  4  0  0  0  0
M  STY  1   1 DAT
M  SAL   1  1  40
M  SDT   1 MRV_IMPLICIT_H                                        
M  SDD   1     0.0000    0.0000    DR    ALL  0       0  
M  SED   1 IMPL_H1
M  END
>  <Name_Molregno>
189733

>  <5-HT1A>
8.17

$$$$
189769
  Marvin  02231216192D 0   1.00000     0.00000     0

 35 38  0  0  1  0  0  0  0  0999 V2000
   -9.1917   -2.6724    0.0000 F   0  0  0  0  0  0  0  0  0
   -8.4772   -2.2599    0.0000 C   0  0  0  0  0  0  0  0  0
   -8.0647   -2.9743    0.0000 F   0  0  0  0  0  0  0  0  0
   -8.8897   -1.5454    0.0000 F   0  0  0  0  0  0  0  0  0
   -7.7628   -1.8474    0.0000 C   0  0  0  0  0  0  0  0  0
   -7.7628   -1.0224    0.0000 C   0  0  0  0  0  0  0  0  0
   -7.0483   -0.6099    0.0000 C   0  0  0  0  0  0  0  0  0
   -6.3338   -1.0224    0.0000 C   0  0  0  0  0  0  0  0  0
   -5.6194   -0.6099    0.0000 O   0  0  0  0  0  0  0  0  0
   -4.9049   -1.0224    0.0000 C   0  0  0  0  0  0  0  0  0
   -4.1904   -0.6099    0.0000 C   0  0  0  0  0  0  0  0  0
   -3.4759   -1.0224    0.0000 C   0  0  0  0  0  0  0  0  0
   -2.7615   -0.6099    0.0000 N   0  0  0  0  0  0  0  0  0
   -2.0470   -1.0224    0.0000 C   0  0  0  0  0  0  0  0  0
   -1.3325   -0.6099    0.0000 C   0  0  0  0  0  0  0  0  0
   -1.3325    0.2151    0.0000 O   0  0  0  0  0  0  0  0  0
   -0.6181   -1.0224    0.0000 C   0  0  0  0  0  0  0  0  0
    0.0964   -0.6099    0.0000 O   0  0  0  0  0  0  0  0  0
    0.8109   -1.0224    0.0000 C   0  0  0  0  0  0  0  0  0
    1.5254   -0.6099    0.0000 C   0  0  0  0  0  0  0  0  0
    2.2398   -1.0224    0.0000 C   0  0  0  0  0  0  0  0  0
    2.8529   -0.4703    0.0000 N   0  0  0  0  0  0  0  0  0
    2.5174    0.2833    0.0000 C   0  0  0  0  0  0  0  0  0
    1.6969    0.1971    0.0000 C   0  0  0  0  0  0  0  0  0
    2.2398   -1.8474    0.0000 C   0  0  0  0  0  0  0  0  0
    1.5254   -2.2599    0.0000 C   0  0  0  0  0  0  0  0  0
    0.8109   -1.8474    0.0000 C   0  0  0  0  0  0  0  0  0
   -4.9049   -1.8474    0.0000 C   0  0  0  0  0  0  0  0  0
   -4.1904   -2.2599    0.0000 C   0  0  0  0  0  0  0  0  0
   -4.1904   -3.0849    0.0000 C   0  0  0  0  0  0  0  0  0
   -4.9049   -3.4974    0.0000 C   0  0  0  0  0  0  0  0  0
   -5.6194   -3.0849    0.0000 C   0  0  0  0  0  0  0  0  0
   -5.6194   -2.2599    0.0000 C   0  0  0  0  0  0  0  0  0
   -6.3338   -1.8474    0.0000 C   0  0  0  0  0  0  0  0  0
   -7.0483   -2.2599    0.0000 C   0  0  0  0  0  0  0  0  0
  1  2  1  0  0  0  0
  2  3  1  0  0  0  0
  2  4  1  0  0  0  0
  2  5  1  0  0  0  0
  5  6  4  0  0  0  0
  5 35  4  0  0  0  0
  6  7  4  0  0  0  0
  7  8  4  0  0  0  0
  8  9  1  0  0  0  0
  8 34  4  0  0  0  0
  9 10  1  0  0  0  0
 10 11  1  0  0  0  0
 10 28  1  0  0  0  0
 11 12  1  0  0  0  0
 12 13  1  0  0  0  0
 13 14  1  0  0  0  0
 14 15  1  0  0  0  0
 15 16  1  0  0  0  0
 15 17  1  0  0  0  0
 17 18  1  0  0  0  0
 18 19  1  0  0  0  0
 19 20  4  0  0  0  0
 19 27  4  0  0  0  0
 20 21  4  0  0  0  0
 20 24  4  0  0  0  0
 21 22  4  0  0  0  0
 21 25  4  0  0  0  0
 22 23  4  0  0  0  0
 23 24  4  0  0  0  0
 25 26  4  0  0  0  0
 26 27  4  0  0  0  0
 28 29  4  0  0  0  0
 28 33  4  0  0  0  0
 29 30  4  0  0  0  0
 30 31  4  0  0  0  0
 31 32  4  0  0  0  0
 32 33  4  0  0  0  0
 34 35  4  0  0  0  0
M  STY  1   1 DAT
M  SAL   1  1  22
M  SDT   1 MRV_IMPLICIT_H                                        
M  SDD   1     0.0000    0.0000    DR    ALL  0       0  
M  SED   1 IMPL_H1
M  END
>  <Name_Molregno>
189769

>  <5-HT1A>
7.69

$$$$
189899
  Marvin  02231216192D 0   1.00000     0.00000     0

 36 39  0  0  1  0  0  0  0  0999 V2000
   -1.5737   -0.4755    0.0000 F   0  0  0  0  0  0  0  0  0
   -0.8593   -0.8880    0.0000 C   0  0  0  0  0  0  0  0  0
   -1.2718   -1.6024    0.0000 F   0  0  0  0  0  0  0  0  0
   -0.4468   -0.1735    0.0000 F   0  0  0  0  0  0  0  0  0
   -0.1448   -1.3005    0.0000 C   0  0  0  0  0  0  0  0  0
    0.5697   -0.8880    0.0000 C   0  0  0  0  0  0  0  0  0
    1.2842   -1.3005    0.0000 C   0  0  0  0  0  0  0  0  0
    1.2842   -2.1255    0.0000 C   0  0  0  0  0  0  0  0  0
    1.9986   -2.5380    0.0000 O   0  0  0  0  0  0  0  0  0
    2.7131   -2.1255    0.0000 C   0  0  0  0  0  0  0  0  0
    3.4276   -2.5380    0.0000 C   0  0  0  0  0  0  0  0  0
    4.1420   -2.1255    0.0000 C   0  0  0  0  0  0  0  0  0
    4.8565   -2.5380    0.0000 N   0  0  0  0  0  0  0  0  0
    5.5710   -2.1255    0.0000 C   0  0  0  0  0  0  0  0  0
    6.2855   -2.5380    0.0000 C   0  0  0  0  0  0  0  0  0
    6.2855   -3.3630    0.0000 O   0  0  0  0  0  0  0  0  0
    6.9999   -2.1255    0.0000 C   0  0  0  0  0  0  0  0  0
    7.7144   -2.5380    0.0000 O   0  0  0  0  0  0  0  0  0
    8.4289   -2.1255    0.0000 C   0  0  0  0  0  0  0  0  0
    9.1433   -2.5380    0.0000 C   0  0  0  0  0  0  0  0  0
    9.8578   -2.1255    0.0000 C   0  0  0  0  0  0  0  0  0
    9.8578   -1.3005    0.0000 C   0  0  0  0  0  0  0  0  0
    9.1433   -0.8880    0.0000 C   0  0  0  0  0  0  0  0  0
    8.4289   -1.3005    0.0000 C   0  0  0  0  0  0  0  0  0
   10.5723   -2.5380    0.0000 C   0  0  0  0  0  0  0  0  0
   10.5723   -3.3630    0.0000 C   0  0  0  0  0  0  0  0  0
    9.8578   -3.7755    0.0000 C   0  0  0  0  0  0  0  0  0
    9.1433   -3.3630    0.0000 C   0  0  0  0  0  0  0  0  0
    2.7131   -1.3005    0.0000 C   0  0  0  0  0  0  0  0  0
    1.9986   -0.8880    0.0000 C   0  0  0  0  0  0  0  0  0
    1.9986   -0.0630    0.0000 C   0  0  0  0  0  0  0  0  0
    2.7131    0.3495    0.0000 C   0  0  0  0  0  0  0  0  0
    3.4276   -0.0630    0.0000 C   0  0  0  0  0  0  0  0  0
    3.4276   -0.8880    0.0000 C   0  0  0  0  0  0  0  0  0
    0.5697   -2.5380    0.0000 C   0  0  0  0  0  0  0  0  0
   -0.1448   -2.1255    0.0000 C   0  0  0  0  0  0  0  0  0
  1  2  1  0  0  0  0
  2  3  1  0  0  0  0
  2  4  1  0  0  0  0
  2  5  1  0  0  0  0
  5  6  4  0  0  0  0
  5 36  4  0  0  0  0
  6  7  4  0  0  0  0
  7  8  4  0  0  0  0
  8  9  1  0  0  0  0
  8 35  4  0  0  0  0
  9 10  1  0  0  0  0
 10 11  1  0  0  0  0
 10 29  1  0  0  0  0
 11 12  1  0  0  0  0
 12 13  1  0  0  0  0
 13 14  1  0  0  0  0
 14 15  1  0  0  0  0
 15 16  1  0  0  0  0
 15 17  1  0  0  0  0
 17 18  1  0  0  0  0
 18 19  1  0  0  0  0
 19 20  4  0  0  0  0
 19 24  4  0  0  0  0
 20 21  4  0  0  0  0
 20 28  4  0  0  0  0
 21 22  4  0  0  0  0
 21 25  4  0  0  0  0
 22 23  4  0  0  0  0
 23 24  4  0  0  0  0
 25 26  4  0  0  0  0
 26 27  4  0  0  0  0
 27 28  4  0  0  0  0
 29 30  4  0  0  0  0
 29 34  4  0  0  0  0
 30 31  4  0  0  0  0
 31 32  4  0  0  0  0
 32 33  4  0  0  0  0
 33 34  4  0  0  0  0
 35 36  4  0  0  0  0
M  END
>  <Name_Molregno>
189899

>  <5-HT1A>
7.16

$$$$
189963
  Marvin  02231216192D 0   1.00000     0.00000     0

 32 35  0  0  1  0  0  0  0  0999 V2000
   -4.5192    1.6260    0.0000 O   0  0  0  0  0  0  0  0  0
   -3.8048    2.0385    0.0000 C   0  0  0  0  0  0  0  0  0
   -3.0903    1.6260    0.0000 C   0  0  0  0  0  0  0  0  0
   -3.0903    0.8010    0.0000 O   0  0  0  0  0  0  0  0  0
   -2.3758    2.0385    0.0000 C   0  0  0  0  0  0  0  0  0
   -1.6613    1.6260    0.0000 N   0  0  0  0  0  0  0  0  0
   -0.9469    2.0385    0.0000 C   0  0  0  0  0  0  0  0  0
   -0.2324    1.6260    0.0000 C   0  0  0  0  0  0  0  0  0
    0.5926    1.6260    0.0000 C   0  0  0  0  0  0  0  0  0
    0.1801    0.9115    0.0000 C   0  0  0  0  0  0  0  0  0
   -0.4788    0.4150    0.0000 C   0  0  0  0  0  0  0  0  0
   -1.2382    0.7374    0.0000 O   0  0  0  0  0  0  0  0  0
   -0.6362   -0.3948    0.0000 N   0  0  0  0  0  0  0  0  0
   -1.4162   -0.6634    0.0000 C   0  0  0  0  0  0  0  0  0
   -1.5737   -1.4733    0.0000 C   0  0  0  0  0  0  0  0  0
   -0.0136   -0.9361    0.0000 C   0  0  0  0  0  0  0  0  0
   -0.1710   -1.7459    0.0000 C   0  0  0  0  0  0  0  0  0
    0.6533    0.2357    0.0000 C   0  0  0  0  0  0  0  0  0
    1.4752    0.3076    0.0000 C   0  0  0  0  0  0  0  0  0
    1.9484   -0.3682    0.0000 C   0  0  0  0  0  0  0  0  0
    1.5997   -1.1159    0.0000 C   0  0  0  0  0  0  0  0  0
    0.7778   -1.1878    0.0000 C   0  0  0  0  0  0  0  0  0
    0.3046   -0.5120    0.0000 C   0  0  0  0  0  0  0  0  0
   -5.2337    2.0385    0.0000 C   0  0  0  0  0  0  0  0  0
   -5.9482    1.6260    0.0000 C   0  0  0  0  0  0  0  0  0
   -6.6626    2.0385    0.0000 C   0  0  0  0  0  0  0  0  0
   -7.2757    1.4865    0.0000 N   0  0  0  0  0  0  0  0  0
   -6.9402    0.7328    0.0000 C   0  0  0  0  0  0  0  0  0
   -6.1197    0.8190    0.0000 C   0  0  0  0  0  0  0  0  0
   -6.6626    2.8635    0.0000 C   0  0  0  0  0  0  0  0  0
   -5.9482    3.2760    0.0000 C   0  0  0  0  0  0  0  0  0
   -5.2337    2.8635    0.0000 C   0  0  0  0  0  0  0  0  0
  1  2  1  0  0  0  0
  1 24  1  0  0  0  0
  2  3  1  0  0  0  0
  3  4  1  0  0  0  0
  3  5  1  0  0  0  0
  5  6  1  0  0  0  0
  6  7  1  0  0  0  0
  7  8  1  0  0  0  0
  8  9  1  0  0  0  0
  8 10  1  0  0  0  0
  9 10  1  0  0  0  0
 10 11  1  0  0  0  0
 10 18  1  0  0  0  0
 11 12  2  0  0  0  0
 11 13  1  0  0  0  0
 13 14  1  0  0  0  0
 13 16  1  0  0  0  0
 14 15  1  0  0  0  0
 16 17  1  0  0  0  0
 18 19  4  0  0  0  0
 18 23  4  0  0  0  0
 19 20  4  0  0  0  0
 20 21  4  0  0  0  0
 21 22  4  0  0  0  0
 22 23  4  0  0  0  0
 24 25  4  0  0  0  0
 24 32  4  0  0  0  0
 25 26  4  0  0  0  0
 25 29  4  0  0  0  0
 26 27  4  0  0  0  0
 26 30  4  0  0  0  0
 27 28  4  0  0  0  0
 28 29  4  0  0  0  0
 30 31  4  0  0  0  0
 31 32  4  0  0  0  0
M  STY  1   1 DAT
M  SAL   1  1  27
M  SDT   1 MRV_IMPLICIT_H                                        
M  SDD   1     0.0000    0.0000    DR    ALL  0       0  
M  SED   1 IMPL_H1
M  END
>  <Name_Molregno>
189963

>  <5-HT1A>
7.35

$$$$
190006
  Marvin  02231216192D 0   1.00000     0.00000     0

 37 40  0  0  1  0  0  0  0  0999 V2000
  -10.4812   -0.2019    0.0000 F   0  0  0  0  0  0  0  0  0
   -9.7667   -0.6144    0.0000 C   0  0  0  0  0  0  0  0  0
  -10.1792   -1.3289    0.0000 F   0  0  0  0  0  0  0  0  0
   -9.3542    0.1000    0.0000 F   0  0  0  0  0  0  0  0  0
   -9.0522   -1.0269    0.0000 C   0  0  0  0  0  0  0  0  0
   -8.3378   -0.6144    0.0000 C   0  0  0  0  0  0  0  0  0
   -7.6233   -1.0269    0.0000 C   0  0  0  0  0  0  0  0  0
   -7.6233   -1.8519    0.0000 C   0  0  0  0  0  0  0  0  0
   -6.9088   -2.2644    0.0000 O   0  0  0  0  0  0  0  0  0
   -6.1943   -1.8519    0.0000 C   0  0  0  0  0  0  0  0  0
   -5.4799   -2.2644    0.0000 C   0  0  0  0  0  0  0  0  0
   -4.7654   -1.8519    0.0000 C   0  0  0  0  0  0  0  0  0
   -4.0509   -2.2644    0.0000 N   0  0  0  0  0  0  0  0  0
   -3.3365   -1.8519    0.0000 C   0  0  0  0  0  0  0  0  0
   -2.6220   -2.2644    0.0000 C   0  0  0  0  0  0  0  0  0
   -2.6220   -3.0894    0.0000 O   0  0  0  0  0  0  0  0  0
   -1.9075   -1.8519    0.0000 C   0  0  0  0  0  0  0  0  0
   -1.1930   -2.2644    0.0000 O   0  0  0  0  0  0  0  0  0
   -0.4786   -1.8519    0.0000 C   0  0  0  0  0  0  0  0  0
   -0.4786   -1.0269    0.0000 C   0  0  0  0  0  0  0  0  0
    0.2359   -0.6144    0.0000 C   0  0  0  0  0  0  0  0  0
    0.9504   -1.0269    0.0000 C   0  0  0  0  0  0  0  0  0
    0.9504   -1.8519    0.0000 C   0  0  0  0  0  0  0  0  0
    0.2359   -2.2644    0.0000 C   0  0  0  0  0  0  0  0  0
    0.2359   -3.0894    0.0000 C   0  0  0  0  0  0  0  0  0
    0.9033   -3.5744    0.0000 C   0  0  0  0  0  0  0  0  0
    0.6484   -4.3590    0.0000 C   0  0  0  0  0  0  0  0  0
   -0.1766   -4.3590    0.0000 C   0  0  0  0  0  0  0  0  0
   -0.4315   -3.5744    0.0000 C   0  0  0  0  0  0  0  0  0
   -6.1943   -1.0269    0.0000 C   0  0  0  0  0  0  0  0  0
   -6.9088   -0.6144    0.0000 C   0  0  0  0  0  0  0  0  0
   -6.9088    0.2106    0.0000 C   0  0  0  0  0  0  0  0  0
   -6.1943    0.6231    0.0000 C   0  0  0  0  0  0  0  0  0
   -5.4799    0.2106    0.0000 C   0  0  0  0  0  0  0  0  0
   -5.4799   -0.6144    0.0000 C   0  0  0  0  0  0  0  0  0
   -8.3378   -2.2644    0.0000 C   0  0  0  0  0  0  0  0  0
   -9.0522   -1.8519    0.0000 C   0  0  0  0  0  0  0  0  0
  1  2  1  0  0  0  0
  2  3  1  0  0  0  0
  2  4  1  0  0  0  0
  2  5  1  0  0  0  0
  5  6  4  0  0  0  0
  5 37  4  0  0  0  0
  6  7  4  0  0  0  0
  7  8  4  0  0  0  0
  8  9  1  0  0  0  0
  8 36  4  0  0  0  0
  9 10  1  0  0  0  0
 10 11  1  0  0  0  0
 10 30  1  0  0  0  0
 11 12  1  0  0  0  0
 12 13  1  0  0  0  0
 13 14  1  0  0  0  0
 14 15  1  0  0  0  0
 15 16  1  0  0  0  0
 15 17  1  0  0  0  0
 17 18  1  0  0  0  0
 18 19  1  0  0  0  0
 19 20  4  0  0  0  0
 19 24  4  0  0  0  0
 20 21  4  0  0  0  0
 21 22  4  0  0  0  0
 22 23  4  0  0  0  0
 23 24  4  0  0  0  0
 24 25  1  0  0  0  0
 25 26  1  0  0  0  0
 25 29  1  0  0  0  0
 26 27  1  0  0  0  0
 27 28  1  0  0  0  0
 28 29  1  0  0  0  0
 30 31  4  0  0  0  0
 30 35  4  0  0  0  0
 31 32  4  0  0  0  0
 32 33  4  0  0  0  0
 33 34  4  0  0  0  0
 34 35  4  0  0  0  0
 36 37  4  0  0  0  0
M  END
>  <Name_Molregno>
190006

>  <5-HT1A>
7.44

$$$$
190074
  Marvin  02231216192D 0   1.00000     0.00000     0

 18 19  0  0  1  0  0  0  0  0999 V2000
   -0.0067   -0.0070    0.0000 O   0  0  0  0  0  0  0  0  0
    0.7077    0.4055    0.0000 C   0  0  0  0  0  0  0  0  0
    1.4222   -0.0070    0.0000 C   0  0  0  0  0  0  0  0  0
    1.4222   -0.8320    0.0000 O   0  0  0  0  0  0  0  0  0
    2.1367    0.4055    0.0000 C   0  0  0  0  0  0  0  0  0
    2.8511   -0.0070    0.0000 N   0  0  0  0  0  0  0  0  0
    3.5656    0.4055    0.0000 C   0  0  0  0  0  0  0  0  0
    4.2801   -0.0070    0.0000 C   0  0  0  0  0  0  0  0  0
    3.5656    1.2305    0.0000 C   0  0  0  0  0  0  0  0  0
   -0.7212    0.4055    0.0000 C   0  0  0  0  0  0  0  0  0
   -1.4357   -0.0070    0.0000 C   0  0  0  0  0  0  0  0  0
   -2.1502    0.4055    0.0000 C   0  0  0  0  0  0  0  0  0
   -2.7633   -0.1465    0.0000 N   0  0  0  0  0  0  0  0  0
   -2.4277   -0.9002    0.0000 C   0  0  0  0  0  0  0  0  0
   -1.6072   -0.8139    0.0000 C   0  0  0  0  0  0  0  0  0
   -2.1502    1.2305    0.0000 C   0  0  0  0  0  0  0  0  0
   -1.4357    1.6430    0.0000 C   0  0  0  0  0  0  0  0  0
   -0.7212    1.2305    0.0000 C   0  0  0  0  0  0  0  0  0
  1  2  1  0  0  0  0
  1 10  1  0  0  0  0
  2  3  1  0  0  0  0
  3  4  1  0  0  0  0
  3  5  1  0  0  0  0
  5  6  1  0  0  0  0
  6  7  1  0  0  0  0
  7  8  1  0  0  0  0
  7  9  1  0  0  0  0
 10 11  4  0  0  0  0
 10 18  4  0  0  0  0
 11 12  4  0  0  0  0
 11 15  4  0  0  0  0
 12 13  4  0  0  0  0
 12 16  4  0  0  0  0
 13 14  4  0  0  0  0
 14 15  4  0  0  0  0
 16 17  4  0  0  0  0
 17 18  4  0  0  0  0
M  STY  1   1 DAT
M  SAL   1  1  13
M  SDT   1 MRV_IMPLICIT_H                                        
M  SDD   1     0.0000    0.0000    DR    ALL  0       0  
M  SED   1 IMPL_H1
M  END
>  <Name_Molregno>
190074

>  <5-HT1A>
7.39

>  <5-HT1B>
5.39

>  <5-HT1D>
5.11

>  <5-HT1E>
5

>  <5-HT2A>
5.03

>  <5-HT2C>
5

>  <5-HT7>
5

>  <Beta-1>
8.96

>  <Beta-2>
9.04

>  <Serotonin transporter>
5.15

$$$$
190286
  Marvin  02231216192D 0   1.00000     0.00000     0

 38 43  0  0  1  0  0  0  0  0999 V2000
    1.5981   -0.1770    0.0000 F   0  0  0  0  0  0  0  0  0
    1.5981    0.6480    0.0000 C   0  0  0  0  0  0  0  0  0
    0.8837    1.0605    0.0000 C   0  0  0  0  0  0  0  0  0
    0.8837    1.8855    0.0000 C   0  0  0  0  0  0  0  0  0
    1.5981    2.2980    0.0000 C   0  0  0  0  0  0  0  0  0
    2.3126    1.8855    0.0000 C   0  0  0  0  0  0  0  0  0
    2.3126    1.0605    0.0000 C   0  0  0  0  0  0  0  0  0
    1.5981    3.1230    0.0000 C   0  0  0  0  0  0  0  0  0
    0.8837    3.5355    0.0000 C   0  0  0  0  0  0  0  0  0
    0.8837    4.3605    0.0000 C   0  0  0  0  0  0  0  0  0
    1.5981    4.7730    0.0000 N   0  0  0  0  0  0  0  0  0
    2.3126    4.3605    0.0000 C   0  0  0  0  0  0  0  0  0
    2.3126    3.5355    0.0000 C   0  0  0  0  0  0  0  0  0
    3.0271    3.1230    0.0000 C   0  0  0  0  0  0  0  0  0
    3.0271    2.2980    0.0000 O   0  0  0  0  0  0  0  0  0
    3.7415    1.8855    0.0000 C   0  0  0  0  0  0  0  0  0
    4.4560    2.2980    0.0000 C   0  0  0  0  0  0  0  0  0
    5.1705    1.8855    0.0000 C   0  0  0  0  0  0  0  0  0
    5.9551    2.1404    0.0000 O   0  0  0  0  0  0  0  0  0
    6.4400    1.4730    0.0000 C   0  0  0  0  0  0  0  0  0
    5.9551    0.8055    0.0000 O   0  0  0  0  0  0  0  0  0
    5.1705    1.0605    0.0000 C   0  0  0  0  0  0  0  0  0
    4.4560    0.6480    0.0000 C   0  0  0  0  0  0  0  0  0
    3.7415    1.0605    0.0000 C   0  0  0  0  0  0  0  0  0
    1.5981    5.5980    0.0000 C   0  0  0  0  0  0  0  0  0
    0.8837    6.0105    0.0000 C   0  0  0  0  0  0  0  0  0
    0.1692    5.5980    0.0000 O   0  0  0  0  0  0  0  0  0
    0.8837    6.8355    0.0000 C   0  0  0  0  0  0  0  0  0
    0.1692    7.2480    0.0000 O   0  0  0  0  0  0  0  0  0
    0.1692    8.0730    0.0000 C   0  0  0  0  0  0  0  0  0
   -0.5453    8.4855    0.0000 C   0  0  0  0  0  0  0  0  0
   -0.5453    9.3105    0.0000 C   0  0  0  0  0  0  0  0  0
   -1.3299    9.5654    0.0000 N   0  0  0  0  0  0  0  0  0
   -1.8148    8.8980    0.0000 C   0  0  0  0  0  0  0  0  0
   -1.3299    8.2305    0.0000 C   0  0  0  0  0  0  0  0  0
    0.1692    9.7230    0.0000 C   0  0  0  0  0  0  0  0  0
    0.8837    9.3105    0.0000 C   0  0  0  0  0  0  0  0  0
    0.8837    8.4855    0.0000 C   0  0  0  0  0  0  0  0  0
  1  2  1  0  0  0  0
  2  3  4  0  0  0  0
  2  7  4  0  0  0  0
  3  4  4  0  0  0  0
  4  5  4  0  0  0  0
  5  6  4  0  0  0  0
  5  8  1  0  0  0  0
  6  7  4  0  0  0  0
  8  9  1  0  0  0  0
  8 13  1  0  0  0  0
  9 10  1  0  0  0  0
 10 11  1  0  0  0  0
 11 12  1  0  0  0  0
 11 25  1  0  0  0  0
 12 13  1  0  0  0  0
 13 14  1  0  0  0  0
 14 15  1  0  0  0  0
 15 16  1  0  0  0  0
 16 17  4  0  0  0  0
 16 24  4  0  0  0  0
 17 18  4  0  0  0  0
 18 19  1  0  0  0  0
 18 22  4  0  0  0  0
 19 20  1  0  0  0  0
 20 21  1  0  0  0  0
 21 22  1  0  0  0  0
 22 23  4  0  0  0  0
 23 24  4  0  0  0  0
 25 26  1  0  0  0  0
 26 27  1  0  0  0  0
 26 28  1  0  0  0  0
 28 29  1  0  0  0  0
 29 30  1  0  0  0  0
 30 31  4  0  0  0  0
 30 38  4  0  0  0  0
 31 32  4  0  0  0  0
 31 35  4  0  0  0  0
 32 33  4  0  0  0  0
 32 36  4  0  0  0  0
 33 34  4  0  0  0  0
 34 35  4  0  0  0  0
 36 37  4  0  0  0  0
 37 38  4  0  0  0  0
M  STY  1   1 DAT
M  SAL   1  1  33
M  SDT   1 MRV_IMPLICIT_H                                        
M  SDD   1     0.0000    0.0000    DR    ALL  0       0  
M  SED   1 IMPL_H1
M  END
>  <Name_Molregno>
190286

>  <5-HT1A>
8.01

$$$$
190655
  Marvin  02231216192D 0   1.00000     0.00000     0

 43 46  0  0  1  0  0  0  0  0999 V2000
  -13.4623   -2.5085    0.0000 F   0  0  0  0  0  0  0  0  0
  -12.7478   -2.0960    0.0000 C   0  0  0  0  0  0  0  0  0
  -12.3353   -2.8104    0.0000 F   0  0  0  0  0  0  0  0  0
  -13.1603   -1.3815    0.0000 F   0  0  0  0  0  0  0  0  0
  -12.0333   -1.6835    0.0000 C   0  0  0  0  0  0  0  0  0
  -12.0333   -0.8585    0.0000 C   0  0  0  0  0  0  0  0  0
  -11.3188   -0.4460    0.0000 C   0  0  0  0  0  0  0  0  0
  -10.6044   -0.8585    0.0000 C   0  0  0  0  0  0  0  0  0
   -9.8899   -0.4460    0.0000 O   0  0  0  0  0  0  0  0  0
   -9.1754   -0.8585    0.0000 C   0  0  0  0  0  0  0  0  0
   -8.4610   -0.4460    0.0000 C   0  0  0  0  0  0  0  0  0
   -7.7465   -0.8585    0.0000 C   0  0  0  0  0  0  0  0  0
   -7.0320   -0.4460    0.0000 N   0  0  0  0  0  0  0  0  0
   -6.3175   -0.8585    0.0000 C   0  0  0  0  0  0  0  0  0
   -5.6031   -0.4460    0.0000 C   0  0  0  0  0  0  0  0  0
   -4.8886   -0.8585    0.0000 C   0  0  0  0  0  0  0  0  0
   -4.1741   -0.4460    0.0000 C   0  0  0  0  0  0  0  0  0
   -3.4597   -0.8585    0.0000 C   0  0  0  0  0  0  0  0  0
   -2.7452   -0.4460    0.0000 C   0  0  0  0  0  0  0  0  0
   -2.0307   -0.8585    0.0000 N   0  0  0  0  0  0  0  0  0
   -1.3163   -0.4460    0.0000 C   0  0  0  0  0  0  0  0  0
   -0.6018   -0.8585    0.0000 C   0  0  0  0  0  0  0  0  0
   -0.6018   -1.6835    0.0000 O   0  0  0  0  0  0  0  0  0
    0.1127   -0.4460    0.0000 C   0  0  0  0  0  0  0  0  0
    0.8272   -0.8585    0.0000 O   0  0  0  0  0  0  0  0  0
    1.5416   -0.4460    0.0000 C   0  0  0  0  0  0  0  0  0
    2.2561   -0.8585    0.0000 C   0  0  0  0  0  0  0  0  0
    2.9706   -0.4460    0.0000 C   0  0  0  0  0  0  0  0  0
    2.9706    0.3790    0.0000 C   0  0  0  0  0  0  0  0  0
    2.2561    0.7915    0.0000 C   0  0  0  0  0  0  0  0  0
    1.5416    0.3790    0.0000 C   0  0  0  0  0  0  0  0  0
    3.6850   -0.8585    0.0000 C   0  0  0  0  0  0  0  0  0
    3.6850   -1.6835    0.0000 C   0  0  0  0  0  0  0  0  0
    2.9706   -2.0960    0.0000 C   0  0  0  0  0  0  0  0  0
    2.2561   -1.6835    0.0000 C   0  0  0  0  0  0  0  0  0
   -9.1754   -1.6835    0.0000 C   0  0  0  0  0  0  0  0  0
   -8.4610   -2.0960    0.0000 C   0  0  0  0  0  0  0  0  0
   -8.4610   -2.9210    0.0000 C   0  0  0  0  0  0  0  0  0
   -9.1754   -3.3335    0.0000 C   0  0  0  0  0  0  0  0  0
   -9.8899   -2.9210    0.0000 C   0  0  0  0  0  0  0  0  0
   -9.8899   -2.0960    0.0000 C   0  0  0  0  0  0  0  0  0
  -10.6044   -1.6835    0.0000 C   0  0  0  0  0  0  0  0  0
  -11.3188   -2.0960    0.0000 C   0  0  0  0  0  0  0  0  0
  1  2  1  0  0  0  0
  2  3  1  0  0  0  0
  2  4  1  0  0  0  0
  2  5  1  0  0  0  0
  5  6  4  0  0  0  0
  5 43  4  0  0  0  0
  6  7  4  0  0  0  0
  7  8  4  0  0  0  0
  8  9  1  0  0  0  0
  8 42  4  0  0  0  0
  9 10  1  0  0  0  0
 10 11  1  0  0  0  0
 10 36  1  0  0  0  0
 11 12  1  0  0  0  0
 12 13  1  0  0  0  0
 13 14  1  0  0  0  0
 14 15  1  0  0  0  0
 15 16  1  0  0  0  0
 16 17  1  0  0  0  0
 17 18  1  0  0  0  0
 18 19  1  0  0  0  0
 19 20  1  0  0  0  0
 20 21  1  0  0  0  0
 21 22  1  0  0  0  0
 22 23  1  0  0  0  0
 22 24  1  0  0  0  0
 24 25  1  0  0  0  0
 25 26  1  0  0  0  0
 26 27  4  0  0  0  0
 26 31  4  0  0  0  0
 27 28  4  0  0  0  0
 27 35  4  0  0  0  0
 28 29  4  0  0  0  0
 28 32  4  0  0  0  0
 29 30  4  0  0  0  0
 30 31  4  0  0  0  0
 32 33  4  0  0  0  0
 33 34  4  0  0  0  0
 34 35  4  0  0  0  0
 36 37  4  0  0  0  0
 36 41  4  0  0  0  0
 37 38  4  0  0  0  0
 38 39  4  0  0  0  0
 39 40  4  0  0  0  0
 40 41  4  0  0  0  0
 42 43  4  0  0  0  0
M  END
>  <Name_Molregno>
190655

>  <5-HT1A>
6.41

$$$$
190656
  Marvin  02231216192D 0   1.00000     0.00000     0

 46 51  0  0  1  0  0  0  0  0999 V2000
   -2.1936   -2.2006    0.0000 F   0  0  0  0  0  0  0  0  0
   -1.4791   -2.6131    0.0000 C   0  0  0  0  0  0  0  0  0
   -0.7647   -2.2006    0.0000 C   0  0  0  0  0  0  0  0  0
   -0.0502   -2.6131    0.0000 C   0  0  0  0  0  0  0  0  0
   -0.0502   -3.4381    0.0000 C   0  0  0  0  0  0  0  0  0
   -0.7647   -3.8506    0.0000 C   0  0  0  0  0  0  0  0  0
   -1.4791   -3.4381    0.0000 C   0  0  0  0  0  0  0  0  0
    0.6643   -3.8506    0.0000 C   0  0  0  0  0  0  0  0  0
    1.3788   -3.4381    0.0000 C   0  0  0  0  0  0  0  0  0
    2.0932   -3.8506    0.0000 C   0  0  0  0  0  0  0  0  0
    2.0932   -4.6756    0.0000 N   0  0  0  0  0  0  0  0  0
    1.3788   -5.0881    0.0000 C   0  0  0  0  0  0  0  0  0
    0.6643   -4.6756    0.0000 C   0  0  0  0  0  0  0  0  0
   -0.0502   -5.0881    0.0000 C   0  0  0  0  0  0  0  0  0
   -0.7647   -4.6756    0.0000 O   0  0  0  0  0  0  0  0  0
   -1.4791   -5.0881    0.0000 C   0  0  0  0  0  0  0  0  0
   -1.4791   -5.9131    0.0000 C   0  0  0  0  0  0  0  0  0
   -2.1936   -6.3256    0.0000 C   0  0  0  0  0  0  0  0  0
   -2.3651   -7.1326    0.0000 O   0  0  0  0  0  0  0  0  0
   -3.1856   -7.2188    0.0000 C   0  0  0  0  0  0  0  0  0
   -3.5212   -6.4651    0.0000 O   0  0  0  0  0  0  0  0  0
   -2.9081   -5.9131    0.0000 C   0  0  0  0  0  0  0  0  0
   -2.9081   -5.0881    0.0000 C   0  0  0  0  0  0  0  0  0
   -2.1936   -4.6756    0.0000 C   0  0  0  0  0  0  0  0  0
    2.8077   -5.0881    0.0000 C   0  0  0  0  0  0  0  0  0
    3.5222   -4.6756    0.0000 C   0  0  0  0  0  0  0  0  0
    4.2366   -5.0881    0.0000 C   0  0  0  0  0  0  0  0  0
    4.9511   -4.6756    0.0000 C   0  0  0  0  0  0  0  0  0
    5.6656   -5.0881    0.0000 C   0  0  0  0  0  0  0  0  0
    6.3801   -4.6756    0.0000 C   0  0  0  0  0  0  0  0  0
    7.0945   -5.0881    0.0000 N   0  0  0  0  0  0  0  0  0
    7.8090   -4.6756    0.0000 C   0  0  0  0  0  0  0  0  0
    8.5235   -5.0881    0.0000 C   0  0  0  0  0  0  0  0  0
    8.5235   -5.9131    0.0000 O   0  0  0  0  0  0  0  0  0
    9.2379   -4.6756    0.0000 C   0  0  0  0  0  0  0  0  0
    9.9524   -5.0881    0.0000 O   0  0  0  0  0  0  0  0  0
   10.6669   -4.6756    0.0000 C   0  0  0  0  0  0  0  0  0
   11.3813   -5.0881    0.0000 C   0  0  0  0  0  0  0  0  0
   12.0958   -4.6756    0.0000 C   0  0  0  0  0  0  0  0  0
   12.0958   -3.8506    0.0000 C   0  0  0  0  0  0  0  0  0
   11.3813   -3.4381    0.0000 C   0  0  0  0  0  0  0  0  0
   10.6669   -3.8506    0.0000 C   0  0  0  0  0  0  0  0  0
   12.8103   -5.0881    0.0000 C   0  0  0  0  0  0  0  0  0
   12.8103   -5.9131    0.0000 C   0  0  0  0  0  0  0  0  0
   12.0958   -6.3256    0.0000 C   0  0  0  0  0  0  0  0  0
   11.3813   -5.9131    0.0000 C   0  0  0  0  0  0  0  0  0
  1  2  1  0  0  0  0
  2  3  4  0  0  0  0
  2  7  4  0  0  0  0
  3  4  4  0  0  0  0
  4  5  4  0  0  0  0
  5  6  4  0  0  0  0
  5  8  1  0  0  0  0
  6  7  4  0  0  0  0
  8  9  1  0  0  0  0
  8 13  1  0  0  0  0
  9 10  1  0  0  0  0
 10 11  1  0  0  0  0
 11 12  1  0  0  0  0
 11 25  1  0  0  0  0
 12 13  1  0  0  0  0
 13 14  1  0  0  0  0
 14 15  1  0  0  0  0
 15 16  1  0  0  0  0
 16 17  4  0  0  0  0
 16 24  4  0  0  0  0
 17 18  4  0  0  0  0
 18 19  1  0  0  0  0
 18 22  4  0  0  0  0
 19 20  1  0  0  0  0
 20 21  1  0  0  0  0
 21 22  1  0  0  0  0
 22 23  4  0  0  0  0
 23 24  4  0  0  0  0
 25 26  1  0  0  0  0
 26 27  1  0  0  0  0
 27 28  1  0  0  0  0
 28 29  1  0  0  0  0
 29 30  1  0  0  0  0
 30 31  1  0  0  0  0
 31 32  1  0  0  0  0
 32 33  1  0  0  0  0
 33 34  1  0  0  0  0
 33 35  1  0  0  0  0
 35 36  1  0  0  0  0
 36 37  1  0  0  0  0
 37 38  4  0  0  0  0
 37 42  4  0  0  0  0
 38 39  4  0  0  0  0
 38 46  4  0  0  0  0
 39 40  4  0  0  0  0
 39 43  4  0  0  0  0
 40 41  4  0  0  0  0
 41 42  4  0  0  0  0
 43 44  4  0  0  0  0
 44 45  4  0  0  0  0
 45 46  4  0  0  0  0
M  END
>  <Name_Molregno>
190656

>  <5-HT1A>
6.81

$$$$
197311
  Marvin  02231216192D 0   1.00000     0.00000     0

 34 37  0  0  0  0  0  0  0  0999 V2000
   -0.0637    0.0149    0.0000 O   0  0  0  0  0  0  0  0  0
    0.6508    0.4274    0.0000 C   0  0  0  0  0  0  0  0  0
    1.3653    0.0149    0.0000 C   0  0  0  0  0  0  0  0  0
    2.0797    0.4274    0.0000 C   0  0  0  0  0  0  0  0  0
    2.7942    0.0149    0.0000 C   0  0  0  0  0  0  0  0  0
    3.5087    0.4274    0.0000 C   0  0  0  0  0  0  0  0  0
    3.5087    1.2524    0.0000 O   0  0  0  0  0  0  0  0  0
    4.2231    0.0149    0.0000 N   0  0  0  0  0  0  0  0  0
    4.9376    0.4274    0.0000 C   0  0  0  0  0  0  0  0  0
    5.6521    0.0149    0.0000 C   0  0  0  0  0  0  0  0  0
    5.6521   -0.8101    0.0000 N   0  0  0  0  0  0  0  0  0
    4.9376   -1.2226    0.0000 C   0  0  0  0  0  0  0  0  0
    4.2231   -0.8101    0.0000 C   0  0  0  0  0  0  0  0  0
    6.3666   -1.2226    0.0000 C   0  0  0  0  0  0  0  0  0
    7.0810   -0.8101    0.0000 C   0  0  0  0  0  0  0  0  0
    7.7955   -1.2226    0.0000 C   0  0  0  0  0  0  0  0  0
    7.7955   -2.0476    0.0000 C   0  0  0  0  0  0  0  0  0
    8.5100   -2.4601    0.0000 N   0  3  0  0  0  0  0  0  0
    8.5100   -3.2851    0.0000 O   0  5  0  0  0  0  0  0  0
    9.2244   -2.0476    0.0000 O   0  5  0  0  0  0  0  0  0
    7.0810   -2.4601    0.0000 C   0  0  0  0  0  0  0  0  0
    6.3666   -2.0476    0.0000 C   0  0  0  0  0  0  0  0  0
   -0.7781    0.4274    0.0000 C   0  0  0  0  0  0  0  0  0
   -1.4926    0.0149    0.0000 C   0  0  0  0  0  0  0  0  0
   -2.2071    0.4274    0.0000 C   0  0  0  0  0  0  0  0  0
   -2.2071    1.2524    0.0000 C   0  0  0  0  0  0  0  0  0
   -2.9917    1.5073    0.0000 N   0  0  0  0  0  0  0  0  0
   -3.4766    0.8399    0.0000 C   0  0  0  0  0  0  0  0  0
   -2.9917    0.1724    0.0000 C   0  0  0  0  0  0  0  0  0
   -3.2467   -0.6122    0.0000 C   0  0  0  0  0  0  0  0  0
   -4.0536   -0.7837    0.0000 C   0  0  0  0  0  0  0  0  0
   -4.3086   -1.5683    0.0000 N   0  0  0  0  0  0  0  0  0
   -1.4926    1.6649    0.0000 C   0  0  0  0  0  0  0  0  0
   -0.7781    1.2524    0.0000 C   0  0  0  0  0  0  0  0  0
  1  2  1  0  0  0  0
  1 23  1  0  0  0  0
  2  3  1  0  0  0  0
  3  4  1  0  0  0  0
  4  5  1  0  0  0  0
  5  6  1  0  0  0  0
  6  7  2  0  0  0  0
  6  8  1  0  0  0  0
  8  9  1  0  0  0  0
  8 13  1  0  0  0  0
  9 10  1  0  0  0  0
 10 11  1  0  0  0  0
 11 12  1  0  0  0  0
 11 14  1  0  0  0  0
 12 13  1  0  0  0  0
 14 15  4  0  0  0  0
 14 22  4  0  0  0  0
 15 16  4  0  0  0  0
 16 17  4  0  0  0  0
 17 18  1  0  0  0  0
 17 21  4  0  0  0  0
 18 19  1  0  0  0  0
 18 20  1  0  0  0  0
 21 22  4  0  0  0  0
 23 24  4  0  0  0  0
 23 34  4  0  0  0  0
 24 25  4  0  0  0  0
 25 26  4  0  0  0  0
 25 29  4  0  0  0  0
 26 27  4  0  0  0  0
 26 33  4  0  0  0  0
 27 28  4  0  0  0  0
 28 29  4  0  0  0  0
 29 30  1  0  0  0  0
 30 31  1  0  0  0  0
 31 32  1  0  0  0  0
 33 34  4  0  0  0  0
M  CHG  3  18   1  19  -1  20  -1
M  STY  1   1 DAT
M  SAL   1  1  27
M  SDT   1 MRV_IMPLICIT_H                                        
M  SDD   1     0.0000    0.0000    DR    ALL  0       0  
M  SED   1 IMPL_H1
M  END
>  <Name_Molregno>
197311

>  <5-HT1A>
7.8

$$$$
197766
  Marvin  02231216192D 0   1.00000     0.00000     0

 34 37  0  0  0  0  0  0  0  0999 V2000
    5.7004    1.5255    0.0000 S   0  0  0  0  0  0  0  0  0
    4.9860    1.9380    0.0000 O   0  0  0  0  0  0  0  0  0
    5.2879    0.8110    0.0000 O   0  0  0  0  0  0  0  0  0
    6.4149    1.1130    0.0000 N   0  0  0  0  0  0  0  0  0
    6.4149    0.2880    0.0000 C   0  0  0  0  0  0  0  0  0
    7.1294   -0.1245    0.0000 C   0  0  0  0  0  0  0  0  0
    7.8438    0.2880    0.0000 C   0  0  0  0  0  0  0  0  0
    8.5583   -0.1245    0.0000 C   0  0  0  0  0  0  0  0  0
    8.5583   -0.9495    0.0000 C   0  0  0  0  0  0  0  0  0
    7.8438   -1.3620    0.0000 C   0  0  0  0  0  0  0  0  0
    7.1294   -0.9495    0.0000 C   0  0  0  0  0  0  0  0  0
    6.4149   -1.3620    0.0000 N   0  0  0  0  0  0  0  0  0
    6.4149   -2.1870    0.0000 C   0  0  0  0  0  0  0  0  0
    5.7004   -2.5995    0.0000 C   0  0  0  0  0  0  0  0  0
    4.9860   -2.1870    0.0000 N   0  0  0  0  0  0  0  0  0
    4.9860   -1.3620    0.0000 C   0  0  0  0  0  0  0  0  0
    5.7004   -0.9495    0.0000 C   0  0  0  0  0  0  0  0  0
    4.2715   -2.5995    0.0000 C   0  0  0  0  0  0  0  0  0
    4.2715   -3.4245    0.0000 O   0  0  0  0  0  0  0  0  0
    3.5570   -2.1870    0.0000 C   0  0  0  0  0  0  0  0  0
    2.8426   -2.5995    0.0000 O   0  0  0  0  0  0  0  0  0
    2.1281   -2.1870    0.0000 C   0  0  0  0  0  0  0  0  0
    1.4136   -2.5995    0.0000 C   0  0  0  0  0  0  0  0  0
    0.6991   -2.1870    0.0000 C   0  0  0  0  0  0  0  0  0
    0.6991   -1.3620    0.0000 C   0  0  0  0  0  0  0  0  0
   -0.0855   -1.1070    0.0000 N   0  0  0  0  0  0  0  0  0
   -0.5704   -1.7745    0.0000 C   0  0  0  0  0  0  0  0  0
   -0.0855   -2.4419    0.0000 C   0  0  0  0  0  0  0  0  0
   -0.3404   -3.2265    0.0000 C   0  0  0  0  0  0  0  0  0
   -1.1474   -3.3981    0.0000 C   0  0  0  0  0  0  0  0  0
   -1.4023   -4.1827    0.0000 N   0  0  0  0  0  0  0  0  0
    1.4136   -0.9495    0.0000 C   0  0  0  0  0  0  0  0  0
    2.1281   -1.3620    0.0000 C   0  0  0  0  0  0  0  0  0
    6.1129    2.2400    0.0000 C   0  0  0  0  0  0  0  0  0
  1  2  2  0  0  0  0
  1  3  2  0  0  0  0
  1  4  1  0  0  0  0
  1 34  1  0  0  0  0
  4  5  1  0  0  0  0
  5  6  1  0  0  0  0
  6  7  4  0  0  0  0
  6 11  4  0  0  0  0
  7  8  4  0  0  0  0
  8  9  4  0  0  0  0
  9 10  4  0  0  0  0
 10 11  4  0  0  0  0
 11 12  1  0  0  0  0
 12 13  1  0  0  0  0
 12 17  1  0  0  0  0
 13 14  1  0  0  0  0
 14 15  1  0  0  0  0
 15 16  1  0  0  0  0
 15 18  1  0  0  0  0
 16 17  1  0  0  0  0
 18 19  2  0  0  0  0
 18 20  1  0  0  0  0
 20 21  1  0  0  0  0
 21 22  1  0  0  0  0
 22 23  4  0  0  0  0
 22 33  4  0  0  0  0
 23 24  4  0  0  0  0
 24 25  4  0  0  0  0
 24 28  4  0  0  0  0
 25 26  4  0  0  0  0
 25 32  4  0  0  0  0
 26 27  4  0  0  0  0
 27 28  4  0  0  0  0
 28 29  1  0  0  0  0
 29 30  1  0  0  0  0
 30 31  1  0  0  0  0
 32 33  4  0  0  0  0
M  STY  1   1 DAT
M  SAL   1  1  26
M  SDT   1 MRV_IMPLICIT_H                                        
M  SDD   1     0.0000    0.0000    DR    ALL  0       0  
M  SED   1 IMPL_H1
M  END
>  <Name_Molregno>
197766

>  <5-HT1A>
8.29

$$$$
197835
  Marvin  02231216192D 0   1.00000     0.00000     0

 30 33  0  0  0  0  0  0  0  0999 V2000
    0.1819   -0.8034    0.0000 O   0  0  0  0  0  0  0  0  0
    0.8964   -0.3909    0.0000 C   0  0  0  0  0  0  0  0  0
    1.6108   -0.8034    0.0000 C   0  0  0  0  0  0  0  0  0
    1.6108   -1.6284    0.0000 O   0  0  0  0  0  0  0  0  0
    2.3253   -0.3909    0.0000 N   0  0  0  0  0  0  0  0  0
    2.3253    0.4341    0.0000 C   0  0  0  0  0  0  0  0  0
    3.0398    0.8466    0.0000 C   0  0  0  0  0  0  0  0  0
    3.7543    0.4341    0.0000 N   0  0  0  0  0  0  0  0  0
    3.7543   -0.3909    0.0000 C   0  0  0  0  0  0  0  0  0
    3.0398   -0.8034    0.0000 C   0  0  0  0  0  0  0  0  0
    4.4687    0.8466    0.0000 C   0  0  0  0  0  0  0  0  0
    4.4687    1.6716    0.0000 C   0  0  0  0  0  0  0  0  0
    5.1832    2.0841    0.0000 C   0  0  0  0  0  0  0  0  0
    5.8977    1.6716    0.0000 C   0  0  0  0  0  0  0  0  0
    5.8977    0.8466    0.0000 C   0  0  0  0  0  0  0  0  0
    5.1832    0.4341    0.0000 C   0  0  0  0  0  0  0  0  0
    5.1832   -0.3909    0.0000 C   0  0  0  0  0  0  0  0  0
    5.1832   -1.2159    0.0000 N   0  0  0  0  0  0  0  0  0
   -0.5326   -0.3909    0.0000 C   0  0  0  0  0  0  0  0  0
   -1.2470   -0.8034    0.0000 C   0  0  0  0  0  0  0  0  0
   -1.9615   -0.3909    0.0000 C   0  0  0  0  0  0  0  0  0
   -1.9615    0.4341    0.0000 C   0  0  0  0  0  0  0  0  0
   -2.7461    0.6891    0.0000 N   0  0  0  0  0  0  0  0  0
   -3.2310    0.0216    0.0000 C   0  0  0  0  0  0  0  0  0
   -2.7461   -0.6458    0.0000 C   0  0  0  0  0  0  0  0  0
   -3.0011   -1.4304    0.0000 C   0  0  0  0  0  0  0  0  0
   -3.8080   -1.6020    0.0000 C   0  0  0  0  0  0  0  0  0
   -4.0630   -2.3866    0.0000 N   0  0  0  0  0  0  0  0  0
   -1.2470    0.8466    0.0000 C   0  0  0  0  0  0  0  0  0
   -0.5326    0.4341    0.0000 C   0  0  0  0  0  0  0  0  0
  1  2  1  0  0  0  0
  1 19  1  0  0  0  0
  2  3  1  0  0  0  0
  3  4  2  0  0  0  0
  3  5  1  0  0  0  0
  5  6  1  0  0  0  0
  5 10  1  0  0  0  0
  6  7  1  0  0  0  0
  7  8  1  0  0  0  0
  8  9  1  0  0  0  0
  8 11  1  0  0  0  0
  9 10  1  0  0  0  0
 11 12  4  0  0  0  0
 11 16  4  0  0  0  0
 12 13  4  0  0  0  0
 13 14  4  0  0  0  0
 14 15  4  0  0  0  0
 15 16  4  0  0  0  0
 16 17  1  0  0  0  0
 17 18  3  0  0  0  0
 19 20  4  0  0  0  0
 19 30  4  0  0  0  0
 20 21  4  0  0  0  0
 21 22  4  0  0  0  0
 21 25  4  0  0  0  0
 22 23  4  0  0  0  0
 22 29  4  0  0  0  0
 23 24  4  0  0  0  0
 24 25  4  0  0  0  0
 25 26  1  0  0  0  0
 26 27  1  0  0  0  0
 27 28  1  0  0  0  0
 29 30  4  0  0  0  0
M  STY  1   1 DAT
M  SAL   1  1  23
M  SDT   1 MRV_IMPLICIT_H                                        
M  SDD   1     0.0000    0.0000    DR    ALL  0       0  
M  SED   1 IMPL_H1
M  END
>  <Name_Molregno>
197835

>  <5-HT1A>
7.82

$$$$
197869
  Marvin  02231216192D 0   1.00000     0.00000     0

 31 34  0  0  0  0  0  0  0  0999 V2000
    0.2672   -1.1669    0.0000 O   0  0  0  0  0  0  0  0  0
    0.9816   -0.7544    0.0000 C   0  0  0  0  0  0  0  0  0
    1.6961   -1.1669    0.0000 C   0  0  0  0  0  0  0  0  0
    1.6961   -1.9919    0.0000 O   0  0  0  0  0  0  0  0  0
    2.4106   -0.7544    0.0000 N   0  0  0  0  0  0  0  0  0
    2.4106    0.0706    0.0000 C   0  0  0  0  0  0  0  0  0
    3.1250    0.4831    0.0000 C   0  0  0  0  0  0  0  0  0
    3.8395    0.0706    0.0000 N   0  0  0  0  0  0  0  0  0
    3.8395   -0.7544    0.0000 C   0  0  0  0  0  0  0  0  0
    3.1250   -1.1669    0.0000 C   0  0  0  0  0  0  0  0  0
    4.5540    0.4831    0.0000 C   0  0  0  0  0  0  0  0  0
    4.5540    1.3081    0.0000 C   0  0  0  0  0  0  0  0  0
    5.2685    1.7206    0.0000 C   0  0  0  0  0  0  0  0  0
    5.9829    1.3081    0.0000 C   0  0  0  0  0  0  0  0  0
    6.6974    1.7206    0.0000 N   0  3  0  0  0  0  0  0  0
    7.4119    1.3081    0.0000 O   0  5  0  0  0  0  0  0  0
    6.6974    2.5456    0.0000 O   0  5  0  0  0  0  0  0  0
    5.9829    0.4831    0.0000 C   0  0  0  0  0  0  0  0  0
    5.2685    0.0706    0.0000 C   0  0  0  0  0  0  0  0  0
   -0.4473   -0.7544    0.0000 C   0  0  0  0  0  0  0  0  0
   -1.1618   -1.1669    0.0000 C   0  0  0  0  0  0  0  0  0
   -1.8763   -0.7544    0.0000 C   0  0  0  0  0  0  0  0  0
   -1.8763    0.0706    0.0000 C   0  0  0  0  0  0  0  0  0
   -2.6609    0.3255    0.0000 N   0  0  0  0  0  0  0  0  0
   -3.1458   -0.3419    0.0000 C   0  0  0  0  0  0  0  0  0
   -2.6609   -1.0094    0.0000 C   0  0  0  0  0  0  0  0  0
   -2.9158   -1.7940    0.0000 C   0  0  0  0  0  0  0  0  0
   -3.7228   -1.9655    0.0000 C   0  0  0  0  0  0  0  0  0
   -3.9777   -2.7501    0.0000 N   0  0  0  0  0  0  0  0  0
   -1.1618    0.4831    0.0000 C   0  0  0  0  0  0  0  0  0
   -0.4473    0.0706    0.0000 C   0  0  0  0  0  0  0  0  0
  1  2  1  0  0  0  0
  1 20  1  0  0  0  0
  2  3  1  0  0  0  0
  3  4  2  0  0  0  0
  3  5  1  0  0  0  0
  5  6  1  0  0  0  0
  5 10  1  0  0  0  0
  6  7  1  0  0  0  0
  7  8  1  0  0  0  0
  8  9  1  0  0  0  0
  8 11  1  0  0  0  0
  9 10  1  0  0  0  0
 11 12  4  0  0  0  0
 11 19  4  0  0  0  0
 12 13  4  0  0  0  0
 13 14  4  0  0  0  0
 14 15  1  0  0  0  0
 14 18  4  0  0  0  0
 15 16  1  0  0  0  0
 15 17  1  0  0  0  0
 18 19  4  0  0  0  0
 20 21  4  0  0  0  0
 20 31  4  0  0  0  0
 21 22  4  0  0  0  0
 22 23  4  0  0  0  0
 22 26  4  0  0  0  0
 23 24  4  0  0  0  0
 23 30  4  0  0  0  0
 24 25  4  0  0  0  0
 25 26  4  0  0  0  0
 26 27  1  0  0  0  0
 27 28  1  0  0  0  0
 28 29  1  0  0  0  0
 30 31  4  0  0  0  0
M  CHG  3  15   1  16  -1  17  -1
M  STY  1   1 DAT
M  SAL   1  1  24
M  SDT   1 MRV_IMPLICIT_H                                        
M  SDD   1     0.0000    0.0000    DR    ALL  0       0  
M  SED   1 IMPL_H1
M  END
>  <Name_Molregno>
197869

>  <5-HT1A>
7.62

$$$$
197889
  Marvin  02231216192D 0   1.00000     0.00000     0

 33 36  0  0  0  0  0  0  0  0999 V2000
    0.0804   -0.4269    0.0000 O   0  0  0  0  0  0  0  0  0
    0.7948   -0.0144    0.0000 C   0  0  0  0  0  0  0  0  0
    1.5093   -0.4269    0.0000 C   0  0  0  0  0  0  0  0  0
    2.2238   -0.0144    0.0000 C   0  0  0  0  0  0  0  0  0
    2.9382   -0.4269    0.0000 C   0  0  0  0  0  0  0  0  0
    2.9382   -1.2519    0.0000 O   0  0  0  0  0  0  0  0  0
    3.6527   -0.0144    0.0000 N   0  0  0  0  0  0  0  0  0
    3.6527    0.8106    0.0000 C   0  0  0  0  0  0  0  0  0
    4.3672    1.2231    0.0000 C   0  0  0  0  0  0  0  0  0
    5.0817    0.8106    0.0000 N   0  0  0  0  0  0  0  0  0
    5.0817   -0.0144    0.0000 C   0  0  0  0  0  0  0  0  0
    4.3672   -0.4269    0.0000 C   0  0  0  0  0  0  0  0  0
    5.7961    1.2231    0.0000 C   0  0  0  0  0  0  0  0  0
    5.7961    2.0481    0.0000 C   0  0  0  0  0  0  0  0  0
    6.5106    2.4606    0.0000 C   0  0  0  0  0  0  0  0  0
    7.2251    2.0481    0.0000 C   0  0  0  0  0  0  0  0  0
    7.9395    2.4606    0.0000 N   0  3  0  0  0  0  0  0  0
    8.6540    2.0481    0.0000 O   0  5  0  0  0  0  0  0  0
    7.9395    3.2856    0.0000 O   0  5  0  0  0  0  0  0  0
    7.2251    1.2231    0.0000 C   0  0  0  0  0  0  0  0  0
    6.5106    0.8106    0.0000 C   0  0  0  0  0  0  0  0  0
   -0.6341   -0.0144    0.0000 C   0  0  0  0  0  0  0  0  0
   -1.3486   -0.4269    0.0000 C   0  0  0  0  0  0  0  0  0
   -2.0631   -0.0144    0.0000 C   0  0  0  0  0  0  0  0  0
   -2.0631    0.8106    0.0000 C   0  0  0  0  0  0  0  0  0
   -2.8477    1.0655    0.0000 N   0  0  0  0  0  0  0  0  0
   -3.3326    0.3981    0.0000 C   0  0  0  0  0  0  0  0  0
   -2.8477   -0.2694    0.0000 C   0  0  0  0  0  0  0  0  0
   -3.1026   -1.0540    0.0000 C   0  0  0  0  0  0  0  0  0
   -3.9096   -1.2255    0.0000 C   0  0  0  0  0  0  0  0  0
   -4.1645   -2.0101    0.0000 N   0  0  0  0  0  0  0  0  0
   -1.3486    1.2231    0.0000 C   0  0  0  0  0  0  0  0  0
   -0.6341    0.8106    0.0000 C   0  0  0  0  0  0  0  0  0
  1  2  1  0  0  0  0
  1 22  1  0  0  0  0
  2  3  1  0  0  0  0
  3  4  1  0  0  0  0
  4  5  1  0  0  0  0
  5  6  2  0  0  0  0
  5  7  1  0  0  0  0
  7  8  1  0  0  0  0
  7 12  1  0  0  0  0
  8  9  1  0  0  0  0
  9 10  1  0  0  0  0
 10 11  1  0  0  0  0
 10 13  1  0  0  0  0
 11 12  1  0  0  0  0
 13 14  4  0  0  0  0
 13 21  4  0  0  0  0
 14 15  4  0  0  0  0
 15 16  4  0  0  0  0
 16 17  1  0  0  0  0
 16 20  4  0  0  0  0
 17 18  1  0  0  0  0
 17 19  1  0  0  0  0
 20 21  4  0  0  0  0
 22 23  4  0  0  0  0
 22 33  4  0  0  0  0
 23 24  4  0  0  0  0
 24 25  4  0  0  0  0
 24 28  4  0  0  0  0
 25 26  4  0  0  0  0
 25 32  4  0  0  0  0
 26 27  4  0  0  0  0
 27 28  4  0  0  0  0
 28 29  1  0  0  0  0
 29 30  1  0  0  0  0
 30 31  1  0  0  0  0
 32 33  4  0  0  0  0
M  CHG  3  17   1  18  -1  19  -1
M  STY  1   1 DAT
M  SAL   1  1  26
M  SDT   1 MRV_IMPLICIT_H                                        
M  SDD   1     0.0000    0.0000    DR    ALL  0       0  
M  SED   1 IMPL_H1
M  END
>  <Name_Molregno>
197889

>  <5-HT1A>
7.82

$$$$
197890
  Marvin  02231216192D 0   1.00000     0.00000     0

 31 34  0  0  0  0  0  0  0  0999 V2000
    0.1575   -0.6856    0.0000 O   0  0  0  0  0  0  0  0  0
    0.8720   -0.2731    0.0000 C   0  0  0  0  0  0  0  0  0
    1.5864   -0.6856    0.0000 C   0  0  0  0  0  0  0  0  0
    1.5864   -1.5106    0.0000 O   0  0  0  0  0  0  0  0  0
    2.3009   -0.2731    0.0000 N   0  0  0  0  0  0  0  0  0
    2.3009    0.5519    0.0000 C   0  0  0  0  0  0  0  0  0
    3.0154    0.9644    0.0000 C   0  0  0  0  0  0  0  0  0
    3.7298    0.5519    0.0000 N   0  0  0  0  0  0  0  0  0
    3.7298   -0.2731    0.0000 C   0  0  0  0  0  0  0  0  0
    3.0154   -0.6856    0.0000 C   0  0  0  0  0  0  0  0  0
    4.4443    0.9644    0.0000 C   0  0  0  0  0  0  0  0  0
    4.4443    1.7894    0.0000 C   0  0  0  0  0  0  0  0  0
    5.1588    2.2019    0.0000 C   0  0  0  0  0  0  0  0  0
    5.8733    1.7894    0.0000 C   0  0  0  0  0  0  0  0  0
    5.8733    0.9644    0.0000 C   0  0  0  0  0  0  0  0  0
    5.1588    0.5519    0.0000 C   0  0  0  0  0  0  0  0  0
    5.1588   -0.2731    0.0000 N   0  3  0  0  0  0  0  0  0
    5.8733   -0.6856    0.0000 O   0  5  0  0  0  0  0  0  0
    4.4443   -0.6856    0.0000 O   0  5  0  0  0  0  0  0  0
   -0.5570   -0.2731    0.0000 C   0  0  0  0  0  0  0  0  0
   -1.2715   -0.6856    0.0000 C   0  0  0  0  0  0  0  0  0
   -1.9859   -0.2731    0.0000 C   0  0  0  0  0  0  0  0  0
   -1.9859    0.5519    0.0000 C   0  0  0  0  0  0  0  0  0
   -2.7706    0.8068    0.0000 N   0  0  0  0  0  0  0  0  0
   -3.2555    0.1394    0.0000 C   0  0  0  0  0  0  0  0  0
   -2.7706   -0.5280    0.0000 C   0  0  0  0  0  0  0  0  0
   -3.0255   -1.3127    0.0000 C   0  0  0  0  0  0  0  0  0
   -3.8325   -1.4842    0.0000 C   0  0  0  0  0  0  0  0  0
   -4.0874   -2.2688    0.0000 N   0  0  0  0  0  0  0  0  0
   -1.2715    0.9644    0.0000 C   0  0  0  0  0  0  0  0  0
   -0.5570    0.5519    0.0000 C   0  0  0  0  0  0  0  0  0
  1  2  1  0  0  0  0
  1 20  1  0  0  0  0
  2  3  1  0  0  0  0
  3  4  2  0  0  0  0
  3  5  1  0  0  0  0
  5  6  1  0  0  0  0
  5 10  1  0  0  0  0
  6  7  1  0  0  0  0
  7  8  1  0  0  0  0
  8  9  1  0  0  0  0
  8 11  1  0  0  0  0
  9 10  1  0  0  0  0
 11 12  4  0  0  0  0
 11 16  4  0  0  0  0
 12 13  4  0  0  0  0
 13 14  4  0  0  0  0
 14 15  4  0  0  0  0
 15 16  4  0  0  0  0
 16 17  1  0  0  0  0
 17 18  1  0  0  0  0
 17 19  1  0  0  0  0
 20 21  4  0  0  0  0
 20 31  4  0  0  0  0
 21 22  4  0  0  0  0
 22 23  4  0  0  0  0
 22 26  4  0  0  0  0
 23 24  4  0  0  0  0
 23 30  4  0  0  0  0
 24 25  4  0  0  0  0
 25 26  4  0  0  0  0
 26 27  1  0  0  0  0
 27 28  1  0  0  0  0
 28 29  1  0  0  0  0
 30 31  4  0  0  0  0
M  CHG  3  17   1  18  -1  19  -1
M  STY  1   1 DAT
M  SAL   1  1  24
M  SDT   1 MRV_IMPLICIT_H                                        
M  SDD   1     0.0000    0.0000    DR    ALL  0       0  
M  SED   1 IMPL_H1
M  END
>  <Name_Molregno>
197890

>  <5-HT1A>
8.28

$$$$
197904
  Marvin  02231216192D 0   1.00000     0.00000     0

 35 38  0  0  0  0  0  0  0  0999 V2000
    0.0397   -0.5638    0.0000 O   0  0  0  0  0  0  0  0  0
    0.7541   -0.1513    0.0000 C   0  0  0  0  0  0  0  0  0
    1.4686   -0.5638    0.0000 C   0  0  0  0  0  0  0  0  0
    2.1831   -0.1513    0.0000 C   0  0  0  0  0  0  0  0  0
    2.8976   -0.5638    0.0000 C   0  0  0  0  0  0  0  0  0
    3.6120   -0.1513    0.0000 C   0  0  0  0  0  0  0  0  0
    4.3265   -0.5638    0.0000 C   0  0  0  0  0  0  0  0  0
    4.3265   -1.3888    0.0000 O   0  0  0  0  0  0  0  0  0
    5.0410   -0.1513    0.0000 N   0  0  0  0  0  0  0  0  0
    5.0410    0.6737    0.0000 C   0  0  0  0  0  0  0  0  0
    5.7554    1.0862    0.0000 C   0  0  0  0  0  0  0  0  0
    6.4699    0.6737    0.0000 N   0  0  0  0  0  0  0  0  0
    6.4699   -0.1513    0.0000 C   0  0  0  0  0  0  0  0  0
    5.7554   -0.5638    0.0000 C   0  0  0  0  0  0  0  0  0
    7.1844    1.0862    0.0000 C   0  0  0  0  0  0  0  0  0
    7.1844    1.9112    0.0000 C   0  0  0  0  0  0  0  0  0
    7.8988    2.3237    0.0000 C   0  0  0  0  0  0  0  0  0
    8.6133    1.9112    0.0000 C   0  0  0  0  0  0  0  0  0
    9.3278    2.3237    0.0000 N   0  3  0  0  0  0  0  0  0
   10.0423    1.9112    0.0000 O   0  5  0  0  0  0  0  0  0
    9.3278    3.1487    0.0000 O   0  5  0  0  0  0  0  0  0
    8.6133    1.0862    0.0000 C   0  0  0  0  0  0  0  0  0
    7.8988    0.6737    0.0000 C   0  0  0  0  0  0  0  0  0
   -0.6748   -0.1513    0.0000 C   0  0  0  0  0  0  0  0  0
   -1.3893   -0.5638    0.0000 C   0  0  0  0  0  0  0  0  0
   -2.1037   -0.1513    0.0000 C   0  0  0  0  0  0  0  0  0
   -2.1037    0.6737    0.0000 C   0  0  0  0  0  0  0  0  0
   -2.8884    0.9286    0.0000 N   0  0  0  0  0  0  0  0  0
   -3.3733    0.2612    0.0000 C   0  0  0  0  0  0  0  0  0
   -2.8884   -0.4062    0.0000 C   0  0  0  0  0  0  0  0  0
   -3.1433   -1.1909    0.0000 C   0  0  0  0  0  0  0  0  0
   -3.9503   -1.3624    0.0000 C   0  0  0  0  0  0  0  0  0
   -4.2052   -2.1470    0.0000 N   0  0  0  0  0  0  0  0  0
   -1.3893    1.0862    0.0000 C   0  0  0  0  0  0  0  0  0
   -0.6748    0.6737    0.0000 C   0  0  0  0  0  0  0  0  0
  1  2  1  0  0  0  0
  1 24  1  0  0  0  0
  2  3  1  0  0  0  0
  3  4  1  0  0  0  0
  4  5  1  0  0  0  0
  5  6  1  0  0  0  0
  6  7  1  0  0  0  0
  7  8  2  0  0  0  0
  7  9  1  0  0  0  0
  9 10  1  0  0  0  0
  9 14  1  0  0  0  0
 10 11  1  0  0  0  0
 11 12  1  0  0  0  0
 12 13  1  0  0  0  0
 12 15  1  0  0  0  0
 13 14  1  0  0  0  0
 15 16  4  0  0  0  0
 15 23  4  0  0  0  0
 16 17  4  0  0  0  0
 17 18  4  0  0  0  0
 18 19  1  0  0  0  0
 18 22  4  0  0  0  0
 19 20  1  0  0  0  0
 19 21  1  0  0  0  0
 22 23  4  0  0  0  0
 24 25  4  0  0  0  0
 24 35  4  0  0  0  0
 25 26  4  0  0  0  0
 26 27  4  0  0  0  0
 26 30  4  0  0  0  0
 27 28  4  0  0  0  0
 27 34  4  0  0  0  0
 28 29  4  0  0  0  0
 29 30  4  0  0  0  0
 30 31  1  0  0  0  0
 31 32  1  0  0  0  0
 32 33  1  0  0  0  0
 34 35  4  0  0  0  0
M  CHG  3  19   1  20  -1  21  -1
M  STY  1   1 DAT
M  SAL   1  1  28
M  SDT   1 MRV_IMPLICIT_H                                        
M  SDD   1     0.0000    0.0000    DR    ALL  0       0  
M  SED   1 IMPL_H1
M  END
>  <Name_Molregno>
197904

>  <5-HT1A>
7.89

$$$$
197905
  Marvin  02231216192D 0   1.00000     0.00000     0

 30 33  0  0  0  0  0  0  0  0999 V2000
    0.2515   -1.0633    0.0000 O   0  0  0  0  0  0  0  0  0
    0.9660   -0.6508    0.0000 C   0  0  0  0  0  0  0  0  0
    1.6805   -1.0633    0.0000 C   0  0  0  0  0  0  0  0  0
    1.6805   -1.8883    0.0000 O   0  0  0  0  0  0  0  0  0
    2.3950   -0.6508    0.0000 N   0  0  0  0  0  0  0  0  0
    2.3950    0.1742    0.0000 C   0  0  0  0  0  0  0  0  0
    3.1094    0.5867    0.0000 C   0  0  0  0  0  0  0  0  0
    3.8239    0.1742    0.0000 N   0  0  0  0  0  0  0  0  0
    3.8239   -0.6508    0.0000 C   0  0  0  0  0  0  0  0  0
    3.1094   -1.0633    0.0000 C   0  0  0  0  0  0  0  0  0
    4.5384    0.5867    0.0000 C   0  0  0  0  0  0  0  0  0
    4.5384    1.4117    0.0000 C   0  0  0  0  0  0  0  0  0
    5.2528    1.8242    0.0000 C   0  0  0  0  0  0  0  0  0
    5.9673    1.4117    0.0000 C   0  0  0  0  0  0  0  0  0
    5.9673    0.5867    0.0000 C   0  0  0  0  0  0  0  0  0
    5.2528    0.1742    0.0000 C   0  0  0  0  0  0  0  0  0
    6.6818    1.8242    0.0000 C   0  0  0  0  0  0  0  0  0
    7.3963    1.4117    0.0000 N   0  0  0  0  0  0  0  0  0
   -0.4629   -0.6508    0.0000 C   0  0  0  0  0  0  0  0  0
   -1.1774   -1.0633    0.0000 C   0  0  0  0  0  0  0  0  0
   -1.8919   -0.6508    0.0000 C   0  0  0  0  0  0  0  0  0
   -1.8919    0.1742    0.0000 C   0  0  0  0  0  0  0  0  0
   -2.6765    0.4291    0.0000 N   0  0  0  0  0  0  0  0  0
   -3.1614   -0.2383    0.0000 C   0  0  0  0  0  0  0  0  0
   -2.6765   -0.9058    0.0000 C   0  0  0  0  0  0  0  0  0
   -2.9314   -1.6904    0.0000 C   0  0  0  0  0  0  0  0  0
   -3.7384   -1.8619    0.0000 C   0  0  0  0  0  0  0  0  0
   -3.9933   -2.6465    0.0000 N   0  0  0  0  0  0  0  0  0
   -1.1774    0.5867    0.0000 C   0  0  0  0  0  0  0  0  0
   -0.4629    0.1742    0.0000 C   0  0  0  0  0  0  0  0  0
  1  2  1  0  0  0  0
  1 19  1  0  0  0  0
  2  3  1  0  0  0  0
  3  4  2  0  0  0  0
  3  5  1  0  0  0  0
  5  6  1  0  0  0  0
  5 10  1  0  0  0  0
  6  7  1  0  0  0  0
  7  8  1  0  0  0  0
  8  9  1  0  0  0  0
  8 11  1  0  0  0  0
  9 10  1  0  0  0  0
 11 12  4  0  0  0  0
 11 16  4  0  0  0  0
 12 13  4  0  0  0  0
 13 14  4  0  0  0  0
 14 15  4  0  0  0  0
 14 17  1  0  0  0  0
 15 16  4  0  0  0  0
 17 18  1  0  0  0  0
 19 20  4  0  0  0  0
 19 30  4  0  0  0  0
 20 21  4  0  0  0  0
 21 22  4  0  0  0  0
 21 25  4  0  0  0  0
 22 23  4  0  0  0  0
 22 29  4  0  0  0  0
 23 24  4  0  0  0  0
 24 25  4  0  0  0  0
 25 26  1  0  0  0  0
 26 27  1  0  0  0  0
 27 28  1  0  0  0  0
 29 30  4  0  0  0  0
M  STY  1   1 DAT
M  SAL   1  1  23
M  SDT   1 MRV_IMPLICIT_H                                        
M  SDD   1     0.0000    0.0000    DR    ALL  0       0  
M  SED   1 IMPL_H1
M  END
>  <Name_Molregno>
197905

>  <5-HT1A>
6.89

$$$$
198050
  Marvin  02231216192D 0   1.00000     0.00000     0

 37 41  0  0  0  0  0  0  0  0999 V2000
    0.2390   -1.1147    0.0000 O   0  0  0  0  0  0  0  0  0
    0.9535   -0.7022    0.0000 C   0  0  0  0  0  0  0  0  0
    1.6679   -1.1147    0.0000 C   0  0  0  0  0  0  0  0  0
    1.6679   -1.9397    0.0000 O   0  0  0  0  0  0  0  0  0
    2.3824   -0.7022    0.0000 N   0  0  0  0  0  0  0  0  0
    2.3824    0.1228    0.0000 C   0  0  0  0  0  0  0  0  0
    3.0969    0.5353    0.0000 C   0  0  0  0  0  0  0  0  0
    3.8114    0.1228    0.0000 N   0  0  0  0  0  0  0  0  0
    3.8114   -0.7022    0.0000 C   0  0  0  0  0  0  0  0  0
    3.0969   -1.1147    0.0000 C   0  0  0  0  0  0  0  0  0
    4.5258    0.5353    0.0000 C   0  0  0  0  0  0  0  0  0
    4.5258    1.3603    0.0000 C   0  0  0  0  0  0  0  0  0
    5.2403    1.7728    0.0000 C   0  0  0  0  0  0  0  0  0
    5.9548    1.3603    0.0000 C   0  0  0  0  0  0  0  0  0
    6.6692    1.7728    0.0000 N   0  0  0  0  0  0  0  0  0
    7.3837    1.3603    0.0000 C   0  0  0  0  0  0  0  0  0
    7.3837    0.5353    0.0000 O   0  0  0  0  0  0  0  0  0
    8.0982    1.7728    0.0000 C   0  0  0  0  0  0  0  0  0
    8.0982    2.5978    0.0000 C   0  0  0  0  0  0  0  0  0
    8.8126    3.0103    0.0000 C   0  0  0  0  0  0  0  0  0
    9.5271    2.5978    0.0000 C   0  0  0  0  0  0  0  0  0
    9.5271    1.7728    0.0000 C   0  0  0  0  0  0  0  0  0
    8.8126    1.3603    0.0000 C   0  0  0  0  0  0  0  0  0
    5.9548    0.5353    0.0000 C   0  0  0  0  0  0  0  0  0
    5.2403    0.1228    0.0000 C   0  0  0  0  0  0  0  0  0
   -0.4755   -0.7022    0.0000 C   0  0  0  0  0  0  0  0  0
   -1.1899   -1.1147    0.0000 C   0  0  0  0  0  0  0  0  0
   -1.9044   -0.7022    0.0000 C   0  0  0  0  0  0  0  0  0
   -1.9044    0.1228    0.0000 C   0  0  0  0  0  0  0  0  0
   -2.6890    0.3777    0.0000 N   0  0  0  0  0  0  0  0  0
   -3.1740   -0.2897    0.0000 C   0  0  0  0  0  0  0  0  0
   -2.6890   -0.9572    0.0000 C   0  0  0  0  0  0  0  0  0
   -2.9440   -1.7418    0.0000 C   0  0  0  0  0  0  0  0  0
   -3.7509   -1.9133    0.0000 C   0  0  0  0  0  0  0  0  0
   -4.0059   -2.6979    0.0000 N   0  0  0  0  0  0  0  0  0
   -1.1899    0.5353    0.0000 C   0  0  0  0  0  0  0  0  0
   -0.4755    0.1228    0.0000 C   0  0  0  0  0  0  0  0  0
  1  2  1  0  0  0  0
  1 26  1  0  0  0  0
  2  3  1  0  0  0  0
  3  4  2  0  0  0  0
  3  5  1  0  0  0  0
  5  6  1  0  0  0  0
  5 10  1  0  0  0  0
  6  7  1  0  0  0  0
  7  8  1  0  0  0  0
  8  9  1  0  0  0  0
  8 11  1  0  0  0  0
  9 10  1  0  0  0  0
 11 12  4  0  0  0  0
 11 25  4  0  0  0  0
 12 13  4  0  0  0  0
 13 14  4  0  0  0  0
 14 15  1  0  0  0  0
 14 24  4  0  0  0  0
 15 16  1  0  0  0  0
 16 17  2  0  0  0  0
 16 18  1  0  0  0  0
 18 19  4  0  0  0  0
 18 23  4  0  0  0  0
 19 20  4  0  0  0  0
 20 21  4  0  0  0  0
 21 22  4  0  0  0  0
 22 23  4  0  0  0  0
 24 25  4  0  0  0  0
 26 27  4  0  0  0  0
 26 37  4  0  0  0  0
 27 28  4  0  0  0  0
 28 29  4  0  0  0  0
 28 32  4  0  0  0  0
 29 30  4  0  0  0  0
 29 36  4  0  0  0  0
 30 31  4  0  0  0  0
 31 32  4  0  0  0  0
 32 33  1  0  0  0  0
 33 34  1  0  0  0  0
 34 35  1  0  0  0  0
 36 37  4  0  0  0  0
M  STY  1   1 DAT
M  SAL   1  1  30
M  SDT   1 MRV_IMPLICIT_H                                        
M  SDD   1     0.0000    0.0000    DR    ALL  0       0  
M  SED   1 IMPL_H1
M  END
>  <Name_Molregno>
198050

>  <5-HT1A>
7.21

$$$$
198173
  Marvin  02231216192D 0   1.00000     0.00000     0

 34 37  0  0  0  0  0  0  0  0999 V2000
   11.0988    4.1509    0.0000 S   0  0  0  0  0  0  0  0  0
   11.8132    4.5634    0.0000 O   0  0  0  0  0  0  0  0  0
   10.6863    4.8654    0.0000 O   0  0  0  0  0  0  0  0  0
   10.3843    3.7384    0.0000 N   0  0  0  0  0  0  0  0  0
   10.3843    2.9134    0.0000 C   0  0  0  0  0  0  0  0  0
    9.6698    2.5009    0.0000 C   0  0  0  0  0  0  0  0  0
    9.6698    1.6759    0.0000 C   0  0  0  0  0  0  0  0  0
    8.9553    1.2634    0.0000 C   0  0  0  0  0  0  0  0  0
    8.2409    1.6759    0.0000 C   0  0  0  0  0  0  0  0  0
    7.5264    1.2634    0.0000 N   0  0  0  0  0  0  0  0  0
    7.5264    0.4384    0.0000 C   0  0  0  0  0  0  0  0  0
    6.8119    0.0259    0.0000 C   0  0  0  0  0  0  0  0  0
    6.0975    0.4384    0.0000 N   0  0  0  0  0  0  0  0  0
    6.0975    1.2634    0.0000 C   0  0  0  0  0  0  0  0  0
    6.8119    1.6759    0.0000 C   0  0  0  0  0  0  0  0  0
    5.3830    0.0259    0.0000 C   0  0  0  0  0  0  0  0  0
    5.3830   -0.7991    0.0000 O   0  0  0  0  0  0  0  0  0
    4.6685    0.4384    0.0000 C   0  0  0  0  0  0  0  0  0
    3.9540    0.0259    0.0000 O   0  0  0  0  0  0  0  0  0
    3.2396    0.4384    0.0000 C   0  0  0  0  0  0  0  0  0
    2.5251    0.0259    0.0000 C   0  0  0  0  0  0  0  0  0
    1.8106    0.4384    0.0000 C   0  0  0  0  0  0  0  0  0
    1.8106    1.2634    0.0000 C   0  0  0  0  0  0  0  0  0
    1.0260    1.5183    0.0000 N   0  0  0  0  0  0  0  0  0
    0.5411    0.8509    0.0000 C   0  0  0  0  0  0  0  0  0
    1.0260    0.1835    0.0000 C   0  0  0  0  0  0  0  0  0
    0.7711   -0.6012    0.0000 C   0  0  0  0  0  0  0  0  0
   -0.0359   -0.7727    0.0000 C   0  0  0  0  0  0  0  0  0
   -0.2908   -1.5573    0.0000 N   0  0  0  0  0  0  0  0  0
    2.5251    1.6759    0.0000 C   0  0  0  0  0  0  0  0  0
    3.2396    1.2634    0.0000 C   0  0  0  0  0  0  0  0  0
    8.2409    2.5009    0.0000 C   0  0  0  0  0  0  0  0  0
    8.9553    2.9134    0.0000 C   0  0  0  0  0  0  0  0  0
   11.5113    3.4364    0.0000 C   0  0  0  0  0  0  0  0  0
  1  2  2  0  0  0  0
  1  3  2  0  0  0  0
  1  4  1  0  0  0  0
  1 34  1  0  0  0  0
  4  5  1  0  0  0  0
  5  6  1  0  0  0  0
  6  7  4  0  0  0  0
  6 33  4  0  0  0  0
  7  8  4  0  0  0  0
  8  9  4  0  0  0  0
  9 10  1  0  0  0  0
  9 32  4  0  0  0  0
 10 11  1  0  0  0  0
 10 15  1  0  0  0  0
 11 12  1  0  0  0  0
 12 13  1  0  0  0  0
 13 14  1  0  0  0  0
 13 16  1  0  0  0  0
 14 15  1  0  0  0  0
 16 17  2  0  0  0  0
 16 18  1  0  0  0  0
 18 19  1  0  0  0  0
 19 20  1  0  0  0  0
 20 21  4  0  0  0  0
 20 31  4  0  0  0  0
 21 22  4  0  0  0  0
 22 23  4  0  0  0  0
 22 26  4  0  0  0  0
 23 24  4  0  0  0  0
 23 30  4  0  0  0  0
 24 25  4  0  0  0  0
 25 26  4  0  0  0  0
 26 27  1  0  0  0  0
 27 28  1  0  0  0  0
 28 29  1  0  0  0  0
 30 31  4  0  0  0  0
 32 33  4  0  0  0  0
M  STY  1   1 DAT
M  SAL   1  1  24
M  SDT   1 MRV_IMPLICIT_H                                        
M  SDD   1     0.0000    0.0000    DR    ALL  0       0  
M  SED   1 IMPL_H1
M  END
>  <Name_Molregno>
198173

>  <5-HT1A>
7.02

$$$$
198203
  Marvin  02231216192D 0   1.00000     0.00000     0

 30 33  0  0  0  0  0  0  0  0999 V2000
    0.1822   -1.0564    0.0000 O   0  0  0  0  0  0  0  0  0
    0.8967   -0.6439    0.0000 C   0  0  0  0  0  0  0  0  0
    1.6112   -1.0564    0.0000 C   0  0  0  0  0  0  0  0  0
    1.6112   -1.8814    0.0000 O   0  0  0  0  0  0  0  0  0
    2.3256   -0.6439    0.0000 N   0  0  0  0  0  0  0  0  0
    2.3256    0.1811    0.0000 C   0  0  0  0  0  0  0  0  0
    3.0401    0.5936    0.0000 C   0  0  0  0  0  0  0  0  0
    3.7546    0.1811    0.0000 N   0  0  0  0  0  0  0  0  0
    3.7546   -0.6439    0.0000 C   0  0  0  0  0  0  0  0  0
    3.0401   -1.0564    0.0000 C   0  0  0  0  0  0  0  0  0
    4.4691    0.5936    0.0000 C   0  0  0  0  0  0  0  0  0
    4.4691    1.4186    0.0000 C   0  0  0  0  0  0  0  0  0
    5.1835    1.8311    0.0000 C   0  0  0  0  0  0  0  0  0
    5.8980    1.4186    0.0000 C   0  0  0  0  0  0  0  0  0
    5.8980    0.5936    0.0000 C   0  0  0  0  0  0  0  0  0
    5.1835    0.1811    0.0000 C   0  0  0  0  0  0  0  0  0
    5.1835   -0.6439    0.0000 C   0  0  0  0  0  0  0  0  0
    5.8980   -1.0564    0.0000 N   0  0  0  0  0  0  0  0  0
   -0.5322   -0.6439    0.0000 C   0  0  0  0  0  0  0  0  0
   -1.2467   -1.0564    0.0000 C   0  0  0  0  0  0  0  0  0
   -1.9612   -0.6439    0.0000 C   0  0  0  0  0  0  0  0  0
   -1.9612    0.1811    0.0000 C   0  0  0  0  0  0  0  0  0
   -2.7458    0.4360    0.0000 N   0  0  0  0  0  0  0  0  0
   -3.2307   -0.2314    0.0000 C   0  0  0  0  0  0  0  0  0
   -2.7458   -0.8989    0.0000 C   0  0  0  0  0  0  0  0  0
   -3.0007   -1.6835    0.0000 C   0  0  0  0  0  0  0  0  0
   -3.8077   -1.8550    0.0000 C   0  0  0  0  0  0  0  0  0
   -4.0626   -2.6396    0.0000 N   0  0  0  0  0  0  0  0  0
   -1.2467    0.5936    0.0000 C   0  0  0  0  0  0  0  0  0
   -0.5322    0.1811    0.0000 C   0  0  0  0  0  0  0  0  0
  1  2  1  0  0  0  0
  1 19  1  0  0  0  0
  2  3  1  0  0  0  0
  3  4  2  0  0  0  0
  3  5  1  0  0  0  0
  5  6  1  0  0  0  0
  5 10  1  0  0  0  0
  6  7  1  0  0  0  0
  7  8  1  0  0  0  0
  8  9  1  0  0  0  0
  8 11  1  0  0  0  0
  9 10  1  0  0  0  0
 11 12  4  0  0  0  0
 11 16  4  0  0  0  0
 12 13  4  0  0  0  0
 13 14  4  0  0  0  0
 14 15  4  0  0  0  0
 15 16  4  0  0  0  0
 16 17  1  0  0  0  0
 17 18  1  0  0  0  0
 19 20  4  0  0  0  0
 19 30  4  0  0  0  0
 20 21  4  0  0  0  0
 21 22  4  0  0  0  0
 21 25  4  0  0  0  0
 22 23  4  0  0  0  0
 22 29  4  0  0  0  0
 23 24  4  0  0  0  0
 24 25  4  0  0  0  0
 25 26  1  0  0  0  0
 26 27  1  0  0  0  0
 27 28  1  0  0  0  0
 29 30  4  0  0  0  0
M  STY  1   1 DAT
M  SAL   1  1  23
M  SDT   1 MRV_IMPLICIT_H                                        
M  SDD   1     0.0000    0.0000    DR    ALL  0       0  
M  SED   1 IMPL_H1
M  END
>  <Name_Molregno>
198203

>  <5-HT1A>
7.87

$$$$
198387
  Marvin  02231216192D 0   1.00000     0.00000     0

 28 31  0  0  0  0  0  0  0  0999 V2000
    0.2518   -1.0279    0.0000 O   0  0  0  0  0  0  0  0  0
    0.9662   -0.6154    0.0000 C   0  0  0  0  0  0  0  0  0
    1.6807   -1.0279    0.0000 C   0  0  0  0  0  0  0  0  0
    1.6807   -1.8529    0.0000 O   0  0  0  0  0  0  0  0  0
    2.3952   -0.6154    0.0000 N   0  0  0  0  0  0  0  0  0
    2.3952    0.2096    0.0000 C   0  0  0  0  0  0  0  0  0
    3.1096    0.6221    0.0000 C   0  0  0  0  0  0  0  0  0
    3.8241    0.2096    0.0000 N   0  0  0  0  0  0  0  0  0
    3.8241   -0.6154    0.0000 C   0  0  0  0  0  0  0  0  0
    3.1096   -1.0279    0.0000 C   0  0  0  0  0  0  0  0  0
    4.5386    0.6221    0.0000 C   0  0  0  0  0  0  0  0  0
    4.5386    1.4471    0.0000 C   0  0  0  0  0  0  0  0  0
    5.2531    1.8596    0.0000 C   0  0  0  0  0  0  0  0  0
    5.9675    1.4471    0.0000 C   0  0  0  0  0  0  0  0  0
    5.9675    0.6221    0.0000 C   0  0  0  0  0  0  0  0  0
    5.2531    0.2096    0.0000 C   0  0  0  0  0  0  0  0  0
   -0.4627   -0.6154    0.0000 C   0  0  0  0  0  0  0  0  0
   -1.1772   -1.0279    0.0000 C   0  0  0  0  0  0  0  0  0
   -1.8917   -0.6154    0.0000 C   0  0  0  0  0  0  0  0  0
   -1.8917    0.2096    0.0000 C   0  0  0  0  0  0  0  0  0
   -2.6763    0.4645    0.0000 N   0  0  0  0  0  0  0  0  0
   -3.1612   -0.2029    0.0000 C   0  0  0  0  0  0  0  0  0
   -2.6763   -0.8704    0.0000 C   0  0  0  0  0  0  0  0  0
   -2.9312   -1.6550    0.0000 C   0  0  0  0  0  0  0  0  0
   -3.7382   -1.8265    0.0000 C   0  0  0  0  0  0  0  0  0
   -3.9931   -2.6111    0.0000 N   0  0  0  0  0  0  0  0  0
   -1.1772    0.6221    0.0000 C   0  0  0  0  0  0  0  0  0
   -0.4627    0.2096    0.0000 C   0  0  0  0  0  0  0  0  0
  1  2  1  0  0  0  0
  1 17  1  0  0  0  0
  2  3  1  0  0  0  0
  3  4  2  0  0  0  0
  3  5  1  0  0  0  0
  5  6  1  0  0  0  0
  5 10  1  0  0  0  0
  6  7  1  0  0  0  0
  7  8  1  0  0  0  0
  8  9  1  0  0  0  0
  8 11  1  0  0  0  0
  9 10  1  0  0  0  0
 11 12  4  0  0  0  0
 11 16  4  0  0  0  0
 12 13  4  0  0  0  0
 13 14  4  0  0  0  0
 14 15  4  0  0  0  0
 15 16  4  0  0  0  0
 17 18  4  0  0  0  0
 17 28  4  0  0  0  0
 18 19  4  0  0  0  0
 19 20  4  0  0  0  0
 19 23  4  0  0  0  0
 20 21  4  0  0  0  0
 20 27  4  0  0  0  0
 21 22  4  0  0  0  0
 22 23  4  0  0  0  0
 23 24  1  0  0  0  0
 24 25  1  0  0  0  0
 25 26  1  0  0  0  0
 27 28  4  0  0  0  0
M  STY  1   1 DAT
M  SAL   1  1  21
M  SDT   1 MRV_IMPLICIT_H                                        
M  SDD   1     0.0000    0.0000    DR    ALL  0       0  
M  SED   1 IMPL_H1
M  END
>  <Name_Molregno>
198387

>  <5-HT1A>
7.98

$$$$
198481
  Marvin  02231216192D 0   1.00000     0.00000     0

 37 40  0  0  0  0  0  0  0  0999 V2000
    0.3040   -0.5971    0.0000 S   0  0  0  0  0  0  0  0  0
    0.3040   -1.4221    0.0000 O   0  0  0  0  0  0  0  0  0
    1.1290   -0.5971    0.0000 O   0  0  0  0  0  0  0  0  0
    0.3040    0.2279    0.0000 N   0  0  0  0  0  0  0  0  0
    1.0185    0.6404    0.0000 C   0  0  0  0  0  0  0  0  0
    1.0185    1.4654    0.0000 C   0  0  0  0  0  0  0  0  0
    1.7329    1.8779    0.0000 C   0  0  0  0  0  0  0  0  0
    2.4474    1.4654    0.0000 C   0  0  0  0  0  0  0  0  0
    3.1619    1.8779    0.0000 N   0  0  0  0  0  0  0  0  0
    3.1619    2.7029    0.0000 C   0  0  0  0  0  0  0  0  0
    3.8763    3.1154    0.0000 C   0  0  0  0  0  0  0  0  0
    4.5908    2.7029    0.0000 N   0  0  0  0  0  0  0  0  0
    4.5908    1.8779    0.0000 C   0  0  0  0  0  0  0  0  0
    3.8763    1.4654    0.0000 C   0  0  0  0  0  0  0  0  0
    5.3053    3.1154    0.0000 C   0  0  0  0  0  0  0  0  0
    5.3053    3.9404    0.0000 O   0  0  0  0  0  0  0  0  0
    6.0198    2.7029    0.0000 C   0  0  0  0  0  0  0  0  0
    6.7342    3.1154    0.0000 C   0  0  0  0  0  0  0  0  0
    7.4487    2.7029    0.0000 C   0  0  0  0  0  0  0  0  0
    8.1632    3.1154    0.0000 C   0  0  0  0  0  0  0  0  0
    8.8776    2.7029    0.0000 C   0  0  0  0  0  0  0  0  0
    9.5921    3.1154    0.0000 O   0  0  0  0  0  0  0  0  0
   10.3066    2.7029    0.0000 C   0  0  0  0  0  0  0  0  0
   11.0211    3.1154    0.0000 C   0  0  0  0  0  0  0  0  0
   11.7355    2.7029    0.0000 C   0  0  0  0  0  0  0  0  0
   11.7355    1.8779    0.0000 C   0  0  0  0  0  0  0  0  0
   12.5201    1.6230    0.0000 N   0  0  0  0  0  0  0  0  0
   13.0051    2.2904    0.0000 C   0  0  0  0  0  0  0  0  0
   12.5201    2.9579    0.0000 C   0  0  0  0  0  0  0  0  0
   12.7751    3.7425    0.0000 C   0  0  0  0  0  0  0  0  0
   13.5821    3.9140    0.0000 C   0  0  0  0  0  0  0  0  0
   13.8370    4.6987    0.0000 N   0  0  0  0  0  0  0  0  0
   11.0211    1.4654    0.0000 C   0  0  0  0  0  0  0  0  0
   10.3066    1.8779    0.0000 C   0  0  0  0  0  0  0  0  0
    2.4474    0.6404    0.0000 C   0  0  0  0  0  0  0  0  0
    1.7329    0.2279    0.0000 C   0  0  0  0  0  0  0  0  0
   -0.5210   -0.5971    0.0000 C   0  0  0  0  0  0  0  0  0
  1  2  2  0  0  0  0
  1  3  2  0  0  0  0
  1  4  1  0  0  0  0
  1 37  1  0  0  0  0
  4  5  1  0  0  0  0
  5  6  4  0  0  0  0
  5 36  4  0  0  0  0
  6  7  4  0  0  0  0
  7  8  4  0  0  0  0
  8  9  1  0  0  0  0
  8 35  4  0  0  0  0
  9 10  1  0  0  0  0
  9 14  1  0  0  0  0
 10 11  1  0  0  0  0
 11 12  1  0  0  0  0
 12 13  1  0  0  0  0
 12 15  1  0  0  0  0
 13 14  1  0  0  0  0
 15 16  2  0  0  0  0
 15 17  1  0  0  0  0
 17 18  1  0  0  0  0
 18 19  1  0  0  0  0
 19 20  1  0  0  0  0
 20 21  1  0  0  0  0
 21 22  1  0  0  0  0
 22 23  1  0  0  0  0
 23 24  4  0  0  0  0
 23 34  4  0  0  0  0
 24 25  4  0  0  0  0
 25 26  4  0  0  0  0
 25 29  4  0  0  0  0
 26 27  4  0  0  0  0
 26 33  4  0  0  0  0
 27 28  4  0  0  0  0
 28 29  4  0  0  0  0
 29 30  1  0  0  0  0
 30 31  1  0  0  0  0
 31 32  1  0  0  0  0
 33 34  4  0  0  0  0
 35 36  4  0  0  0  0
M  STY  1   1 DAT
M  SAL   1  1  27
M  SDT   1 MRV_IMPLICIT_H                                        
M  SDD   1     0.0000    0.0000    DR    ALL  0       0  
M  SED   1 IMPL_H1
M  END
>  <Name_Molregno>
198481

>  <5-HT1A>
7.99

$$$$
198513
  Marvin  02231216192D 0   1.00000     0.00000     0

 32 35  0  0  0  0  0  0  0  0999 V2000
   -0.0560   -0.0102    0.0000 O   0  0  0  0  0  0  0  0  0
    0.6584    0.4023    0.0000 C   0  0  0  0  0  0  0  0  0
    1.3729   -0.0102    0.0000 C   0  0  0  0  0  0  0  0  0
    2.0874    0.4023    0.0000 C   0  0  0  0  0  0  0  0  0
    2.8018   -0.0102    0.0000 C   0  0  0  0  0  0  0  0  0
    3.5163    0.4023    0.0000 C   0  0  0  0  0  0  0  0  0
    3.5163    1.2273    0.0000 O   0  0  0  0  0  0  0  0  0
    4.2308   -0.0102    0.0000 N   0  0  0  0  0  0  0  0  0
    4.9453    0.4023    0.0000 C   0  0  0  0  0  0  0  0  0
    5.6597   -0.0102    0.0000 C   0  0  0  0  0  0  0  0  0
    5.6597   -0.8352    0.0000 N   0  0  0  0  0  0  0  0  0
    4.9453   -1.2477    0.0000 C   0  0  0  0  0  0  0  0  0
    4.2308   -0.8352    0.0000 C   0  0  0  0  0  0  0  0  0
    6.3742   -1.2477    0.0000 C   0  0  0  0  0  0  0  0  0
    7.0887   -0.8352    0.0000 C   0  0  0  0  0  0  0  0  0
    7.8031   -1.2477    0.0000 C   0  0  0  0  0  0  0  0  0
    7.8031   -2.0727    0.0000 C   0  0  0  0  0  0  0  0  0
    8.5176   -2.4852    0.0000 N   0  0  0  0  0  0  0  0  0
    7.0887   -2.4852    0.0000 C   0  0  0  0  0  0  0  0  0
    6.3742   -2.0727    0.0000 C   0  0  0  0  0  0  0  0  0
   -0.7705    0.4023    0.0000 C   0  0  0  0  0  0  0  0  0
   -1.4850   -0.0102    0.0000 C   0  0  0  0  0  0  0  0  0
   -2.1995    0.4023    0.0000 C   0  0  0  0  0  0  0  0  0
   -2.1995    1.2273    0.0000 C   0  0  0  0  0  0  0  0  0
   -2.9841    1.4823    0.0000 N   0  0  0  0  0  0  0  0  0
   -3.4690    0.8148    0.0000 C   0  0  0  0  0  0  0  0  0
   -2.9841    0.1474    0.0000 C   0  0  0  0  0  0  0  0  0
   -3.2390   -0.6372    0.0000 C   0  0  0  0  0  0  0  0  0
   -4.0460   -0.8087    0.0000 C   0  0  0  0  0  0  0  0  0
   -4.3009   -1.5934    0.0000 N   0  0  0  0  0  0  0  0  0
   -1.4850    1.6398    0.0000 C   0  0  0  0  0  0  0  0  0
   -0.7705    1.2273    0.0000 C   0  0  0  0  0  0  0  0  0
  1  2  1  0  0  0  0
  1 21  1  0  0  0  0
  2  3  1  0  0  0  0
  3  4  1  0  0  0  0
  4  5  1  0  0  0  0
  5  6  1  0  0  0  0
  6  7  2  0  0  0  0
  6  8  1  0  0  0  0
  8  9  1  0  0  0  0
  8 13  1  0  0  0  0
  9 10  1  0  0  0  0
 10 11  1  0  0  0  0
 11 12  1  0  0  0  0
 11 14  1  0  0  0  0
 12 13  1  0  0  0  0
 14 15  4  0  0  0  0
 14 20  4  0  0  0  0
 15 16  4  0  0  0  0
 16 17  4  0  0  0  0
 17 18  1  0  0  0  0
 17 19  4  0  0  0  0
 19 20  4  0  0  0  0
 21 22  4  0  0  0  0
 21 32  4  0  0  0  0
 22 23  4  0  0  0  0
 23 24  4  0  0  0  0
 23 27  4  0  0  0  0
 24 25  4  0  0  0  0
 24 31  4  0  0  0  0
 25 26  4  0  0  0  0
 26 27  4  0  0  0  0
 27 28  1  0  0  0  0
 28 29  1  0  0  0  0
 29 30  1  0  0  0  0
 31 32  4  0  0  0  0
M  STY  1   1 DAT
M  SAL   1  1  25
M  SDT   1 MRV_IMPLICIT_H                                        
M  SDD   1     0.0000    0.0000    DR    ALL  0       0  
M  SED   1 IMPL_H1
M  END
>  <Name_Molregno>
198513

>  <5-HT1A>
7.29

$$$$
198516
  Marvin  02231216192D 0   1.00000     0.00000     0

 33 36  0  0  0  0  0  0  0  0999 V2000
   10.0701    3.9433    0.0000 S   0  0  0  0  0  0  0  0  0
   10.0701    4.7683    0.0000 O   0  0  0  0  0  0  0  0  0
    9.2451    3.9433    0.0000 O   0  0  0  0  0  0  0  0  0
   10.0701    3.1183    0.0000 N   0  0  0  0  0  0  0  0  0
    9.3556    2.7058    0.0000 C   0  0  0  0  0  0  0  0  0
    9.3556    1.8808    0.0000 C   0  0  0  0  0  0  0  0  0
    8.6411    1.4683    0.0000 C   0  0  0  0  0  0  0  0  0
    7.9267    1.8808    0.0000 C   0  0  0  0  0  0  0  0  0
    7.2122    1.4683    0.0000 N   0  0  0  0  0  0  0  0  0
    7.2122    0.6433    0.0000 C   0  0  0  0  0  0  0  0  0
    6.4977    0.2308    0.0000 C   0  0  0  0  0  0  0  0  0
    5.7833    0.6433    0.0000 N   0  0  0  0  0  0  0  0  0
    5.7833    1.4683    0.0000 C   0  0  0  0  0  0  0  0  0
    6.4977    1.8808    0.0000 C   0  0  0  0  0  0  0  0  0
    5.0688    0.2308    0.0000 C   0  0  0  0  0  0  0  0  0
    5.0688   -0.5942    0.0000 O   0  0  0  0  0  0  0  0  0
    4.3543    0.6433    0.0000 C   0  0  0  0  0  0  0  0  0
    3.6399    0.2308    0.0000 O   0  0  0  0  0  0  0  0  0
    2.9254    0.6433    0.0000 C   0  0  0  0  0  0  0  0  0
    2.2109    0.2308    0.0000 C   0  0  0  0  0  0  0  0  0
    1.4964    0.6433    0.0000 C   0  0  0  0  0  0  0  0  0
    1.4964    1.4683    0.0000 C   0  0  0  0  0  0  0  0  0
    0.7118    1.7233    0.0000 N   0  0  0  0  0  0  0  0  0
    0.2269    1.0558    0.0000 C   0  0  0  0  0  0  0  0  0
    0.7118    0.3884    0.0000 C   0  0  0  0  0  0  0  0  0
    0.4569   -0.3962    0.0000 C   0  0  0  0  0  0  0  0  0
   -0.3501   -0.5678    0.0000 C   0  0  0  0  0  0  0  0  0
   -0.6050   -1.3524    0.0000 N   0  0  0  0  0  0  0  0  0
    2.2109    1.8808    0.0000 C   0  0  0  0  0  0  0  0  0
    2.9254    1.4683    0.0000 C   0  0  0  0  0  0  0  0  0
    7.9267    2.7058    0.0000 C   0  0  0  0  0  0  0  0  0
    8.6411    3.1183    0.0000 C   0  0  0  0  0  0  0  0  0
   10.8951    3.9433    0.0000 C   0  0  0  0  0  0  0  0  0
  1  2  2  0  0  0  0
  1  3  2  0  0  0  0
  1  4  1  0  0  0  0
  1 33  1  0  0  0  0
  4  5  1  0  0  0  0
  5  6  4  0  0  0  0
  5 32  4  0  0  0  0
  6  7  4  0  0  0  0
  7  8  4  0  0  0  0
  8  9  1  0  0  0  0
  8 31  4  0  0  0  0
  9 10  1  0  0  0  0
  9 14  1  0  0  0  0
 10 11  1  0  0  0  0
 11 12  1  0  0  0  0
 12 13  1  0  0  0  0
 12 15  1  0  0  0  0
 13 14  1  0  0  0  0
 15 16  2  0  0  0  0
 15 17  1  0  0  0  0
 17 18  1  0  0  0  0
 18 19  1  0  0  0  0
 19 20  4  0  0  0  0
 19 30  4  0  0  0  0
 20 21  4  0  0  0  0
 21 22  4  0  0  0  0
 21 25  4  0  0  0  0
 22 23  4  0  0  0  0
 22 29  4  0  0  0  0
 23 24  4  0  0  0  0
 24 25  4  0  0  0  0
 25 26  1  0  0  0  0
 26 27  1  0  0  0  0
 27 28  1  0  0  0  0
 29 30  4  0  0  0  0
 31 32  4  0  0  0  0
M  STY  1   1 DAT
M  SAL   1  1  23
M  SDT   1 MRV_IMPLICIT_H                                        
M  SDD   1     0.0000    0.0000    DR    ALL  0       0  
M  SED   1 IMPL_H1
M  END
>  <Name_Molregno>
198516

>  <5-HT1A>
7.16

$$$$
198536
  Marvin  02231216192D 0   1.00000     0.00000     0

 33 36  0  0  0  0  0  0  0  0999 V2000
   -0.0577   -0.0389    0.0000 O   0  0  0  0  0  0  0  0  0
    0.6567    0.3736    0.0000 C   0  0  0  0  0  0  0  0  0
    1.3712   -0.0389    0.0000 C   0  0  0  0  0  0  0  0  0
    2.0857    0.3736    0.0000 C   0  0  0  0  0  0  0  0  0
    2.8002   -0.0389    0.0000 C   0  0  0  0  0  0  0  0  0
    3.5146    0.3736    0.0000 C   0  0  0  0  0  0  0  0  0
    4.2291   -0.0389    0.0000 C   0  0  0  0  0  0  0  0  0
    4.2291   -0.8639    0.0000 O   0  0  0  0  0  0  0  0  0
    4.9436    0.3736    0.0000 N   0  0  0  0  0  0  0  0  0
    4.9436    1.1986    0.0000 C   0  0  0  0  0  0  0  0  0
    5.6580    1.6111    0.0000 C   0  0  0  0  0  0  0  0  0
    6.3725    1.1986    0.0000 N   0  0  0  0  0  0  0  0  0
    6.3725    0.3736    0.0000 C   0  0  0  0  0  0  0  0  0
    5.6580   -0.0389    0.0000 C   0  0  0  0  0  0  0  0  0
    7.0870    1.6111    0.0000 C   0  0  0  0  0  0  0  0  0
    7.0870    2.4361    0.0000 C   0  0  0  0  0  0  0  0  0
    7.8015    2.8486    0.0000 C   0  0  0  0  0  0  0  0  0
    8.5159    2.4361    0.0000 C   0  0  0  0  0  0  0  0  0
    9.2304    2.8486    0.0000 N   0  0  0  0  0  0  0  0  0
    8.5159    1.6111    0.0000 C   0  0  0  0  0  0  0  0  0
    7.8015    1.1986    0.0000 C   0  0  0  0  0  0  0  0  0
   -0.7722    0.3736    0.0000 C   0  0  0  0  0  0  0  0  0
   -1.4867   -0.0389    0.0000 C   0  0  0  0  0  0  0  0  0
   -2.2011    0.3736    0.0000 C   0  0  0  0  0  0  0  0  0
   -2.2011    1.1986    0.0000 C   0  0  0  0  0  0  0  0  0
   -2.9858    1.4536    0.0000 N   0  0  0  0  0  0  0  0  0
   -3.4707    0.7861    0.0000 C   0  0  0  0  0  0  0  0  0
   -2.9858    0.1187    0.0000 C   0  0  0  0  0  0  0  0  0
   -3.2407   -0.6659    0.0000 C   0  0  0  0  0  0  0  0  0
   -4.0477   -0.8375    0.0000 C   0  0  0  0  0  0  0  0  0
   -4.3026   -1.6221    0.0000 N   0  0  0  0  0  0  0  0  0
   -1.4867    1.6111    0.0000 C   0  0  0  0  0  0  0  0  0
   -0.7722    1.1986    0.0000 C   0  0  0  0  0  0  0  0  0
  1  2  1  0  0  0  0
  1 22  1  0  0  0  0
  2  3  1  0  0  0  0
  3  4  1  0  0  0  0
  4  5  1  0  0  0  0
  5  6  1  0  0  0  0
  6  7  1  0  0  0  0
  7  8  2  0  0  0  0
  7  9  1  0  0  0  0
  9 10  1  0  0  0  0
  9 14  1  0  0  0  0
 10 11  1  0  0  0  0
 11 12  1  0  0  0  0
 12 13  1  0  0  0  0
 12 15  1  0  0  0  0
 13 14  1  0  0  0  0
 15 16  4  0  0  0  0
 15 21  4  0  0  0  0
 16 17  4  0  0  0  0
 17 18  4  0  0  0  0
 18 19  1  0  0  0  0
 18 20  4  0  0  0  0
 20 21  4  0  0  0  0
 22 23  4  0  0  0  0
 22 33  4  0  0  0  0
 23 24  4  0  0  0  0
 24 25  4  0  0  0  0
 24 28  4  0  0  0  0
 25 26  4  0  0  0  0
 25 32  4  0  0  0  0
 26 27  4  0  0  0  0
 27 28  4  0  0  0  0
 28 29  1  0  0  0  0
 29 30  1  0  0  0  0
 30 31  1  0  0  0  0
 32 33  4  0  0  0  0
M  STY  1   1 DAT
M  SAL   1  1  26
M  SDT   1 MRV_IMPLICIT_H                                        
M  SDD   1     0.0000    0.0000    DR    ALL  0       0  
M  SED   1 IMPL_H1
M  END
>  <Name_Molregno>
198536

>  <5-HT1A>
7.37

$$$$
198538
  Marvin  02231216192D 0   1.00000     0.00000     0

 29 32  0  0  0  0  0  0  0  0999 V2000
    0.2567   -0.6018    0.0000 O   0  0  0  0  0  0  0  0  0
    0.9711   -0.1893    0.0000 C   0  0  0  0  0  0  0  0  0
    1.6856   -0.6018    0.0000 C   0  0  0  0  0  0  0  0  0
    1.6856   -1.4268    0.0000 O   0  0  0  0  0  0  0  0  0
    2.4001   -0.1893    0.0000 N   0  0  0  0  0  0  0  0  0
    2.4001    0.6357    0.0000 C   0  0  0  0  0  0  0  0  0
    3.1146    1.0482    0.0000 C   0  0  0  0  0  0  0  0  0
    3.8290    0.6357    0.0000 N   0  0  0  0  0  0  0  0  0
    3.8290   -0.1893    0.0000 C   0  0  0  0  0  0  0  0  0
    3.1146   -0.6018    0.0000 C   0  0  0  0  0  0  0  0  0
    4.5435    1.0482    0.0000 C   0  0  0  0  0  0  0  0  0
    4.5435    1.8732    0.0000 C   0  0  0  0  0  0  0  0  0
    5.2580    2.2857    0.0000 C   0  0  0  0  0  0  0  0  0
    5.9724    1.8732    0.0000 C   0  0  0  0  0  0  0  0  0
    6.6869    2.2857    0.0000 N   0  0  0  0  0  0  0  0  0
    5.9724    1.0482    0.0000 C   0  0  0  0  0  0  0  0  0
    5.2580    0.6357    0.0000 C   0  0  0  0  0  0  0  0  0
   -0.4578   -0.1893    0.0000 C   0  0  0  0  0  0  0  0  0
   -1.1723   -0.6018    0.0000 C   0  0  0  0  0  0  0  0  0
   -1.8867   -0.1893    0.0000 C   0  0  0  0  0  0  0  0  0
   -1.8867    0.6357    0.0000 C   0  0  0  0  0  0  0  0  0
   -2.6714    0.8906    0.0000 N   0  0  0  0  0  0  0  0  0
   -3.1563    0.2232    0.0000 C   0  0  0  0  0  0  0  0  0
   -2.6714   -0.4442    0.0000 C   0  0  0  0  0  0  0  0  0
   -2.9263   -1.2289    0.0000 C   0  0  0  0  0  0  0  0  0
   -3.7333   -1.4004    0.0000 C   0  0  0  0  0  0  0  0  0
   -3.9882   -2.1850    0.0000 N   0  0  0  0  0  0  0  0  0
   -1.1723    1.0482    0.0000 C   0  0  0  0  0  0  0  0  0
   -0.4578    0.6357    0.0000 C   0  0  0  0  0  0  0  0  0
  1  2  1  0  0  0  0
  1 18  1  0  0  0  0
  2  3  1  0  0  0  0
  3  4  2  0  0  0  0
  3  5  1  0  0  0  0
  5  6  1  0  0  0  0
  5 10  1  0  0  0  0
  6  7  1  0  0  0  0
  7  8  1  0  0  0  0
  8  9  1  0  0  0  0
  8 11  1  0  0  0  0
  9 10  1  0  0  0  0
 11 12  4  0  0  0  0
 11 17  4  0  0  0  0
 12 13  4  0  0  0  0
 13 14  4  0  0  0  0
 14 15  1  0  0  0  0
 14 16  4  0  0  0  0
 16 17  4  0  0  0  0
 18 19  4  0  0  0  0
 18 29  4  0  0  0  0
 19 20  4  0  0  0  0
 20 21  4  0  0  0  0
 20 24  4  0  0  0  0
 21 22  4  0  0  0  0
 21 28  4  0  0  0  0
 22 23  4  0  0  0  0
 23 24  4  0  0  0  0
 24 25  1  0  0  0  0
 25 26  1  0  0  0  0
 26 27  1  0  0  0  0
 28 29  4  0  0  0  0
M  STY  1   1 DAT
M  SAL   1  1  22
M  SDT   1 MRV_IMPLICIT_H                                        
M  SDD   1     0.0000    0.0000    DR    ALL  0       0  
M  SED   1 IMPL_H1
M  END
>  <Name_Molregno>
198538

>  <5-HT1A>
6.22

$$$$
198542
  Marvin  02231216192D 0   1.00000     0.00000     0

 32 35  0  0  0  0  0  0  0  0999 V2000
    0.2308   -1.0312    0.0000 O   0  0  0  0  0  0  0  0  0
    0.9452   -0.6187    0.0000 C   0  0  0  0  0  0  0  0  0
    1.6597   -1.0312    0.0000 C   0  0  0  0  0  0  0  0  0
    1.6597   -1.8562    0.0000 O   0  0  0  0  0  0  0  0  0
    2.3742   -0.6187    0.0000 N   0  0  0  0  0  0  0  0  0
    2.3742    0.2063    0.0000 C   0  0  0  0  0  0  0  0  0
    3.0887    0.6188    0.0000 C   0  0  0  0  0  0  0  0  0
    3.8031    0.2063    0.0000 N   0  0  0  0  0  0  0  0  0
    3.8031   -0.6187    0.0000 C   0  0  0  0  0  0  0  0  0
    3.0887   -1.0312    0.0000 C   0  0  0  0  0  0  0  0  0
    4.5176    0.6188    0.0000 C   0  0  0  0  0  0  0  0  0
    4.5176    1.4438    0.0000 C   0  0  0  0  0  0  0  0  0
    5.2321    1.8563    0.0000 C   0  0  0  0  0  0  0  0  0
    5.9465    1.4438    0.0000 C   0  0  0  0  0  0  0  0  0
    6.6610    1.8563    0.0000 N   0  0  0  0  0  0  0  0  0
    7.3755    1.4438    0.0000 C   0  0  0  0  0  0  0  0  0
    8.0900    1.8563    0.0000 O   0  0  0  0  0  0  0  0  0
    7.3755    0.6188    0.0000 C   0  0  0  0  0  0  0  0  0
    5.9465    0.6188    0.0000 C   0  0  0  0  0  0  0  0  0
    5.2321    0.2063    0.0000 C   0  0  0  0  0  0  0  0  0
   -0.4837   -0.6187    0.0000 C   0  0  0  0  0  0  0  0  0
   -1.1982   -1.0312    0.0000 C   0  0  0  0  0  0  0  0  0
   -1.9126   -0.6187    0.0000 C   0  0  0  0  0  0  0  0  0
   -1.9126    0.2063    0.0000 C   0  0  0  0  0  0  0  0  0
   -2.6973    0.4612    0.0000 N   0  0  0  0  0  0  0  0  0
   -3.1822   -0.2062    0.0000 C   0  0  0  0  0  0  0  0  0
   -2.6973   -0.8736    0.0000 C   0  0  0  0  0  0  0  0  0
   -2.9522   -1.6583    0.0000 C   0  0  0  0  0  0  0  0  0
   -3.7592   -1.8298    0.0000 C   0  0  0  0  0  0  0  0  0
   -4.0141   -2.6144    0.0000 N   0  0  0  0  0  0  0  0  0
   -1.1982    0.6188    0.0000 C   0  0  0  0  0  0  0  0  0
   -0.4837    0.2063    0.0000 C   0  0  0  0  0  0  0  0  0
  1  2  1  0  0  0  0
  1 21  1  0  0  0  0
  2  3  1  0  0  0  0
  3  4  2  0  0  0  0
  3  5  1  0  0  0  0
  5  6  1  0  0  0  0
  5 10  1  0  0  0  0
  6  7  1  0  0  0  0
  7  8  1  0  0  0  0
  8  9  1  0  0  0  0
  8 11  1  0  0  0  0
  9 10  1  0  0  0  0
 11 12  4  0  0  0  0
 11 20  4  0  0  0  0
 12 13  4  0  0  0  0
 13 14  4  0  0  0  0
 14 15  1  0  0  0  0
 14 19  4  0  0  0  0
 15 16  1  0  0  0  0
 16 17  2  0  0  0  0
 16 18  1  0  0  0  0
 19 20  4  0  0  0  0
 21 22  4  0  0  0  0
 21 32  4  0  0  0  0
 22 23  4  0  0  0  0
 23 24  4  0  0  0  0
 23 27  4  0  0  0  0
 24 25  4  0  0  0  0
 24 31  4  0  0  0  0
 25 26  4  0  0  0  0
 26 27  4  0  0  0  0
 27 28  1  0  0  0  0
 28 29  1  0  0  0  0
 29 30  1  0  0  0  0
 31 32  4  0  0  0  0
M  STY  1   1 DAT
M  SAL   1  1  25
M  SDT   1 MRV_IMPLICIT_H                                        
M  SDD   1     0.0000    0.0000    DR    ALL  0       0  
M  SED   1 IMPL_H1
M  END
>  <Name_Molregno>
198542

>  <5-HT1A>
7.11

$$$$
199111
  Marvin  02231216192D 0   1.00000     0.00000     0

 14 15  0  0  1  0  0  0  0  0999 V2000
   -0.1663    0.8600    0.0000 N   0  0  0  0  0  0  0  0  0
    0.5482    0.4475    0.0000 C   0  0  0  0  0  0  0  0  0
    1.2627    0.8600    0.0000 C   0  0  0  0  0  0  0  0  0
    1.2627    1.6850    0.0000 C   0  0  0  0  0  0  0  0  0
    1.9771    2.0975    0.0000 C   0  0  0  0  0  0  0  0  0
    2.6916    1.6850    0.0000 C   0  0  0  0  0  0  0  0  0
    2.6916    0.8600    0.0000 C   0  0  0  0  0  0  0  0  0
    1.9771    0.4475    0.0000 C   0  0  0  0  0  0  0  0  0
    1.9771   -0.3775    0.0000 N   0  0  0  0  0  0  0  0  0
    2.6916   -0.7900    0.0000 C   0  0  0  0  0  0  0  0  0
    2.6916   -1.6150    0.0000 C   0  0  0  0  0  0  0  0  0
    1.2627   -0.7900    0.0000 C   0  0  0  0  0  0  0  0  0
    0.5482    2.0975    0.0000 C   0  0  0  0  0  0  0  0  0
   -0.1663    1.6850    0.0000 C   0  0  0  0  0  0  0  0  0
  1  2  4  0  0  0  0
  1 14  4  0  0  0  0
  2  3  4  0  0  0  0
  3  4  4  0  0  0  0
  3  8  1  0  0  0  0
  4  5  1  0  0  0  0
  4 13  4  0  0  0  0
  5  6  1  0  0  0  0
  6  7  1  0  0  0  0
  7  8  1  0  0  0  0
  8  9  1  0  0  0  0
  9 10  1  0  0  0  0
  9 12  1  0  0  0  0
 10 11  1  0  0  0  0
 13 14  4  0  0  0  0
M  END
>  <Name_Molregno>
199111

>  <5-HT1A>
5

>  <5-HT1B>
5

>  <5-HT2C>
5

>  <5-HT3>
5

>  <5-HT5>
5

>  <5-HT6>
5

>  <5-HT7>
5

>  <Beta-1>
5

>  <Beta-2>
5

>  <DOPAMINE D1>
5

>  <DOPAMINE D2>
5

>  <DOPAMINE D3>
5

>  <DOPAMINE D4>
5

>  <DOPAMINE D5>
5

>  <HISTAMINE H1>
5

>  <HISTAMINE H2>
5

>  <Muscarinic acetylcholine receptor M1>
5

>  <Muscarinic acetylcholine receptor M2>
5

>  <Muscarinic acetylcholine receptor M3>
5

>  <Muscarinic acetylcholine receptor M4>
5

>  <Muscarinic acetylcholine receptor M5>
5

$$$$
207807
  Marvin  02231216192D 0   1.00000     0.00000     0

 28 31  0  0  0  0  0  0  0  0999 V2000
   -7.2302    1.5263    0.0000 F   0  0  0  0  0  0  0  0  0
   -7.2302    0.7013    0.0000 C   0  0  0  0  0  0  0  0  0
   -6.5157    0.2888    0.0000 C   0  0  0  0  0  0  0  0  0
   -6.5157   -0.5362    0.0000 C   0  0  0  0  0  0  0  0  0
   -5.8012   -0.9487    0.0000 O   0  0  0  0  0  0  0  0  0
   -5.0868   -0.5362    0.0000 C   0  0  0  0  0  0  0  0  0
   -4.3723   -0.9487    0.0000 C   0  0  0  0  0  0  0  0  0
   -3.6578   -0.5362    0.0000 N   0  0  0  0  0  0  0  0  0
   -2.9434   -0.9487    0.0000 C   0  0  0  0  0  0  0  0  0
   -2.2289   -0.5362    0.0000 C   0  0  0  0  0  0  0  0  0
   -1.5144   -0.9487    0.0000 C   0  0  0  0  0  0  0  0  0
   -0.7999   -0.5362    0.0000 C   0  0  0  0  0  0  0  0  0
   -0.7137    0.2843    0.0000 C   0  0  0  0  0  0  0  0  0
   -1.2657    0.8973    0.0000 C   0  0  0  0  0  0  0  0  0
   -1.0108    1.6820    0.0000 C   0  0  0  0  0  0  0  0  0
   -1.5628    2.2951    0.0000 F   0  0  0  0  0  0  0  0  0
   -0.2038    1.8535    0.0000 C   0  0  0  0  0  0  0  0  0
    0.3482    1.2404    0.0000 C   0  0  0  0  0  0  0  0  0
    0.0933    0.4558    0.0000 C   0  0  0  0  0  0  0  0  0
    0.5058   -0.2587    0.0000 N   0  0  0  0  0  0  0  0  0
   -0.0463   -0.8718    0.0000 C   0  0  0  0  0  0  0  0  0
   -7.2302   -0.9487    0.0000 C   0  0  0  0  0  0  0  0  0
   -7.2302   -1.7737    0.0000 O   0  0  0  0  0  0  0  0  0
   -7.9447   -2.1862    0.0000 C   0  0  0  0  0  0  0  0  0
   -8.6591   -1.7737    0.0000 C   0  0  0  0  0  0  0  0  0
   -8.6591   -0.9487    0.0000 C   0  0  0  0  0  0  0  0  0
   -7.9447   -0.5362    0.0000 C   0  0  0  0  0  0  0  0  0
   -7.9447    0.2888    0.0000 C   0  0  0  0  0  0  0  0  0
  1  2  1  0  0  0  0
  2  3  4  0  0  0  0
  2 28  4  0  0  0  0
  3  4  4  0  0  0  0
  4  5  1  0  0  0  0
  4 22  4  0  0  0  0
  5  6  1  0  0  0  0
  6  7  1  0  0  0  0
  7  8  1  0  0  0  0
  8  9  1  0  0  0  0
  9 10  1  0  0  0  0
 10 11  1  0  0  0  0
 11 12  1  0  0  0  0
 12 13  4  0  0  0  0
 12 21  4  0  0  0  0
 13 14  4  0  0  0  0
 13 19  4  0  0  0  0
 14 15  4  0  0  0  0
 15 16  1  0  0  0  0
 15 17  4  0  0  0  0
 17 18  4  0  0  0  0
 18 19  4  0  0  0  0
 19 20  4  0  0  0  0
 20 21  4  0  0  0  0
 22 23  1  0  0  0  0
 22 27  4  0  0  0  0
 23 24  1  0  0  0  0
 24 25  1  0  0  0  0
 25 26  1  0  0  0  0
 26 27  1  0  0  0  0
 27 28  4  0  0  0  0
M  STY  1   1 DAT
M  SAL   1  1  20
M  SDT   1 MRV_IMPLICIT_H                                        
M  SDD   1     0.0000    0.0000    DR    ALL  0       0  
M  SED   1 IMPL_H1
M  END
>  <Name_Molregno>
207807

>  <5-HT1A>
7.57

>  <Serotonin transporter>
9.3

$$$$
208205
  Marvin  02231216192D 0   1.00000     0.00000     0

 15 17  0  0  1  0  0  0  0  0999 V2000
   -0.7051    0.0302    0.0000 O   0  0  0  0  0  0  0  0  0
   -0.2277   -0.6427    0.0000 C   0  0  0  0  0  0  0  0  0
   -0.5277   -1.4998    0.0000 N   0  0  0  0  0  0  0  0  0
   -1.2402   -1.9123    0.0000 C   0  0  0  0  0  0  0  0  0
   -1.2402   -2.7373    0.0000 C   0  0  0  0  0  0  0  0  0
   -1.9549   -3.1494    0.0000 N   0  0  0  0  0  0  0  0  0
   -1.9554   -3.9744    0.0000 C   0  0  0  0  0  0  0  0  0
   -0.5277   -3.1498    0.0000 C   0  0  0  0  0  0  0  0  0
    0.1848   -2.7373    0.0000 C   0  0  0  0  0  0  0  0  0
    0.1848   -1.9123    0.0000 C   0  0  0  0  0  0  0  0  0
    0.9027   -1.4998    0.0000 C   0  0  0  0  0  0  0  0  0
    0.5973   -0.6427    0.0000 N   0  0  0  0  0  0  0  0  0
    1.6152   -1.9123    0.0000 C   0  0  0  0  0  0  0  0  0
    1.6152   -2.7373    0.0000 C   0  0  0  0  0  0  0  0  0
    0.9027   -3.1498    0.0000 C   0  0  0  0  0  0  0  0  0
  1  2  1  0  0  0  0
  2  3  4  0  0  0  0
  2 12  4  0  0  0  0
  3  4  1  0  0  0  0
  3 10  4  0  0  0  0
  4  5  1  0  0  0  0
  5  6  1  0  0  0  0
  5  8  1  0  0  0  0
  6  7  1  0  0  0  0
  8  9  1  0  0  0  0
  9 10  4  0  0  0  0
  9 15  4  0  0  0  0
 10 11  4  0  0  0  0
 11 12  4  0  0  0  0
 11 13  4  0  0  0  0
 13 14  4  0  0  0  0
 14 15  4  0  0  0  0
M  END
>  <Name_Molregno>
208205

>  <5-HT1A>
7.14

>  <DOPAMINE D2>
8.05

>  <DOPAMINE D3>
5.63

$$$$
209761
  Marvin  02231216192D 0   1.00000     0.00000     0

 26 29  0  0  1  0  0  0  0  0999 V2000
    1.6711    3.5863    0.0000 F   0  0  0  0  0  0  0  0  0
    2.0937    2.8777    0.0000 C   0  0  0  0  0  0  0  0  0
    2.9186    2.8894    0.0000 C   0  0  0  0  0  0  0  0  0
    3.3412    2.1809    0.0000 C   0  0  0  0  0  0  0  0  0
    2.9389    1.4606    0.0000 C   0  0  0  0  0  0  0  0  0
    2.1140    1.4489    0.0000 C   0  0  0  0  0  0  0  0  0
    1.6914    2.1575    0.0000 C   0  0  0  0  0  0  0  0  0
    3.3615    0.7521    0.0000 C   0  0  0  0  0  0  0  0  0
    2.9592    0.0318    0.0000 O   0  0  0  0  0  0  0  0  0
    4.1864    0.7638    0.0000 C   0  0  0  0  0  0  0  0  0
    4.6090    0.0553    0.0000 C   0  0  0  0  0  0  0  0  0
    5.4339    0.0670    0.0000 C   0  0  0  0  0  0  0  0  0
    5.8565   -0.6415    0.0000 N   0  0  0  0  0  0  0  0  0
    6.4171   -1.0814    0.0000 C   0  0  0  0  0  0  0  0  0
    7.3459   -1.0659    0.0000 C   0  0  0  0  0  0  0  0  0
    7.4841   -1.8833    0.0000 C   0  0  0  0  0  0  0  0  0
    6.9679   -1.4546    0.0000 C   0  0  0  0  0  0  0  0  0
    5.9962   -1.4546    0.0000 C   0  0  0  0  0  0  0  0  0
    5.4763   -2.1669    0.0000 C   0  0  0  0  0  0  0  0  0
    6.0966   -1.7900    0.0000 C   0  0  0  0  0  0  0  0  0
    7.8959   -2.5982    0.0000 C   0  0  0  0  0  0  0  0  0
    8.7209   -2.5990    0.0000 C   0  0  0  0  0  0  0  0  0
    9.1327   -3.3139    0.0000 C   0  0  0  0  0  0  0  0  0
    8.7195   -4.0280    0.0000 C   0  0  0  0  0  0  0  0  0
    7.8945   -4.0272    0.0000 C   0  0  0  0  0  0  0  0  0
    7.4827   -3.3123    0.0000 C   0  0  0  0  0  0  0  0  0
  1  2  1  0  0  0  0
  2  3  4  0  0  0  0
  2  7  4  0  0  0  0
  3  4  4  0  0  0  0
  4  5  4  0  0  0  0
  5  6  4  0  0  0  0
  5  8  1  0  0  0  0
  6  7  4  0  0  0  0
  8  9  2  0  0  0  0
  8 10  1  0  0  0  0
 10 11  1  0  0  0  0
 11 12  1  0  0  0  0
 12 13  1  0  0  0  0
 13 14  1  0  0  0  0
 13 18  1  0  0  0  0
 14 15  1  0  0  0  0
 14 20  1  0  0  0  0
 15 16  1  0  0  0  0
 16 17  1  0  0  0  0
 16 21  1  0  0  0  0
 17 18  1  0  0  0  0
 18 19  1  0  0  0  0
 19 20  1  0  0  0  0
 21 22  4  0  0  0  0
 21 26  4  0  0  0  0
 22 23  4  0  0  0  0
 23 24  4  0  0  0  0
 24 25  4  0  0  0  0
 25 26  4  0  0  0  0
M  END
>  <Name_Molregno>
209761

>  <5-HT1A>
6.38

>  <5-HT2A>
6.97

>  <5-HT2C>
5.97

>  <DOPAMINE D2>
6.91

>  <DOPAMINE D4>
6.75

>  <HISTAMINE H1>
6.01

$$$$
211593
  Marvin  02231216192D 0   1.00000     0.00000     0

 32 36  0  0  1  0  0  0  0  0999 V2000
   -3.9508   -3.1132    0.0000 S   0  0  0  0  0  0  0  0  0
   -3.6959   -3.8978    0.0000 C   0  0  0  0  0  0  0  0  0
   -2.8709   -3.8978    0.0000 C   0  0  0  0  0  0  0  0  0
   -2.6160   -3.1132    0.0000 C   0  0  0  0  0  0  0  0  0
   -3.2834   -2.6283    0.0000 C   0  0  0  0  0  0  0  0  0
   -3.2834   -1.8033    0.0000 C   0  0  0  0  0  0  0  0  0
   -3.9979   -1.3908    0.0000 C   0  0  0  0  0  0  0  0  0
   -3.9979   -0.5658    0.0000 C   0  0  0  0  0  0  0  0  0
   -3.2834   -0.1533    0.0000 N   0  0  0  0  0  0  0  0  0
   -2.5689   -0.5658    0.0000 C   0  0  0  0  0  0  0  0  0
   -2.5689   -1.3908    0.0000 C   0  0  0  0  0  0  0  0  0
   -3.2834    0.6717    0.0000 C   0  0  0  0  0  0  0  0  0
   -2.5689    1.0842    0.0000 C   0  0  0  0  0  0  0  0  0
   -1.8545    0.6717    0.0000 O   0  0  0  0  0  0  0  0  0
   -2.5689    1.9092    0.0000 C   0  0  0  0  0  0  0  0  0
   -1.8545    2.3217    0.0000 O   0  0  0  0  0  0  0  0  0
   -1.8545    3.1467    0.0000 C   0  0  0  0  0  0  0  0  0
   -2.5689    3.5592    0.0000 C   0  0  0  0  0  0  0  0  0
   -3.3536    3.3043    0.0000 C   0  0  0  0  0  0  0  0  0
   -3.8385    3.9717    0.0000 C   0  0  0  0  0  0  0  0  0
   -3.3536    4.6391    0.0000 N   0  0  0  0  0  0  0  0  0
   -2.5689    4.3842    0.0000 C   0  0  0  0  0  0  0  0  0
   -1.8545    4.7967    0.0000 C   0  0  0  0  0  0  0  0  0
   -1.1400    4.3842    0.0000 C   0  0  0  0  0  0  0  0  0
   -1.1400    3.5592    0.0000 C   0  0  0  0  0  0  0  0  0
   -4.6635    3.9717    0.0000 C   0  0  0  0  0  0  0  0  0
   -4.7123   -0.1533    0.0000 C   0  0  0  0  0  0  0  0  0
   -2.4584   -4.6123    0.0000 C   0  0  0  0  0  0  0  0  0
   -2.8709   -5.3268    0.0000 C   0  0  0  0  0  0  0  0  0
   -2.4584   -6.0413    0.0000 F   0  0  0  0  0  0  0  0  0
   -3.6959   -5.3268    0.0000 C   0  0  0  0  0  0  0  0  0
   -4.1084   -4.6123    0.0000 C   0  0  0  0  0  0  0  0  0
  1  2  4  0  0  0  0
  1  5  4  0  0  0  0
  2  3  4  0  0  0  0
  2 32  4  0  0  0  0
  3  4  4  0  0  0  0
  3 28  4  0  0  0  0
  4  5  4  0  0  0  0
  5  6  1  0  0  0  0
  6  7  1  0  0  0  0
  6 11  1  0  0  0  0
  7  8  1  0  0  0  0
  8  9  1  0  0  0  0
  8 27  1  0  0  0  0
  9 10  1  0  0  0  0
  9 12  1  0  0  0  0
 10 11  1  0  0  0  0
 12 13  1  0  0  0  0
 13 14  1  0  0  0  0
 13 15  1  0  0  0  0
 15 16  1  0  0  0  0
 16 17  1  0  0  0  0
 17 18  4  0  0  0  0
 17 25  4  0  0  0  0
 18 19  4  0  0  0  0
 18 22  4  0  0  0  0
 19 20  4  0  0  0  0
 20 21  4  0  0  0  0
 20 26  1  0  0  0  0
 21 22  4  0  0  0  0
 22 23  4  0  0  0  0
 23 24  4  0  0  0  0
 24 25  4  0  0  0  0
 28 29  4  0  0  0  0
 29 30  1  0  0  0  0
 29 31  4  0  0  0  0
 31 32  4  0  0  0  0
M  STY  1   1 DAT
M  SAL   1  1  21
M  SDT   1 MRV_IMPLICIT_H                                        
M  SDD   1     0.0000    0.0000    DR    ALL  0       0  
M  SED   1 IMPL_H1
M  END
>  <Name_Molregno>
211593

>  <5-HT1A>
8.25

>  <Serotonin transporter>
9.62

$$$$
212378
  Marvin  02231216192D 0   1.00000     0.00000     0

 37 41  0  0  1  0  0  0  0  0999 V2000
    9.4469    5.2044    0.0000 O   0  0  0  0  0  0  0  0  0
    9.1920    4.4198    0.0000 N   0  0  0  0  0  0  0  0  0
    8.3670    4.4198    0.0000 C   0  0  0  0  0  0  0  0  0
    8.1121    5.2044    0.0000 N   0  0  0  0  0  0  0  0  0
    8.7795    5.6894    0.0000 C   0  0  0  0  0  0  0  0  0
    8.7795    6.5144    0.0000 C   0  0  0  0  0  0  0  0  0
    7.8821    3.7524    0.0000 C   0  0  0  0  0  0  0  0  0
    8.2176    2.9987    0.0000 C   0  0  0  0  0  0  0  0  0
    7.7327    2.3313    0.0000 C   0  0  0  0  0  0  0  0  0
    8.0683    1.5776    0.0000 C   0  0  0  0  0  0  0  0  0
    6.9122    2.4175    0.0000 C   0  0  0  0  0  0  0  0  0
    6.5767    3.1712    0.0000 C   0  0  0  0  0  0  0  0  0
    7.0616    3.8386    0.0000 C   0  0  0  0  0  0  0  0  0
    6.4273    1.7501    0.0000 C   0  0  0  0  0  0  0  0  0
    6.7629    0.9964    0.0000 C   0  0  0  0  0  0  0  0  0
    6.2779    0.3289    0.0000 C   0  0  0  0  0  0  0  0  0
    5.4575    0.4152    0.0000 C   0  0  0  0  0  0  0  0  0
    5.1219    1.1689    0.0000 C   0  0  0  0  0  0  0  0  0
    5.6068    1.8363    0.0000 C   0  0  0  0  0  0  0  0  0
    4.9725   -0.2523    0.0000 C   0  0  0  0  0  0  0  0  0
    4.1521   -0.1660    0.0000 O   0  0  0  0  0  0  0  0  0
    5.3081   -1.0059    0.0000 N   0  0  0  0  0  0  0  0  0
    4.8232   -1.6734    0.0000 C   0  0  0  0  0  0  0  0  0
    5.1587   -2.4270    0.0000 C   0  0  0  0  0  0  0  0  0
    4.6738   -3.0945    0.0000 C   0  0  0  0  0  0  0  0  0
    5.0094   -3.8482    0.0000 N   0  0  0  0  0  0  0  0  0
    5.8298   -3.9344    0.0000 C   0  0  0  0  0  0  0  0  0
    6.1654   -4.6881    0.0000 C   0  0  0  0  0  0  0  0  0
    5.6805   -5.3555    0.0000 N   0  0  0  0  0  0  0  0  0
    4.8600   -5.2693    0.0000 C   0  0  0  0  0  0  0  0  0
    4.5244   -4.5156    0.0000 C   0  0  0  0  0  0  0  0  0
    6.0160   -6.1092    0.0000 C   0  0  0  0  0  0  0  0  0
    3.8533   -3.0082    0.0000 C   0  0  0  0  0  0  0  0  0
    3.3684   -3.6757    0.0000 O   0  0  0  0  0  0  0  0  0
    2.5479   -3.5894    0.0000 C   0  0  0  0  0  0  0  0  0
    3.5178   -2.2546    0.0000 C   0  0  0  0  0  0  0  0  0
    4.0027   -1.5871    0.0000 C   0  0  0  0  0  0  0  0  0
  1  2  1  0  0  0  0
  1  5  1  0  0  0  0
  2  3  1  0  0  0  0
  3  4  2  0  0  0  0
  3  7  1  0  0  0  0
  4  5  1  0  0  0  0
  5  6  1  0  0  0  0
  7  8  4  0  0  0  0
  7 13  4  0  0  0  0
  8  9  4  0  0  0  0
  9 10  1  0  0  0  0
  9 11  4  0  0  0  0
 11 12  4  0  0  0  0
 11 14  1  0  0  0  0
 12 13  4  0  0  0  0
 14 15  4  0  0  0  0
 14 19  4  0  0  0  0
 15 16  4  0  0  0  0
 16 17  4  0  0  0  0
 17 18  4  0  0  0  0
 17 20  1  0  0  0  0
 18 19  4  0  0  0  0
 20 21  2  0  0  0  0
 20 22  1  0  0  0  0
 22 23  1  0  0  0  0
 23 24  4  0  0  0  0
 23 37  4  0  0  0  0
 24 25  4  0  0  0  0
 25 26  1  0  0  0  0
 25 33  4  0  0  0  0
 26 27  1  0  0  0  0
 26 31  1  0  0  0  0
 27 28  1  0  0  0  0
 28 29  1  0  0  0  0
 29 30  1  0  0  0  0
 29 32  1  0  0  0  0
 30 31  1  0  0  0  0
 33 34  1  0  0  0  0
 33 36  4  0  0  0  0
 34 35  1  0  0  0  0
 36 37  4  0  0  0  0
M  END
>  <Name_Molregno>
212378

>  <5-HT1A>
7.14

>  <5-HT1B>
9.85

>  <5-HT1D>
9.13

$$$$
212452
  Marvin  02231216192D 0   1.00000     0.00000     0

 18 20  0  0  0  0  0  0  0  0999 V2000
   -5.5613   -0.0066    0.0000 O   0  0  0  0  0  0  0  0  0
   -6.2757   -0.4191    0.0000 C   0  0  0  0  0  0  0  0  0
   -4.8468   -0.4191    0.0000 C   0  0  0  0  0  0  0  0  0
   -4.1323   -0.0066    0.0000 C   0  0  0  0  0  0  0  0  0
   -3.4178   -0.4191    0.0000 C   0  0  0  0  0  0  0  0  0
   -2.7034   -0.0066    0.0000 C   0  0  0  0  0  0  0  0  0
   -1.9889   -0.4191    0.0000 C   0  0  0  0  0  0  0  0  0
   -1.2744   -0.0066    0.0000 N   0  0  0  0  0  0  0  0  0
   -1.2744    0.8184    0.0000 C   0  0  0  0  0  0  0  0  0
   -0.5600    1.2309    0.0000 C   0  0  0  0  0  0  0  0  0
    0.1545    0.8184    0.0000 N   0  0  0  0  0  0  0  0  0
    0.1545   -0.0066    0.0000 C   0  0  0  0  0  0  0  0  0
   -0.5600   -0.4191    0.0000 C   0  0  0  0  0  0  0  0  0
   -1.9889   -1.2441    0.0000 C   0  0  0  0  0  0  0  0  0
   -2.7034   -1.6566    0.0000 C   0  0  0  0  0  0  0  0  0
   -3.4178   -1.2441    0.0000 C   0  0  0  0  0  0  0  0  0
   -4.1323   -1.6566    0.0000 C   0  0  0  0  0  0  0  0  0
   -4.8468   -1.2441    0.0000 C   0  0  0  0  0  0  0  0  0
  1  2  1  0  0  0  0
  1  3  1  0  0  0  0
  3  4  4  0  0  0  0
  3 18  4  0  0  0  0
  4  5  4  0  0  0  0
  5  6  4  0  0  0  0
  5 16  4  0  0  0  0
  6  7  4  0  0  0  0
  7  8  1  0  0  0  0
  7 14  4  0  0  0  0
  8  9  1  0  0  0  0
  8 13  1  0  0  0  0
  9 10  1  0  0  0  0
 10 11  1  0  0  0  0
 11 12  1  0  0  0  0
 12 13  1  0  0  0  0
 14 15  4  0  0  0  0
 15 16  4  0  0  0  0
 16 17  4  0  0  0  0
 17 18  4  0  0  0  0
M  END
>  <Name_Molregno>
212452

>  <5-HT1A>
8.55

>  <5-HT1B>
8.7

>  <5-HT1D>
9.15

$$$$
212727
  Marvin  02231216192D 0   1.00000     0.00000     0

 35 39  0  0  0  0  0  0  0  0999 V2000
    1.0804   -0.5425    0.0000 O   0  0  0  0  0  0  0  0  0
    0.3659   -0.1300    0.0000 C   0  0  0  0  0  0  0  0  0
   -0.3486   -0.5425    0.0000 C   0  0  0  0  0  0  0  0  0
   -0.3486   -1.3675    0.0000 O   0  0  0  0  0  0  0  0  0
   -1.0630   -0.1300    0.0000 N   0  0  0  0  0  0  0  0  0
   -1.7775   -0.5425    0.0000 C   0  0  0  0  0  0  0  0  0
   -2.4920   -0.1300    0.0000 C   0  0  0  0  0  0  0  0  0
   -2.4920    0.6950    0.0000 N   0  0  0  0  0  0  0  0  0
   -1.7775    1.1075    0.0000 C   0  0  0  0  0  0  0  0  0
   -1.0630    0.6950    0.0000 C   0  0  0  0  0  0  0  0  0
   -3.2065    1.1075    0.0000 C   0  0  0  0  0  0  0  0  0
   -3.9209    0.6950    0.0000 C   0  0  0  0  0  0  0  0  0
   -4.6354    1.1075    0.0000 C   0  0  0  0  0  0  0  0  0
   -4.6354    1.9325    0.0000 C   0  0  0  0  0  0  0  0  0
   -3.9209    2.3450    0.0000 C   0  0  0  0  0  0  0  0  0
   -3.2065    1.9325    0.0000 C   0  0  0  0  0  0  0  0  0
   -2.4920    2.3450    0.0000 C   0  0  0  0  0  0  0  0  0
   -1.7775    2.7575    0.0000 C   0  0  0  0  0  0  0  0  0
    1.7948   -0.1300    0.0000 C   0  0  0  0  0  0  0  0  0
    2.5093   -0.5425    0.0000 C   0  0  0  0  0  0  0  0  0
    3.2238   -0.1300    0.0000 C   0  0  0  0  0  0  0  0  0
    3.2238    0.6950    0.0000 C   0  0  0  0  0  0  0  0  0
    2.5093    1.1075    0.0000 C   0  0  0  0  0  0  0  0  0
    1.7948    0.6950    0.0000 C   0  0  0  0  0  0  0  0  0
    3.9383    1.1075    0.0000 C   0  0  0  0  0  0  0  0  0
    4.6527    0.6950    0.0000 C   0  0  0  0  0  0  0  0  0
    4.6527   -0.1300    0.0000 C   0  0  0  0  0  0  0  0  0
    3.9383   -0.5425    0.0000 C   0  0  0  0  0  0  0  0  0
    3.9383   -1.3675    0.0000 N   0  0  0  0  0  0  0  0  0
    4.6527   -1.7800    0.0000 C   0  0  0  0  0  0  0  0  0
    4.6527   -2.6050    0.0000 C   0  0  0  0  0  0  0  0  0
    3.9383   -3.0175    0.0000 N   0  0  0  0  0  0  0  0  0
    3.2238   -2.6050    0.0000 C   0  0  0  0  0  0  0  0  0
    3.2238   -1.7800    0.0000 C   0  0  0  0  0  0  0  0  0
    3.9383   -3.8425    0.0000 C   0  0  0  0  0  0  0  0  0
  1  2  1  0  0  0  0
  1 19  1  0  0  0  0
  2  3  1  0  0  0  0
  3  4  2  0  0  0  0
  3  5  1  0  0  0  0
  5  6  1  0  0  0  0
  5 10  1  0  0  0  0
  6  7  1  0  0  0  0
  7  8  1  0  0  0  0
  8  9  1  0  0  0  0
  8 11  1  0  0  0  0
  9 10  1  0  0  0  0
 11 12  4  0  0  0  0
 11 16  4  0  0  0  0
 12 13  4  0  0  0  0
 13 14  4  0  0  0  0
 14 15  4  0  0  0  0
 15 16  4  0  0  0  0
 16 17  1  0  0  0  0
 17 18  3  0  0  0  0
 19 20  4  0  0  0  0
 19 24  4  0  0  0  0
 20 21  4  0  0  0  0
 21 22  4  0  0  0  0
 21 28  4  0  0  0  0
 22 23  4  0  0  0  0
 22 25  4  0  0  0  0
 23 24  4  0  0  0  0
 25 26  4  0  0  0  0
 26 27  4  0  0  0  0
 27 28  4  0  0  0  0
 28 29  1  0  0  0  0
 29 30  1  0  0  0  0
 29 34  1  0  0  0  0
 30 31  1  0  0  0  0
 31 32  1  0  0  0  0
 32 33  1  0  0  0  0
 32 35  1  0  0  0  0
 33 34  1  0  0  0  0
M  END
>  <Name_Molregno>
212727

>  <5-HT1A>
7.91

>  <5-HT1B>
9.42

>  <5-HT1D>
9.29

$$$$
212728
  Marvin  02231216192D 0   1.00000     0.00000     0

 37 42  0  0  0  0  0  0  0  0999 V2000
    1.9851   -0.7318    0.0000 O   0  0  0  0  0  0  0  0  0
    1.2706   -0.3193    0.0000 C   0  0  0  0  0  0  0  0  0
    0.5561   -0.7318    0.0000 C   0  0  0  0  0  0  0  0  0
    0.5561   -1.5568    0.0000 O   0  0  0  0  0  0  0  0  0
   -0.1584   -0.3193    0.0000 N   0  0  0  0  0  0  0  0  0
   -0.8728   -0.7318    0.0000 C   0  0  0  0  0  0  0  0  0
   -1.5873   -0.3193    0.0000 C   0  0  0  0  0  0  0  0  0
   -1.5873    0.5057    0.0000 N   0  0  0  0  0  0  0  0  0
   -0.8728    0.9182    0.0000 C   0  0  0  0  0  0  0  0  0
   -0.1584    0.5057    0.0000 C   0  0  0  0  0  0  0  0  0
   -2.3018    0.9182    0.0000 C   0  0  0  0  0  0  0  0  0
   -2.3018    1.7432    0.0000 C   0  0  0  0  0  0  0  0  0
   -3.0162    2.1557    0.0000 C   0  0  0  0  0  0  0  0  0
   -3.7307    1.7432    0.0000 C   0  0  0  0  0  0  0  0  0
   -3.7307    0.9182    0.0000 C   0  0  0  0  0  0  0  0  0
   -3.0162    0.5057    0.0000 C   0  0  0  0  0  0  0  0  0
   -4.4452    2.1557    0.0000 C   0  0  0  0  0  0  0  0  0
   -4.4452    2.9807    0.0000 C   0  0  0  0  0  0  0  0  0
   -3.7307    3.3932    0.0000 C   0  0  0  0  0  0  0  0  0
   -3.0162    2.9807    0.0000 C   0  0  0  0  0  0  0  0  0
    2.6995   -0.3193    0.0000 C   0  0  0  0  0  0  0  0  0
    3.4140   -0.7318    0.0000 C   0  0  0  0  0  0  0  0  0
    4.1285   -0.3193    0.0000 C   0  0  0  0  0  0  0  0  0
    4.1285    0.5057    0.0000 C   0  0  0  0  0  0  0  0  0
    3.4140    0.9182    0.0000 C   0  0  0  0  0  0  0  0  0
    2.6995    0.5057    0.0000 C   0  0  0  0  0  0  0  0  0
    4.8429    0.9182    0.0000 C   0  0  0  0  0  0  0  0  0
    5.5574    0.5057    0.0000 C   0  0  0  0  0  0  0  0  0
    5.5574   -0.3193    0.0000 C   0  0  0  0  0  0  0  0  0
    4.8429   -0.7318    0.0000 C   0  0  0  0  0  0  0  0  0
    4.8429   -1.5568    0.0000 N   0  0  0  0  0  0  0  0  0
    5.5574   -1.9693    0.0000 C   0  0  0  0  0  0  0  0  0
    5.5574   -2.7943    0.0000 C   0  0  0  0  0  0  0  0  0
    4.8429   -3.2068    0.0000 N   0  0  0  0  0  0  0  0  0
    4.1285   -2.7943    0.0000 C   0  0  0  0  0  0  0  0  0
    4.1285   -1.9693    0.0000 C   0  0  0  0  0  0  0  0  0
    4.8429   -4.0318    0.0000 C   0  0  0  0  0  0  0  0  0
  1  2  1  0  0  0  0
  1 21  1  0  0  0  0
  2  3  1  0  0  0  0
  3  4  2  0  0  0  0
  3  5  1  0  0  0  0
  5  6  1  0  0  0  0
  5 10  1  0  0  0  0
  6  7  1  0  0  0  0
  7  8  1  0  0  0  0
  8  9  1  0  0  0  0
  8 11  1  0  0  0  0
  9 10  1  0  0  0  0
 11 12  4  0  0  0  0
 11 16  4  0  0  0  0
 12 13  4  0  0  0  0
 13 14  4  0  0  0  0
 13 20  4  0  0  0  0
 14 15  4  0  0  0  0
 14 17  4  0  0  0  0
 15 16  4  0  0  0  0
 17 18  4  0  0  0  0
 18 19  4  0  0  0  0
 19 20  4  0  0  0  0
 21 22  4  0  0  0  0
 21 26  4  0  0  0  0
 22 23  4  0  0  0  0
 23 24  4  0  0  0  0
 23 30  4  0  0  0  0
 24 25  4  0  0  0  0
 24 27  4  0  0  0  0
 25 26  4  0  0  0  0
 27 28  4  0  0  0  0
 28 29  4  0  0  0  0
 29 30  4  0  0  0  0
 30 31  1  0  0  0  0
 31 32  1  0  0  0  0
 31 36  1  0  0  0  0
 32 33  1  0  0  0  0
 33 34  1  0  0  0  0
 34 35  1  0  0  0  0
 34 37  1  0  0  0  0
 35 36  1  0  0  0  0
M  END
>  <Name_Molregno>
212728

>  <5-HT1A>
6.94

>  <5-HT1B>
9.37

>  <5-HT1D>
9.06

$$$$
212760
  Marvin  02231216192D 0   1.00000     0.00000     0

 37 42  0  0  0  0  0  0  0  0999 V2000
   -0.1069    0.0764    0.0000 O   0  0  0  0  0  0  0  0  0
   -0.1069    0.9014    0.0000 C   0  0  0  0  0  0  0  0  0
   -0.8214    1.3139    0.0000 C   0  0  0  0  0  0  0  0  0
   -1.5359    0.9014    0.0000 O   0  0  0  0  0  0  0  0  0
   -1.5359    0.0764    0.0000 C   0  0  0  0  0  0  0  0  0
   -0.8214   -0.3361    0.0000 C   0  0  0  0  0  0  0  0  0
   -0.8214    2.1389    0.0000 C   0  0  0  0  0  0  0  0  0
   -0.1069    2.5514    0.0000 C   0  0  0  0  0  0  0  0  0
    0.6075    2.1389    0.0000 C   0  0  0  0  0  0  0  0  0
    0.6075    1.3139    0.0000 C   0  0  0  0  0  0  0  0  0
    1.3220    0.9014    0.0000 N   0  0  0  0  0  0  0  0  0
    2.0365    1.3139    0.0000 C   0  0  0  0  0  0  0  0  0
    2.7509    0.9014    0.0000 C   0  0  0  0  0  0  0  0  0
    2.7509    0.0764    0.0000 N   0  0  0  0  0  0  0  0  0
    2.0365   -0.3361    0.0000 C   0  0  0  0  0  0  0  0  0
    1.3220    0.0764    0.0000 C   0  0  0  0  0  0  0  0  0
    3.4654   -0.3361    0.0000 C   0  0  0  0  0  0  0  0  0
    3.4654   -1.1611    0.0000 O   0  0  0  0  0  0  0  0  0
    4.1799    0.0764    0.0000 C   0  0  0  0  0  0  0  0  0
    4.8944   -0.3361    0.0000 O   0  0  0  0  0  0  0  0  0
    5.6088    0.0764    0.0000 C   0  0  0  0  0  0  0  0  0
    6.3233   -0.3361    0.0000 C   0  0  0  0  0  0  0  0  0
    7.0378    0.0764    0.0000 C   0  0  0  0  0  0  0  0  0
    7.0378    0.9014    0.0000 C   0  0  0  0  0  0  0  0  0
    6.3233    1.3139    0.0000 C   0  0  0  0  0  0  0  0  0
    5.6088    0.9014    0.0000 C   0  0  0  0  0  0  0  0  0
    7.7522    1.3139    0.0000 C   0  0  0  0  0  0  0  0  0
    8.4667    0.9014    0.0000 C   0  0  0  0  0  0  0  0  0
    8.4667    0.0764    0.0000 C   0  0  0  0  0  0  0  0  0
    7.7522   -0.3361    0.0000 C   0  0  0  0  0  0  0  0  0
    7.7522   -1.1611    0.0000 N   0  0  0  0  0  0  0  0  0
    8.4667   -1.5736    0.0000 C   0  0  0  0  0  0  0  0  0
    8.4667   -2.3986    0.0000 C   0  0  0  0  0  0  0  0  0
    7.7522   -2.8111    0.0000 N   0  0  0  0  0  0  0  0  0
    7.0378   -2.3986    0.0000 C   0  0  0  0  0  0  0  0  0
    7.0378   -1.5736    0.0000 C   0  0  0  0  0  0  0  0  0
    7.7522   -3.6361    0.0000 C   0  0  0  0  0  0  0  0  0
  1  2  1  0  0  0  0
  1  6  1  0  0  0  0
  2  3  4  0  0  0  0
  2 10  4  0  0  0  0
  3  4  1  0  0  0  0
  3  7  4  0  0  0  0
  4  5  1  0  0  0  0
  5  6  1  0  0  0  0
  7  8  4  0  0  0  0
  8  9  4  0  0  0  0
  9 10  4  0  0  0  0
 10 11  1  0  0  0  0
 11 12  1  0  0  0  0
 11 16  1  0  0  0  0
 12 13  1  0  0  0  0
 13 14  1  0  0  0  0
 14 15  1  0  0  0  0
 14 17  1  0  0  0  0
 15 16  1  0  0  0  0
 17 18  2  0  0  0  0
 17 19  1  0  0  0  0
 19 20  1  0  0  0  0
 20 21  1  0  0  0  0
 21 22  4  0  0  0  0
 21 26  4  0  0  0  0
 22 23  4  0  0  0  0
 23 24  4  0  0  0  0
 23 30  4  0  0  0  0
 24 25  4  0  0  0  0
 24 27  4  0  0  0  0
 25 26  4  0  0  0  0
 27 28  4  0  0  0  0
 28 29  4  0  0  0  0
 29 30  4  0  0  0  0
 30 31  1  0  0  0  0
 31 32  1  0  0  0  0
 31 36  1  0  0  0  0
 32 33  1  0  0  0  0
 33 34  1  0  0  0  0
 34 35  1  0  0  0  0
 34 37  1  0  0  0  0
 35 36  1  0  0  0  0
M  END
>  <Name_Molregno>
212760

>  <5-HT1A>
7.85

>  <5-HT1B>
9.37

>  <5-HT1D>
9.35

$$$$
212794
  Marvin  02231216192D 0   1.00000     0.00000     0

 37 41  0  0  0  0  0  0  0  0999 V2000
   -6.7099   -2.4051    0.0000 O   0  0  0  0  0  0  0  0  0
   -7.4244   -2.8176    0.0000 C   0  0  0  0  0  0  0  0  0
   -5.9955   -2.8176    0.0000 C   0  0  0  0  0  0  0  0  0
   -5.2810   -2.4051    0.0000 C   0  0  0  0  0  0  0  0  0
   -5.2810   -1.5801    0.0000 N   0  0  0  0  0  0  0  0  0
   -5.9955   -1.1676    0.0000 C   0  0  0  0  0  0  0  0  0
   -5.9955   -0.3426    0.0000 C   0  0  0  0  0  0  0  0  0
   -5.2810    0.0699    0.0000 N   0  0  0  0  0  0  0  0  0
   -4.5665   -0.3426    0.0000 C   0  0  0  0  0  0  0  0  0
   -4.5665   -1.1676    0.0000 C   0  0  0  0  0  0  0  0  0
   -5.2810    0.8949    0.0000 C   0  0  0  0  0  0  0  0  0
   -5.9955    1.3074    0.0000 O   0  0  0  0  0  0  0  0  0
   -4.5665    1.3074    0.0000 C   0  0  0  0  0  0  0  0  0
   -4.5665    2.1324    0.0000 O   0  0  0  0  0  0  0  0  0
   -3.8520    2.5449    0.0000 C   0  0  0  0  0  0  0  0  0
   -3.1376    2.1324    0.0000 C   0  0  0  0  0  0  0  0  0
   -2.4231    2.5449    0.0000 C   0  0  0  0  0  0  0  0  0
   -2.4231    3.3699    0.0000 C   0  0  0  0  0  0  0  0  0
   -3.1376    3.7824    0.0000 C   0  0  0  0  0  0  0  0  0
   -3.8520    3.3699    0.0000 C   0  0  0  0  0  0  0  0  0
   -1.7086    3.7824    0.0000 C   0  0  0  0  0  0  0  0  0
   -0.9942    3.3699    0.0000 C   0  0  0  0  0  0  0  0  0
   -0.9942    2.5449    0.0000 C   0  0  0  0  0  0  0  0  0
   -1.7086    2.1324    0.0000 C   0  0  0  0  0  0  0  0  0
   -1.7086    1.3074    0.0000 N   0  0  0  0  0  0  0  0  0
   -0.9942    0.8949    0.0000 C   0  0  0  0  0  0  0  0  0
   -0.9942    0.0699    0.0000 C   0  0  0  0  0  0  0  0  0
   -1.7086   -0.3426    0.0000 N   0  0  0  0  0  0  0  0  0
   -2.4231    0.0699    0.0000 C   0  0  0  0  0  0  0  0  0
   -2.4231    0.8949    0.0000 C   0  0  0  0  0  0  0  0  0
   -1.7086   -1.1676    0.0000 C   0  0  0  0  0  0  0  0  0
   -4.5665   -2.8176    0.0000 C   0  0  0  0  0  0  0  0  0
   -4.5665   -3.6426    0.0000 C   0  0  0  0  0  0  0  0  0
   -5.2810   -4.0551    0.0000 C   0  0  0  0  0  0  0  0  0
   -5.9955   -3.6426    0.0000 C   0  0  0  0  0  0  0  0  0
   -6.7099   -4.0551    0.0000 O   0  0  0  0  0  0  0  0  0
   -6.7099   -4.8801    0.0000 C   0  0  0  0  0  0  0  0  0
  1  2  1  0  0  0  0
  1  3  1  0  0  0  0
  3  4  4  0  0  0  0
  3 35  4  0  0  0  0
  4  5  1  0  0  0  0
  4 32  4  0  0  0  0
  5  6  1  0  0  0  0
  5 10  1  0  0  0  0
  6  7  1  0  0  0  0
  7  8  1  0  0  0  0
  8  9  1  0  0  0  0
  8 11  1  0  0  0  0
  9 10  1  0  0  0  0
 11 12  2  0  0  0  0
 11 13  1  0  0  0  0
 13 14  1  0  0  0  0
 14 15  1  0  0  0  0
 15 16  4  0  0  0  0
 15 20  4  0  0  0  0
 16 17  4  0  0  0  0
 17 18  4  0  0  0  0
 17 24  4  0  0  0  0
 18 19  4  0  0  0  0
 18 21  4  0  0  0  0
 19 20  4  0  0  0  0
 21 22  4  0  0  0  0
 22 23  4  0  0  0  0
 23 24  4  0  0  0  0
 24 25  1  0  0  0  0
 25 26  1  0  0  0  0
 25 30  1  0  0  0  0
 26 27  1  0  0  0  0
 27 28  1  0  0  0  0
 28 29  1  0  0  0  0
 28 31  1  0  0  0  0
 29 30  1  0  0  0  0
 32 33  4  0  0  0  0
 33 34  4  0  0  0  0
 34 35  4  0  0  0  0
 35 36  1  0  0  0  0
 36 37  1  0  0  0  0
M  END
>  <Name_Molregno>
212794

>  <5-HT1A>
7.87

>  <5-HT1B>
9.36

>  <5-HT1D>
9.21

$$$$
212806
  Marvin  02231216192D 0   1.00000     0.00000     0

 34 38  0  0  0  0  0  0  0  0999 V2000
    0.9101   -0.3348    0.0000 O   0  0  0  0  0  0  0  0  0
    0.1956    0.0777    0.0000 C   0  0  0  0  0  0  0  0  0
   -0.5188   -0.3348    0.0000 C   0  0  0  0  0  0  0  0  0
   -0.5188   -1.1598    0.0000 O   0  0  0  0  0  0  0  0  0
   -1.2333    0.0777    0.0000 N   0  0  0  0  0  0  0  0  0
   -1.9478   -0.3348    0.0000 C   0  0  0  0  0  0  0  0  0
   -2.6623    0.0777    0.0000 C   0  0  0  0  0  0  0  0  0
   -2.6623    0.9027    0.0000 N   0  0  0  0  0  0  0  0  0
   -1.9478    1.3152    0.0000 C   0  0  0  0  0  0  0  0  0
   -1.2333    0.9027    0.0000 C   0  0  0  0  0  0  0  0  0
   -3.3767    1.3152    0.0000 C   0  0  0  0  0  0  0  0  0
   -4.0912    0.9027    0.0000 C   0  0  0  0  0  0  0  0  0
   -4.8057    1.3152    0.0000 C   0  0  0  0  0  0  0  0  0
   -4.8057    2.1402    0.0000 C   0  0  0  0  0  0  0  0  0
   -4.0912    2.5527    0.0000 C   0  0  0  0  0  0  0  0  0
   -3.3767    2.1402    0.0000 C   0  0  0  0  0  0  0  0  0
   -2.6623    2.5527    0.0000 C   0  0  0  0  0  0  0  0  0
    1.6246    0.0777    0.0000 C   0  0  0  0  0  0  0  0  0
    2.3390   -0.3348    0.0000 C   0  0  0  0  0  0  0  0  0
    3.0535    0.0777    0.0000 C   0  0  0  0  0  0  0  0  0
    3.0535    0.9027    0.0000 C   0  0  0  0  0  0  0  0  0
    2.3390    1.3152    0.0000 C   0  0  0  0  0  0  0  0  0
    1.6246    0.9027    0.0000 C   0  0  0  0  0  0  0  0  0
    3.7680    1.3152    0.0000 C   0  0  0  0  0  0  0  0  0
    4.4825    0.9027    0.0000 C   0  0  0  0  0  0  0  0  0
    4.4825    0.0777    0.0000 C   0  0  0  0  0  0  0  0  0
    3.7680   -0.3348    0.0000 C   0  0  0  0  0  0  0  0  0
    3.7680   -1.1598    0.0000 N   0  0  0  0  0  0  0  0  0
    4.4825   -1.5723    0.0000 C   0  0  0  0  0  0  0  0  0
    4.4825   -2.3973    0.0000 C   0  0  0  0  0  0  0  0  0
    3.7680   -2.8098    0.0000 N   0  0  0  0  0  0  0  0  0
    3.0535   -2.3973    0.0000 C   0  0  0  0  0  0  0  0  0
    3.0535   -1.5723    0.0000 C   0  0  0  0  0  0  0  0  0
    3.7680   -3.6348    0.0000 C   0  0  0  0  0  0  0  0  0
  1  2  1  0  0  0  0
  1 18  1  0  0  0  0
  2  3  1  0  0  0  0
  3  4  2  0  0  0  0
  3  5  1  0  0  0  0
  5  6  1  0  0  0  0
  5 10  1  0  0  0  0
  6  7  1  0  0  0  0
  7  8  1  0  0  0  0
  8  9  1  0  0  0  0
  8 11  1  0  0  0  0
  9 10  1  0  0  0  0
 11 12  4  0  0  0  0
 11 16  4  0  0  0  0
 12 13  4  0  0  0  0
 13 14  4  0  0  0  0
 14 15  4  0  0  0  0
 15 16  4  0  0  0  0
 16 17  1  0  0  0  0
 18 19  4  0  0  0  0
 18 23  4  0  0  0  0
 19 20  4  0  0  0  0
 20 21  4  0  0  0  0
 20 27  4  0  0  0  0
 21 22  4  0  0  0  0
 21 24  4  0  0  0  0
 22 23  4  0  0  0  0
 24 25  4  0  0  0  0
 25 26  4  0  0  0  0
 26 27  4  0  0  0  0
 27 28  1  0  0  0  0
 28 29  1  0  0  0  0
 28 33  1  0  0  0  0
 29 30  1  0  0  0  0
 30 31  1  0  0  0  0
 31 32  1  0  0  0  0
 31 34  1  0  0  0  0
 32 33  1  0  0  0  0
M  END
>  <Name_Molregno>
212806

>  <5-HT1A>
7.31

>  <5-HT1B>
9.52

>  <5-HT1D>
9.16

$$$$
212820
  Marvin  02231216192D 0   1.00000     0.00000     0

 35 39  0  0  0  0  0  0  0  0999 V2000
    1.1531   -0.3163    0.0000 O   0  0  0  0  0  0  0  0  0
    0.4386    0.0962    0.0000 C   0  0  0  0  0  0  0  0  0
   -0.2758   -0.3163    0.0000 C   0  0  0  0  0  0  0  0  0
   -0.2758   -1.1413    0.0000 O   0  0  0  0  0  0  0  0  0
   -0.9903    0.0962    0.0000 N   0  0  0  0  0  0  0  0  0
   -1.7048   -0.3163    0.0000 C   0  0  0  0  0  0  0  0  0
   -2.4193    0.0962    0.0000 C   0  0  0  0  0  0  0  0  0
   -2.4193    0.9212    0.0000 N   0  0  0  0  0  0  0  0  0
   -1.7048    1.3337    0.0000 C   0  0  0  0  0  0  0  0  0
   -0.9903    0.9212    0.0000 C   0  0  0  0  0  0  0  0  0
   -3.1337    1.3337    0.0000 C   0  0  0  0  0  0  0  0  0
   -3.8482    0.9212    0.0000 C   0  0  0  0  0  0  0  0  0
   -4.5627    1.3337    0.0000 C   0  0  0  0  0  0  0  0  0
   -4.5627    2.1587    0.0000 C   0  0  0  0  0  0  0  0  0
   -3.8482    2.5712    0.0000 C   0  0  0  0  0  0  0  0  0
   -3.1337    2.1587    0.0000 C   0  0  0  0  0  0  0  0  0
   -2.4193    2.5712    0.0000 C   0  0  0  0  0  0  0  0  0
   -3.8482    0.0962    0.0000 C   0  0  0  0  0  0  0  0  0
    1.8676    0.0962    0.0000 C   0  0  0  0  0  0  0  0  0
    2.5820   -0.3163    0.0000 C   0  0  0  0  0  0  0  0  0
    3.2965    0.0962    0.0000 C   0  0  0  0  0  0  0  0  0
    3.2965    0.9212    0.0000 C   0  0  0  0  0  0  0  0  0
    2.5820    1.3337    0.0000 C   0  0  0  0  0  0  0  0  0
    1.8676    0.9212    0.0000 C   0  0  0  0  0  0  0  0  0
    4.0110    1.3337    0.0000 C   0  0  0  0  0  0  0  0  0
    4.7255    0.9212    0.0000 C   0  0  0  0  0  0  0  0  0
    4.7255    0.0962    0.0000 C   0  0  0  0  0  0  0  0  0
    4.0110   -0.3163    0.0000 C   0  0  0  0  0  0  0  0  0
    4.0110   -1.1413    0.0000 N   0  0  0  0  0  0  0  0  0
    4.7255   -1.5538    0.0000 C   0  0  0  0  0  0  0  0  0
    4.7255   -2.3788    0.0000 C   0  0  0  0  0  0  0  0  0
    4.0110   -2.7913    0.0000 N   0  0  0  0  0  0  0  0  0
    3.2965   -2.3788    0.0000 C   0  0  0  0  0  0  0  0  0
    3.2965   -1.5538    0.0000 C   0  0  0  0  0  0  0  0  0
    4.0110   -3.6163    0.0000 C   0  0  0  0  0  0  0  0  0
  1  2  1  0  0  0  0
  1 19  1  0  0  0  0
  2  3  1  0  0  0  0
  3  4  2  0  0  0  0
  3  5  1  0  0  0  0
  5  6  1  0  0  0  0
  5 10  1  0  0  0  0
  6  7  1  0  0  0  0
  7  8  1  0  0  0  0
  8  9  1  0  0  0  0
  8 11  1  0  0  0  0
  9 10  1  0  0  0  0
 11 12  4  0  0  0  0
 11 16  4  0  0  0  0
 12 13  4  0  0  0  0
 12 18  1  0  0  0  0
 13 14  4  0  0  0  0
 14 15  4  0  0  0  0
 15 16  4  0  0  0  0
 16 17  1  0  0  0  0
 19 20  4  0  0  0  0
 19 24  4  0  0  0  0
 20 21  4  0  0  0  0
 21 22  4  0  0  0  0
 21 28  4  0  0  0  0
 22 23  4  0  0  0  0
 22 25  4  0  0  0  0
 23 24  4  0  0  0  0
 25 26  4  0  0  0  0
 26 27  4  0  0  0  0
 27 28  4  0  0  0  0
 28 29  1  0  0  0  0
 29 30  1  0  0  0  0
 29 34  1  0  0  0  0
 30 31  1  0  0  0  0
 31 32  1  0  0  0  0
 32 33  1  0  0  0  0
 32 35  1  0  0  0  0
 33 34  1  0  0  0  0
M  END
>  <Name_Molregno>
212820

>  <5-HT1A>
7.64

>  <5-HT1B>
9.7

>  <5-HT1D>
9.26

$$$$
213053
  Marvin  02231216192D 0   1.00000     0.00000     0

 36 40  0  0  0  0  0  0  0  0999 V2000
    1.4902   -0.4136    0.0000 O   0  0  0  0  0  0  0  0  0
    0.7757   -0.0011    0.0000 C   0  0  0  0  0  0  0  0  0
    0.0613   -0.4136    0.0000 C   0  0  0  0  0  0  0  0  0
    0.0613   -1.2386    0.0000 O   0  0  0  0  0  0  0  0  0
   -0.6532   -0.0011    0.0000 N   0  0  0  0  0  0  0  0  0
   -1.3677   -0.4136    0.0000 C   0  0  0  0  0  0  0  0  0
   -2.0822   -0.0011    0.0000 C   0  0  0  0  0  0  0  0  0
   -2.0822    0.8239    0.0000 N   0  0  0  0  0  0  0  0  0
   -1.3677    1.2364    0.0000 C   0  0  0  0  0  0  0  0  0
   -0.6532    0.8239    0.0000 C   0  0  0  0  0  0  0  0  0
   -2.7966    1.2364    0.0000 C   0  0  0  0  0  0  0  0  0
   -3.5111    0.8239    0.0000 C   0  0  0  0  0  0  0  0  0
   -4.2256    1.2364    0.0000 C   0  0  0  0  0  0  0  0  0
   -4.2256    2.0614    0.0000 C   0  0  0  0  0  0  0  0  0
   -3.5111    2.4739    0.0000 C   0  0  0  0  0  0  0  0  0
   -2.7966    2.0614    0.0000 C   0  0  0  0  0  0  0  0  0
   -2.0822    2.4739    0.0000 C   0  0  0  0  0  0  0  0  0
   -4.9400    2.4739    0.0000 C   0  0  0  0  0  0  0  0  0
   -3.5111   -0.0011    0.0000 C   0  0  0  0  0  0  0  0  0
    2.2047   -0.0011    0.0000 C   0  0  0  0  0  0  0  0  0
    2.9191   -0.4136    0.0000 C   0  0  0  0  0  0  0  0  0
    3.6336   -0.0011    0.0000 C   0  0  0  0  0  0  0  0  0
    3.6336    0.8239    0.0000 C   0  0  0  0  0  0  0  0  0
    2.9191    1.2364    0.0000 C   0  0  0  0  0  0  0  0  0
    2.2047    0.8239    0.0000 C   0  0  0  0  0  0  0  0  0
    4.3481    1.2364    0.0000 C   0  0  0  0  0  0  0  0  0
    5.0625    0.8239    0.0000 C   0  0  0  0  0  0  0  0  0
    5.0625   -0.0011    0.0000 C   0  0  0  0  0  0  0  0  0
    4.3481   -0.4136    0.0000 C   0  0  0  0  0  0  0  0  0
    4.3481   -1.2386    0.0000 N   0  0  0  0  0  0  0  0  0
    5.0625   -1.6511    0.0000 C   0  0  0  0  0  0  0  0  0
    5.0625   -2.4761    0.0000 C   0  0  0  0  0  0  0  0  0
    4.3481   -2.8886    0.0000 N   0  0  0  0  0  0  0  0  0
    3.6336   -2.4761    0.0000 C   0  0  0  0  0  0  0  0  0
    3.6336   -1.6511    0.0000 C   0  0  0  0  0  0  0  0  0
    4.3481   -3.7136    0.0000 C   0  0  0  0  0  0  0  0  0
  1  2  1  0  0  0  0
  1 20  1  0  0  0  0
  2  3  1  0  0  0  0
  3  4  2  0  0  0  0
  3  5  1  0  0  0  0
  5  6  1  0  0  0  0
  5 10  1  0  0  0  0
  6  7  1  0  0  0  0
  7  8  1  0  0  0  0
  8  9  1  0  0  0  0
  8 11  1  0  0  0  0
  9 10  1  0  0  0  0
 11 12  4  0  0  0  0
 11 16  4  0  0  0  0
 12 13  4  0  0  0  0
 12 19  1  0  0  0  0
 13 14  4  0  0  0  0
 14 15  4  0  0  0  0
 14 18  1  0  0  0  0
 15 16  4  0  0  0  0
 16 17  1  0  0  0  0
 20 21  4  0  0  0  0
 20 25  4  0  0  0  0
 21 22  4  0  0  0  0
 22 23  4  0  0  0  0
 22 29  4  0  0  0  0
 23 24  4  0  0  0  0
 23 26  4  0  0  0  0
 24 25  4  0  0  0  0
 26 27  4  0  0  0  0
 27 28  4  0  0  0  0
 28 29  4  0  0  0  0
 29 30  1  0  0  0  0
 30 31  1  0  0  0  0
 30 35  1  0  0  0  0
 31 32  1  0  0  0  0
 32 33  1  0  0  0  0
 33 34  1  0  0  0  0
 33 36  1  0  0  0  0
 34 35  1  0  0  0  0
M  END
>  <Name_Molregno>
213053

>  <5-HT1A>
6.93

>  <5-HT1B>
8.85

>  <5-HT1D>
8.72

$$$$
217067
  Marvin  02231216192D 0   1.00000     0.00000     0

 29 31  0  0  1  0  0  0  0  0999 V2000
   -1.2017    1.0936    0.0000 S   0  0  0  0  0  0  0  0  0
   -1.2017    0.2686    0.0000 O   0  0  0  0  0  0  0  0  0
   -1.2017    1.9186    0.0000 O   0  0  0  0  0  0  0  0  0
   -2.0267    1.0936    0.0000 C   0  0  0  0  0  0  0  0  0
   -2.4392    0.3791    0.0000 C   0  0  0  0  0  0  0  0  0
   -2.0267   -0.3354    0.0000 C   0  0  0  0  0  0  0  0  0
   -2.4392   -1.0498    0.0000 C   0  0  0  0  0  0  0  0  0
   -2.0267   -1.7643    0.0000 C   0  0  0  0  0  0  0  0  0
   -2.4392   -2.4788    0.0000 C   0  0  0  0  0  0  0  0  0
   -3.2642   -2.4788    0.0000 C   0  0  0  0  0  0  0  0  0
   -3.6767   -3.1932    0.0000 N   0  0  0  0  0  0  0  0  0
   -4.5017   -3.1932    0.0000 C   0  0  0  0  0  0  0  0  0
   -4.9142   -3.9077    0.0000 C   0  0  0  0  0  0  0  0  0
   -5.7392   -3.9077    0.0000 C   0  0  0  0  0  0  0  0  0
   -3.2642   -3.9077    0.0000 C   0  0  0  0  0  0  0  0  0
   -2.4392   -3.9077    0.0000 C   0  0  0  0  0  0  0  0  0
   -2.0267   -4.6222    0.0000 C   0  0  0  0  0  0  0  0  0
   -3.6767   -1.7643    0.0000 C   0  0  0  0  0  0  0  0  0
   -3.2642   -1.0498    0.0000 C   0  0  0  0  0  0  0  0  0
   -3.6767   -0.3354    0.0000 C   0  0  0  0  0  0  0  0  0
   -3.2642    0.3791    0.0000 C   0  0  0  0  0  0  0  0  0
   -0.3767    1.0936    0.0000 C   0  0  0  0  0  0  0  0  0
    0.0358    1.8081    0.0000 C   0  0  0  0  0  0  0  0  0
    0.8608    1.8081    0.0000 C   0  0  0  0  0  0  0  0  0
    1.2733    1.0936    0.0000 C   0  0  0  0  0  0  0  0  0
    2.0983    1.0936    0.0000 O   0  0  0  0  0  0  0  0  0
    2.5108    1.8081    0.0000 C   0  0  0  0  0  0  0  0  0
    0.8608    0.3791    0.0000 C   0  0  0  0  0  0  0  0  0
    0.0358    0.3791    0.0000 C   0  0  0  0  0  0  0  0  0
  1  2  2  0  0  0  0
  1  3  2  0  0  0  0
  1  4  1  0  0  0  0
  1 22  1  0  0  0  0
  4  5  1  0  0  0  0
  5  6  4  0  0  0  0
  5 21  4  0  0  0  0
  6  7  4  0  0  0  0
  7  8  1  0  0  0  0
  7 19  4  0  0  0  0
  8  9  1  0  0  0  0
  9 10  1  0  0  0  0
 10 11  1  0  0  0  0
 10 18  1  0  0  0  0
 11 12  1  0  0  0  0
 11 15  1  0  0  0  0
 12 13  1  0  0  0  0
 13 14  1  0  0  0  0
 15 16  1  0  0  0  0
 16 17  1  0  0  0  0
 18 19  1  0  0  0  0
 19 20  4  0  0  0  0
 20 21  4  0  0  0  0
 22 23  4  0  0  0  0
 22 29  4  0  0  0  0
 23 24  4  0  0  0  0
 24 25  4  0  0  0  0
 25 26  1  0  0  0  0
 25 28  4  0  0  0  0
 26 27  1  0  0  0  0
 28 29  4  0  0  0  0
M  END
>  <Name_Molregno>
217067

>  <5-HT1A>
6.8

>  <5-HT1B>
6

>  <5-HT1D>
6

>  <5-HT2A>
6

>  <5-HT2C>
6

>  <DOPAMINE D1>
6

>  <DOPAMINE D2>
7.03

>  <DOPAMINE D3>
8.88

>  <DOPAMINE D4>
5

>  <DOPAMINE D5>
6

$$$$
217302
  Marvin  02231216192D 0   1.00000     0.00000     0

 31 35  0  0  0  0  0  0  0  0999 V2000
   -8.3842    0.5579    0.0000 F   0  0  0  0  0  0  0  0  0
   -8.5558   -0.2490    0.0000 C   0  0  0  0  0  0  0  0  0
   -7.9427   -0.8011    0.0000 C   0  0  0  0  0  0  0  0  0
   -8.1142   -1.6080    0.0000 C   0  0  0  0  0  0  0  0  0
   -8.8988   -1.8630    0.0000 C   0  0  0  0  0  0  0  0  0
   -8.8988   -2.6880    0.0000 N   0  0  0  0  0  0  0  0  0
   -8.1142   -2.9429    0.0000 C   0  0  0  0  0  0  0  0  0
   -7.6293   -2.2755    0.0000 C   0  0  0  0  0  0  0  0  0
   -6.8043   -2.2755    0.0000 C   0  0  0  0  0  0  0  0  0
   -6.3918   -1.5610    0.0000 C   0  0  0  0  0  0  0  0  0
   -5.5668   -1.5610    0.0000 C   0  0  0  0  0  0  0  0  0
   -5.1543   -2.2755    0.0000 N   0  0  0  0  0  0  0  0  0
   -5.5668   -2.9900    0.0000 C   0  0  0  0  0  0  0  0  0
   -6.3918   -2.9900    0.0000 C   0  0  0  0  0  0  0  0  0
   -4.3293   -2.2755    0.0000 C   0  0  0  0  0  0  0  0  0
   -3.9168   -1.5610    0.0000 C   0  0  0  0  0  0  0  0  0
   -3.0918   -1.5610    0.0000 C   0  0  0  0  0  0  0  0  0
   -2.6793   -0.8465    0.0000 C   0  0  0  0  0  0  0  0  0
   -1.8543   -0.8465    0.0000 N   0  0  0  0  0  0  0  0  0
   -1.3694   -1.5140    0.0000 C   0  0  0  0  0  0  0  0  0
   -1.6243   -2.2986    0.0000 O   0  0  0  0  0  0  0  0  0
   -0.5847   -1.2590    0.0000 C   0  0  0  0  0  0  0  0  0
   -0.5847   -0.4340    0.0000 C   0  0  0  0  0  0  0  0  0
    0.1297   -0.0215    0.0000 C   0  0  0  0  0  0  0  0  0
    0.8442   -0.4340    0.0000 C   0  0  0  0  0  0  0  0  0
    0.8442   -1.2590    0.0000 C   0  0  0  0  0  0  0  0  0
    0.1297   -1.6715    0.0000 C   0  0  0  0  0  0  0  0  0
   -1.3694   -0.1791    0.0000 C   0  0  0  0  0  0  0  0  0
   -1.6243    0.6055    0.0000 O   0  0  0  0  0  0  0  0  0
   -9.5119   -1.3110    0.0000 C   0  0  0  0  0  0  0  0  0
   -9.3404   -0.5040    0.0000 C   0  0  0  0  0  0  0  0  0
  1  2  1  0  0  0  0
  2  3  4  0  0  0  0
  2 31  4  0  0  0  0
  3  4  4  0  0  0  0
  4  5  4  0  0  0  0
  4  8  4  0  0  0  0
  5  6  4  0  0  0  0
  5 30  4  0  0  0  0
  6  7  4  0  0  0  0
  7  8  4  0  0  0  0
  8  9  1  0  0  0  0
  9 10  1  0  0  0  0
  9 14  2  0  0  0  0
 10 11  1  0  0  0  0
 11 12  1  0  0  0  0
 12 13  1  0  0  0  0
 12 15  1  0  0  0  0
 13 14  1  0  0  0  0
 15 16  1  0  0  0  0
 16 17  1  0  0  0  0
 17 18  1  0  0  0  0
 18 19  1  0  0  0  0
 19 20  1  0  0  0  0
 19 28  1  0  0  0  0
 20 21  2  0  0  0  0
 20 22  1  0  0  0  0
 22 23  4  0  0  0  0
 22 27  4  0  0  0  0
 23 24  4  0  0  0  0
 23 28  1  0  0  0  0
 24 25  4  0  0  0  0
 25 26  4  0  0  0  0
 26 27  4  0  0  0  0
 28 29  2  0  0  0  0
 30 31  4  0  0  0  0
M  STY  1   1 DAT
M  SAL   1  1   6
M  SDT   1 MRV_IMPLICIT_H                                        
M  SDD   1     0.0000    0.0000    DR    ALL  0       0  
M  SED   1 IMPL_H1
M  END
>  <Name_Molregno>
217302

>  <5-HT1A>
8.6

>  <5-HT2A>
7

>  <5-HT2C>
7.4

>  <5-HT6>
6.4

>  <5-HT7>
7

>  <DOPAMINE D3>
9.1

>  <Serotonin transporter>
9.1

$$$$
221845
  Marvin  02231216192D 0   1.00000     0.00000     0

 27 30  0  0  1  0  0  0  0  0999 V2000
    0.0693    0.0194    0.0000 O   0  0  0  0  0  0  0  0  0
    0.7838    0.4319    0.0000 C   0  0  0  0  0  0  0  0  0
    0.7838    1.2569    0.0000 C   0  0  0  0  0  0  0  0  0
    0.0693    1.6694    0.0000 O   0  0  0  0  0  0  0  0  0
   -0.6452    1.2569    0.0000 C   0  0  0  0  0  0  0  0  0
   -0.6452    0.4319    0.0000 C   0  0  0  0  0  0  0  0  0
   -1.3596    0.0194    0.0000 C   0  0  0  0  0  0  0  0  0
   -2.0741    0.4319    0.0000 N   0  0  0  0  0  0  0  0  0
   -2.7886    0.0194    0.0000 C   0  0  0  0  0  0  0  0  0
   -2.8748   -0.8010    0.0000 C   0  0  0  0  0  0  0  0  0
   -3.6818   -0.9726    0.0000 C   0  0  0  0  0  0  0  0  0
   -4.0943   -0.2581    0.0000 C   0  0  0  0  0  0  0  0  0
   -4.9148   -0.1719    0.0000 O   0  0  0  0  0  0  0  0  0
   -5.3997   -0.8393    0.0000 C   0  0  0  0  0  0  0  0  0
   -5.0641   -1.5930    0.0000 C   0  0  0  0  0  0  0  0  0
   -5.5491   -2.2604    0.0000 C   0  0  0  0  0  0  0  0  0
   -6.3695   -2.1742    0.0000 C   0  0  0  0  0  0  0  0  0
   -6.7051   -1.4205    0.0000 C   0  0  0  0  0  0  0  0  0
   -6.2202   -0.7531    0.0000 C   0  0  0  0  0  0  0  0  0
   -6.5557    0.0006    0.0000 O   0  0  0  0  0  0  0  0  0
   -7.3762    0.0868    0.0000 C   0  0  0  0  0  0  0  0  0
   -3.5423    0.3550    0.0000 C   0  0  0  0  0  0  0  0  0
   -3.7138    1.1620    0.0000 O   0  0  0  0  0  0  0  0  0
    1.4982    1.6694    0.0000 C   0  0  0  0  0  0  0  0  0
    2.2127    1.2569    0.0000 C   0  0  0  0  0  0  0  0  0
    2.2127    0.4319    0.0000 C   0  0  0  0  0  0  0  0  0
    1.4982    0.0194    0.0000 C   0  0  0  0  0  0  0  0  0
  1  2  1  0  0  0  0
  1  6  1  0  0  0  0
  2  3  4  0  0  0  0
  2 27  4  0  0  0  0
  3  4  1  0  0  0  0
  3 24  4  0  0  0  0
  4  5  1  0  0  0  0
  5  6  1  0  0  0  0
  6  7  1  0  0  0  0
  7  8  1  0  0  0  0
  8  9  1  0  0  0  0
  9 10  1  0  0  0  0
  9 22  1  0  0  0  0
 10 11  1  0  0  0  0
 11 12  1  0  0  0  0
 12 13  1  0  0  0  0
 12 22  1  0  0  0  0
 13 14  1  0  0  0  0
 14 15  4  0  0  0  0
 14 19  4  0  0  0  0
 15 16  4  0  0  0  0
 16 17  4  0  0  0  0
 17 18  4  0  0  0  0
 18 19  4  0  0  0  0
 19 20  1  0  0  0  0
 20 21  1  0  0  0  0
 22 23  1  0  0  0  0
 24 25  4  0  0  0  0
 25 26  4  0  0  0  0
 26 27  4  0  0  0  0
M  END
>  <Name_Molregno>
221845

>  <5-HT1A>
7.59

$$$$
221873
  Marvin  02231216192D 0   1.00000     0.00000     0

 25 28  0  0  1  0  0  0  0  0999 V2000
    0.0603    0.0136    0.0000 O   0  0  0  0  0  0  0  0  0
    0.7747    0.4261    0.0000 C   0  0  0  0  0  0  0  0  0
    0.7747    1.2511    0.0000 C   0  0  0  0  0  0  0  0  0
    0.0603    1.6636    0.0000 O   0  0  0  0  0  0  0  0  0
   -0.6542    1.2511    0.0000 C   0  0  0  0  0  0  0  0  0
   -0.6542    0.4261    0.0000 C   0  0  0  0  0  0  0  0  0
   -1.3687    0.0136    0.0000 C   0  0  0  0  0  0  0  0  0
   -2.0832    0.4261    0.0000 N   0  0  0  0  0  0  0  0  0
   -2.7976    0.0136    0.0000 C   0  0  0  0  0  0  0  0  0
   -2.8839   -0.8069    0.0000 C   0  0  0  0  0  0  0  0  0
   -3.6908   -0.9784    0.0000 C   0  0  0  0  0  0  0  0  0
   -4.1033   -0.2639    0.0000 C   0  0  0  0  0  0  0  0  0
   -4.9238   -0.1777    0.0000 O   0  0  0  0  0  0  0  0  0
   -5.4087   -0.8451    0.0000 C   0  0  0  0  0  0  0  0  0
   -5.0732   -1.5988    0.0000 C   0  0  0  0  0  0  0  0  0
   -5.5581   -2.2663    0.0000 C   0  0  0  0  0  0  0  0  0
   -6.3786   -2.1800    0.0000 C   0  0  0  0  0  0  0  0  0
   -6.7141   -1.4263    0.0000 C   0  0  0  0  0  0  0  0  0
   -6.2292   -0.7589    0.0000 C   0  0  0  0  0  0  0  0  0
   -3.5513    0.3492    0.0000 C   0  0  0  0  0  0  0  0  0
   -3.7228    1.1561    0.0000 O   0  0  0  0  0  0  0  0  0
    1.4892    1.6636    0.0000 C   0  0  0  0  0  0  0  0  0
    2.2037    1.2511    0.0000 C   0  0  0  0  0  0  0  0  0
    2.2037    0.4261    0.0000 C   0  0  0  0  0  0  0  0  0
    1.4892    0.0136    0.0000 C   0  0  0  0  0  0  0  0  0
  1  2  1  0  0  0  0
  1  6  1  0  0  0  0
  2  3  4  0  0  0  0
  2 25  4  0  0  0  0
  3  4  1  0  0  0  0
  3 22  4  0  0  0  0
  4  5  1  0  0  0  0
  5  6  1  0  0  0  0
  6  7  1  0  0  0  0
  7  8  1  0  0  0  0
  8  9  1  0  0  0  0
  9 10  1  0  0  0  0
  9 20  1  0  0  0  0
 10 11  1  0  0  0  0
 11 12  1  0  0  0  0
 12 13  1  0  0  0  0
 12 20  1  0  0  0  0
 13 14  1  0  0  0  0
 14 15  4  0  0  0  0
 14 19  4  0  0  0  0
 15 16  4  0  0  0  0
 16 17  4  0  0  0  0
 17 18  4  0  0  0  0
 18 19  4  0  0  0  0
 20 21  1  0  0  0  0
 22 23  4  0  0  0  0
 23 24  4  0  0  0  0
 24 25  4  0  0  0  0
M  END
>  <Name_Molregno>
221873

>  <5-HT1A>
8.36

>  <Alpha-1A>
6.75

>  <Alpha-1B>
6.26

$$$$
221874
  Marvin  02231216192D 0   1.00000     0.00000     0

 29 32  0  0  1  0  0  0  0  0999 V2000
    0.0730   -0.0079    0.0000 O   0  0  0  0  0  0  0  0  0
    0.7875    0.4046    0.0000 C   0  0  0  0  0  0  0  0  0
    0.7875    1.2296    0.0000 C   0  0  0  0  0  0  0  0  0
    0.0730    1.6421    0.0000 O   0  0  0  0  0  0  0  0  0
   -0.6415    1.2296    0.0000 C   0  0  0  0  0  0  0  0  0
   -0.6415    0.4046    0.0000 C   0  0  0  0  0  0  0  0  0
   -1.3559   -0.0079    0.0000 C   0  0  0  0  0  0  0  0  0
   -2.0704    0.4046    0.0000 N   0  0  0  0  0  0  0  0  0
   -2.7849   -0.0079    0.0000 C   0  0  0  0  0  0  0  0  0
   -2.8711   -0.8284    0.0000 C   0  0  0  0  0  0  0  0  0
   -3.6781   -0.9999    0.0000 C   0  0  0  0  0  0  0  0  0
   -4.0906   -0.2855    0.0000 C   0  0  0  0  0  0  0  0  0
   -4.9111   -0.1992    0.0000 O   0  0  0  0  0  0  0  0  0
   -5.3960   -0.8667    0.0000 C   0  0  0  0  0  0  0  0  0
   -5.0604   -1.6203    0.0000 C   0  0  0  0  0  0  0  0  0
   -4.2399   -1.7066    0.0000 O   0  0  0  0  0  0  0  0  0
   -3.9044   -2.4602    0.0000 C   0  0  0  0  0  0  0  0  0
   -5.5454   -2.2878    0.0000 C   0  0  0  0  0  0  0  0  0
   -6.3658   -2.2015    0.0000 C   0  0  0  0  0  0  0  0  0
   -6.7014   -1.4479    0.0000 C   0  0  0  0  0  0  0  0  0
   -6.2165   -0.7804    0.0000 C   0  0  0  0  0  0  0  0  0
   -6.5520   -0.0267    0.0000 O   0  0  0  0  0  0  0  0  0
   -7.3725    0.0595    0.0000 C   0  0  0  0  0  0  0  0  0
   -3.5385    0.3276    0.0000 C   0  0  0  0  0  0  0  0  0
   -3.7101    1.1346    0.0000 O   0  0  0  0  0  0  0  0  0
    1.5020    1.6421    0.0000 C   0  0  0  0  0  0  0  0  0
    2.2164    1.2296    0.0000 C   0  0  0  0  0  0  0  0  0
    2.2164    0.4046    0.0000 C   0  0  0  0  0  0  0  0  0
    1.5020   -0.0079    0.0000 C   0  0  0  0  0  0  0  0  0
  1  2  1  0  0  0  0
  1  6  1  0  0  0  0
  2  3  4  0  0  0  0
  2 29  4  0  0  0  0
  3  4  1  0  0  0  0
  3 26  4  0  0  0  0
  4  5  1  0  0  0  0
  5  6  1  0  0  0  0
  6  7  1  0  0  0  0
  7  8  1  0  0  0  0
  8  9  1  0  0  0  0
  9 10  1  0  0  0  0
  9 24  1  0  0  0  0
 10 11  1  0  0  0  0
 11 12  1  0  0  0  0
 12 13  1  0  0  0  0
 12 24  1  0  0  0  0
 13 14  1  0  0  0  0
 14 15  4  0  0  0  0
 14 21  4  0  0  0  0
 15 16  1  0  0  0  0
 15 18  4  0  0  0  0
 16 17  1  0  0  0  0
 18 19  4  0  0  0  0
 19 20  4  0  0  0  0
 20 21  4  0  0  0  0
 21 22  1  0  0  0  0
 22 23  1  0  0  0  0
 24 25  1  0  0  0  0
 26 27  4  0  0  0  0
 27 28  4  0  0  0  0
 28 29  4  0  0  0  0
M  END
>  <Name_Molregno>
221874

>  <5-HT1A>
7.39

$$$$
230589
  Marvin  02231216192D 0   1.00000     0.00000     0

 21 23  0  0  1  0  0  0  0  0999 V2000
    1.8607    2.5785    0.0000 S   0  0  0  0  0  0  0  0  0
    2.1156    3.3632    0.0000 C   0  0  0  0  0  0  0  0  0
    2.9406    3.3632    0.0000 C   0  0  0  0  0  0  0  0  0
    3.1956    2.5785    0.0000 C   0  0  0  0  0  0  0  0  0
    2.5281    2.0936    0.0000 C   0  0  0  0  0  0  0  0  0
    2.5281    1.2686    0.0000 C   0  0  0  0  0  0  0  0  0
    1.8136    0.8561    0.0000 O   0  0  0  0  0  0  0  0  0
    1.8136    0.0311    0.0000 C   0  0  0  0  0  0  0  0  0
    1.0992   -0.3814    0.0000 C   0  0  0  0  0  0  0  0  0
    1.0992   -1.2064    0.0000 C   0  0  0  0  0  0  0  0  0
    1.8136   -1.6189    0.0000 C   0  0  0  0  0  0  0  0  0
    2.5281   -1.2064    0.0000 C   0  0  0  0  0  0  0  0  0
    2.5281   -0.3814    0.0000 C   0  0  0  0  0  0  0  0  0
    0.3847   -1.6189    0.0000 C   0  0  0  0  0  0  0  0  0
   -0.3298   -1.2064    0.0000 C   0  0  0  0  0  0  0  0  0
   -0.3298   -0.3814    0.0000 C   0  0  0  0  0  0  0  0  0
    0.3847    0.0311    0.0000 C   0  0  0  0  0  0  0  0  0
    3.2426    0.8561    0.0000 C   0  0  0  0  0  0  0  0  0
    3.9571    1.2686    0.0000 C   0  0  0  0  0  0  0  0  0
    4.6715    0.8561    0.0000 N   0  0  0  0  0  0  0  0  0
    4.6715    0.0311    0.0000 C   0  0  0  0  0  0  0  0  0
  1  2  4  0  0  0  0
  1  5  4  0  0  0  0
  2  3  4  0  0  0  0
  3  4  4  0  0  0  0
  4  5  4  0  0  0  0
  5  6  1  0  0  0  0
  6  7  1  0  0  0  0
  6 18  1  0  0  0  0
  7  8  1  0  0  0  0
  8  9  4  0  0  0  0
  8 13  4  0  0  0  0
  9 10  4  0  0  0  0
  9 17  4  0  0  0  0
 10 11  4  0  0  0  0
 10 14  4  0  0  0  0
 11 12  4  0  0  0  0
 12 13  4  0  0  0  0
 14 15  4  0  0  0  0
 15 16  4  0  0  0  0
 16 17  4  0  0  0  0
 18 19  1  0  0  0  0
 19 20  1  0  0  0  0
 20 21  1  0  0  0  0
M  END
>  <Name_Molregno>
230589

>  <5-HT1A>
5.3

>  <5-HT1B>
5.4

>  <5-HT1D>
5.52

>  <5-HT1E>
5.43

>  <5-HT2A>
6.3

>  <5-HT2C>
6.04

>  <5-HT6>
6.38

>  <5-HT7>
5.65

>  <Alpha-2A>
6

>  <DOPAMINE D2>
5

>  <Dopamine transporter>
6.24

>  <HISTAMINE H1>
5.64

>  <Muscarinic acetylcholine receptor M1>
6

>  <Muscarinic acetylcholine receptor M2>
6

>  <Norepinephrine transporter>
7.53

>  <Serotonin transporter>
8.48

$$$$
232974
  Marvin  02231216192D 0   1.00000     0.00000     0

 24 26  0  0  0  0  0  0  0  0999 V2000
    0.1578    2.6676    0.0000 F   0  0  0  0  0  0  0  0  0
    0.8723    2.2551    0.0000 C   0  0  0  0  0  0  0  0  0
    1.5868    2.6676    0.0000 C   0  0  0  0  0  0  0  0  0
    2.3013    2.2551    0.0000 C   0  0  0  0  0  0  0  0  0
    2.3013    1.4301    0.0000 C   0  0  0  0  0  0  0  0  0
    1.5868    1.0176    0.0000 C   0  0  0  0  0  0  0  0  0
    0.8723    1.4301    0.0000 C   0  0  0  0  0  0  0  0  0
    3.0157    1.0176    0.0000 C   0  0  0  0  0  0  0  0  0
    3.0157    0.1926    0.0000 O   0  0  0  0  0  0  0  0  0
    3.7302    1.4301    0.0000 C   0  0  0  0  0  0  0  0  0
    4.4447    1.0176    0.0000 C   0  0  0  0  0  0  0  0  0
    5.1591    1.4301    0.0000 C   0  0  0  0  0  0  0  0  0
    5.8736    1.0176    0.0000 N   0  0  0  0  0  0  0  0  0
    6.5881    1.4301    0.0000 C   0  0  0  0  0  0  0  0  0
    7.3026    1.0176    0.0000 C   0  0  0  0  0  0  0  0  0
    7.3026    0.1926    0.0000 N   0  0  0  0  0  0  0  0  0
    6.5881   -0.2199    0.0000 C   0  0  0  0  0  0  0  0  0
    5.8736    0.1926    0.0000 C   0  0  0  0  0  0  0  0  0
    8.0170   -0.2199    0.0000 C   0  0  0  0  0  0  0  0  0
    8.7315    0.1926    0.0000 N   0  0  0  0  0  0  0  0  0
    9.4460   -0.2199    0.0000 C   0  0  0  0  0  0  0  0  0
    9.4460   -1.0449    0.0000 C   0  0  0  0  0  0  0  0  0
    8.7315   -1.4574    0.0000 C   0  0  0  0  0  0  0  0  0
    8.0170   -1.0449    0.0000 N   0  0  0  0  0  0  0  0  0
  1  2  1  0  0  0  0
  2  3  4  0  0  0  0
  2  7  4  0  0  0  0
  3  4  4  0  0  0  0
  4  5  4  0  0  0  0
  5  6  4  0  0  0  0
  5  8  1  0  0  0  0
  6  7  4  0  0  0  0
  8  9  2  0  0  0  0
  8 10  1  0  0  0  0
 10 11  1  0  0  0  0
 11 12  1  0  0  0  0
 12 13  1  0  0  0  0
 13 14  1  0  0  0  0
 13 18  1  0  0  0  0
 14 15  1  0  0  0  0
 15 16  1  0  0  0  0
 16 17  1  0  0  0  0
 16 19  1  0  0  0  0
 17 18  1  0  0  0  0
 19 20  4  0  0  0  0
 19 24  4  0  0  0  0
 20 21  4  0  0  0  0
 21 22  4  0  0  0  0
 22 23  4  0  0  0  0
 23 24  4  0  0  0  0
M  END
>  <Name_Molregno>
232974

>  <5-HT1A>
7.52

>  <5-HT2A>
7.66

>  <5-HT2C>
5.38

>  <DOPAMINE D2>
7.01

>  <DOPAMINE D3>
6.61

>  <DOPAMINE D4>
8.19

>  <HISTAMINE H1>
6.04

$$$$
245433
  Marvin  02231216192D 0   1.00000     0.00000     0

 25 27  0  0  1  0  0  0  0  0999 V2000
    0.3559    2.6179    0.0000 Cl  0  0  0  0  0  0  0  0  0
    1.0234    2.1329    0.0000 C   0  0  0  0  0  0  0  0  0
    1.7770    2.4685    0.0000 C   0  0  0  0  0  0  0  0  0
    2.4445    1.9836    0.0000 C   0  0  0  0  0  0  0  0  0
    2.3582    1.1631    0.0000 C   0  0  0  0  0  0  0  0  0
    1.6046    0.8275    0.0000 C   0  0  0  0  0  0  0  0  0
    0.9371    1.3125    0.0000 C   0  0  0  0  0  0  0  0  0
    3.0257    0.6782    0.0000 C   0  0  0  0  0  0  0  0  0
    2.4736    0.0651    0.0000 O   0  0  0  0  0  0  0  0  0
    3.4382    1.3926    0.0000 C   0  0  0  0  0  0  0  0  0
    4.2451    1.2211    0.0000 C   0  0  0  0  0  0  0  0  0
    4.3314    0.4006    0.0000 N   0  0  0  0  0  0  0  0  0
    3.5777    0.0651    0.0000 C   0  0  0  0  0  0  0  0  0
    5.0459   -0.0119    0.0000 C   0  0  0  0  0  0  0  0  0
    5.7603    0.4006    0.0000 C   0  0  0  0  0  0  0  0  0
    6.4748   -0.0119    0.0000 C   0  0  0  0  0  0  0  0  0
    7.1893    0.4006    0.0000 C   0  0  0  0  0  0  0  0  0
    7.1893    1.2256    0.0000 O   0  0  0  0  0  0  0  0  0
    7.9037   -0.0119    0.0000 C   0  0  0  0  0  0  0  0  0
    8.6182    0.4006    0.0000 C   0  0  0  0  0  0  0  0  0
    9.3327   -0.0119    0.0000 C   0  0  0  0  0  0  0  0  0
    9.3327   -0.8369    0.0000 C   0  0  0  0  0  0  0  0  0
   10.0472   -1.2494    0.0000 F   0  0  0  0  0  0  0  0  0
    8.6182   -1.2494    0.0000 C   0  0  0  0  0  0  0  0  0
    7.9037   -0.8369    0.0000 C   0  0  0  0  0  0  0  0  0
  1  2  1  0  0  0  0
  2  3  4  0  0  0  0
  2  7  4  0  0  0  0
  3  4  4  0  0  0  0
  4  5  4  0  0  0  0
  5  6  4  0  0  0  0
  5  8  1  0  0  0  0
  6  7  4  0  0  0  0
  8  9  1  0  0  0  0
  8 10  1  0  0  0  0
  8 13  1  0  0  0  0
 10 11  1  0  0  0  0
 11 12  1  0  0  0  0
 12 13  1  0  0  0  0
 12 14  1  0  0  0  0
 14 15  1  0  0  0  0
 15 16  1  0  0  0  0
 16 17  1  0  0  0  0
 17 18  2  0  0  0  0
 17 19  1  0  0  0  0
 19 20  4  0  0  0  0
 19 25  4  0  0  0  0
 20 21  4  0  0  0  0
 21 22  4  0  0  0  0
 22 23  1  0  0  0  0
 22 24  4  0  0  0  0
 24 25  4  0  0  0  0
M  END
>  <Name_Molregno>
245433

>  <5-HT1A>
6.1

>  <5-HT2A>
6.87

>  <5-HT2C>
5.67

>  <Alpha-1A>
7.2

>  <Alpha-1B>
7.18

>  <Alpha-2A>
5.44

>  <Alpha-2B>
5.58

>  <Alpha-2C>
7.41

>  <DOPAMINE D2>
7.07

>  <DOPAMINE D3>
6.45

>  <DOPAMINE D4>
7.7

>  <HISTAMINE H1>
6.21

$$$$
247227
  Marvin  02231216192D 0   1.00000     0.00000     0

 29 33  0  0  1  0  0  0  0  0999 V2000
   -0.2129    0.5025    0.0000 O   0  0  0  0  0  0  0  0  0
   -0.2129    1.3275    0.0000 C   0  0  0  0  0  0  0  0  0
   -0.9274    1.7400    0.0000 C   0  0  0  0  0  0  0  0  0
   -1.6419    1.3275    0.0000 O   0  0  0  0  0  0  0  0  0
   -1.6419    0.5025    0.0000 C   0  0  0  0  0  0  0  0  0
   -0.9274    0.0900    0.0000 C   0  0  0  0  0  0  0  0  0
   -0.9274   -0.7350    0.0000 C   0  0  0  0  0  0  0  0  0
   -1.6419   -1.1475    0.0000 N   0  0  0  0  0  0  0  0  0
   -2.0897   -1.7018    0.0000 C   0  0  0  0  0  0  0  0  0
   -2.0874   -2.6307    0.0000 C   0  0  0  0  0  0  0  0  0
   -2.9067   -2.7573    0.0000 C   0  0  0  0  0  0  0  0  0
   -3.0165   -3.5750    0.0000 O   0  0  0  0  0  0  0  0  0
   -2.4707   -2.2472    0.0000 C   0  0  0  0  0  0  0  0  0
   -2.4569   -1.2756    0.0000 C   0  0  0  0  0  0  0  0  0
   -3.1617   -0.7457    0.0000 C   0  0  0  0  0  0  0  0  0
   -2.7937   -1.3713    0.0000 C   0  0  0  0  0  0  0  0  0
   -3.6598   -2.4206    0.0000 C   0  0  0  0  0  0  0  0  0
   -4.3280   -2.9045    0.0000 C   0  0  0  0  0  0  0  0  0
   -5.0812   -2.5678    0.0000 C   0  0  0  0  0  0  0  0  0
   -5.1661   -1.7472    0.0000 C   0  0  0  0  0  0  0  0  0
   -4.4979   -1.2633    0.0000 C   0  0  0  0  0  0  0  0  0
   -3.7448   -1.6000    0.0000 C   0  0  0  0  0  0  0  0  0
   -0.9274    2.5650    0.0000 C   0  0  0  0  0  0  0  0  0
   -0.2129    2.9775    0.0000 C   0  0  0  0  0  0  0  0  0
    0.5016    2.5650    0.0000 C   0  0  0  0  0  0  0  0  0
    0.5016    1.7400    0.0000 C   0  0  0  0  0  0  0  0  0
    1.2160    1.3275    0.0000 O   0  0  0  0  0  0  0  0  0
    1.2160    0.5025    0.0000 C   0  0  0  0  0  0  0  0  0
    1.9305    0.0900    0.0000 C   0  0  0  0  0  0  0  0  0
  1  2  1  0  0  0  0
  1  6  1  0  0  0  0
  2  3  4  0  0  0  0
  2 26  4  0  0  0  0
  3  4  1  0  0  0  0
  3 23  4  0  0  0  0
  4  5  1  0  0  0  0
  5  6  1  0  0  0  0
  6  7  1  0  0  0  0
  7  8  1  0  0  0  0
  8  9  1  0  0  0  0
  8 14  1  0  0  0  0
  9 10  1  0  0  0  0
  9 16  1  0  0  0  0
 10 11  1  0  0  0  0
 11 12  1  0  0  0  0
 11 13  1  0  0  0  0
 11 17  1  0  0  0  0
 13 14  1  0  0  0  0
 14 15  1  0  0  0  0
 15 16  1  0  0  0  0
 17 18  4  0  0  0  0
 17 22  4  0  0  0  0
 18 19  4  0  0  0  0
 19 20  4  0  0  0  0
 20 21  4  0  0  0  0
 21 22  4  0  0  0  0
 23 24  4  0  0  0  0
 24 25  4  0  0  0  0
 25 26  4  0  0  0  0
 26 27  1  0  0  0  0
 27 28  1  0  0  0  0
 28 29  1  0  0  0  0
M  END
>  <Name_Molregno>
247227

>  <5-HT1A>
8.52

$$$$
247257
  Marvin  02231216192D 0   1.00000     0.00000     0

 30 34  0  0  1  0  0  0  0  0999 V2000
    4.0362    0.6962    0.0000 O   0  0  0  0  0  0  0  0  0
    4.0362    1.5212    0.0000 C   0  0  0  0  0  0  0  0  0
    3.3217    1.9337    0.0000 C   0  0  0  0  0  0  0  0  0
    2.6072    1.5212    0.0000 O   0  0  0  0  0  0  0  0  0
    2.6072    0.6962    0.0000 C   0  0  0  0  0  0  0  0  0
    3.3217    0.2837    0.0000 C   0  0  0  0  0  0  0  0  0
    3.3217   -0.5413    0.0000 C   0  0  0  0  0  0  0  0  0
    2.6072   -0.9538    0.0000 N   0  0  0  0  0  0  0  0  0
    2.1594   -1.5081    0.0000 C   0  0  0  0  0  0  0  0  0
    2.1617   -2.4370    0.0000 C   0  0  0  0  0  0  0  0  0
    1.3424   -2.5636    0.0000 C   0  0  0  0  0  0  0  0  0
    1.2326   -3.3813    0.0000 O   0  0  0  0  0  0  0  0  0
    1.7784   -2.0536    0.0000 C   0  0  0  0  0  0  0  0  0
    1.7922   -1.0820    0.0000 C   0  0  0  0  0  0  0  0  0
    1.0874   -0.5520    0.0000 C   0  0  0  0  0  0  0  0  0
    1.4554   -1.1776    0.0000 C   0  0  0  0  0  0  0  0  0
    0.5893   -2.2269    0.0000 C   0  0  0  0  0  0  0  0  0
    0.5043   -1.4063    0.0000 C   0  0  0  0  0  0  0  0  0
   -0.2489   -1.0696    0.0000 C   0  0  0  0  0  0  0  0  0
   -0.9171   -1.5535    0.0000 C   0  0  0  0  0  0  0  0  0
   -0.8321   -2.3741    0.0000 C   0  0  0  0  0  0  0  0  0
   -0.0789   -2.7108    0.0000 C   0  0  0  0  0  0  0  0  0
    0.0060   -3.5314    0.0000 O   0  0  0  0  0  0  0  0  0
   -0.6621   -4.0153    0.0000 C   0  0  0  0  0  0  0  0  0
    3.3217    2.7587    0.0000 C   0  0  0  0  0  0  0  0  0
    4.0362    3.1712    0.0000 C   0  0  0  0  0  0  0  0  0
    4.7506    2.7587    0.0000 C   0  0  0  0  0  0  0  0  0
    4.7506    1.9337    0.0000 C   0  0  0  0  0  0  0  0  0
    5.4651    1.5212    0.0000 O   0  0  0  0  0  0  0  0  0
    6.1796    1.9337    0.0000 C   0  0  0  0  0  0  0  0  0
  1  2  1  0  0  0  0
  1  6  1  0  0  0  0
  2  3  4  0  0  0  0
  2 28  4  0  0  0  0
  3  4  1  0  0  0  0
  3 25  4  0  0  0  0
  4  5  1  0  0  0  0
  5  6  1  0  0  0  0
  6  7  1  0  0  0  0
  7  8  1  0  0  0  0
  8  9  1  0  0  0  0
  8 14  1  0  0  0  0
  9 10  1  0  0  0  0
  9 16  1  0  0  0  0
 10 11  1  0  0  0  0
 11 12  1  0  0  0  0
 11 13  1  0  0  0  0
 11 17  1  0  0  0  0
 13 14  1  0  0  0  0
 14 15  1  0  0  0  0
 15 16  1  0  0  0  0
 17 18  4  0  0  0  0
 17 22  4  0  0  0  0
 18 19  4  0  0  0  0
 19 20  4  0  0  0  0
 20 21  4  0  0  0  0
 21 22  4  0  0  0  0
 22 23  1  0  0  0  0
 23 24  1  0  0  0  0
 25 26  4  0  0  0  0
 26 27  4  0  0  0  0
 27 28  4  0  0  0  0
 28 29  1  0  0  0  0
 29 30  1  0  0  0  0
M  END
>  <Name_Molregno>
247257

>  <5-HT1A>
7.41

$$$$
247286
  Marvin  02231216192D 0   1.00000     0.00000     0

 32 36  0  0  1  0  0  0  0  0999 V2000
   -5.6202   -6.5544    0.0000 F   0  0  0  0  0  0  0  0  0
   -4.8572   -6.2407    0.0000 C   0  0  0  0  0  0  0  0  0
   -4.5435   -7.0038    0.0000 F   0  0  0  0  0  0  0  0  0
   -5.1709   -5.4777    0.0000 F   0  0  0  0  0  0  0  0  0
   -4.0942   -5.9270    0.0000 C   0  0  0  0  0  0  0  0  0
   -3.9843   -5.1094    0.0000 C   0  0  0  0  0  0  0  0  0
   -3.2213   -4.7957    0.0000 C   0  0  0  0  0  0  0  0  0
   -2.5681   -5.2997    0.0000 C   0  0  0  0  0  0  0  0  0
   -2.6780   -6.1173    0.0000 C   0  0  0  0  0  0  0  0  0
   -3.4410   -6.4310    0.0000 C   0  0  0  0  0  0  0  0  0
   -3.1114   -3.9781    0.0000 C   0  0  0  0  0  0  0  0  0
   -3.8646   -3.6414    0.0000 O   0  0  0  0  0  0  0  0  0
   -2.2921   -3.8515    0.0000 C   0  0  0  0  0  0  0  0  0
   -2.2944   -2.9226    0.0000 C   0  0  0  0  0  0  0  0  0
   -1.8466   -2.3683    0.0000 N   0  0  0  0  0  0  0  0  0
   -2.6616   -2.4964    0.0000 C   0  0  0  0  0  0  0  0  0
   -2.6754   -3.4680    0.0000 C   0  0  0  0  0  0  0  0  0
   -3.3665   -1.9664    0.0000 C   0  0  0  0  0  0  0  0  0
   -2.9984   -2.5920    0.0000 C   0  0  0  0  0  0  0  0  0
   -1.1321   -1.9558    0.0000 C   0  0  0  0  0  0  0  0  0
   -1.1321   -1.1308    0.0000 C   0  0  0  0  0  0  0  0  0
   -0.4177   -0.7183    0.0000 O   0  0  0  0  0  0  0  0  0
   -0.4177    0.1067    0.0000 C   0  0  0  0  0  0  0  0  0
   -1.1321    0.5192    0.0000 C   0  0  0  0  0  0  0  0  0
   -1.8466    0.1067    0.0000 O   0  0  0  0  0  0  0  0  0
   -1.8466   -0.7183    0.0000 C   0  0  0  0  0  0  0  0  0
   -1.1321    1.3442    0.0000 C   0  0  0  0  0  0  0  0  0
   -0.4177    1.7567    0.0000 C   0  0  0  0  0  0  0  0  0
    0.2968    1.3442    0.0000 C   0  0  0  0  0  0  0  0  0
    0.2968    0.5192    0.0000 C   0  0  0  0  0  0  0  0  0
    1.0113    0.1067    0.0000 O   0  0  0  0  0  0  0  0  0
    1.7257    0.5192    0.0000 C   0  0  0  0  0  0  0  0  0
  1  2  1  0  0  0  0
  2  3  1  0  0  0  0
  2  4  1  0  0  0  0
  2  5  1  0  0  0  0
  5  6  4  0  0  0  0
  5 10  4  0  0  0  0
  6  7  4  0  0  0  0
  7  8  4  0  0  0  0
  7 11  1  0  0  0  0
  8  9  4  0  0  0  0
  9 10  4  0  0  0  0
 11 12  1  0  0  0  0
 11 13  1  0  0  0  0
 11 17  1  0  0  0  0
 13 14  1  0  0  0  0
 14 15  1  0  0  0  0
 14 19  1  0  0  0  0
 15 16  1  0  0  0  0
 15 20  1  0  0  0  0
 16 17  1  0  0  0  0
 16 18  1  0  0  0  0
 18 19  1  0  0  0  0
 20 21  1  0  0  0  0
 21 22  1  0  0  0  0
 21 26  1  0  0  0  0
 22 23  1  0  0  0  0
 23 24  4  0  0  0  0
 23 30  4  0  0  0  0
 24 25  1  0  0  0  0
 24 27  4  0  0  0  0
 25 26  1  0  0  0  0
 27 28  4  0  0  0  0
 28 29  4  0  0  0  0
 29 30  4  0  0  0  0
 30 31  1  0  0  0  0
 31 32  1  0  0  0  0
M  END
>  <Name_Molregno>
247286

>  <5-HT1A>
9.48

$$$$
247347
  Marvin  02231216192D 0   1.00000     0.00000     0

 32 37  0  0  1  0  0  0  0  0999 V2000
    3.1593   -3.8566    0.0000 S   0  0  0  0  0  0  0  0  0
    3.5165   -3.1129    0.0000 C   0  0  0  0  0  0  0  0  0
    2.9195   -2.5435    0.0000 C   0  0  0  0  0  0  0  0  0
    2.1935   -2.9352    0.0000 C   0  0  0  0  0  0  0  0  0
    2.3416   -3.7468    0.0000 C   0  0  0  0  0  0  0  0  0
    1.7129   -4.2809    0.0000 C   0  0  0  0  0  0  0  0  0
    0.9359   -4.0034    0.0000 C   0  0  0  0  0  0  0  0  0
    0.7878   -3.1918    0.0000 C   0  0  0  0  0  0  0  0  0
    1.4165   -2.6577    0.0000 C   0  0  0  0  0  0  0  0  0
    3.0294   -1.7258    0.0000 C   0  0  0  0  0  0  0  0  0
    2.2762   -1.3891    0.0000 O   0  0  0  0  0  0  0  0  0
    3.8487   -1.5992    0.0000 C   0  0  0  0  0  0  0  0  0
    3.8464   -0.6703    0.0000 C   0  0  0  0  0  0  0  0  0
    4.2942   -0.1160    0.0000 N   0  0  0  0  0  0  0  0  0
    3.4792   -0.2441    0.0000 C   0  0  0  0  0  0  0  0  0
    3.4654   -1.2157    0.0000 C   0  0  0  0  0  0  0  0  0
    2.7744    0.2858    0.0000 C   0  0  0  0  0  0  0  0  0
    3.1424   -0.3398    0.0000 C   0  0  0  0  0  0  0  0  0
    5.0087    0.2965    0.0000 C   0  0  0  0  0  0  0  0  0
    5.0087    1.1215    0.0000 C   0  0  0  0  0  0  0  0  0
    5.7231    1.5340    0.0000 O   0  0  0  0  0  0  0  0  0
    5.7231    2.3590    0.0000 C   0  0  0  0  0  0  0  0  0
    5.0087    2.7715    0.0000 C   0  0  0  0  0  0  0  0  0
    4.2942    2.3590    0.0000 O   0  0  0  0  0  0  0  0  0
    4.2942    1.5340    0.0000 C   0  0  0  0  0  0  0  0  0
    5.0087    3.5965    0.0000 C   0  0  0  0  0  0  0  0  0
    5.7231    4.0090    0.0000 C   0  0  0  0  0  0  0  0  0
    6.4376    3.5965    0.0000 C   0  0  0  0  0  0  0  0  0
    6.4376    2.7715    0.0000 C   0  0  0  0  0  0  0  0  0
    7.1521    2.3590    0.0000 O   0  0  0  0  0  0  0  0  0
    7.1521    1.5340    0.0000 C   0  0  0  0  0  0  0  0  0
    7.8666    1.1215    0.0000 C   0  0  0  0  0  0  0  0  0
  1  2  4  0  0  0  0
  1  5  4  0  0  0  0
  2  3  4  0  0  0  0
  3  4  4  0  0  0  0
  3 10  1  0  0  0  0
  4  5  4  0  0  0  0
  4  9  4  0  0  0  0
  5  6  4  0  0  0  0
  6  7  4  0  0  0  0
  7  8  4  0  0  0  0
  8  9  4  0  0  0  0
 10 11  1  0  0  0  0
 10 12  1  0  0  0  0
 10 16  1  0  0  0  0
 12 13  1  0  0  0  0
 13 14  1  0  0  0  0
 13 18  1  0  0  0  0
 14 15  1  0  0  0  0
 14 19  1  0  0  0  0
 15 16  1  0  0  0  0
 15 17  1  0  0  0  0
 17 18  1  0  0  0  0
 19 20  1  0  0  0  0
 20 21  1  0  0  0  0
 20 25  1  0  0  0  0
 21 22  1  0  0  0  0
 22 23  4  0  0  0  0
 22 29  4  0  0  0  0
 23 24  1  0  0  0  0
 23 26  4  0  0  0  0
 24 25  1  0  0  0  0
 26 27  4  0  0  0  0
 27 28  4  0  0  0  0
 28 29  4  0  0  0  0
 29 30  1  0  0  0  0
 30 31  1  0  0  0  0
 31 32  1  0  0  0  0
M  END
>  <Name_Molregno>
247347

>  <5-HT1A>
7.78

$$$$
247785
  Marvin  02231216192D 0   1.00000     0.00000     0

 33 38  0  0  1  0  0  0  0  0999 V2000
   -0.6593   -2.1874    0.0000 O   0  0  0  0  0  0  0  0  0
    0.0938   -1.8507    0.0000 C   0  0  0  0  0  0  0  0  0
    0.1788   -1.0301    0.0000 C   0  0  0  0  0  0  0  0  0
   -0.4894   -0.5462    0.0000 O   0  0  0  0  0  0  0  0  0
   -1.2425   -0.8829    0.0000 C   0  0  0  0  0  0  0  0  0
   -1.3275   -1.7035    0.0000 C   0  0  0  0  0  0  0  0  0
   -2.0807   -2.0402    0.0000 C   0  0  0  0  0  0  0  0  0
   -2.7489   -1.5563    0.0000 N   0  0  0  0  0  0  0  0  0
   -3.4377   -1.3737    0.0000 C   0  0  0  0  0  0  0  0  0
   -4.2848   -1.7550    0.0000 C   0  0  0  0  0  0  0  0  0
   -4.7347   -1.0587    0.0000 C   0  0  0  0  0  0  0  0  0
   -5.5260   -1.2921    0.0000 O   0  0  0  0  0  0  0  0  0
   -4.0911   -1.2485    0.0000 C   0  0  0  0  0  0  0  0  0
   -3.1985   -0.8646    0.0000 C   0  0  0  0  0  0  0  0  0
   -3.0023   -0.0048    0.0000 C   0  0  0  0  0  0  0  0  0
   -3.4232   -0.5962    0.0000 C   0  0  0  0  0  0  0  0  0
   -4.7347   -0.2337    0.0000 C   0  0  0  0  0  0  0  0  0
   -4.0202    0.1788    0.0000 C   0  0  0  0  0  0  0  0  0
   -4.0202    1.0038    0.0000 C   0  0  0  0  0  0  0  0  0
   -4.7347    1.4163    0.0000 C   0  0  0  0  0  0  0  0  0
   -5.4492    1.0038    0.0000 C   0  0  0  0  0  0  0  0  0
   -5.4492    0.1788    0.0000 C   0  0  0  0  0  0  0  0  0
   -4.7347    2.2413    0.0000 C   0  0  0  0  0  0  0  0  0
   -4.0202    2.6538    0.0000 C   0  0  0  0  0  0  0  0  0
   -3.3057    2.2413    0.0000 C   0  0  0  0  0  0  0  0  0
   -3.3057    1.4163    0.0000 C   0  0  0  0  0  0  0  0  0
    0.9320   -0.6934    0.0000 C   0  0  0  0  0  0  0  0  0
    1.6001   -1.1773    0.0000 C   0  0  0  0  0  0  0  0  0
    1.5152   -1.9979    0.0000 C   0  0  0  0  0  0  0  0  0
    0.7620   -2.3346    0.0000 C   0  0  0  0  0  0  0  0  0
    0.6770   -3.1552    0.0000 O   0  0  0  0  0  0  0  0  0
   -0.0761   -3.4919    0.0000 C   0  0  0  0  0  0  0  0  0
   -0.1611   -4.3125    0.0000 C   0  0  0  0  0  0  0  0  0
  1  2  1  0  0  0  0
  1  6  1  0  0  0  0
  2  3  4  0  0  0  0
  2 30  4  0  0  0  0
  3  4  1  0  0  0  0
  3 27  4  0  0  0  0
  4  5  1  0  0  0  0
  5  6  1  0  0  0  0
  6  7  1  0  0  0  0
  7  8  1  0  0  0  0
  8  9  1  0  0  0  0
  8 14  1  0  0  0  0
  9 10  1  0  0  0  0
  9 16  1  0  0  0  0
 10 11  1  0  0  0  0
 11 12  1  0  0  0  0
 11 13  1  0  0  0  0
 11 17  1  0  0  0  0
 13 14  1  0  0  0  0
 14 15  1  0  0  0  0
 15 16  1  0  0  0  0
 17 18  4  0  0  0  0
 17 22  4  0  0  0  0
 18 19  4  0  0  0  0
 19 20  4  0  0  0  0
 19 26  4  0  0  0  0
 20 21  4  0  0  0  0
 20 23  4  0  0  0  0
 21 22  4  0  0  0  0
 23 24  4  0  0  0  0
 24 25  4  0  0  0  0
 25 26  4  0  0  0  0
 27 28  4  0  0  0  0
 28 29  4  0  0  0  0
 29 30  4  0  0  0  0
 30 31  1  0  0  0  0
 31 32  1  0  0  0  0
 32 33  1  0  0  0  0
M  END
>  <Name_Molregno>
247785

>  <5-HT1A>
8.23

$$$$
247814
  Marvin  02231216192D 0   1.00000     0.00000     0

 32 37  0  0  1  0  0  0  0  0999 V2000
   -0.7976   -2.2932    0.0000 O   0  0  0  0  0  0  0  0  0
   -0.0445   -1.9565    0.0000 C   0  0  0  0  0  0  0  0  0
    0.0405   -1.1359    0.0000 C   0  0  0  0  0  0  0  0  0
   -0.6277   -0.6520    0.0000 O   0  0  0  0  0  0  0  0  0
   -1.3809   -0.9887    0.0000 C   0  0  0  0  0  0  0  0  0
   -1.4658   -1.8093    0.0000 C   0  0  0  0  0  0  0  0  0
   -2.2190   -2.1460    0.0000 C   0  0  0  0  0  0  0  0  0
   -2.8872   -1.6621    0.0000 N   0  0  0  0  0  0  0  0  0
   -3.5760   -1.4795    0.0000 C   0  0  0  0  0  0  0  0  0
   -4.4231   -1.8607    0.0000 C   0  0  0  0  0  0  0  0  0
   -4.8730   -1.1645    0.0000 C   0  0  0  0  0  0  0  0  0
   -5.6643   -1.3979    0.0000 O   0  0  0  0  0  0  0  0  0
   -4.2294   -1.3543    0.0000 C   0  0  0  0  0  0  0  0  0
   -3.3368   -0.9704    0.0000 C   0  0  0  0  0  0  0  0  0
   -3.1406   -0.1106    0.0000 C   0  0  0  0  0  0  0  0  0
   -3.5615   -0.7019    0.0000 C   0  0  0  0  0  0  0  0  0
   -4.8730   -0.3395    0.0000 C   0  0  0  0  0  0  0  0  0
   -4.1585    0.0730    0.0000 C   0  0  0  0  0  0  0  0  0
   -4.1585    0.8980    0.0000 C   0  0  0  0  0  0  0  0  0
   -4.8730    1.3105    0.0000 C   0  0  0  0  0  0  0  0  0
   -5.5875    0.8980    0.0000 C   0  0  0  0  0  0  0  0  0
   -5.5875    0.0730    0.0000 C   0  0  0  0  0  0  0  0  0
   -4.8730    2.1355    0.0000 C   0  0  0  0  0  0  0  0  0
   -4.1585    2.5480    0.0000 C   0  0  0  0  0  0  0  0  0
   -3.4441    2.1355    0.0000 C   0  0  0  0  0  0  0  0  0
   -3.4441    1.3105    0.0000 C   0  0  0  0  0  0  0  0  0
    0.7936   -0.7991    0.0000 C   0  0  0  0  0  0  0  0  0
    1.4618   -1.2830    0.0000 C   0  0  0  0  0  0  0  0  0
    1.3769   -2.1037    0.0000 C   0  0  0  0  0  0  0  0  0
    0.6237   -2.4404    0.0000 C   0  0  0  0  0  0  0  0  0
    0.5387   -3.2610    0.0000 O   0  0  0  0  0  0  0  0  0
    1.2069   -3.7449    0.0000 C   0  0  0  0  0  0  0  0  0
  1  2  1  0  0  0  0
  1  6  1  0  0  0  0
  2  3  4  0  0  0  0
  2 30  4  0  0  0  0
  3  4  1  0  0  0  0
  3 27  4  0  0  0  0
  4  5  1  0  0  0  0
  5  6  1  0  0  0  0
  6  7  1  0  0  0  0
  7  8  1  0  0  0  0
  8  9  1  0  0  0  0
  8 14  1  0  0  0  0
  9 10  1  0  0  0  0
  9 16  1  0  0  0  0
 10 11  1  0  0  0  0
 11 12  1  0  0  0  0
 11 13  1  0  0  0  0
 11 17  1  0  0  0  0
 13 14  1  0  0  0  0
 14 15  1  0  0  0  0
 15 16  1  0  0  0  0
 17 18  4  0  0  0  0
 17 22  4  0  0  0  0
 18 19  4  0  0  0  0
 19 20  4  0  0  0  0
 19 26  4  0  0  0  0
 20 21  4  0  0  0  0
 20 23  4  0  0  0  0
 21 22  4  0  0  0  0
 23 24  4  0  0  0  0
 24 25  4  0  0  0  0
 25 26  4  0  0  0  0
 27 28  4  0  0  0  0
 28 29  4  0  0  0  0
 29 30  4  0  0  0  0
 30 31  1  0  0  0  0
 31 32  1  0  0  0  0
M  END
>  <Name_Molregno>
247814

>  <5-HT1A>
9.09

$$$$
247815
  Marvin  02231216192D 0   1.00000     0.00000     0

 28 32  0  0  1  0  0  0  0  0999 V2000
   -0.2677    0.4765    0.0000 O   0  0  0  0  0  0  0  0  0
   -0.2677    1.3015    0.0000 C   0  0  0  0  0  0  0  0  0
   -0.9822    1.7140    0.0000 C   0  0  0  0  0  0  0  0  0
   -1.6967    1.3015    0.0000 O   0  0  0  0  0  0  0  0  0
   -1.6967    0.4765    0.0000 C   0  0  0  0  0  0  0  0  0
   -0.9822    0.0640    0.0000 C   0  0  0  0  0  0  0  0  0
   -0.9822   -0.7610    0.0000 C   0  0  0  0  0  0  0  0  0
   -1.6967   -1.1735    0.0000 N   0  0  0  0  0  0  0  0  0
   -2.1445   -1.7277    0.0000 C   0  0  0  0  0  0  0  0  0
   -2.1422   -2.6567    0.0000 C   0  0  0  0  0  0  0  0  0
   -2.9614   -2.7832    0.0000 C   0  0  0  0  0  0  0  0  0
   -3.0713   -3.6009    0.0000 O   0  0  0  0  0  0  0  0  0
   -2.5255   -2.2732    0.0000 C   0  0  0  0  0  0  0  0  0
   -2.5117   -1.3016    0.0000 C   0  0  0  0  0  0  0  0  0
   -3.2165   -0.7716    0.0000 C   0  0  0  0  0  0  0  0  0
   -2.8484   -1.3972    0.0000 C   0  0  0  0  0  0  0  0  0
   -3.7146   -2.4465    0.0000 C   0  0  0  0  0  0  0  0  0
   -4.3828   -2.9304    0.0000 C   0  0  0  0  0  0  0  0  0
   -5.1359   -2.5937    0.0000 C   0  0  0  0  0  0  0  0  0
   -5.2209   -1.7731    0.0000 C   0  0  0  0  0  0  0  0  0
   -4.5527   -1.2892    0.0000 C   0  0  0  0  0  0  0  0  0
   -3.7996   -1.6259    0.0000 C   0  0  0  0  0  0  0  0  0
   -0.9822    2.5390    0.0000 C   0  0  0  0  0  0  0  0  0
   -0.2677    2.9515    0.0000 C   0  0  0  0  0  0  0  0  0
    0.4468    2.5390    0.0000 C   0  0  0  0  0  0  0  0  0
    0.4468    1.7140    0.0000 C   0  0  0  0  0  0  0  0  0
    1.1612    1.3015    0.0000 O   0  0  0  0  0  0  0  0  0
    1.8757    1.7140    0.0000 C   0  0  0  0  0  0  0  0  0
  1  2  1  0  0  0  0
  1  6  1  0  0  0  0
  2  3  4  0  0  0  0
  2 26  4  0  0  0  0
  3  4  1  0  0  0  0
  3 23  4  0  0  0  0
  4  5  1  0  0  0  0
  5  6  1  0  0  0  0
  6  7  1  0  0  0  0
  7  8  1  0  0  0  0
  8  9  1  0  0  0  0
  8 14  1  0  0  0  0
  9 10  1  0  0  0  0
  9 16  1  0  0  0  0
 10 11  1  0  0  0  0
 11 12  1  0  0  0  0
 11 13  1  0  0  0  0
 11 17  1  0  0  0  0
 13 14  1  0  0  0  0
 14 15  1  0  0  0  0
 15 16  1  0  0  0  0
 17 18  4  0  0  0  0
 17 22  4  0  0  0  0
 18 19  4  0  0  0  0
 19 20  4  0  0  0  0
 20 21  4  0  0  0  0
 21 22  4  0  0  0  0
 23 24  4  0  0  0  0
 24 25  4  0  0  0  0
 25 26  4  0  0  0  0
 26 27  1  0  0  0  0
 27 28  1  0  0  0  0
M  END
>  <Name_Molregno>
247815

>  <5-HT1A>
8.82

$$$$
247822
  Marvin  02231216192D 0   1.00000     0.00000     0

 31 36  0  0  1  0  0  0  0  0999 V2000
    3.1178   -3.8320    0.0000 S   0  0  0  0  0  0  0  0  0
    3.4749   -3.0883    0.0000 C   0  0  0  0  0  0  0  0  0
    2.8780   -2.5189    0.0000 C   0  0  0  0  0  0  0  0  0
    2.1519   -2.9106    0.0000 C   0  0  0  0  0  0  0  0  0
    2.3001   -3.7222    0.0000 C   0  0  0  0  0  0  0  0  0
    1.6714   -4.2563    0.0000 C   0  0  0  0  0  0  0  0  0
    0.8944   -3.9788    0.0000 C   0  0  0  0  0  0  0  0  0
    0.7462   -3.1672    0.0000 C   0  0  0  0  0  0  0  0  0
    1.3750   -2.6331    0.0000 C   0  0  0  0  0  0  0  0  0
    2.9879   -1.7012    0.0000 C   0  0  0  0  0  0  0  0  0
    2.2347   -1.3645    0.0000 O   0  0  0  0  0  0  0  0  0
    3.8071   -1.5746    0.0000 C   0  0  0  0  0  0  0  0  0
    3.8048   -0.6457    0.0000 C   0  0  0  0  0  0  0  0  0
    4.2527   -0.0914    0.0000 N   0  0  0  0  0  0  0  0  0
    3.4377   -0.2195    0.0000 C   0  0  0  0  0  0  0  0  0
    3.4239   -1.1912    0.0000 C   0  0  0  0  0  0  0  0  0
    2.7328    0.3104    0.0000 C   0  0  0  0  0  0  0  0  0
    3.1009   -0.3152    0.0000 C   0  0  0  0  0  0  0  0  0
    4.9671    0.3211    0.0000 C   0  0  0  0  0  0  0  0  0
    4.9671    1.1461    0.0000 C   0  0  0  0  0  0  0  0  0
    5.6816    1.5586    0.0000 O   0  0  0  0  0  0  0  0  0
    5.6816    2.3836    0.0000 C   0  0  0  0  0  0  0  0  0
    4.9671    2.7961    0.0000 C   0  0  0  0  0  0  0  0  0
    4.2527    2.3836    0.0000 O   0  0  0  0  0  0  0  0  0
    4.2527    1.5586    0.0000 C   0  0  0  0  0  0  0  0  0
    4.9671    3.6211    0.0000 C   0  0  0  0  0  0  0  0  0
    5.6816    4.0336    0.0000 C   0  0  0  0  0  0  0  0  0
    6.3961    3.6211    0.0000 C   0  0  0  0  0  0  0  0  0
    6.3961    2.7961    0.0000 C   0  0  0  0  0  0  0  0  0
    7.1105    2.3836    0.0000 O   0  0  0  0  0  0  0  0  0
    7.8250    2.7961    0.0000 C   0  0  0  0  0  0  0  0  0
  1  2  4  0  0  0  0
  1  5  4  0  0  0  0
  2  3  4  0  0  0  0
  3  4  4  0  0  0  0
  3 10  1  0  0  0  0
  4  5  4  0  0  0  0
  4  9  4  0  0  0  0
  5  6  4  0  0  0  0
  6  7  4  0  0  0  0
  7  8  4  0  0  0  0
  8  9  4  0  0  0  0
 10 11  1  0  0  0  0
 10 12  1  0  0  0  0
 10 16  1  0  0  0  0
 12 13  1  0  0  0  0
 13 14  1  0  0  0  0
 13 18  1  0  0  0  0
 14 15  1  0  0  0  0
 14 19  1  0  0  0  0
 15 16  1  0  0  0  0
 15 17  1  0  0  0  0
 17 18  1  0  0  0  0
 19 20  1  0  0  0  0
 20 21  1  0  0  0  0
 20 25  1  0  0  0  0
 21 22  1  0  0  0  0
 22 23  4  0  0  0  0
 22 29  4  0  0  0  0
 23 24  1  0  0  0  0
 23 26  4  0  0  0  0
 24 25  1  0  0  0  0
 26 27  4  0  0  0  0
 27 28  4  0  0  0  0
 28 29  4  0  0  0  0
 29 30  1  0  0  0  0
 30 31  1  0  0  0  0
M  END
>  <Name_Molregno>
247822

>  <5-HT1A>
8.8

$$$$
247826
  Marvin  02231216192D 0   1.00000     0.00000     0

 31 36  0  0  1  0  0  0  0  0999 V2000
    2.9940   -4.6957    0.0000 F   0  0  0  0  0  0  0  0  0
    3.2608   -3.9151    0.0000 C   0  0  0  0  0  0  0  0  0
    2.7182   -3.2937    0.0000 C   0  0  0  0  0  0  0  0  0
    2.9850   -2.5130    0.0000 C   0  0  0  0  0  0  0  0  0
    3.7945   -2.3538    0.0000 C   0  0  0  0  0  0  0  0  0
    3.8932   -1.5347    0.0000 N   0  0  0  0  0  0  0  0  0
    3.1447   -1.1877    0.0000 C   0  0  0  0  0  0  0  0  0
    2.5834   -1.7924    0.0000 C   0  0  0  0  0  0  0  0  0
    4.6138   -1.1331    0.0000 C   0  0  0  0  0  0  0  0  0
    5.4331   -1.0065    0.0000 C   0  0  0  0  0  0  0  0  0
    5.4308   -0.0776    0.0000 C   0  0  0  0  0  0  0  0  0
    5.8786    0.4767    0.0000 N   0  0  0  0  0  0  0  0  0
    5.0636    0.3486    0.0000 C   0  0  0  0  0  0  0  0  0
    5.0498   -0.6230    0.0000 C   0  0  0  0  0  0  0  0  0
    4.3588    0.8785    0.0000 C   0  0  0  0  0  0  0  0  0
    4.7268    0.2529    0.0000 C   0  0  0  0  0  0  0  0  0
    6.5931    0.8892    0.0000 C   0  0  0  0  0  0  0  0  0
    6.5931    1.7142    0.0000 C   0  0  0  0  0  0  0  0  0
    7.3076    2.1267    0.0000 O   0  0  0  0  0  0  0  0  0
    7.3076    2.9517    0.0000 C   0  0  0  0  0  0  0  0  0
    6.5931    3.3642    0.0000 C   0  0  0  0  0  0  0  0  0
    5.8786    2.9517    0.0000 O   0  0  0  0  0  0  0  0  0
    5.8786    2.1267    0.0000 C   0  0  0  0  0  0  0  0  0
    6.5931    4.1892    0.0000 C   0  0  0  0  0  0  0  0  0
    7.3076    4.6017    0.0000 C   0  0  0  0  0  0  0  0  0
    8.0220    4.1892    0.0000 C   0  0  0  0  0  0  0  0  0
    8.0220    3.3642    0.0000 C   0  0  0  0  0  0  0  0  0
    8.7365    2.9517    0.0000 O   0  0  0  0  0  0  0  0  0
    9.4510    3.3642    0.0000 C   0  0  0  0  0  0  0  0  0
    4.3371   -2.9752    0.0000 C   0  0  0  0  0  0  0  0  0
    4.0703   -3.7558    0.0000 C   0  0  0  0  0  0  0  0  0
  1  2  1  0  0  0  0
  2  3  4  0  0  0  0
  2 31  4  0  0  0  0
  3  4  4  0  0  0  0
  4  5  4  0  0  0  0
  4  8  4  0  0  0  0
  5  6  4  0  0  0  0
  5 30  4  0  0  0  0
  6  7  4  0  0  0  0
  6  9  1  0  0  0  0
  7  8  4  0  0  0  0
  9 10  1  0  0  0  0
  9 14  2  0  0  0  0
 10 11  1  0  0  0  0
 11 12  1  0  0  0  0
 11 16  1  0  0  0  0
 12 13  1  0  0  0  0
 12 17  1  0  0  0  0
 13 14  1  0  0  0  0
 13 15  1  0  0  0  0
 15 16  1  0  0  0  0
 17 18  1  0  0  0  0
 18 19  1  0  0  0  0
 18 23  1  0  0  0  0
 19 20  1  0  0  0  0
 20 21  4  0  0  0  0
 20 27  4  0  0  0  0
 21 22  1  0  0  0  0
 21 24  4  0  0  0  0
 22 23  1  0  0  0  0
 24 25  4  0  0  0  0
 25 26  4  0  0  0  0
 26 27  4  0  0  0  0
 27 28  1  0  0  0  0
 28 29  1  0  0  0  0
 30 31  4  0  0  0  0
M  END
>  <Name_Molregno>
247826

>  <5-HT1A>
6.89

$$$$
247872
  Marvin  02231216192D 0   1.00000     0.00000     0

 33 37  0  0  1  0  0  0  0  0999 V2000
    0.9976   -1.4745    0.0000 F   0  0  0  0  0  0  0  0  0
    1.7607   -1.1608    0.0000 C   0  0  0  0  0  0  0  0  0
    2.0743   -1.9238    0.0000 F   0  0  0  0  0  0  0  0  0
    1.4470   -0.3978    0.0000 F   0  0  0  0  0  0  0  0  0
    2.5237   -0.8471    0.0000 C   0  0  0  0  0  0  0  0  0
    2.6336   -0.0295    0.0000 C   0  0  0  0  0  0  0  0  0
    3.3966    0.2842    0.0000 C   0  0  0  0  0  0  0  0  0
    4.0498   -0.2198    0.0000 C   0  0  0  0  0  0  0  0  0
    3.9399   -1.0374    0.0000 C   0  0  0  0  0  0  0  0  0
    3.1769   -1.3511    0.0000 C   0  0  0  0  0  0  0  0  0
    3.5065    1.1019    0.0000 C   0  0  0  0  0  0  0  0  0
    2.7533    1.4386    0.0000 O   0  0  0  0  0  0  0  0  0
    4.3258    1.2284    0.0000 C   0  0  0  0  0  0  0  0  0
    4.3235    2.1574    0.0000 C   0  0  0  0  0  0  0  0  0
    4.7713    2.7117    0.0000 N   0  0  0  0  0  0  0  0  0
    3.9563    2.5835    0.0000 C   0  0  0  0  0  0  0  0  0
    3.9425    1.6119    0.0000 C   0  0  0  0  0  0  0  0  0
    3.2514    3.1135    0.0000 C   0  0  0  0  0  0  0  0  0
    3.6195    2.4879    0.0000 C   0  0  0  0  0  0  0  0  0
    5.4857    3.1242    0.0000 C   0  0  0  0  0  0  0  0  0
    5.4857    3.9492    0.0000 C   0  0  0  0  0  0  0  0  0
    6.2002    4.3617    0.0000 O   0  0  0  0  0  0  0  0  0
    6.2002    5.1867    0.0000 C   0  0  0  0  0  0  0  0  0
    5.4857    5.5992    0.0000 C   0  0  0  0  0  0  0  0  0
    4.7713    5.1867    0.0000 O   0  0  0  0  0  0  0  0  0
    4.7713    4.3617    0.0000 C   0  0  0  0  0  0  0  0  0
    5.4857    6.4242    0.0000 C   0  0  0  0  0  0  0  0  0
    6.2002    6.8367    0.0000 C   0  0  0  0  0  0  0  0  0
    6.9147    6.4242    0.0000 C   0  0  0  0  0  0  0  0  0
    6.9147    5.5992    0.0000 C   0  0  0  0  0  0  0  0  0
    7.6292    5.1867    0.0000 O   0  0  0  0  0  0  0  0  0
    7.6292    4.3617    0.0000 C   0  0  0  0  0  0  0  0  0
    8.3436    3.9492    0.0000 C   0  0  0  0  0  0  0  0  0
  1  2  1  0  0  0  0
  2  3  1  0  0  0  0
  2  4  1  0  0  0  0
  2  5  1  0  0  0  0
  5  6  4  0  0  0  0
  5 10  4  0  0  0  0
  6  7  4  0  0  0  0
  7  8  4  0  0  0  0
  7 11  1  0  0  0  0
  8  9  4  0  0  0  0
  9 10  4  0  0  0  0
 11 12  1  0  0  0  0
 11 13  1  0  0  0  0
 11 17  1  0  0  0  0
 13 14  1  0  0  0  0
 14 15  1  0  0  0  0
 14 19  1  0  0  0  0
 15 16  1  0  0  0  0
 15 20  1  0  0  0  0
 16 17  1  0  0  0  0
 16 18  1  0  0  0  0
 18 19  1  0  0  0  0
 20 21  1  0  0  0  0
 21 22  1  0  0  0  0
 21 26  1  0  0  0  0
 22 23  1  0  0  0  0
 23 24  4  0  0  0  0
 23 30  4  0  0  0  0
 24 25  1  0  0  0  0
 24 27  4  0  0  0  0
 25 26  1  0  0  0  0
 27 28  4  0  0  0  0
 28 29  4  0  0  0  0
 29 30  4  0  0  0  0
 30 31  1  0  0  0  0
 31 32  1  0  0  0  0
 32 33  1  0  0  0  0
M  END
>  <Name_Molregno>
247872

>  <5-HT1A>
8.53

$$$$
247873
  Marvin  02231216192D 0   1.00000     0.00000     0

 29 33  0  0  1  0  0  0  0  0999 V2000
   -0.2129    0.5025    0.0000 O   0  0  0  0  0  0  0  0  0
   -0.2129    1.3275    0.0000 C   0  0  0  0  0  0  0  0  0
   -0.9274    1.7400    0.0000 C   0  0  0  0  0  0  0  0  0
   -1.6419    1.3275    0.0000 O   0  0  0  0  0  0  0  0  0
   -1.6419    0.5025    0.0000 C   0  0  0  0  0  0  0  0  0
   -0.9274    0.0900    0.0000 C   0  0  0  0  0  0  0  0  0
   -0.9274   -0.7350    0.0000 C   0  0  0  0  0  0  0  0  0
   -1.6419   -1.1475    0.0000 N   0  0  0  0  0  0  0  0  0
   -2.0897   -1.7018    0.0000 C   0  0  0  0  0  0  0  0  0
   -2.0874   -2.6307    0.0000 C   0  0  0  0  0  0  0  0  0
   -2.9067   -2.7573    0.0000 C   0  0  0  0  0  0  0  0  0
   -3.0165   -3.5750    0.0000 O   0  0  0  0  0  0  0  0  0
   -2.4707   -2.2472    0.0000 C   0  0  0  0  0  0  0  0  0
   -2.4569   -1.2756    0.0000 C   0  0  0  0  0  0  0  0  0
   -3.1617   -0.7457    0.0000 C   0  0  0  0  0  0  0  0  0
   -2.7937   -1.3713    0.0000 C   0  0  0  0  0  0  0  0  0
   -3.6598   -2.4206    0.0000 C   0  0  0  0  0  0  0  0  0
   -4.3280   -2.9045    0.0000 N   0  0  0  0  0  0  0  0  0
   -5.0812   -2.5678    0.0000 C   0  0  0  0  0  0  0  0  0
   -5.1661   -1.7472    0.0000 C   0  0  0  0  0  0  0  0  0
   -4.4979   -1.2633    0.0000 C   0  0  0  0  0  0  0  0  0
   -3.7448   -1.6000    0.0000 C   0  0  0  0  0  0  0  0  0
   -0.9274    2.5650    0.0000 C   0  0  0  0  0  0  0  0  0
   -0.2129    2.9775    0.0000 C   0  0  0  0  0  0  0  0  0
    0.5016    2.5650    0.0000 C   0  0  0  0  0  0  0  0  0
    0.5016    1.7400    0.0000 C   0  0  0  0  0  0  0  0  0
    1.2160    1.3275    0.0000 O   0  0  0  0  0  0  0  0  0
    1.2160    0.5025    0.0000 C   0  0  0  0  0  0  0  0  0
    1.9305    0.0900    0.0000 C   0  0  0  0  0  0  0  0  0
  1  2  1  0  0  0  0
  1  6  1  0  0  0  0
  2  3  4  0  0  0  0
  2 26  4  0  0  0  0
  3  4  1  0  0  0  0
  3 23  4  0  0  0  0
  4  5  1  0  0  0  0
  5  6  1  0  0  0  0
  6  7  1  0  0  0  0
  7  8  1  0  0  0  0
  8  9  1  0  0  0  0
  8 14  1  0  0  0  0
  9 10  1  0  0  0  0
  9 16  1  0  0  0  0
 10 11  1  0  0  0  0
 11 12  1  0  0  0  0
 11 13  1  0  0  0  0
 11 17  1  0  0  0  0
 13 14  1  0  0  0  0
 14 15  1  0  0  0  0
 15 16  1  0  0  0  0
 17 18  4  0  0  0  0
 17 22  4  0  0  0  0
 18 19  4  0  0  0  0
 19 20  4  0  0  0  0
 20 21  4  0  0  0  0
 21 22  4  0  0  0  0
 23 24  4  0  0  0  0
 24 25  4  0  0  0  0
 25 26  4  0  0  0  0
 26 27  1  0  0  0  0
 27 28  1  0  0  0  0
 28 29  1  0  0  0  0
M  END
>  <Name_Molregno>
247873

>  <5-HT1A>
7.21

$$$$
247895
  Marvin  02231216192D 0   1.00000     0.00000     0

 31 36  0  0  1  0  0  0  0  0999 V2000
   -4.1899   -2.3190    0.0000 O   0  0  0  0  0  0  0  0  0
   -4.1773   -3.1439    0.0000 C   0  0  0  0  0  0  0  0  0
   -3.4567   -3.5455    0.0000 C   0  0  0  0  0  0  0  0  0
   -2.7486   -3.1222    0.0000 O   0  0  0  0  0  0  0  0  0
   -2.7611   -2.2973    0.0000 C   0  0  0  0  0  0  0  0  0
   -3.4818   -1.8957    0.0000 C   0  0  0  0  0  0  0  0  0
   -3.4943   -1.0708    0.0000 C   0  0  0  0  0  0  0  0  0
   -2.7862   -0.6475    0.0000 N   0  0  0  0  0  0  0  0  0
   -2.3468   -0.0865    0.0000 C   0  0  0  0  0  0  0  0  0
   -2.3632    0.8423    0.0000 C   0  0  0  0  0  0  0  0  0
   -1.5460    0.9813    0.0000 C   0  0  0  0  0  0  0  0  0
   -1.9742    0.4647    0.0000 C   0  0  0  0  0  0  0  0  0
   -1.9732   -0.5070    0.0000 C   0  0  0  0  0  0  0  0  0
   -1.2604   -1.0262    0.0000 C   0  0  0  0  0  0  0  0  0
   -1.6379   -0.4063    0.0000 C   0  0  0  0  0  0  0  0  0
   -0.8315    1.3938    0.0000 C   0  0  0  0  0  0  0  0  0
   -0.8315    2.2188    0.0000 C   0  0  0  0  0  0  0  0  0
   -1.5460    2.6313    0.0000 N   0  0  0  0  0  0  0  0  0
   -1.5460    3.4563    0.0000 C   0  0  0  0  0  0  0  0  0
   -0.8315    3.8688    0.0000 C   0  0  0  0  0  0  0  0  0
   -0.1170    3.4563    0.0000 C   0  0  0  0  0  0  0  0  0
   -0.1170    2.6313    0.0000 C   0  0  0  0  0  0  0  0  0
    0.5974    2.2188    0.0000 C   0  0  0  0  0  0  0  0  0
    0.5974    1.3938    0.0000 C   0  0  0  0  0  0  0  0  0
   -0.1170    0.9813    0.0000 C   0  0  0  0  0  0  0  0  0
   -3.4442   -4.3704    0.0000 C   0  0  0  0  0  0  0  0  0
   -4.1523   -4.7937    0.0000 C   0  0  0  0  0  0  0  0  0
   -4.8729   -4.3921    0.0000 C   0  0  0  0  0  0  0  0  0
   -4.8855   -3.5672    0.0000 C   0  0  0  0  0  0  0  0  0
   -5.6061   -3.1656    0.0000 O   0  0  0  0  0  0  0  0  0
   -6.3142   -3.5889    0.0000 C   0  0  0  0  0  0  0  0  0
  1  2  1  0  0  0  0
  1  6  1  0  0  0  0
  2  3  4  0  0  0  0
  2 29  4  0  0  0  0
  3  4  1  0  0  0  0
  3 26  4  0  0  0  0
  4  5  1  0  0  0  0
  5  6  1  0  0  0  0
  6  7  1  0  0  0  0
  7  8  1  0  0  0  0
  8  9  1  0  0  0  0
  8 13  1  0  0  0  0
  9 10  1  0  0  0  0
  9 15  1  0  0  0  0
 10 11  1  0  0  0  0
 11 12  2  0  0  0  0
 11 16  1  0  0  0  0
 12 13  1  0  0  0  0
 13 14  1  0  0  0  0
 14 15  1  0  0  0  0
 16 17  4  0  0  0  0
 16 25  4  0  0  0  0
 17 18  4  0  0  0  0
 17 22  4  0  0  0  0
 18 19  4  0  0  0  0
 19 20  4  0  0  0  0
 20 21  4  0  0  0  0
 21 22  4  0  0  0  0
 22 23  4  0  0  0  0
 23 24  4  0  0  0  0
 24 25  4  0  0  0  0
 26 27  4  0  0  0  0
 27 28  4  0  0  0  0
 28 29  4  0  0  0  0
 29 30  1  0  0  0  0
 30 31  1  0  0  0  0
M  END
>  <Name_Molregno>
247895

>  <5-HT1A>
6.51

$$$$
247909
  Marvin  02231216192D 0   1.00000     0.00000     0

 28 32  0  0  1  0  0  0  0  0999 V2000
   -0.2677    0.4765    0.0000 O   0  0  0  0  0  0  0  0  0
   -0.2677    1.3015    0.0000 C   0  0  0  0  0  0  0  0  0
   -0.9822    1.7140    0.0000 C   0  0  0  0  0  0  0  0  0
   -1.6967    1.3015    0.0000 O   0  0  0  0  0  0  0  0  0
   -1.6967    0.4765    0.0000 C   0  0  0  0  0  0  0  0  0
   -0.9822    0.0640    0.0000 C   0  0  0  0  0  0  0  0  0
   -0.9822   -0.7610    0.0000 C   0  0  0  0  0  0  0  0  0
   -1.6967   -1.1735    0.0000 N   0  0  0  0  0  0  0  0  0
   -2.1445   -1.7277    0.0000 C   0  0  0  0  0  0  0  0  0
   -2.1422   -2.6567    0.0000 C   0  0  0  0  0  0  0  0  0
   -2.9614   -2.7832    0.0000 C   0  0  0  0  0  0  0  0  0
   -3.0713   -3.6009    0.0000 O   0  0  0  0  0  0  0  0  0
   -2.5255   -2.2732    0.0000 C   0  0  0  0  0  0  0  0  0
   -2.5117   -1.3016    0.0000 C   0  0  0  0  0  0  0  0  0
   -3.2165   -0.7716    0.0000 C   0  0  0  0  0  0  0  0  0
   -2.8484   -1.3972    0.0000 C   0  0  0  0  0  0  0  0  0
   -3.7146   -2.4465    0.0000 C   0  0  0  0  0  0  0  0  0
   -4.3828   -2.9304    0.0000 N   0  0  0  0  0  0  0  0  0
   -5.1359   -2.5937    0.0000 C   0  0  0  0  0  0  0  0  0
   -5.2209   -1.7731    0.0000 C   0  0  0  0  0  0  0  0  0
   -4.5527   -1.2892    0.0000 C   0  0  0  0  0  0  0  0  0
   -3.7996   -1.6259    0.0000 C   0  0  0  0  0  0  0  0  0
   -0.9822    2.5390    0.0000 C   0  0  0  0  0  0  0  0  0
   -0.2677    2.9515    0.0000 C   0  0  0  0  0  0  0  0  0
    0.4468    2.5390    0.0000 C   0  0  0  0  0  0  0  0  0
    0.4468    1.7140    0.0000 C   0  0  0  0  0  0  0  0  0
    1.1612    1.3015    0.0000 O   0  0  0  0  0  0  0  0  0
    1.8757    1.7140    0.0000 C   0  0  0  0  0  0  0  0  0
  1  2  1  0  0  0  0
  1  6  1  0  0  0  0
  2  3  4  0  0  0  0
  2 26  4  0  0  0  0
  3  4  1  0  0  0  0
  3 23  4  0  0  0  0
  4  5  1  0  0  0  0
  5  6  1  0  0  0  0
  6  7  1  0  0  0  0
  7  8  1  0  0  0  0
  8  9  1  0  0  0  0
  8 14  1  0  0  0  0
  9 10  1  0  0  0  0
  9 16  1  0  0  0  0
 10 11  1  0  0  0  0
 11 12  1  0  0  0  0
 11 13  1  0  0  0  0
 11 17  1  0  0  0  0
 13 14  1  0  0  0  0
 14 15  1  0  0  0  0
 15 16  1  0  0  0  0
 17 18  4  0  0  0  0
 17 22  4  0  0  0  0
 18 19  4  0  0  0  0
 19 20  4  0  0  0  0
 20 21  4  0  0  0  0
 21 22  4  0  0  0  0
 23 24  4  0  0  0  0
 24 25  4  0  0  0  0
 25 26  4  0  0  0  0
 26 27  1  0  0  0  0
 27 28  1  0  0  0  0
M  END
>  <Name_Molregno>
247909

>  <5-HT1A>
7.34

$$$$
248112
  Marvin  02231216192D 0   1.00000     0.00000     0

 31 36  0  0  1  0  0  0  0  0999 V2000
   -0.2046   -1.6372    0.0000 O   0  0  0  0  0  0  0  0  0
    0.5036   -1.2139    0.0000 C   0  0  0  0  0  0  0  0  0
    0.4910   -0.3890    0.0000 C   0  0  0  0  0  0  0  0  0
   -0.2296    0.0126    0.0000 O   0  0  0  0  0  0  0  0  0
   -0.9377   -0.4107    0.0000 C   0  0  0  0  0  0  0  0  0
   -0.9252   -1.2356    0.0000 C   0  0  0  0  0  0  0  0  0
   -1.6333   -1.6589    0.0000 C   0  0  0  0  0  0  0  0  0
   -2.3540   -1.2573    0.0000 N   0  0  0  0  0  0  0  0  0
   -3.0595   -1.1573    0.0000 C   0  0  0  0  0  0  0  0  0
   -3.8557   -1.6359    0.0000 C   0  0  0  0  0  0  0  0  0
   -4.3847   -0.9977    0.0000 C   0  0  0  0  0  0  0  0  0
   -3.7232   -1.1102    0.0000 C   0  0  0  0  0  0  0  0  0
   -2.8821   -0.6235    0.0000 C   0  0  0  0  0  0  0  0  0
   -2.7889    0.2534    0.0000 C   0  0  0  0  0  0  0  0  0
   -3.1370   -0.3835    0.0000 C   0  0  0  0  0  0  0  0  0
   -5.0992   -0.5852    0.0000 C   0  0  0  0  0  0  0  0  0
   -5.0992    0.2398    0.0000 C   0  0  0  0  0  0  0  0  0
   -5.8136    0.6523    0.0000 C   0  0  0  0  0  0  0  0  0
   -6.5281    0.2398    0.0000 C   0  0  0  0  0  0  0  0  0
   -6.5281   -0.5852    0.0000 C   0  0  0  0  0  0  0  0  0
   -5.8136   -0.9977    0.0000 C   0  0  0  0  0  0  0  0  0
   -5.8136    1.4773    0.0000 C   0  0  0  0  0  0  0  0  0
   -5.0992    1.8898    0.0000 C   0  0  0  0  0  0  0  0  0
   -4.3847    1.4773    0.0000 C   0  0  0  0  0  0  0  0  0
   -4.3847    0.6523    0.0000 C   0  0  0  0  0  0  0  0  0
    1.1992    0.0343    0.0000 C   0  0  0  0  0  0  0  0  0
    1.9198   -0.3673    0.0000 C   0  0  0  0  0  0  0  0  0
    1.9323   -1.1922    0.0000 C   0  0  0  0  0  0  0  0  0
    1.2242   -1.6155    0.0000 C   0  0  0  0  0  0  0  0  0
    1.2368   -2.4404    0.0000 O   0  0  0  0  0  0  0  0  0
    1.9574   -2.8420    0.0000 C   0  0  0  0  0  0  0  0  0
  1  2  1  0  0  0  0
  1  6  1  0  0  0  0
  2  3  4  0  0  0  0
  2 29  4  0  0  0  0
  3  4  1  0  0  0  0
  3 26  4  0  0  0  0
  4  5  1  0  0  0  0
  5  6  1  0  0  0  0
  6  7  1  0  0  0  0
  7  8  1  0  0  0  0
  8  9  1  0  0  0  0
  8 13  1  0  0  0  0
  9 10  1  0  0  0  0
  9 15  1  0  0  0  0
 10 11  1  0  0  0  0
 11 12  2  0  0  0  0
 11 16  1  0  0  0  0
 12 13  1  0  0  0  0
 13 14  1  0  0  0  0
 14 15  1  0  0  0  0
 16 17  4  0  0  0  0
 16 21  4  0  0  0  0
 17 18  4  0  0  0  0
 17 25  4  0  0  0  0
 18 19  4  0  0  0  0
 18 22  4  0  0  0  0
 19 20  4  0  0  0  0
 20 21  4  0  0  0  0
 22 23  4  0  0  0  0
 23 24  4  0  0  0  0
 24 25  4  0  0  0  0
 26 27  4  0  0  0  0
 27 28  4  0  0  0  0
 28 29  4  0  0  0  0
 29 30  1  0  0  0  0
 30 31  1  0  0  0  0
M  END
>  <Name_Molregno>
248112

>  <5-HT1A>
6.45

$$$$
259724
  Marvin  02231216192D 0   1.00000     0.00000     0

 18 20  0  0  1  0  0  0  0  0999 V2000
    0.3094   -0.9505    0.0000 N   0  0  0  0  0  0  0  0  0
    1.0239   -0.5380    0.0000 C   0  0  0  0  0  0  0  0  0
    1.7384   -0.9505    0.0000 C   0  0  0  0  0  0  0  0  0
    2.4528   -0.5380    0.0000 C   0  0  0  0  0  0  0  0  0
    2.4528    0.2870    0.0000 C   0  0  0  0  0  0  0  0  0
    3.1673    0.6995    0.0000 N   0  0  0  0  0  0  0  0  0
    3.8818    0.2870    0.0000 C   0  0  0  0  0  0  0  0  0
    3.8818   -0.5380    0.0000 C   0  0  0  0  0  0  0  0  0
    3.1673   -0.9505    0.0000 C   0  0  0  0  0  0  0  0  0
    3.1673    1.5245    0.0000 C   0  0  0  0  0  0  0  0  0
    3.8818    1.9370    0.0000 C   0  0  0  0  0  0  0  0  0
    3.8818    2.7620    0.0000 C   0  0  0  0  0  0  0  0  0
    1.7384    0.6995    0.0000 C   0  0  0  0  0  0  0  0  0
    1.0239    0.2870    0.0000 C   0  0  0  0  0  0  0  0  0
    0.3094    0.6995    0.0000 C   0  0  0  0  0  0  0  0  0
   -0.4050    0.2870    0.0000 N   0  0  0  0  0  0  0  0  0
   -0.4050   -0.5380    0.0000 C   0  0  0  0  0  0  0  0  0
   -1.1195   -0.9505    0.0000 N   0  0  0  0  0  0  0  0  0
  1  2  4  0  0  0  0
  1 17  4  0  0  0  0
  2  3  1  0  0  0  0
  2 14  4  0  0  0  0
  3  4  1  0  0  0  0
  4  5  1  0  0  0  0
  4  9  1  0  0  0  0
  5  6  1  0  0  0  0
  5 13  1  0  0  0  0
  6  7  1  0  0  0  0
  6 10  1  0  0  0  0
  7  8  1  0  0  0  0
  8  9  1  0  0  0  0
 10 11  1  0  0  0  0
 11 12  1  0  0  0  0
 13 14  1  0  0  0  0
 14 15  4  0  0  0  0
 15 16  4  0  0  0  0
 16 17  4  0  0  0  0
 17 18  1  0  0  0  0
M  END
>  <Name_Molregno>
259724

>  <5-HT1A>
5

>  <5-HT1B>
5

>  <5-HT1D>
5

>  <5-HT2A>
5

>  <5-HT2C>
5.58

>  <Alpha-1A>
5

>  <Alpha-1B>
5

>  <Alpha-2A>
5

>  <Alpha-2B>
5

>  <Alpha-2C>
5

>  <Beta-1>
5

>  <Beta-2>
5

>  <DOPAMINE D1>
5

>  <DOPAMINE D2>
6.33

>  <DOPAMINE D3>
8.65

>  <DOPAMINE D4>
7.72

>  <DOPAMINE D5>
5

$$$$
263562
  Marvin  02231216192D 0   1.00000     0.00000     0

 14 16  0  0  1  0  0  0  0  0999 V2000
   -0.4358    0.0336    0.0000 N   0  0  0  0  0  0  0  0  0
   -1.1483   -0.3789    0.0000 C   0  0  0  0  0  0  0  0  0
   -1.1483   -1.2039    0.0000 C   0  0  0  0  0  0  0  0  0
   -1.8630   -1.6160    0.0000 N   0  0  0  0  0  0  0  0  0
   -1.8635   -2.4410    0.0000 C   0  0  0  0  0  0  0  0  0
   -0.4358   -1.6164    0.0000 C   0  0  0  0  0  0  0  0  0
    0.2767   -1.2039    0.0000 C   0  0  0  0  0  0  0  0  0
    0.2767   -0.3789    0.0000 C   0  0  0  0  0  0  0  0  0
    0.9946    0.0336    0.0000 C   0  0  0  0  0  0  0  0  0
    0.6892    0.8907    0.0000 N   0  0  0  0  0  0  0  0  0
   -0.1358    0.8907    0.0000 C   0  0  0  0  0  0  0  0  0
    1.7071   -0.3789    0.0000 C   0  0  0  0  0  0  0  0  0
    1.7071   -1.2039    0.0000 C   0  0  0  0  0  0  0  0  0
    0.9946   -1.6164    0.0000 C   0  0  0  0  0  0  0  0  0
  1  2  1  0  0  0  0
  1  8  4  0  0  0  0
  1 11  4  0  0  0  0
  2  3  1  0  0  0  0
  3  4  1  0  0  0  0
  3  6  1  0  0  0  0
  4  5  1  0  0  0  0
  6  7  1  0  0  0  0
  7  8  4  0  0  0  0
  7 14  4  0  0  0  0
  8  9  4  0  0  0  0
  9 10  4  0  0  0  0
  9 12  4  0  0  0  0
 10 11  4  0  0  0  0
 12 13  4  0  0  0  0
 13 14  4  0  0  0  0
M  END
>  <Name_Molregno>
263562

>  <5-HT1A>
5.49

>  <DOPAMINE D2>
6.45

>  <DOPAMINE D3>
5.61

$$$$
263586
  Marvin  02231216192D 0   1.00000     0.00000     0

 17 19  0  0  1  0  0  0  0  0999 V2000
   -2.3056    1.3337    0.0000 O   0  0  0  0  0  0  0  0  0
   -1.8282    0.6609    0.0000 C   0  0  0  0  0  0  0  0  0
   -2.1282   -0.1963    0.0000 N   0  0  0  0  0  0  0  0  0
   -2.8407   -0.6088    0.0000 C   0  0  0  0  0  0  0  0  0
   -2.8407   -1.4338    0.0000 C   0  0  0  0  0  0  0  0  0
   -3.5554   -1.8459    0.0000 N   0  0  0  0  0  0  0  0  0
   -3.5559   -2.6709    0.0000 C   0  0  0  0  0  0  0  0  0
   -4.2706   -3.0829    0.0000 C   0  0  0  0  0  0  0  0  0
   -4.2711   -3.9079    0.0000 C   0  0  0  0  0  0  0  0  0
   -2.1282   -1.8463    0.0000 C   0  0  0  0  0  0  0  0  0
   -1.4157   -1.4338    0.0000 C   0  0  0  0  0  0  0  0  0
   -1.4157   -0.6088    0.0000 C   0  0  0  0  0  0  0  0  0
   -0.6978   -0.1963    0.0000 C   0  0  0  0  0  0  0  0  0
   -1.0032    0.6609    0.0000 N   0  0  0  0  0  0  0  0  0
    0.0147   -0.6088    0.0000 C   0  0  0  0  0  0  0  0  0
    0.0147   -1.4338    0.0000 C   0  0  0  0  0  0  0  0  0
   -0.6978   -1.8463    0.0000 C   0  0  0  0  0  0  0  0  0
  1  2  1  0  0  0  0
  2  3  4  0  0  0  0
  2 14  4  0  0  0  0
  3  4  1  0  0  0  0
  3 12  4  0  0  0  0
  4  5  1  0  0  0  0
  5  6  1  0  0  0  0
  5 10  1  0  0  0  0
  6  7  1  0  0  0  0
  7  8  1  0  0  0  0
  8  9  1  0  0  0  0
 10 11  1  0  0  0  0
 11 12  4  0  0  0  0
 11 17  4  0  0  0  0
 12 13  4  0  0  0  0
 13 14  4  0  0  0  0
 13 15  4  0  0  0  0
 15 16  4  0  0  0  0
 16 17  4  0  0  0  0
M  END
>  <Name_Molregno>
263586

>  <5-HT1A>
7.24

>  <DOPAMINE D2>
8.6

>  <DOPAMINE D3>
7.44

$$$$
263587
  Marvin  02231216192D 0   1.00000     0.00000     0

 16 18  0  0  1  0  0  0  0  0999 V2000
   -0.6772    0.0915    0.0000 O   0  0  0  0  0  0  0  0  0
   -0.1998   -0.5814    0.0000 C   0  0  0  0  0  0  0  0  0
   -0.4998   -1.4385    0.0000 N   0  0  0  0  0  0  0  0  0
   -1.2123   -1.8510    0.0000 C   0  0  0  0  0  0  0  0  0
   -1.2123   -2.6760    0.0000 C   0  0  0  0  0  0  0  0  0
   -1.9271   -3.0881    0.0000 N   0  0  0  0  0  0  0  0  0
   -1.9275   -3.9131    0.0000 C   0  0  0  0  0  0  0  0  0
   -2.6413   -2.6752    0.0000 C   0  0  0  0  0  0  0  0  0
   -0.4998   -3.0885    0.0000 C   0  0  0  0  0  0  0  0  0
    0.2127   -2.6760    0.0000 C   0  0  0  0  0  0  0  0  0
    0.2127   -1.8510    0.0000 C   0  0  0  0  0  0  0  0  0
    0.9305   -1.4385    0.0000 C   0  0  0  0  0  0  0  0  0
    0.6252   -0.5814    0.0000 N   0  0  0  0  0  0  0  0  0
    1.6430   -1.8510    0.0000 C   0  0  0  0  0  0  0  0  0
    1.6430   -2.6760    0.0000 C   0  0  0  0  0  0  0  0  0
    0.9305   -3.0885    0.0000 C   0  0  0  0  0  0  0  0  0
  1  2  1  0  0  0  0
  2  3  4  0  0  0  0
  2 13  4  0  0  0  0
  3  4  1  0  0  0  0
  3 11  4  0  0  0  0
  4  5  1  0  0  0  0
  5  6  1  0  0  0  0
  5  9  1  0  0  0  0
  6  7  1  0  0  0  0
  6  8  1  0  0  0  0
  9 10  1  0  0  0  0
 10 11  4  0  0  0  0
 10 16  4  0  0  0  0
 11 12  4  0  0  0  0
 12 13  4  0  0  0  0
 12 14  4  0  0  0  0
 14 15  4  0  0  0  0
 15 16  4  0  0  0  0
M  END
>  <Name_Molregno>
263587

>  <5-HT1A>
7.04

>  <DOPAMINE D2>
7.92

>  <DOPAMINE D3>
5.71

$$$$
263590
  Marvin  02231216192D 0   1.00000     0.00000     0

 15 17  0  0  1  0  0  0  0  0999 V2000
   -0.4292    0.0221    0.0000 N   0  0  0  0  0  0  0  0  0
   -1.1417   -0.3904    0.0000 C   0  0  0  0  0  0  0  0  0
   -1.1417   -1.2154    0.0000 C   0  0  0  0  0  0  0  0  0
   -1.8564   -1.6275    0.0000 N   0  0  0  0  0  0  0  0  0
   -1.8569   -2.4525    0.0000 C   0  0  0  0  0  0  0  0  0
   -2.5707   -1.2145    0.0000 C   0  0  0  0  0  0  0  0  0
   -0.4292   -1.6279    0.0000 C   0  0  0  0  0  0  0  0  0
    0.2833   -1.2154    0.0000 C   0  0  0  0  0  0  0  0  0
    0.2833   -0.3904    0.0000 C   0  0  0  0  0  0  0  0  0
    1.0011    0.0221    0.0000 C   0  0  0  0  0  0  0  0  0
    0.6958    0.8792    0.0000 N   0  0  0  0  0  0  0  0  0
   -0.1292    0.8792    0.0000 C   0  0  0  0  0  0  0  0  0
    1.7136   -0.3904    0.0000 C   0  0  0  0  0  0  0  0  0
    1.7136   -1.2154    0.0000 C   0  0  0  0  0  0  0  0  0
    1.0011   -1.6279    0.0000 C   0  0  0  0  0  0  0  0  0
  1  2  1  0  0  0  0
  1  9  4  0  0  0  0
  1 12  4  0  0  0  0
  2  3  1  0  0  0  0
  3  4  1  0  0  0  0
  3  7  1  0  0  0  0
  4  5  1  0  0  0  0
  4  6  1  0  0  0  0
  7  8  1  0  0  0  0
  8  9  4  0  0  0  0
  8 15  4  0  0  0  0
  9 10  4  0  0  0  0
 10 11  4  0  0  0  0
 10 13  4  0  0  0  0
 11 12  4  0  0  0  0
 13 14  4  0  0  0  0
 14 15  4  0  0  0  0
M  END
>  <Name_Molregno>
263590

>  <5-HT1A>
5.45

>  <DOPAMINE D2>
5.89

>  <DOPAMINE D3>
5.53

$$$$
296747
  Marvin  02231216192D 0   1.00000     0.00000     0

 36 40  0  0  1  0  0  0  0  0999 V2000
    2.0923    2.6223    0.0000 O   0  0  0  0  0  0  0  0  0
    1.3285    2.9341    0.0000 N   0  0  0  0  0  0  0  0  0
    0.7959    2.3041    0.0000 C   0  0  0  0  0  0  0  0  0
    1.2305    1.6028    0.0000 C   0  0  0  0  0  0  0  0  0
    0.8405    0.8758    0.0000 C   0  0  0  0  0  0  0  0  0
    0.0159    0.8501    0.0000 O   0  0  0  0  0  0  0  0  0
   -0.4187    1.5513    0.0000 C   0  0  0  0  0  0  0  0  0
   -1.2433    1.5255    0.0000 C   0  0  0  0  0  0  0  0  0
   -1.6779    2.2268    0.0000 C   0  0  0  0  0  0  0  0  0
   -2.5025    2.2010    0.0000 O   0  0  0  0  0  0  0  0  0
   -2.9371    2.9023    0.0000 C   0  0  0  0  0  0  0  0  0
   -1.2879    2.9538    0.0000 C   0  0  0  0  0  0  0  0  0
   -1.7225    3.6550    0.0000 O   0  0  0  0  0  0  0  0  0
   -1.3326    4.3820    0.0000 C   0  0  0  0  0  0  0  0  0
   -0.4633    2.9796    0.0000 C   0  0  0  0  0  0  0  0  0
   -0.0287    2.2783    0.0000 C   0  0  0  0  0  0  0  0  0
    2.0317    1.7995    0.0000 C   0  0  0  0  0  0  0  0  0
    2.6617    1.2669    0.0000 C   0  0  0  0  0  0  0  0  0
    2.5155    0.4549    0.0000 N   0  0  0  0  0  0  0  0  0
    3.1455   -0.0777    0.0000 C   0  0  0  0  0  0  0  0  0
    2.9993   -0.8896    0.0000 C   0  0  0  0  0  0  0  0  0
    2.2230   -1.1689    0.0000 N   0  0  0  0  0  0  0  0  0
    1.5930   -0.6363    0.0000 C   0  0  0  0  0  0  0  0  0
    1.7392    0.1756    0.0000 C   0  0  0  0  0  0  0  0  0
    2.0768   -1.9809    0.0000 C   0  0  0  0  0  0  0  0  0
    2.7068   -2.5135    0.0000 C   0  0  0  0  0  0  0  0  0
    2.5606   -3.3254    0.0000 C   0  0  0  0  0  0  0  0  0
    3.1906   -3.8580    0.0000 C   0  0  0  0  0  0  0  0  0
    3.0443   -4.6700    0.0000 C   0  0  0  0  0  0  0  0  0
    2.2681   -4.9493    0.0000 C   0  0  0  0  0  0  0  0  0
    3.6744   -5.2026    0.0000 C   0  0  0  0  0  0  0  0  0
    4.4507   -4.9233    0.0000 C   0  0  0  0  0  0  0  0  0
    5.0807   -5.4559    0.0000 C   0  0  0  0  0  0  0  0  0
    4.9344   -6.2678    0.0000 C   0  0  0  0  0  0  0  0  0
    4.1582   -6.5472    0.0000 C   0  0  0  0  0  0  0  0  0
    3.5281   -6.0145    0.0000 C   0  0  0  0  0  0  0  0  0
  1  2  1  0  0  0  0
  1 17  1  0  0  0  0
  2  3  2  0  0  0  0
  3  4  1  0  0  0  0
  3 16  1  0  0  0  0
  4  5  1  0  0  0  0
  4 17  1  0  0  0  0
  5  6  1  0  0  0  0
  6  7  1  0  0  0  0
  7  8  4  0  0  0  0
  7 16  4  0  0  0  0
  8  9  4  0  0  0  0
  9 10  1  0  0  0  0
  9 12  4  0  0  0  0
 10 11  1  0  0  0  0
 12 13  1  0  0  0  0
 12 15  4  0  0  0  0
 13 14  1  0  0  0  0
 15 16  4  0  0  0  0
 17 18  1  0  0  0  0
 18 19  1  0  0  0  0
 19 20  1  0  0  0  0
 19 24  1  0  0  0  0
 20 21  1  0  0  0  0
 21 22  1  0  0  0  0
 22 23  1  0  0  0  0
 22 25  1  0  0  0  0
 23 24  1  0  0  0  0
 25 26  1  0  0  0  0
 26 27  1  0  0  0  0
 27 28  1  0  0  0  0
 28 29  2  0  0  0  0
 29 30  1  0  0  0  0
 29 31  1  0  0  0  0
 31 32  4  0  0  0  0
 31 36  4  0  0  0  0
 32 33  4  0  0  0  0
 33 34  4  0  0  0  0
 34 35  4  0  0  0  0
 35 36  4  0  0  0  0
M  END
>  <Name_Molregno>
296747

>  <5-HT1A>
6

>  <5-HT2A>
6

>  <5-HT2C>
6

>  <5-HT7>
6

>  <Alpha-2A>
9.19

>  <Alpha-2B>
7.85

>  <Alpha-2C>
9.46

>  <DOPAMINE D3>
6.21

>  <DOPAMINE D4>
6

>  <HISTAMINE H1>
6

>  <Serotonin transporter>
8.18

$$$$
296899
  Marvin  02231216192D 0   1.00000     0.00000     0

 35 39  0  0  1  0  0  0  0  0999 V2000
    2.1989    2.1726    0.0000 O   0  0  0  0  0  0  0  0  0
    1.4352    2.4844    0.0000 N   0  0  0  0  0  0  0  0  0
    0.9025    1.8544    0.0000 C   0  0  0  0  0  0  0  0  0
    1.3371    1.1531    0.0000 C   0  0  0  0  0  0  0  0  0
    0.9472    0.4261    0.0000 C   0  0  0  0  0  0  0  0  0
    0.1226    0.4004    0.0000 O   0  0  0  0  0  0  0  0  0
   -0.3120    1.1016    0.0000 C   0  0  0  0  0  0  0  0  0
   -1.1366    1.0759    0.0000 C   0  0  0  0  0  0  0  0  0
   -1.5713    1.7771    0.0000 C   0  0  0  0  0  0  0  0  0
   -2.3959    1.7513    0.0000 O   0  0  0  0  0  0  0  0  0
   -2.8305    2.4526    0.0000 C   0  0  0  0  0  0  0  0  0
   -1.1813    2.5041    0.0000 C   0  0  0  0  0  0  0  0  0
   -1.6159    3.2053    0.0000 O   0  0  0  0  0  0  0  0  0
   -1.2259    3.9323    0.0000 C   0  0  0  0  0  0  0  0  0
   -0.3567    2.5299    0.0000 C   0  0  0  0  0  0  0  0  0
    0.0779    1.8286    0.0000 C   0  0  0  0  0  0  0  0  0
    2.1384    1.3498    0.0000 C   0  0  0  0  0  0  0  0  0
    2.7684    0.8172    0.0000 C   0  0  0  0  0  0  0  0  0
    2.6222    0.0052    0.0000 N   0  0  0  0  0  0  0  0  0
    3.2522   -0.5274    0.0000 C   0  0  0  0  0  0  0  0  0
    3.1059   -1.3393    0.0000 C   0  0  0  0  0  0  0  0  0
    2.3297   -1.6186    0.0000 N   0  0  0  0  0  0  0  0  0
    1.6996   -1.0860    0.0000 C   0  0  0  0  0  0  0  0  0
    1.8459   -0.2741    0.0000 C   0  0  0  0  0  0  0  0  0
    2.1834   -2.4306    0.0000 C   0  0  0  0  0  0  0  0  0
    1.4071   -2.7099    0.0000 C   0  0  0  0  0  0  0  0  0
    1.2609   -3.5218    0.0000 C   0  0  0  0  0  0  0  0  0
    1.8909   -4.0544    0.0000 C   0  0  0  0  0  0  0  0  0
    2.6672   -3.7751    0.0000 C   0  0  0  0  0  0  0  0  0
    3.2973   -4.3077    0.0000 C   0  0  0  0  0  0  0  0  0
    4.0735   -4.0284    0.0000 C   0  0  0  0  0  0  0  0  0
    4.7036   -4.5610    0.0000 C   0  0  0  0  0  0  0  0  0
    4.5573   -5.3730    0.0000 C   0  0  0  0  0  0  0  0  0
    3.7810   -5.6523    0.0000 C   0  0  0  0  0  0  0  0  0
    3.1510   -5.1197    0.0000 C   0  0  0  0  0  0  0  0  0
  1  2  1  0  0  0  0
  1 17  1  0  0  0  0
  2  3  2  0  0  0  0
  3  4  1  0  0  0  0
  3 16  1  0  0  0  0
  4  5  1  0  0  0  0
  4 17  1  0  0  0  0
  5  6  1  0  0  0  0
  6  7  1  0  0  0  0
  7  8  4  0  0  0  0
  7 16  4  0  0  0  0
  8  9  4  0  0  0  0
  9 10  1  0  0  0  0
  9 12  4  0  0  0  0
 10 11  1  0  0  0  0
 12 13  1  0  0  0  0
 12 15  4  0  0  0  0
 13 14  1  0  0  0  0
 15 16  4  0  0  0  0
 17 18  1  0  0  0  0
 18 19  1  0  0  0  0
 19 20  1  0  0  0  0
 19 24  1  0  0  0  0
 20 21  1  0  0  0  0
 21 22  1  0  0  0  0
 22 23  1  0  0  0  0
 22 25  1  0  0  0  0
 23 24  1  0  0  0  0
 25 26  1  0  0  0  0
 26 27  1  0  0  0  0
 27 28  1  0  0  0  0
 28 29  2  0  0  0  0
 29 30  1  0  0  0  0
 30 31  4  0  0  0  0
 30 35  4  0  0  0  0
 31 32  4  0  0  0  0
 32 33  4  0  0  0  0
 33 34  4  0  0  0  0
 34 35  4  0  0  0  0
M  END
>  <Name_Molregno>
296899

>  <5-HT1A>
6

>  <5-HT2A>
6

>  <5-HT2C>
6

>  <5-HT7>
6

>  <Alpha-2A>
8.59

>  <Alpha-2B>
7.85

>  <Alpha-2C>
8.52

>  <DOPAMINE D3>
6.57

>  <DOPAMINE D4>
6

>  <HISTAMINE H1>
6

>  <Serotonin transporter>
8.5

$$$$
296920
  Marvin  02231216192D 0   1.00000     0.00000     0

 37 42  0  0  1  0  0  0  0  0999 V2000
   -1.2093    0.9861    0.0000 O   0  0  0  0  0  0  0  0  0
   -1.7613    0.3730    0.0000 N   0  0  0  0  0  0  0  0  0
   -1.3488   -0.3415    0.0000 C   0  0  0  0  0  0  0  0  0
   -0.5418   -0.1700    0.0000 C   0  0  0  0  0  0  0  0  0
    0.0102   -0.7830    0.0000 C   0  0  0  0  0  0  0  0  0
   -0.2447   -1.5677    0.0000 O   0  0  0  0  0  0  0  0  0
   -1.0517   -1.7392    0.0000 C   0  0  0  0  0  0  0  0  0
   -1.3066   -2.5238    0.0000 C   0  0  0  0  0  0  0  0  0
   -2.1136   -2.6953    0.0000 C   0  0  0  0  0  0  0  0  0
   -2.3686   -3.4800    0.0000 O   0  0  0  0  0  0  0  0  0
   -3.1755   -3.6515    0.0000 C   0  0  0  0  0  0  0  0  0
   -2.6656   -2.0823    0.0000 C   0  0  0  0  0  0  0  0  0
   -3.4726   -2.2538    0.0000 O   0  0  0  0  0  0  0  0  0
   -4.0247   -1.6407    0.0000 C   0  0  0  0  0  0  0  0  0
   -2.4107   -1.2976    0.0000 C   0  0  0  0  0  0  0  0  0
   -1.6037   -1.1261    0.0000 C   0  0  0  0  0  0  0  0  0
   -0.4556    0.6505    0.0000 C   0  0  0  0  0  0  0  0  0
    0.2589    1.0630    0.0000 C   0  0  0  0  0  0  0  0  0
    0.9734    0.6505    0.0000 N   0  0  0  0  0  0  0  0  0
    1.6878    1.0630    0.0000 C   0  0  0  0  0  0  0  0  0
    2.4023    0.6505    0.0000 C   0  0  0  0  0  0  0  0  0
    2.4023   -0.1745    0.0000 N   0  0  0  0  0  0  0  0  0
    1.6878   -0.5870    0.0000 C   0  0  0  0  0  0  0  0  0
    0.9734   -0.1745    0.0000 C   0  0  0  0  0  0  0  0  0
    3.1168   -0.5870    0.0000 C   0  0  0  0  0  0  0  0  0
    3.8312   -0.1745    0.0000 C   0  0  0  0  0  0  0  0  0
    4.5457   -0.5870    0.0000 C   0  0  0  0  0  0  0  0  0
    5.2602   -0.1745    0.0000 C   0  0  0  0  0  0  0  0  0
    5.9747   -0.5870    0.0000 C   0  0  0  0  0  0  0  0  0
    6.6891   -0.1745    0.0000 C   0  0  0  0  0  0  0  0  0
    6.6891    0.6505    0.0000 C   0  0  0  0  0  0  0  0  0
    5.9747    1.0630    0.0000 C   0  0  0  0  0  0  0  0  0
    5.2602    0.6505    0.0000 C   0  0  0  0  0  0  0  0  0
    7.4036    1.0630    0.0000 C   0  0  0  0  0  0  0  0  0
    8.1181    0.6505    0.0000 C   0  0  0  0  0  0  0  0  0
    8.1181   -0.1745    0.0000 C   0  0  0  0  0  0  0  0  0
    7.4036   -0.5870    0.0000 C   0  0  0  0  0  0  0  0  0
  1  2  1  0  0  0  0
  1 17  1  0  0  0  0
  2  3  2  0  0  0  0
  3  4  1  0  0  0  0
  3 16  1  0  0  0  0
  4  5  1  0  0  0  0
  4 17  1  0  0  0  0
  5  6  1  0  0  0  0
  6  7  1  0  0  0  0
  7  8  4  0  0  0  0
  7 16  4  0  0  0  0
  8  9  4  0  0  0  0
  9 10  1  0  0  0  0
  9 12  4  0  0  0  0
 10 11  1  0  0  0  0
 12 13  1  0  0  0  0
 12 15  4  0  0  0  0
 13 14  1  0  0  0  0
 15 16  4  0  0  0  0
 17 18  1  0  0  0  0
 18 19  1  0  0  0  0
 19 20  1  0  0  0  0
 19 24  1  0  0  0  0
 20 21  1  0  0  0  0
 21 22  1  0  0  0  0
 22 23  1  0  0  0  0
 22 25  1  0  0  0  0
 23 24  1  0  0  0  0
 25 26  1  0  0  0  0
 26 27  1  0  0  0  0
 27 28  1  0  0  0  0
 28 29  4  0  0  0  0
 28 33  4  0  0  0  0
 29 30  4  0  0  0  0
 30 31  4  0  0  0  0
 30 37  4  0  0  0  0
 31 32  4  0  0  0  0
 31 34  4  0  0  0  0
 32 33  4  0  0  0  0
 34 35  4  0  0  0  0
 35 36  4  0  0  0  0
 36 37  4  0  0  0  0
M  END
>  <Name_Molregno>
296920

>  <5-HT1A>
6

>  <5-HT2A>
6

>  <5-HT2C>
6

>  <5-HT7>
6

>  <Alpha-2A>
8.6

>  <Alpha-2B>
7.85

>  <Alpha-2C>
8.81

>  <DOPAMINE D3>
6.97

>  <DOPAMINE D4>
6

>  <HISTAMINE H1>
6.34

>  <Serotonin transporter>
8.77

$$$$
296939
  Marvin  02231216192D 0   1.00000     0.00000     0

 36 40  0  0  1  0  0  0  0  0999 V2000
    1.5477    2.2344    0.0000 O   0  0  0  0  0  0  0  0  0
    0.7839    2.5463    0.0000 N   0  0  0  0  0  0  0  0  0
    0.2513    1.9162    0.0000 C   0  0  0  0  0  0  0  0  0
    0.6859    1.2150    0.0000 C   0  0  0  0  0  0  0  0  0
    0.2959    0.4880    0.0000 C   0  0  0  0  0  0  0  0  0
   -0.5287    0.4622    0.0000 O   0  0  0  0  0  0  0  0  0
   -0.9633    1.1635    0.0000 C   0  0  0  0  0  0  0  0  0
   -1.7879    1.1377    0.0000 C   0  0  0  0  0  0  0  0  0
   -2.2225    1.8389    0.0000 C   0  0  0  0  0  0  0  0  0
   -3.0471    1.8132    0.0000 O   0  0  0  0  0  0  0  0  0
   -3.4817    2.5144    0.0000 C   0  0  0  0  0  0  0  0  0
   -1.8325    2.5659    0.0000 C   0  0  0  0  0  0  0  0  0
   -2.2672    3.2672    0.0000 O   0  0  0  0  0  0  0  0  0
   -1.8772    3.9942    0.0000 C   0  0  0  0  0  0  0  0  0
   -1.0079    2.5917    0.0000 C   0  0  0  0  0  0  0  0  0
   -0.5733    1.8905    0.0000 C   0  0  0  0  0  0  0  0  0
    1.4871    1.4116    0.0000 C   0  0  0  0  0  0  0  0  0
    2.1171    0.8790    0.0000 C   0  0  0  0  0  0  0  0  0
    1.9709    0.0671    0.0000 N   0  0  0  0  0  0  0  0  0
    2.6009   -0.4655    0.0000 C   0  0  0  0  0  0  0  0  0
    2.4547   -1.2775    0.0000 C   0  0  0  0  0  0  0  0  0
    1.6784   -1.5568    0.0000 N   0  0  0  0  0  0  0  0  0
    1.0484   -1.0242    0.0000 C   0  0  0  0  0  0  0  0  0
    1.1946   -0.2122    0.0000 C   0  0  0  0  0  0  0  0  0
    1.5322   -2.3687    0.0000 C   0  0  0  0  0  0  0  0  0
    2.1622   -2.9013    0.0000 C   0  0  0  0  0  0  0  0  0
    2.9385   -2.6220    0.0000 C   0  0  0  0  0  0  0  0  0
    3.5685   -3.1546    0.0000 C   0  0  0  0  0  0  0  0  0
    4.3448   -2.8753    0.0000 C   0  0  0  0  0  0  0  0  0
    4.4910   -2.0634    0.0000 C   0  0  0  0  0  0  0  0  0
    3.8610   -1.5308    0.0000 C   0  0  0  0  0  0  0  0  0
    4.0072   -0.7188    0.0000 C   0  0  0  0  0  0  0  0  0
    4.7835   -0.4395    0.0000 C   0  0  0  0  0  0  0  0  0
    5.4135   -0.9721    0.0000 C   0  0  0  0  0  0  0  0  0
    5.2673   -1.7841    0.0000 C   0  0  0  0  0  0  0  0  0
    3.4223   -3.9666    0.0000 C   0  0  0  0  0  0  0  0  0
  1  2  1  0  0  0  0
  1 17  1  0  0  0  0
  2  3  2  0  0  0  0
  3  4  1  0  0  0  0
  3 16  1  0  0  0  0
  4  5  1  0  0  0  0
  4 17  1  0  0  0  0
  5  6  1  0  0  0  0
  6  7  1  0  0  0  0
  7  8  4  0  0  0  0
  7 16  4  0  0  0  0
  8  9  4  0  0  0  0
  9 10  1  0  0  0  0
  9 12  4  0  0  0  0
 10 11  1  0  0  0  0
 12 13  1  0  0  0  0
 12 15  4  0  0  0  0
 13 14  1  0  0  0  0
 15 16  4  0  0  0  0
 17 18  1  0  0  0  0
 18 19  1  0  0  0  0
 19 20  1  0  0  0  0
 19 24  1  0  0  0  0
 20 21  1  0  0  0  0
 21 22  1  0  0  0  0
 22 23  1  0  0  0  0
 22 25  1  0  0  0  0
 23 24  1  0  0  0  0
 25 26  1  0  0  0  0
 26 27  1  0  0  0  0
 27 28  1  0  0  0  0
 28 29  2  0  0  0  0
 28 36  1  0  0  0  0
 29 30  1  0  0  0  0
 30 31  4  0  0  0  0
 30 35  4  0  0  0  0
 31 32  4  0  0  0  0
 32 33  4  0  0  0  0
 33 34  4  0  0  0  0
 34 35  4  0  0  0  0
M  END
>  <Name_Molregno>
296939

>  <5-HT1A>
6.32

>  <5-HT2A>
6

>  <5-HT2C>
6

>  <5-HT7>
6

>  <Alpha-2A>
9.31

>  <Alpha-2B>
8.52

>  <Alpha-2C>
9.85

>  <DOPAMINE D3>
6.36

>  <DOPAMINE D4>
6

>  <HISTAMINE H1>
6.95

>  <Serotonin transporter>
8.46

$$$$
297525
  Marvin  02231216192D 0   1.00000     0.00000     0

 33 36  0  0  0  0  0  0  0  0999 V2000
   -8.3782    2.7133    0.0000 Cl  0  0  0  0  0  0  0  0  0
   -8.3782    1.8883    0.0000 C   0  0  0  0  0  0  0  0  0
   -7.6637    1.4758    0.0000 C   0  0  0  0  0  0  0  0  0
   -6.9492    1.8883    0.0000 N   0  0  0  0  0  0  0  0  0
   -6.9492    2.7133    0.0000 C   0  0  0  0  0  0  0  0  0
   -6.2347    3.1258    0.0000 C   0  0  0  0  0  0  0  0  0
   -5.5203    2.7133    0.0000 N   0  0  0  0  0  0  0  0  0
   -5.5203    1.8883    0.0000 C   0  0  0  0  0  0  0  0  0
   -6.2347    1.4758    0.0000 C   0  0  0  0  0  0  0  0  0
   -4.8058    3.1258    0.0000 C   0  0  0  0  0  0  0  0  0
   -4.0913    2.7133    0.0000 C   0  0  0  0  0  0  0  0  0
   -4.0913    1.8883    0.0000 C   0  0  0  0  0  0  0  0  0
   -3.3769    1.4758    0.0000 C   0  0  0  0  0  0  0  0  0
   -3.3769    0.6508    0.0000 N   0  0  0  0  0  0  0  0  0
   -2.6624    0.2383    0.0000 C   0  0  0  0  0  0  0  0  0
   -1.9479    0.6508    0.0000 O   0  0  0  0  0  0  0  0  0
   -2.6624   -0.5867    0.0000 C   0  0  0  0  0  0  0  0  0
   -1.9479   -0.9992    0.0000 C   0  0  0  0  0  0  0  0  0
   -1.9479   -1.8242    0.0000 C   0  0  0  0  0  0  0  0  0
   -2.6624   -2.2367    0.0000 C   0  0  0  0  0  0  0  0  0
   -3.3769   -1.8242    0.0000 C   0  0  0  0  0  0  0  0  0
   -3.3769   -0.9992    0.0000 C   0  0  0  0  0  0  0  0  0
   -2.6624   -3.0617    0.0000 C   0  0  0  0  0  0  0  0  0
   -1.9479   -3.4742    0.0000 N   0  0  0  0  0  0  0  0  0
   -1.9479   -4.2992    0.0000 C   0  0  0  0  0  0  0  0  0
   -2.6624   -4.7117    0.0000 C   0  0  0  0  0  0  0  0  0
   -3.3769   -4.2992    0.0000 C   0  0  0  0  0  0  0  0  0
   -3.3769   -3.4742    0.0000 C   0  0  0  0  0  0  0  0  0
   -7.6637    0.6508    0.0000 C   0  0  0  0  0  0  0  0  0
   -8.3782    0.2383    0.0000 C   0  0  0  0  0  0  0  0  0
   -9.0926    0.6508    0.0000 C   0  0  0  0  0  0  0  0  0
   -9.0926    1.4758    0.0000 C   0  0  0  0  0  0  0  0  0
   -9.8071    1.8883    0.0000 Cl  0  0  0  0  0  0  0  0  0
  1  2  1  0  0  0  0
  2  3  4  0  0  0  0
  2 32  4  0  0  0  0
  3  4  1  0  0  0  0
  3 29  4  0  0  0  0
  4  5  1  0  0  0  0
  4  9  1  0  0  0  0
  5  6  1  0  0  0  0
  6  7  1  0  0  0  0
  7  8  1  0  0  0  0
  7 10  1  0  0  0  0
  8  9  1  0  0  0  0
 10 11  1  0  0  0  0
 11 12  2  0  0  0  0
 12 13  1  0  0  0  0
 13 14  1  0  0  0  0
 14 15  1  0  0  0  0
 15 16  2  0  0  0  0
 15 17  1  0  0  0  0
 17 18  4  0  0  0  0
 17 22  4  0  0  0  0
 18 19  4  0  0  0  0
 19 20  4  0  0  0  0
 20 21  4  0  0  0  0
 20 23  1  0  0  0  0
 21 22  4  0  0  0  0
 23 24  4  0  0  0  0
 23 28  4  0  0  0  0
 24 25  4  0  0  0  0
 25 26  4  0  0  0  0
 26 27  4  0  0  0  0
 27 28  4  0  0  0  0
 29 30  4  0  0  0  0
 30 31  4  0  0  0  0
 31 32  4  0  0  0  0
 32 33  1  0  0  0  0
M  END
>  <Name_Molregno>
297525

>  <5-HT1A>
7.07

>  <5-HT2A>
7.2

>  <5-HT2C>
7.33

>  <DOPAMINE D2>
7.02

>  <DOPAMINE D3>
9.03

>  <DOPAMINE D4>
6.43

$$$$
299292
  Marvin  02231216192D 0   1.00000     0.00000     0

 25 28  0  0  0  0  0  0  0  0999 V2000
   -0.2863   -0.6065    0.0000 O   0  0  0  0  0  0  0  0  0
    0.4282   -0.1940    0.0000 C   0  0  0  0  0  0  0  0  0
    0.4282    0.6310    0.0000 C   0  0  0  0  0  0  0  0  0
    1.1427    1.0435    0.0000 C   0  0  0  0  0  0  0  0  0
    1.8571    0.6310    0.0000 C   0  0  0  0  0  0  0  0  0
    1.8571   -0.1940    0.0000 C   0  0  0  0  0  0  0  0  0
    1.1427   -0.6065    0.0000 C   0  0  0  0  0  0  0  0  0
   -0.2863    1.0435    0.0000 C   0  0  0  0  0  0  0  0  0
   -0.2863    1.8685    0.0000 O   0  0  0  0  0  0  0  0  0
   -1.0007    0.6310    0.0000 C   0  0  0  0  0  0  0  0  0
   -1.0007   -0.1940    0.0000 C   0  0  0  0  0  0  0  0  0
   -1.7152   -0.6065    0.0000 C   0  0  0  0  0  0  0  0  0
   -2.4297   -0.1940    0.0000 N   0  0  0  0  0  0  0  0  0
   -3.1442   -0.6065    0.0000 C   0  0  0  0  0  0  0  0  0
   -3.8586   -0.1940    0.0000 C   0  0  0  0  0  0  0  0  0
   -3.8586    0.6310    0.0000 C   0  0  0  0  0  0  0  0  0
   -3.1442    1.0435    0.0000 C   0  0  0  0  0  0  0  0  0
   -2.4297    0.6310    0.0000 C   0  0  0  0  0  0  0  0  0
   -4.5731    1.0435    0.0000 C   0  0  0  0  0  0  0  0  0
   -4.5731    1.8685    0.0000 C   0  0  0  0  0  0  0  0  0
   -5.2876    2.2810    0.0000 C   0  0  0  0  0  0  0  0  0
   -5.2876    3.1060    0.0000 C   0  0  0  0  0  0  0  0  0
   -4.5731    3.5185    0.0000 C   0  0  0  0  0  0  0  0  0
   -3.8586    3.1060    0.0000 C   0  0  0  0  0  0  0  0  0
   -3.8586    2.2810    0.0000 C   0  0  0  0  0  0  0  0  0
  1  2  1  0  0  0  0
  1 11  1  0  0  0  0
  2  3  4  0  0  0  0
  2  7  4  0  0  0  0
  3  4  4  0  0  0  0
  3  8  1  0  0  0  0
  4  5  4  0  0  0  0
  5  6  4  0  0  0  0
  6  7  4  0  0  0  0
  8  9  2  0  0  0  0
  8 10  1  0  0  0  0
 10 11  2  0  0  0  0
 11 12  1  0  0  0  0
 12 13  1  0  0  0  0
 13 14  1  0  0  0  0
 13 18  1  0  0  0  0
 14 15  1  0  0  0  0
 15 16  1  0  0  0  0
 16 17  1  0  0  0  0
 16 19  1  0  0  0  0
 17 18  1  0  0  0  0
 19 20  1  0  0  0  0
 20 21  4  0  0  0  0
 20 25  4  0  0  0  0
 21 22  4  0  0  0  0
 22 23  4  0  0  0  0
 23 24  4  0  0  0  0
 24 25  4  0  0  0  0
M  END
>  <Name_Molregno>
299292

>  <5-HT1A>
6

$$$$
299302
  Marvin  02231216192D 0   1.00000     0.00000     0

 25 28  0  0  1  0  0  0  0  0999 V2000
    4.1157   -2.5454    0.0000 O   0  0  0  0  0  0  0  0  0
    4.1157   -1.7204    0.0000 C   0  0  0  0  0  0  0  0  0
    4.8301   -1.3079    0.0000 C   0  0  0  0  0  0  0  0  0
    4.8301   -0.4829    0.0000 C   0  0  0  0  0  0  0  0  0
    4.1157   -0.0704    0.0000 C   0  0  0  0  0  0  0  0  0
    3.4012   -0.4829    0.0000 C   0  0  0  0  0  0  0  0  0
    3.4012   -1.3079    0.0000 C   0  0  0  0  0  0  0  0  0
    2.6867   -1.7204    0.0000 C   0  0  0  0  0  0  0  0  0
    1.9723   -1.3079    0.0000 N   0  0  0  0  0  0  0  0  0
    1.2578   -1.7204    0.0000 C   0  0  0  0  0  0  0  0  0
    0.5433   -1.3079    0.0000 C   0  0  0  0  0  0  0  0  0
    0.5433   -0.4829    0.0000 C   0  0  0  0  0  0  0  0  0
    1.2578   -0.0704    0.0000 C   0  0  0  0  0  0  0  0  0
    1.9723   -0.4829    0.0000 C   0  0  0  0  0  0  0  0  0
   -0.1712   -0.0704    0.0000 C   0  0  0  0  0  0  0  0  0
   -0.1712    0.7546    0.0000 C   0  0  0  0  0  0  0  0  0
   -0.8856    1.1671    0.0000 C   0  0  0  0  0  0  0  0  0
   -0.8856    1.9921    0.0000 C   0  0  0  0  0  0  0  0  0
   -0.1712    2.4046    0.0000 C   0  0  0  0  0  0  0  0  0
    0.5433    1.9921    0.0000 C   0  0  0  0  0  0  0  0  0
    0.5433    1.1671    0.0000 C   0  0  0  0  0  0  0  0  0
    5.5446   -0.0704    0.0000 C   0  0  0  0  0  0  0  0  0
    6.2591   -0.4829    0.0000 C   0  0  0  0  0  0  0  0  0
    6.2591   -1.3079    0.0000 C   0  0  0  0  0  0  0  0  0
    5.5446   -1.7204    0.0000 C   0  0  0  0  0  0  0  0  0
  1  2  2  0  0  0  0
  2  3  1  0  0  0  0
  2  7  1  0  0  0  0
  3  4  4  0  0  0  0
  3 25  4  0  0  0  0
  4  5  1  0  0  0  0
  4 22  4  0  0  0  0
  5  6  1  0  0  0  0
  6  7  1  0  0  0  0
  7  8  1  0  0  0  0
  8  9  1  0  0  0  0
  9 10  1  0  0  0  0
  9 14  1  0  0  0  0
 10 11  1  0  0  0  0
 11 12  1  0  0  0  0
 12 13  1  0  0  0  0
 12 15  1  0  0  0  0
 13 14  1  0  0  0  0
 15 16  1  0  0  0  0
 16 17  4  0  0  0  0
 16 21  4  0  0  0  0
 17 18  4  0  0  0  0
 18 19  4  0  0  0  0
 19 20  4  0  0  0  0
 20 21  4  0  0  0  0
 22 23  4  0  0  0  0
 23 24  4  0  0  0  0
 24 25  4  0  0  0  0
M  END
>  <Name_Molregno>
299302

>  <5-HT1A>
6.59

$$$$
299303
  Marvin  02231216192D 0   1.00000     0.00000     0

 25 28  0  0  0  0  0  0  0  0999 V2000
   -0.4001    1.1481    0.0000 O   0  0  0  0  0  0  0  0  0
   -1.1146    0.7356    0.0000 C   0  0  0  0  0  0  0  0  0
   -1.1146   -0.0894    0.0000 C   0  0  0  0  0  0  0  0  0
   -1.8291   -0.5019    0.0000 C   0  0  0  0  0  0  0  0  0
   -1.8291   -1.3269    0.0000 N   0  0  0  0  0  0  0  0  0
   -1.1146   -1.7394    0.0000 C   0  0  0  0  0  0  0  0  0
   -1.1146   -2.5644    0.0000 C   0  0  0  0  0  0  0  0  0
   -1.8291   -2.9769    0.0000 N   0  0  0  0  0  0  0  0  0
   -2.5436   -2.5644    0.0000 C   0  0  0  0  0  0  0  0  0
   -2.5436   -1.7394    0.0000 C   0  0  0  0  0  0  0  0  0
   -1.8291   -3.8019    0.0000 C   0  0  0  0  0  0  0  0  0
   -2.5436   -4.2144    0.0000 C   0  0  0  0  0  0  0  0  0
   -2.5436   -5.0394    0.0000 C   0  0  0  0  0  0  0  0  0
   -3.2580   -5.4519    0.0000 C   0  0  0  0  0  0  0  0  0
   -3.9725   -5.0394    0.0000 C   0  0  0  0  0  0  0  0  0
   -3.9725   -4.2144    0.0000 C   0  0  0  0  0  0  0  0  0
   -3.2580   -3.8019    0.0000 C   0  0  0  0  0  0  0  0  0
   -0.4001   -0.5019    0.0000 C   0  0  0  0  0  0  0  0  0
   -0.4001   -1.3269    0.0000 O   0  0  0  0  0  0  0  0  0
    0.3143   -0.0894    0.0000 C   0  0  0  0  0  0  0  0  0
    0.3143    0.7356    0.0000 C   0  0  0  0  0  0  0  0  0
    1.0288    1.1481    0.0000 C   0  0  0  0  0  0  0  0  0
    1.7433    0.7356    0.0000 C   0  0  0  0  0  0  0  0  0
    1.7433   -0.0894    0.0000 C   0  0  0  0  0  0  0  0  0
    1.0288   -0.5019    0.0000 C   0  0  0  0  0  0  0  0  0
  1  2  1  0  0  0  0
  1 21  1  0  0  0  0
  2  3  2  0  0  0  0
  3  4  1  0  0  0  0
  3 18  1  0  0  0  0
  4  5  1  0  0  0  0
  5  6  1  0  0  0  0
  5 10  1  0  0  0  0
  6  7  1  0  0  0  0
  7  8  1  0  0  0  0
  8  9  1  0  0  0  0
  8 11  1  0  0  0  0
  9 10  1  0  0  0  0
 11 12  1  0  0  0  0
 12 13  4  0  0  0  0
 12 17  4  0  0  0  0
 13 14  4  0  0  0  0
 14 15  4  0  0  0  0
 15 16  4  0  0  0  0
 16 17  4  0  0  0  0
 18 19  2  0  0  0  0
 18 20  1  0  0  0  0
 20 21  4  0  0  0  0
 20 25  4  0  0  0  0
 21 22  4  0  0  0  0
 22 23  4  0  0  0  0
 23 24  4  0  0  0  0
 24 25  4  0  0  0  0
M  END
>  <Name_Molregno>
299303

>  <5-HT1A>
6

$$$$
299419
  Marvin  02231216192D 0   1.00000     0.00000     0

 24 27  0  0  1  0  0  0  0  0999 V2000
   -0.3060   -0.5898    0.0000 O   0  0  0  0  0  0  0  0  0
   -1.0205   -1.0023    0.0000 C   0  0  0  0  0  0  0  0  0
   -1.0205   -1.8273    0.0000 C   0  0  0  0  0  0  0  0  0
   -0.3060   -2.2398    0.0000 C   0  0  0  0  0  0  0  0  0
    0.4084   -1.8273    0.0000 C   0  0  0  0  0  0  0  0  0
    0.4084   -1.0023    0.0000 C   0  0  0  0  0  0  0  0  0
    1.1229   -0.5898    0.0000 C   0  0  0  0  0  0  0  0  0
    1.8374   -1.0023    0.0000 C   0  0  0  0  0  0  0  0  0
    1.8374   -1.8273    0.0000 C   0  0  0  0  0  0  0  0  0
    1.1229   -2.2398    0.0000 C   0  0  0  0  0  0  0  0  0
   -1.7350   -2.2398    0.0000 C   0  0  0  0  0  0  0  0  0
   -2.4495   -1.8273    0.0000 N   0  0  0  0  0  0  0  0  0
   -3.1639   -2.2398    0.0000 C   0  0  0  0  0  0  0  0  0
   -3.8784   -1.8273    0.0000 C   0  0  0  0  0  0  0  0  0
   -3.8784   -1.0023    0.0000 C   0  0  0  0  0  0  0  0  0
   -3.1639   -0.5898    0.0000 C   0  0  0  0  0  0  0  0  0
   -2.4495   -1.0023    0.0000 C   0  0  0  0  0  0  0  0  0
   -4.5929   -0.5898    0.0000 C   0  0  0  0  0  0  0  0  0
   -4.5929    0.2352    0.0000 C   0  0  0  0  0  0  0  0  0
   -5.3073    0.6477    0.0000 C   0  0  0  0  0  0  0  0  0
   -5.3073    1.4727    0.0000 C   0  0  0  0  0  0  0  0  0
   -4.5929    1.8852    0.0000 C   0  0  0  0  0  0  0  0  0
   -3.8784    1.4727    0.0000 C   0  0  0  0  0  0  0  0  0
   -3.8784    0.6477    0.0000 C   0  0  0  0  0  0  0  0  0
  1  2  1  0  0  0  0
  1  6  1  0  0  0  0
  2  3  1  0  0  0  0
  3  4  1  0  0  0  0
  3 11  1  0  0  0  0
  4  5  1  0  0  0  0
  5  6  4  0  0  0  0
  5 10  4  0  0  0  0
  6  7  4  0  0  0  0
  7  8  4  0  0  0  0
  8  9  4  0  0  0  0
  9 10  4  0  0  0  0
 11 12  1  0  0  0  0
 12 13  1  0  0  0  0
 12 17  1  0  0  0  0
 13 14  1  0  0  0  0
 14 15  1  0  0  0  0
 15 16  1  0  0  0  0
 15 18  1  0  0  0  0
 16 17  1  0  0  0  0
 18 19  1  0  0  0  0
 19 20  4  0  0  0  0
 19 24  4  0  0  0  0
 20 21  4  0  0  0  0
 21 22  4  0  0  0  0
 22 23  4  0  0  0  0
 23 24  4  0  0  0  0
M  END
>  <Name_Molregno>
299419

>  <5-HT1A>
6.65

$$$$
299425
  Marvin  02231216192D 0   1.00000     0.00000     0

 25 28  0  0  1  0  0  0  0  0999 V2000
   -0.2993   -0.5422    0.0000 O   0  0  0  0  0  0  0  0  0
   -0.2993   -1.3672    0.0000 C   0  0  0  0  0  0  0  0  0
   -1.0138   -1.7797    0.0000 C   0  0  0  0  0  0  0  0  0
   -1.0138   -2.6047    0.0000 C   0  0  0  0  0  0  0  0  0
   -0.2993   -3.0172    0.0000 C   0  0  0  0  0  0  0  0  0
    0.4152   -2.6047    0.0000 C   0  0  0  0  0  0  0  0  0
    0.4152   -1.7797    0.0000 C   0  0  0  0  0  0  0  0  0
    1.1296   -1.3672    0.0000 C   0  0  0  0  0  0  0  0  0
    1.8441   -1.7797    0.0000 C   0  0  0  0  0  0  0  0  0
    1.8441   -2.6047    0.0000 C   0  0  0  0  0  0  0  0  0
    1.1296   -3.0172    0.0000 C   0  0  0  0  0  0  0  0  0
   -1.7282   -3.0172    0.0000 C   0  0  0  0  0  0  0  0  0
   -2.4427   -2.6047    0.0000 N   0  0  0  0  0  0  0  0  0
   -3.1572   -3.0172    0.0000 C   0  0  0  0  0  0  0  0  0
   -3.8717   -2.6047    0.0000 C   0  0  0  0  0  0  0  0  0
   -3.8717   -1.7797    0.0000 C   0  0  0  0  0  0  0  0  0
   -3.1572   -1.3672    0.0000 C   0  0  0  0  0  0  0  0  0
   -2.4427   -1.7797    0.0000 C   0  0  0  0  0  0  0  0  0
   -4.5861   -1.3672    0.0000 C   0  0  0  0  0  0  0  0  0
   -4.5861   -0.5422    0.0000 C   0  0  0  0  0  0  0  0  0
   -5.3006   -0.1297    0.0000 C   0  0  0  0  0  0  0  0  0
   -5.3006    0.6953    0.0000 C   0  0  0  0  0  0  0  0  0
   -4.5861    1.1078    0.0000 C   0  0  0  0  0  0  0  0  0
   -3.8717    0.6953    0.0000 C   0  0  0  0  0  0  0  0  0
   -3.8717   -0.1297    0.0000 C   0  0  0  0  0  0  0  0  0
  1  2  2  0  0  0  0
  2  3  1  0  0  0  0
  2  7  1  0  0  0  0
  3  4  1  0  0  0  0
  4  5  1  0  0  0  0
  4 12  1  0  0  0  0
  5  6  1  0  0  0  0
  6  7  4  0  0  0  0
  6 11  4  0  0  0  0
  7  8  4  0  0  0  0
  8  9  4  0  0  0  0
  9 10  4  0  0  0  0
 10 11  4  0  0  0  0
 12 13  1  0  0  0  0
 13 14  1  0  0  0  0
 13 18  1  0  0  0  0
 14 15  1  0  0  0  0
 15 16  1  0  0  0  0
 16 17  1  0  0  0  0
 16 19  1  0  0  0  0
 17 18  1  0  0  0  0
 19 20  1  0  0  0  0
 20 21  4  0  0  0  0
 20 25  4  0  0  0  0
 21 22  4  0  0  0  0
 22 23  4  0  0  0  0
 23 24  4  0  0  0  0
 24 25  4  0  0  0  0
M  END
>  <Name_Molregno>
299425

>  <5-HT1A>
6

$$$$
299426
  Marvin  02231216192D 0   1.00000     0.00000     0

 24 27  0  0  1  0  0  0  0  0999 V2000
   -0.0001    0.8141    0.0000 N   0  0  0  0  0  0  0  0  0
   -0.0001   -0.0109    0.0000 C   0  0  0  0  0  0  0  0  0
   -0.7146   -0.4234    0.0000 C   0  0  0  0  0  0  0  0  0
   -1.4291   -0.0109    0.0000 N   0  0  0  0  0  0  0  0  0
   -1.4291    0.8141    0.0000 C   0  0  0  0  0  0  0  0  0
   -0.7146    1.2266    0.0000 C   0  0  0  0  0  0  0  0  0
   -2.1435   -0.4234    0.0000 C   0  0  0  0  0  0  0  0  0
   -2.8580   -0.0109    0.0000 C   0  0  0  0  0  0  0  0  0
   -3.5725   -0.4234    0.0000 C   0  0  0  0  0  0  0  0  0
   -4.2869   -0.0109    0.0000 C   0  0  0  0  0  0  0  0  0
   -4.2869    0.8141    0.0000 C   0  0  0  0  0  0  0  0  0
   -3.5725    1.2266    0.0000 C   0  0  0  0  0  0  0  0  0
   -2.8580    0.8141    0.0000 C   0  0  0  0  0  0  0  0  0
    0.7144    1.2266    0.0000 C   0  0  0  0  0  0  0  0  0
    1.4288    0.8141    0.0000 C   0  0  0  0  0  0  0  0  0
    1.4288   -0.0109    0.0000 C   0  0  0  0  0  0  0  0  0
    2.1433   -0.4234    0.0000 C   0  0  0  0  0  0  0  0  0
    2.8578   -0.0109    0.0000 C   0  0  0  0  0  0  0  0  0
    2.8578    0.8141    0.0000 C   0  0  0  0  0  0  0  0  0
    2.1433    1.2266    0.0000 C   0  0  0  0  0  0  0  0  0
    3.5722    1.2266    0.0000 C   0  0  0  0  0  0  0  0  0
    4.2867    0.8141    0.0000 C   0  0  0  0  0  0  0  0  0
    4.2867   -0.0109    0.0000 C   0  0  0  0  0  0  0  0  0
    3.5722   -0.4234    0.0000 C   0  0  0  0  0  0  0  0  0
  1  2  1  0  0  0  0
  1  6  1  0  0  0  0
  1 14  1  0  0  0  0
  2  3  1  0  0  0  0
  3  4  1  0  0  0  0
  4  5  1  0  0  0  0
  4  7  1  0  0  0  0
  5  6  1  0  0  0  0
  7  8  1  0  0  0  0
  8  9  4  0  0  0  0
  8 13  4  0  0  0  0
  9 10  4  0  0  0  0
 10 11  4  0  0  0  0
 11 12  4  0  0  0  0
 12 13  4  0  0  0  0
 14 15  1  0  0  0  0
 15 16  1  0  0  0  0
 15 20  1  0  0  0  0
 16 17  1  0  0  0  0
 17 18  1  0  0  0  0
 18 19  4  0  0  0  0
 18 24  4  0  0  0  0
 19 20  1  0  0  0  0
 19 21  4  0  0  0  0
 21 22  4  0  0  0  0
 22 23  4  0  0  0  0
 23 24  4  0  0  0  0
M  END
>  <Name_Molregno>
299426

>  <5-HT1A>
6.73

$$$$
299436
  Marvin  02231216192D 0   1.00000     0.00000     0

 24 27  0  0  1  0  0  0  0  0999 V2000
   -0.3060   -0.5898    0.0000 O   0  0  0  0  0  0  0  0  0
   -1.0205   -1.0023    0.0000 C   0  0  0  0  0  0  0  0  0
   -1.0205   -1.8273    0.0000 C   0  0  0  0  0  0  0  0  0
   -0.3060   -2.2398    0.0000 C   0  0  0  0  0  0  0  0  0
    0.4084   -1.8273    0.0000 C   0  0  0  0  0  0  0  0  0
    0.4084   -1.0023    0.0000 C   0  0  0  0  0  0  0  0  0
    1.1229   -0.5898    0.0000 C   0  0  0  0  0  0  0  0  0
    1.8374   -1.0023    0.0000 C   0  0  0  0  0  0  0  0  0
    1.8374   -1.8273    0.0000 C   0  0  0  0  0  0  0  0  0
    1.1229   -2.2398    0.0000 C   0  0  0  0  0  0  0  0  0
   -1.7350   -2.2398    0.0000 C   0  0  0  0  0  0  0  0  0
   -2.4495   -1.8273    0.0000 N   0  0  0  0  0  0  0  0  0
   -3.1639   -2.2398    0.0000 C   0  0  0  0  0  0  0  0  0
   -3.8784   -1.8273    0.0000 C   0  0  0  0  0  0  0  0  0
   -3.8784   -1.0023    0.0000 N   0  0  0  0  0  0  0  0  0
   -3.1639   -0.5898    0.0000 C   0  0  0  0  0  0  0  0  0
   -2.4495   -1.0023    0.0000 C   0  0  0  0  0  0  0  0  0
   -4.5929   -0.5898    0.0000 C   0  0  0  0  0  0  0  0  0
   -4.5929    0.2352    0.0000 C   0  0  0  0  0  0  0  0  0
   -5.3073    0.6477    0.0000 C   0  0  0  0  0  0  0  0  0
   -5.3073    1.4727    0.0000 C   0  0  0  0  0  0  0  0  0
   -4.5929    1.8852    0.0000 C   0  0  0  0  0  0  0  0  0
   -3.8784    1.4727    0.0000 C   0  0  0  0  0  0  0  0  0
   -3.8784    0.6477    0.0000 C   0  0  0  0  0  0  0  0  0
  1  2  1  0  0  0  0
  1  6  1  0  0  0  0
  2  3  1  0  0  0  0
  3  4  1  0  0  0  0
  3 11  1  0  0  0  0
  4  5  1  0  0  0  0
  5  6  4  0  0  0  0
  5 10  4  0  0  0  0
  6  7  4  0  0  0  0
  7  8  4  0  0  0  0
  8  9  4  0  0  0  0
  9 10  4  0  0  0  0
 11 12  1  0  0  0  0
 12 13  1  0  0  0  0
 12 17  1  0  0  0  0
 13 14  1  0  0  0  0
 14 15  1  0  0  0  0
 15 16  1  0  0  0  0
 15 18  1  0  0  0  0
 16 17  1  0  0  0  0
 18 19  1  0  0  0  0
 19 20  4  0  0  0  0
 19 24  4  0  0  0  0
 20 21  4  0  0  0  0
 21 22  4  0  0  0  0
 22 23  4  0  0  0  0
 23 24  4  0  0  0  0
M  END
>  <Name_Molregno>
299436

>  <5-HT1A>
6

>  <Alpha-2A>
6.3

>  <Alpha-2B>
6.3

>  <Alpha-2C>
6.3

$$$$
299462
  Marvin  02231216192D 0   1.00000     0.00000     0

 25 28  0  0  1  0  0  0  0  0999 V2000
    2.1149    1.1481    0.0000 O   0  0  0  0  0  0  0  0  0
    1.4004    0.7356    0.0000 C   0  0  0  0  0  0  0  0  0
    1.4004   -0.0894    0.0000 C   0  0  0  0  0  0  0  0  0
    0.6859   -0.5019    0.0000 C   0  0  0  0  0  0  0  0  0
    0.6859   -1.3269    0.0000 N   0  0  0  0  0  0  0  0  0
    1.4004   -1.7394    0.0000 C   0  0  0  0  0  0  0  0  0
    1.4004   -2.5644    0.0000 C   0  0  0  0  0  0  0  0  0
    0.6859   -2.9769    0.0000 C   0  0  0  0  0  0  0  0  0
   -0.0285   -2.5644    0.0000 C   0  0  0  0  0  0  0  0  0
   -0.0285   -1.7394    0.0000 C   0  0  0  0  0  0  0  0  0
    0.6859   -3.8019    0.0000 C   0  0  0  0  0  0  0  0  0
   -0.0285   -4.2144    0.0000 C   0  0  0  0  0  0  0  0  0
   -0.0285   -5.0394    0.0000 C   0  0  0  0  0  0  0  0  0
   -0.7430   -5.4519    0.0000 C   0  0  0  0  0  0  0  0  0
   -1.4575   -5.0394    0.0000 C   0  0  0  0  0  0  0  0  0
   -1.4575   -4.2144    0.0000 C   0  0  0  0  0  0  0  0  0
   -0.7430   -3.8019    0.0000 C   0  0  0  0  0  0  0  0  0
    2.1149   -0.5019    0.0000 C   0  0  0  0  0  0  0  0  0
    2.1149   -1.3269    0.0000 O   0  0  0  0  0  0  0  0  0
    2.8294   -0.0894    0.0000 C   0  0  0  0  0  0  0  0  0
    2.8294    0.7356    0.0000 C   0  0  0  0  0  0  0  0  0
    3.5438    1.1481    0.0000 C   0  0  0  0  0  0  0  0  0
    4.2583    0.7356    0.0000 C   0  0  0  0  0  0  0  0  0
    4.2583   -0.0894    0.0000 C   0  0  0  0  0  0  0  0  0
    3.5438   -0.5019    0.0000 C   0  0  0  0  0  0  0  0  0
  1  2  1  0  0  0  0
  1 21  1  0  0  0  0
  2  3  1  0  0  0  0
  3  4  1  0  0  0  0
  3 18  1  0  0  0  0
  4  5  1  0  0  0  0
  5  6  1  0  0  0  0
  5 10  1  0  0  0  0
  6  7  1  0  0  0  0
  7  8  1  0  0  0  0
  8  9  1  0  0  0  0
  8 11  1  0  0  0  0
  9 10  1  0  0  0  0
 11 12  1  0  0  0  0
 12 13  4  0  0  0  0
 12 17  4  0  0  0  0
 13 14  4  0  0  0  0
 14 15  4  0  0  0  0
 15 16  4  0  0  0  0
 16 17  4  0  0  0  0
 18 19  2  0  0  0  0
 18 20  1  0  0  0  0
 20 21  4  0  0  0  0
 20 25  4  0  0  0  0
 21 22  4  0  0  0  0
 22 23  4  0  0  0  0
 23 24  4  0  0  0  0
 24 25  4  0  0  0  0
M  END
>  <Name_Molregno>
299462

>  <5-HT1A>
6.59

$$$$
299463
  Marvin  02231216192D 0   1.00000     0.00000     0

 25 28  0  0  0  0  0  0  0  0999 V2000
    2.1149    1.1481    0.0000 O   0  0  0  0  0  0  0  0  0
    1.4004    0.7356    0.0000 C   0  0  0  0  0  0  0  0  0
    1.4004   -0.0894    0.0000 C   0  0  0  0  0  0  0  0  0
    0.6859   -0.5019    0.0000 C   0  0  0  0  0  0  0  0  0
    0.6859   -1.3269    0.0000 N   0  0  0  0  0  0  0  0  0
    1.4004   -1.7394    0.0000 C   0  0  0  0  0  0  0  0  0
    1.4004   -2.5644    0.0000 C   0  0  0  0  0  0  0  0  0
    0.6859   -2.9769    0.0000 C   0  0  0  0  0  0  0  0  0
   -0.0285   -2.5644    0.0000 C   0  0  0  0  0  0  0  0  0
   -0.0285   -1.7394    0.0000 C   0  0  0  0  0  0  0  0  0
    0.6859   -3.8019    0.0000 C   0  0  0  0  0  0  0  0  0
   -0.0285   -4.2144    0.0000 C   0  0  0  0  0  0  0  0  0
   -0.0285   -5.0394    0.0000 C   0  0  0  0  0  0  0  0  0
   -0.7430   -5.4519    0.0000 C   0  0  0  0  0  0  0  0  0
   -1.4575   -5.0394    0.0000 C   0  0  0  0  0  0  0  0  0
   -1.4575   -4.2144    0.0000 C   0  0  0  0  0  0  0  0  0
   -0.7430   -3.8019    0.0000 C   0  0  0  0  0  0  0  0  0
    2.1149   -0.5019    0.0000 C   0  0  0  0  0  0  0  0  0
    2.1149   -1.3269    0.0000 O   0  0  0  0  0  0  0  0  0
    2.8294   -0.0894    0.0000 C   0  0  0  0  0  0  0  0  0
    2.8294    0.7356    0.0000 C   0  0  0  0  0  0  0  0  0
    3.5438    1.1481    0.0000 C   0  0  0  0  0  0  0  0  0
    4.2583    0.7356    0.0000 C   0  0  0  0  0  0  0  0  0
    4.2583   -0.0894    0.0000 C   0  0  0  0  0  0  0  0  0
    3.5438   -0.5019    0.0000 C   0  0  0  0  0  0  0  0  0
  1  2  1  0  0  0  0
  1 21  1  0  0  0  0
  2  3  2  0  0  0  0
  3  4  1  0  0  0  0
  3 18  1  0  0  0  0
  4  5  1  0  0  0  0
  5  6  1  0  0  0  0
  5 10  1  0  0  0  0
  6  7  1  0  0  0  0
  7  8  1  0  0  0  0
  8  9  1  0  0  0  0
  8 11  1  0  0  0  0
  9 10  1  0  0  0  0
 11 12  1  0  0  0  0
 12 13  4  0  0  0  0
 12 17  4  0  0  0  0
 13 14  4  0  0  0  0
 14 15  4  0  0  0  0
 15 16  4  0  0  0  0
 16 17  4  0  0  0  0
 18 19  2  0  0  0  0
 18 20  1  0  0  0  0
 20 21  4  0  0  0  0
 20 25  4  0  0  0  0
 21 22  4  0  0  0  0
 22 23  4  0  0  0  0
 23 24  4  0  0  0  0
 24 25  4  0  0  0  0
M  END
>  <Name_Molregno>
299463

>  <5-HT1A>
6.92

$$$$
299466
  Marvin  02231216192D 0   1.00000     0.00000     0

 25 28  0  0  1  0  0  0  0  0999 V2000
   -0.2993   -0.5422    0.0000 O   0  0  0  0  0  0  0  0  0
   -0.2993   -1.3672    0.0000 C   0  0  0  0  0  0  0  0  0
   -1.0138   -1.7797    0.0000 C   0  0  0  0  0  0  0  0  0
   -1.0138   -2.6047    0.0000 C   0  0  0  0  0  0  0  0  0
   -0.2993   -3.0172    0.0000 C   0  0  0  0  0  0  0  0  0
    0.4152   -2.6047    0.0000 C   0  0  0  0  0  0  0  0  0
    0.4152   -1.7797    0.0000 C   0  0  0  0  0  0  0  0  0
    1.1296   -1.3672    0.0000 C   0  0  0  0  0  0  0  0  0
    1.8441   -1.7797    0.0000 C   0  0  0  0  0  0  0  0  0
    1.8441   -2.6047    0.0000 C   0  0  0  0  0  0  0  0  0
    1.1296   -3.0172    0.0000 C   0  0  0  0  0  0  0  0  0
   -1.7282   -3.0172    0.0000 C   0  0  0  0  0  0  0  0  0
   -2.4427   -2.6047    0.0000 N   0  0  0  0  0  0  0  0  0
   -3.1572   -3.0172    0.0000 C   0  0  0  0  0  0  0  0  0
   -3.8717   -2.6047    0.0000 C   0  0  0  0  0  0  0  0  0
   -3.8717   -1.7797    0.0000 N   0  0  0  0  0  0  0  0  0
   -3.1572   -1.3672    0.0000 C   0  0  0  0  0  0  0  0  0
   -2.4427   -1.7797    0.0000 C   0  0  0  0  0  0  0  0  0
   -4.5861   -1.3672    0.0000 C   0  0  0  0  0  0  0  0  0
   -4.5861   -0.5422    0.0000 C   0  0  0  0  0  0  0  0  0
   -5.3006   -0.1297    0.0000 C   0  0  0  0  0  0  0  0  0
   -5.3006    0.6953    0.0000 C   0  0  0  0  0  0  0  0  0
   -4.5861    1.1078    0.0000 C   0  0  0  0  0  0  0  0  0
   -3.8717    0.6953    0.0000 C   0  0  0  0  0  0  0  0  0
   -3.8717   -0.1297    0.0000 C   0  0  0  0  0  0  0  0  0
  1  2  2  0  0  0  0
  2  3  1  0  0  0  0
  2  7  1  0  0  0  0
  3  4  1  0  0  0  0
  4  5  1  0  0  0  0
  4 12  1  0  0  0  0
  5  6  1  0  0  0  0
  6  7  4  0  0  0  0
  6 11  4  0  0  0  0
  7  8  4  0  0  0  0
  8  9  4  0  0  0  0
  9 10  4  0  0  0  0
 10 11  4  0  0  0  0
 12 13  1  0  0  0  0
 13 14  1  0  0  0  0
 13 18  1  0  0  0  0
 14 15  1  0  0  0  0
 15 16  1  0  0  0  0
 16 17  1  0  0  0  0
 16 19  1  0  0  0  0
 17 18  1  0  0  0  0
 19 20  1  0  0  0  0
 20 21  4  0  0  0  0
 20 25  4  0  0  0  0
 21 22  4  0  0  0  0
 22 23  4  0  0  0  0
 23 24  4  0  0  0  0
 24 25  4  0  0  0  0
M  END
>  <Name_Molregno>
299466

>  <5-HT1A>
6

$$$$
299467
  Marvin  02231216192D 0   1.00000     0.00000     0

 24 27  0  0  1  0  0  0  0  0999 V2000
   -0.3001   -0.6327    0.0000 O   0  0  0  0  0  0  0  0  0
    0.4144   -0.2202    0.0000 C   0  0  0  0  0  0  0  0  0
    0.4144    0.6048    0.0000 C   0  0  0  0  0  0  0  0  0
   -0.3001    1.0173    0.0000 C   0  0  0  0  0  0  0  0  0
   -1.0146    0.6048    0.0000 C   0  0  0  0  0  0  0  0  0
   -1.0146   -0.2202    0.0000 C   0  0  0  0  0  0  0  0  0
   -1.7290   -0.6327    0.0000 C   0  0  0  0  0  0  0  0  0
   -2.4435   -0.2202    0.0000 N   0  0  0  0  0  0  0  0  0
   -3.1580   -0.6327    0.0000 C   0  0  0  0  0  0  0  0  0
   -3.8725   -0.2202    0.0000 C   0  0  0  0  0  0  0  0  0
   -3.8725    0.6048    0.0000 N   0  0  0  0  0  0  0  0  0
   -3.1580    1.0173    0.0000 C   0  0  0  0  0  0  0  0  0
   -2.4435    0.6048    0.0000 C   0  0  0  0  0  0  0  0  0
   -4.5869    1.0173    0.0000 C   0  0  0  0  0  0  0  0  0
   -4.5869    1.8423    0.0000 C   0  0  0  0  0  0  0  0  0
   -5.3014    2.2548    0.0000 C   0  0  0  0  0  0  0  0  0
   -5.3014    3.0798    0.0000 C   0  0  0  0  0  0  0  0  0
   -4.5869    3.4923    0.0000 C   0  0  0  0  0  0  0  0  0
   -3.8725    3.0798    0.0000 C   0  0  0  0  0  0  0  0  0
   -3.8725    2.2548    0.0000 C   0  0  0  0  0  0  0  0  0
    1.1288    1.0173    0.0000 C   0  0  0  0  0  0  0  0  0
    1.8433    0.6048    0.0000 C   0  0  0  0  0  0  0  0  0
    1.8433   -0.2202    0.0000 C   0  0  0  0  0  0  0  0  0
    1.1288   -0.6327    0.0000 C   0  0  0  0  0  0  0  0  0
  1  2  1  0  0  0  0
  1  6  1  0  0  0  0
  2  3  4  0  0  0  0
  2 24  4  0  0  0  0
  3  4  1  0  0  0  0
  3 21  4  0  0  0  0
  4  5  1  0  0  0  0
  5  6  1  0  0  0  0
  6  7  1  0  0  0  0
  7  8  1  0  0  0  0
  8  9  1  0  0  0  0
  8 13  1  0  0  0  0
  9 10  1  0  0  0  0
 10 11  1  0  0  0  0
 11 12  1  0  0  0  0
 11 14  1  0  0  0  0
 12 13  1  0  0  0  0
 14 15  1  0  0  0  0
 15 16  4  0  0  0  0
 15 20  4  0  0  0  0
 16 17  4  0  0  0  0
 17 18  4  0  0  0  0
 18 19  4  0  0  0  0
 19 20  4  0  0  0  0
 21 22  4  0  0  0  0
 22 23  4  0  0  0  0
 23 24  4  0  0  0  0
M  END
>  <Name_Molregno>
299467

>  <5-HT1A>
7.68

>  <Alpha-2A>
6.81

>  <Alpha-2B>
6.94

>  <Alpha-2C>
7.69

$$$$
299485
  Marvin  02231216192D 0   1.00000     0.00000     0

 24 27  0  0  1  0  0  0  0  0999 V2000
    3.7574   -1.4794    0.0000 O   0  0  0  0  0  0  0  0  0
    4.0123   -0.6947    0.0000 C   0  0  0  0  0  0  0  0  0
    4.7969   -0.4398    0.0000 C   0  0  0  0  0  0  0  0  0
    4.7969    0.3852    0.0000 C   0  0  0  0  0  0  0  0  0
    4.0123    0.6401    0.0000 C   0  0  0  0  0  0  0  0  0
    3.5274   -0.0273    0.0000 C   0  0  0  0  0  0  0  0  0
    2.7024   -0.0273    0.0000 C   0  0  0  0  0  0  0  0  0
    2.2899   -0.7418    0.0000 N   0  0  0  0  0  0  0  0  0
    2.7024   -1.4562    0.0000 C   0  0  0  0  0  0  0  0  0
    2.2899   -2.1707    0.0000 C   0  0  0  0  0  0  0  0  0
    1.4649   -2.1707    0.0000 C   0  0  0  0  0  0  0  0  0
    1.0524   -1.4562    0.0000 C   0  0  0  0  0  0  0  0  0
    1.4649   -0.7418    0.0000 C   0  0  0  0  0  0  0  0  0
    1.0524   -2.8852    0.0000 C   0  0  0  0  0  0  0  0  0
    0.2274   -2.8852    0.0000 C   0  0  0  0  0  0  0  0  0
   -0.1851   -3.5997    0.0000 C   0  0  0  0  0  0  0  0  0
   -1.0101   -3.5997    0.0000 C   0  0  0  0  0  0  0  0  0
   -1.4226   -2.8852    0.0000 C   0  0  0  0  0  0  0  0  0
   -1.0101   -2.1707    0.0000 C   0  0  0  0  0  0  0  0  0
   -0.1851   -2.1707    0.0000 C   0  0  0  0  0  0  0  0  0
    5.5114    0.7977    0.0000 C   0  0  0  0  0  0  0  0  0
    6.2259    0.3852    0.0000 C   0  0  0  0  0  0  0  0  0
    6.2259   -0.4398    0.0000 C   0  0  0  0  0  0  0  0  0
    5.5114   -0.8523    0.0000 C   0  0  0  0  0  0  0  0  0
  1  2  2  0  0  0  0
  2  3  1  0  0  0  0
  2  6  1  0  0  0  0
  3  4  4  0  0  0  0
  3 24  4  0  0  0  0
  4  5  1  0  0  0  0
  4 21  4  0  0  0  0
  5  6  1  0  0  0  0
  6  7  1  0  0  0  0
  7  8  1  0  0  0  0
  8  9  1  0  0  0  0
  8 13  1  0  0  0  0
  9 10  1  0  0  0  0
 10 11  1  0  0  0  0
 11 12  1  0  0  0  0
 11 14  1  0  0  0  0
 12 13  1  0  0  0  0
 14 15  1  0  0  0  0
 15 16  4  0  0  0  0
 15 20  4  0  0  0  0
 16 17  4  0  0  0  0
 17 18  4  0  0  0  0
 18 19  4  0  0  0  0
 19 20  4  0  0  0  0
 21 22  4  0  0  0  0
 22 23  4  0  0  0  0
 23 24  4  0  0  0  0
M  END
>  <Name_Molregno>
299485

>  <5-HT1A>
6

$$$$
299486
  Marvin  02231216192D 0   1.00000     0.00000     0

 26 29  0  0  1  0  0  0  0  0999 V2000
   -0.1023   -1.7111    0.0000 O   0  0  0  0  0  0  0  0  0
    0.0813   -0.9068    0.0000 C   0  0  0  0  0  0  0  0  0
   -0.5637   -0.3924    0.0000 C   0  0  0  0  0  0  0  0  0
   -0.5637    0.4326    0.0000 C   0  0  0  0  0  0  0  0  0
    0.0813    0.9469    0.0000 C   0  0  0  0  0  0  0  0  0
    0.8856    0.7634    0.0000 C   0  0  0  0  0  0  0  0  0
    1.2436    0.0201    0.0000 C   0  0  0  0  0  0  0  0  0
    0.8856   -0.7232    0.0000 C   0  0  0  0  0  0  0  0  0
    1.4000   -1.3682    0.0000 C   0  0  0  0  0  0  0  0  0
    2.2158   -1.2453    0.0000 N   0  0  0  0  0  0  0  0  0
    2.5172   -0.4773    0.0000 C   0  0  0  0  0  0  0  0  0
    3.3330   -0.3544    0.0000 C   0  0  0  0  0  0  0  0  0
    3.8474   -0.9994    0.0000 C   0  0  0  0  0  0  0  0  0
    3.5460   -1.7673    0.0000 C   0  0  0  0  0  0  0  0  0
    2.7302   -1.8903    0.0000 C   0  0  0  0  0  0  0  0  0
    4.6632   -0.8764    0.0000 C   0  0  0  0  0  0  0  0  0
    5.1775   -1.5214    0.0000 C   0  0  0  0  0  0  0  0  0
    5.9933   -1.3985    0.0000 C   0  0  0  0  0  0  0  0  0
    6.5077   -2.0435    0.0000 C   0  0  0  0  0  0  0  0  0
    6.2063   -2.8114    0.0000 C   0  0  0  0  0  0  0  0  0
    5.3905   -2.9344    0.0000 C   0  0  0  0  0  0  0  0  0
    4.8761   -2.2894    0.0000 C   0  0  0  0  0  0  0  0  0
   -1.2782    0.8451    0.0000 C   0  0  0  0  0  0  0  0  0
   -1.9926    0.4326    0.0000 C   0  0  0  0  0  0  0  0  0
   -1.9926   -0.3924    0.0000 C   0  0  0  0  0  0  0  0  0
   -1.2782   -0.8049    0.0000 C   0  0  0  0  0  0  0  0  0
  1  2  2  0  0  0  0
  2  3  1  0  0  0  0
  2  8  1  0  0  0  0
  3  4  4  0  0  0  0
  3 26  4  0  0  0  0
  4  5  1  0  0  0  0
  4 23  4  0  0  0  0
  5  6  1  0  0  0  0
  6  7  1  0  0  0  0
  7  8  1  0  0  0  0
  8  9  1  0  0  0  0
  9 10  1  0  0  0  0
 10 11  1  0  0  0  0
 10 15  1  0  0  0  0
 11 12  1  0  0  0  0
 12 13  1  0  0  0  0
 13 14  1  0  0  0  0
 13 16  1  0  0  0  0
 14 15  1  0  0  0  0
 16 17  1  0  0  0  0
 17 18  4  0  0  0  0
 17 22  4  0  0  0  0
 18 19  4  0  0  0  0
 19 20  4  0  0  0  0
 20 21  4  0  0  0  0
 21 22  4  0  0  0  0
 23 24  4  0  0  0  0
 24 25  4  0  0  0  0
 25 26  4  0  0  0  0
M  END
>  <Name_Molregno>
299486

>  <5-HT1A>
6

$$$$
299490
  Marvin  02231216192D 0   1.00000     0.00000     0

 24 27  0  0  1  0  0  0  0  0999 V2000
   -0.3001   -0.6327    0.0000 O   0  0  0  0  0  0  0  0  0
    0.4144   -0.2202    0.0000 C   0  0  0  0  0  0  0  0  0
    0.4144    0.6048    0.0000 C   0  0  0  0  0  0  0  0  0
   -0.3001    1.0173    0.0000 O   0  0  0  0  0  0  0  0  0
   -1.0146    0.6048    0.0000 C   0  0  0  0  0  0  0  0  0
   -1.0146   -0.2202    0.0000 C   0  0  0  0  0  0  0  0  0
   -1.7290   -0.6327    0.0000 C   0  0  0  0  0  0  0  0  0
   -2.4435   -0.2202    0.0000 N   0  0  0  0  0  0  0  0  0
   -3.1580   -0.6327    0.0000 C   0  0  0  0  0  0  0  0  0
   -3.8725   -0.2202    0.0000 C   0  0  0  0  0  0  0  0  0
   -3.8725    0.6048    0.0000 N   0  0  0  0  0  0  0  0  0
   -3.1580    1.0173    0.0000 C   0  0  0  0  0  0  0  0  0
   -2.4435    0.6048    0.0000 C   0  0  0  0  0  0  0  0  0
   -4.5869    1.0173    0.0000 C   0  0  0  0  0  0  0  0  0
   -4.5869    1.8423    0.0000 C   0  0  0  0  0  0  0  0  0
   -5.3014    2.2548    0.0000 C   0  0  0  0  0  0  0  0  0
   -5.3014    3.0798    0.0000 C   0  0  0  0  0  0  0  0  0
   -4.5869    3.4923    0.0000 C   0  0  0  0  0  0  0  0  0
   -3.8725    3.0798    0.0000 C   0  0  0  0  0  0  0  0  0
   -3.8725    2.2548    0.0000 C   0  0  0  0  0  0  0  0  0
    1.1288    1.0173    0.0000 C   0  0  0  0  0  0  0  0  0
    1.8433    0.6048    0.0000 C   0  0  0  0  0  0  0  0  0
    1.8433   -0.2202    0.0000 C   0  0  0  0  0  0  0  0  0
    1.1288   -0.6327    0.0000 C   0  0  0  0  0  0  0  0  0
  1  2  1  0  0  0  0
  1  6  1  0  0  0  0
  2  3  4  0  0  0  0
  2 24  4  0  0  0  0
  3  4  1  0  0  0  0
  3 21  4  0  0  0  0
  4  5  1  0  0  0  0
  5  6  1  0  0  0  0
  6  7  1  0  0  0  0
  7  8  1  0  0  0  0
  8  9  1  0  0  0  0
  8 13  1  0  0  0  0
  9 10  1  0  0  0  0
 10 11  1  0  0  0  0
 11 12  1  0  0  0  0
 11 14  1  0  0  0  0
 12 13  1  0  0  0  0
 14 15  1  0  0  0  0
 15 16  4  0  0  0  0
 15 20  4  0  0  0  0
 16 17  4  0  0  0  0
 17 18  4  0  0  0  0
 18 19  4  0  0  0  0
 19 20  4  0  0  0  0
 21 22  4  0  0  0  0
 22 23  4  0  0  0  0
 23 24  4  0  0  0  0
M  END
>  <Name_Molregno>
299490

>  <5-HT1A>
7.16

$$$$
299500
  Marvin  02231216192D 0   1.00000     0.00000     0

 26 29  0  0  1  0  0  0  0  0999 V2000
   -4.9011    3.7216    0.0000 O   0  0  0  0  0  0  0  0  0
   -5.6156    4.1341    0.0000 C   0  0  0  0  0  0  0  0  0
   -4.9011    2.8966    0.0000 C   0  0  0  0  0  0  0  0  0
   -4.1867    2.4841    0.0000 C   0  0  0  0  0  0  0  0  0
   -3.4722    2.8966    0.0000 C   0  0  0  0  0  0  0  0  0
   -2.7577    2.4841    0.0000 C   0  0  0  0  0  0  0  0  0
   -2.7577    1.6591    0.0000 C   0  0  0  0  0  0  0  0  0
   -3.4722    1.2466    0.0000 C   0  0  0  0  0  0  0  0  0
   -4.1867    1.6591    0.0000 C   0  0  0  0  0  0  0  0  0
   -4.9011    1.2466    0.0000 C   0  0  0  0  0  0  0  0  0
   -5.6156    1.6591    0.0000 C   0  0  0  0  0  0  0  0  0
   -5.6156    2.4841    0.0000 C   0  0  0  0  0  0  0  0  0
   -2.0432    1.2466    0.0000 C   0  0  0  0  0  0  0  0  0
   -2.0432    0.4216    0.0000 N   0  0  0  0  0  0  0  0  0
   -1.3288    0.0091    0.0000 C   0  0  0  0  0  0  0  0  0
   -1.3288   -0.8159    0.0000 C   0  0  0  0  0  0  0  0  0
   -2.0432   -1.2284    0.0000 C   0  0  0  0  0  0  0  0  0
   -2.7577   -0.8159    0.0000 C   0  0  0  0  0  0  0  0  0
   -2.7577    0.0091    0.0000 C   0  0  0  0  0  0  0  0  0
   -2.0432   -2.0534    0.0000 C   0  0  0  0  0  0  0  0  0
   -2.7577   -2.4659    0.0000 C   0  0  0  0  0  0  0  0  0
   -2.7577   -3.2909    0.0000 C   0  0  0  0  0  0  0  0  0
   -3.4722   -3.7034    0.0000 C   0  0  0  0  0  0  0  0  0
   -4.1867   -3.2909    0.0000 C   0  0  0  0  0  0  0  0  0
   -4.1867   -2.4659    0.0000 C   0  0  0  0  0  0  0  0  0
   -3.4722   -2.0534    0.0000 C   0  0  0  0  0  0  0  0  0
  1  2  1  0  0  0  0
  1  3  1  0  0  0  0
  3  4  4  0  0  0  0
  3 12  4  0  0  0  0
  4  5  1  0  0  0  0
  4  9  4  0  0  0  0
  5  6  1  0  0  0  0
  6  7  1  0  0  0  0
  7  8  1  0  0  0  0
  7 13  1  0  0  0  0
  8  9  1  0  0  0  0
  9 10  4  0  0  0  0
 10 11  4  0  0  0  0
 11 12  4  0  0  0  0
 13 14  1  0  0  0  0
 14 15  1  0  0  0  0
 14 19  1  0  0  0  0
 15 16  1  0  0  0  0
 16 17  1  0  0  0  0
 17 18  1  0  0  0  0
 17 20  1  0  0  0  0
 18 19  1  0  0  0  0
 20 21  1  0  0  0  0
 21 22  4  0  0  0  0
 21 26  4  0  0  0  0
 22 23  4  0  0  0  0
 23 24  4  0  0  0  0
 24 25  4  0  0  0  0
 25 26  4  0  0  0  0
M  END
>  <Name_Molregno>
299500

>  <5-HT1A>
6

$$$$
299503
  Marvin  02231216192D 0   1.00000     0.00000     0

 24 27  0  0  1  0  0  0  0  0999 V2000
   -0.3001   -0.6327    0.0000 O   0  0  0  0  0  0  0  0  0
    0.4144   -0.2202    0.0000 C   0  0  0  0  0  0  0  0  0
    0.4144    0.6048    0.0000 C   0  0  0  0  0  0  0  0  0
   -0.3001    1.0173    0.0000 C   0  0  0  0  0  0  0  0  0
   -1.0146    0.6048    0.0000 C   0  0  0  0  0  0  0  0  0
   -1.0146   -0.2202    0.0000 C   0  0  0  0  0  0  0  0  0
   -1.7290   -0.6327    0.0000 C   0  0  0  0  0  0  0  0  0
   -2.4435   -0.2202    0.0000 N   0  0  0  0  0  0  0  0  0
   -3.1580   -0.6327    0.0000 C   0  0  0  0  0  0  0  0  0
   -3.8725   -0.2202    0.0000 C   0  0  0  0  0  0  0  0  0
   -3.8725    0.6048    0.0000 C   0  0  0  0  0  0  0  0  0
   -3.1580    1.0173    0.0000 C   0  0  0  0  0  0  0  0  0
   -2.4435    0.6048    0.0000 C   0  0  0  0  0  0  0  0  0
   -4.5869    1.0173    0.0000 C   0  0  0  0  0  0  0  0  0
   -4.5869    1.8423    0.0000 C   0  0  0  0  0  0  0  0  0
   -5.3014    2.2548    0.0000 C   0  0  0  0  0  0  0  0  0
   -5.3014    3.0798    0.0000 C   0  0  0  0  0  0  0  0  0
   -4.5869    3.4923    0.0000 C   0  0  0  0  0  0  0  0  0
   -3.8725    3.0798    0.0000 C   0  0  0  0  0  0  0  0  0
   -3.8725    2.2548    0.0000 C   0  0  0  0  0  0  0  0  0
    1.1288    1.0173    0.0000 C   0  0  0  0  0  0  0  0  0
    1.8433    0.6048    0.0000 C   0  0  0  0  0  0  0  0  0
    1.8433   -0.2202    0.0000 C   0  0  0  0  0  0  0  0  0
    1.1288   -0.6327    0.0000 C   0  0  0  0  0  0  0  0  0
  1  2  1  0  0  0  0
  1  6  1  0  0  0  0
  2  3  4  0  0  0  0
  2 24  4  0  0  0  0
  3  4  1  0  0  0  0
  3 21  4  0  0  0  0
  4  5  1  0  0  0  0
  5  6  1  0  0  0  0
  6  7  1  0  0  0  0
  7  8  1  0  0  0  0
  8  9  1  0  0  0  0
  8 13  1  0  0  0  0
  9 10  1  0  0  0  0
 10 11  1  0  0  0  0
 11 12  1  0  0  0  0
 11 14  1  0  0  0  0
 12 13  1  0  0  0  0
 14 15  1  0  0  0  0
 15 16  4  0  0  0  0
 15 20  4  0  0  0  0
 16 17  4  0  0  0  0
 17 18  4  0  0  0  0
 18 19  4  0  0  0  0
 19 20  4  0  0  0  0
 21 22  4  0  0  0  0
 22 23  4  0  0  0  0
 23 24  4  0  0  0  0
M  END
>  <Name_Molregno>
299503

>  <5-HT1A>
7.94

$$$$
299504
  Marvin  02231216192D 0   1.00000     0.00000     0

 24 27  0  0  1  0  0  0  0  0999 V2000
   -0.3001   -0.6327    0.0000 O   0  0  0  0  0  0  0  0  0
    0.4144   -0.2202    0.0000 C   0  0  0  0  0  0  0  0  0
    0.4144    0.6048    0.0000 C   0  0  0  0  0  0  0  0  0
   -0.3001    1.0173    0.0000 O   0  0  0  0  0  0  0  0  0
   -1.0146    0.6048    0.0000 C   0  0  0  0  0  0  0  0  0
   -1.0146   -0.2202    0.0000 C   0  0  0  0  0  0  0  0  0
   -1.7290   -0.6327    0.0000 C   0  0  0  0  0  0  0  0  0
   -2.4435   -0.2202    0.0000 N   0  0  0  0  0  0  0  0  0
   -3.1580   -0.6327    0.0000 C   0  0  0  0  0  0  0  0  0
   -3.8725   -0.2202    0.0000 C   0  0  0  0  0  0  0  0  0
   -3.8725    0.6048    0.0000 C   0  0  0  0  0  0  0  0  0
   -3.1580    1.0173    0.0000 C   0  0  0  0  0  0  0  0  0
   -2.4435    0.6048    0.0000 C   0  0  0  0  0  0  0  0  0
   -4.5869    1.0173    0.0000 C   0  0  0  0  0  0  0  0  0
   -4.5869    1.8423    0.0000 C   0  0  0  0  0  0  0  0  0
   -5.3014    2.2548    0.0000 C   0  0  0  0  0  0  0  0  0
   -5.3014    3.0798    0.0000 C   0  0  0  0  0  0  0  0  0
   -4.5869    3.4923    0.0000 C   0  0  0  0  0  0  0  0  0
   -3.8725    3.0798    0.0000 C   0  0  0  0  0  0  0  0  0
   -3.8725    2.2548    0.0000 C   0  0  0  0  0  0  0  0  0
    1.1288    1.0173    0.0000 C   0  0  0  0  0  0  0  0  0
    1.8433    0.6048    0.0000 C   0  0  0  0  0  0  0  0  0
    1.8433   -0.2202    0.0000 C   0  0  0  0  0  0  0  0  0
    1.1288   -0.6327    0.0000 C   0  0  0  0  0  0  0  0  0
  1  2  1  0  0  0  0
  1  6  1  0  0  0  0
  2  3  4  0  0  0  0
  2 24  4  0  0  0  0
  3  4  1  0  0  0  0
  3 21  4  0  0  0  0
  4  5  1  0  0  0  0
  5  6  1  0  0  0  0
  6  7  1  0  0  0  0
  7  8  1  0  0  0  0
  8  9  1  0  0  0  0
  8 13  1  0  0  0  0
  9 10  1  0  0  0  0
 10 11  1  0  0  0  0
 11 12  1  0  0  0  0
 11 14  1  0  0  0  0
 12 13  1  0  0  0  0
 14 15  1  0  0  0  0
 15 16  4  0  0  0  0
 15 20  4  0  0  0  0
 16 17  4  0  0  0  0
 17 18  4  0  0  0  0
 18 19  4  0  0  0  0
 19 20  4  0  0  0  0
 21 22  4  0  0  0  0
 22 23  4  0  0  0  0
 23 24  4  0  0  0  0
M  END
>  <Name_Molregno>
299504

>  <5-HT1A>
7.75

$$$$
299507
  Marvin  02231216192D 0   1.00000     0.00000     0

 26 29  0  0  1  0  0  0  0  0999 V2000
   -7.1907    1.9172    0.0000 O   0  0  0  0  0  0  0  0  0
   -7.9051    1.5047    0.0000 C   0  0  0  0  0  0  0  0  0
   -6.4762    1.5047    0.0000 C   0  0  0  0  0  0  0  0  0
   -5.7617    1.9172    0.0000 C   0  0  0  0  0  0  0  0  0
   -5.0472    1.5047    0.0000 C   0  0  0  0  0  0  0  0  0
   -4.3328    1.9172    0.0000 C   0  0  0  0  0  0  0  0  0
   -3.6183    1.5047    0.0000 C   0  0  0  0  0  0  0  0  0
   -3.6183    0.6797    0.0000 C   0  0  0  0  0  0  0  0  0
   -4.3328    0.2672    0.0000 C   0  0  0  0  0  0  0  0  0
   -5.0472    0.6797    0.0000 C   0  0  0  0  0  0  0  0  0
   -5.7617    0.2672    0.0000 C   0  0  0  0  0  0  0  0  0
   -6.4762    0.6797    0.0000 C   0  0  0  0  0  0  0  0  0
   -2.9038    0.2672    0.0000 C   0  0  0  0  0  0  0  0  0
   -2.9038   -0.5578    0.0000 N   0  0  0  0  0  0  0  0  0
   -2.1894   -0.9703    0.0000 C   0  0  0  0  0  0  0  0  0
   -2.1894   -1.7953    0.0000 C   0  0  0  0  0  0  0  0  0
   -2.9038   -2.2078    0.0000 C   0  0  0  0  0  0  0  0  0
   -3.6183   -1.7953    0.0000 C   0  0  0  0  0  0  0  0  0
   -3.6183   -0.9703    0.0000 C   0  0  0  0  0  0  0  0  0
   -2.9038   -3.0328    0.0000 C   0  0  0  0  0  0  0  0  0
   -3.6183   -3.4453    0.0000 C   0  0  0  0  0  0  0  0  0
   -3.6183   -4.2703    0.0000 C   0  0  0  0  0  0  0  0  0
   -4.3328   -4.6828    0.0000 C   0  0  0  0  0  0  0  0  0
   -5.0472   -4.2703    0.0000 C   0  0  0  0  0  0  0  0  0
   -5.0472   -3.4453    0.0000 C   0  0  0  0  0  0  0  0  0
   -4.3328   -3.0328    0.0000 C   0  0  0  0  0  0  0  0  0
  1  2  1  0  0  0  0
  1  3  1  0  0  0  0
  3  4  4  0  0  0  0
  3 12  4  0  0  0  0
  4  5  4  0  0  0  0
  5  6  1  0  0  0  0
  5 10  4  0  0  0  0
  6  7  1  0  0  0  0
  7  8  1  0  0  0  0
  8  9  1  0  0  0  0
  8 13  1  0  0  0  0
  9 10  1  0  0  0  0
 10 11  4  0  0  0  0
 11 12  4  0  0  0  0
 13 14  1  0  0  0  0
 14 15  1  0  0  0  0
 14 19  1  0  0  0  0
 15 16  1  0  0  0  0
 16 17  1  0  0  0  0
 17 18  1  0  0  0  0
 17 20  1  0  0  0  0
 18 19  1  0  0  0  0
 20 21  1  0  0  0  0
 21 22  4  0  0  0  0
 21 26  4  0  0  0  0
 22 23  4  0  0  0  0
 23 24  4  0  0  0  0
 24 25  4  0  0  0  0
 25 26  4  0  0  0  0
M  END
>  <Name_Molregno>
299507

>  <5-HT1A>
6

$$$$
299509
  Marvin  02231216192D 0   1.00000     0.00000     0

 23 26  0  0  0  0  0  0  0  0999 V2000
   -0.0125    1.0449    0.0000 N   0  0  0  0  0  0  0  0  0
    0.4000    0.3304    0.0000 C   0  0  0  0  0  0  0  0  0
   -0.0125   -0.3841    0.0000 C   0  0  0  0  0  0  0  0  0
   -0.8375   -0.3841    0.0000 C   0  0  0  0  0  0  0  0  0
   -1.2500    0.3304    0.0000 C   0  0  0  0  0  0  0  0  0
   -0.8375    1.0449    0.0000 C   0  0  0  0  0  0  0  0  0
   -1.2500   -1.0985    0.0000 C   0  0  0  0  0  0  0  0  0
   -2.0750   -1.0985    0.0000 C   0  0  0  0  0  0  0  0  0
   -2.4875   -1.8130    0.0000 C   0  0  0  0  0  0  0  0  0
   -3.3125   -1.8130    0.0000 C   0  0  0  0  0  0  0  0  0
   -3.7250   -1.0985    0.0000 C   0  0  0  0  0  0  0  0  0
   -3.3125   -0.3841    0.0000 C   0  0  0  0  0  0  0  0  0
   -2.4875   -0.3841    0.0000 C   0  0  0  0  0  0  0  0  0
    0.4000    1.7593    0.0000 C   0  0  0  0  0  0  0  0  0
    1.2250    1.7593    0.0000 C   0  0  0  0  0  0  0  0  0
    1.7099    1.0919    0.0000 C   0  0  0  0  0  0  0  0  0
    2.4945    1.3468    0.0000 C   0  0  0  0  0  0  0  0  0
    2.4945    2.1718    0.0000 C   0  0  0  0  0  0  0  0  0
    1.7099    2.4268    0.0000 C   0  0  0  0  0  0  0  0  0
    3.2090    2.5843    0.0000 C   0  0  0  0  0  0  0  0  0
    3.9234    2.1718    0.0000 C   0  0  0  0  0  0  0  0  0
    3.9234    1.3468    0.0000 C   0  0  0  0  0  0  0  0  0
    3.2090    0.9343    0.0000 C   0  0  0  0  0  0  0  0  0
  1  2  1  0  0  0  0
  1  6  1  0  0  0  0
  1 14  1  0  0  0  0
  2  3  1  0  0  0  0
  3  4  1  0  0  0  0
  4  5  1  0  0  0  0
  4  7  1  0  0  0  0
  5  6  1  0  0  0  0
  7  8  1  0  0  0  0
  8  9  4  0  0  0  0
  8 13  4  0  0  0  0
  9 10  4  0  0  0  0
 10 11  4  0  0  0  0
 11 12  4  0  0  0  0
 12 13  4  0  0  0  0
 14 15  1  0  0  0  0
 15 16  1  0  0  0  0
 15 19  1  0  0  0  0
 16 17  1  0  0  0  0
 17 18  4  0  0  0  0
 17 23  4  0  0  0  0
 18 19  1  0  0  0  0
 18 20  4  0  0  0  0
 20 21  4  0  0  0  0
 21 22  4  0  0  0  0
 22 23  4  0  0  0  0
M  END
>  <Name_Molregno>
299509

>  <5-HT1A>
6

$$$$
299510
  Marvin  02231216192D 0   1.00000     0.00000     0

 24 27  0  0  1  0  0  0  0  0999 V2000
   -0.0001    0.8141    0.0000 N   0  0  0  0  0  0  0  0  0
   -0.0001   -0.0109    0.0000 C   0  0  0  0  0  0  0  0  0
   -0.7146   -0.4234    0.0000 C   0  0  0  0  0  0  0  0  0
   -1.4291   -0.0109    0.0000 C   0  0  0  0  0  0  0  0  0
   -1.4291    0.8141    0.0000 C   0  0  0  0  0  0  0  0  0
   -0.7146    1.2266    0.0000 C   0  0  0  0  0  0  0  0  0
   -2.1435   -0.4234    0.0000 C   0  0  0  0  0  0  0  0  0
   -2.8580   -0.0109    0.0000 C   0  0  0  0  0  0  0  0  0
   -3.5725   -0.4234    0.0000 C   0  0  0  0  0  0  0  0  0
   -4.2869   -0.0109    0.0000 C   0  0  0  0  0  0  0  0  0
   -4.2869    0.8141    0.0000 C   0  0  0  0  0  0  0  0  0
   -3.5725    1.2266    0.0000 C   0  0  0  0  0  0  0  0  0
   -2.8580    0.8141    0.0000 C   0  0  0  0  0  0  0  0  0
    0.7144    1.2266    0.0000 C   0  0  0  0  0  0  0  0  0
    1.4288    0.8141    0.0000 C   0  0  0  0  0  0  0  0  0
    1.4288   -0.0109    0.0000 C   0  0  0  0  0  0  0  0  0
    2.1433   -0.4234    0.0000 C   0  0  0  0  0  0  0  0  0
    2.8578   -0.0109    0.0000 C   0  0  0  0  0  0  0  0  0
    2.8578    0.8141    0.0000 C   0  0  0  0  0  0  0  0  0
    2.1433    1.2266    0.0000 C   0  0  0  0  0  0  0  0  0
    3.5722    1.2266    0.0000 C   0  0  0  0  0  0  0  0  0
    4.2867    0.8141    0.0000 C   0  0  0  0  0  0  0  0  0
    4.2867   -0.0109    0.0000 C   0  0  0  0  0  0  0  0  0
    3.5722   -0.4234    0.0000 C   0  0  0  0  0  0  0  0  0
  1  2  1  0  0  0  0
  1  6  1  0  0  0  0
  1 14  1  0  0  0  0
  2  3  1  0  0  0  0
  3  4  1  0  0  0  0
  4  5  1  0  0  0  0
  4  7  1  0  0  0  0
  5  6  1  0  0  0  0
  7  8  1  0  0  0  0
  8  9  4  0  0  0  0
  8 13  4  0  0  0  0
  9 10  4  0  0  0  0
 10 11  4  0  0  0  0
 11 12  4  0  0  0  0
 12 13  4  0  0  0  0
 14 15  1  0  0  0  0
 15 16  1  0  0  0  0
 15 20  1  0  0  0  0
 16 17  1  0  0  0  0
 17 18  1  0  0  0  0
 18 19  4  0  0  0  0
 18 24  4  0  0  0  0
 19 20  1  0  0  0  0
 19 21  4  0  0  0  0
 21 22  4  0  0  0  0
 22 23  4  0  0  0  0
 23 24  4  0  0  0  0
M  END
>  <Name_Molregno>
299510

>  <5-HT1A>
6.76

$$$$
299511
  Marvin  02231216192D 0   1.00000     0.00000     0

 25 28  0  0  1  0  0  0  0  0999 V2000
   -0.2863   -0.6065    0.0000 O   0  0  0  0  0  0  0  0  0
    0.4282   -0.1940    0.0000 C   0  0  0  0  0  0  0  0  0
    0.4282    0.6310    0.0000 C   0  0  0  0  0  0  0  0  0
    1.1427    1.0435    0.0000 C   0  0  0  0  0  0  0  0  0
    1.8571    0.6310    0.0000 C   0  0  0  0  0  0  0  0  0
    1.8571   -0.1940    0.0000 C   0  0  0  0  0  0  0  0  0
    1.1427   -0.6065    0.0000 C   0  0  0  0  0  0  0  0  0
   -0.2863    1.0435    0.0000 C   0  0  0  0  0  0  0  0  0
   -0.2863    1.8685    0.0000 O   0  0  0  0  0  0  0  0  0
   -1.0007    0.6310    0.0000 C   0  0  0  0  0  0  0  0  0
   -1.0007   -0.1940    0.0000 C   0  0  0  0  0  0  0  0  0
   -1.7152   -0.6065    0.0000 C   0  0  0  0  0  0  0  0  0
   -2.4297   -0.1940    0.0000 N   0  0  0  0  0  0  0  0  0
   -3.1442   -0.6065    0.0000 C   0  0  0  0  0  0  0  0  0
   -3.8586   -0.1940    0.0000 C   0  0  0  0  0  0  0  0  0
   -3.8586    0.6310    0.0000 N   0  0  0  0  0  0  0  0  0
   -3.1442    1.0435    0.0000 C   0  0  0  0  0  0  0  0  0
   -2.4297    0.6310    0.0000 C   0  0  0  0  0  0  0  0  0
   -4.5731    1.0435    0.0000 C   0  0  0  0  0  0  0  0  0
   -4.5731    1.8685    0.0000 C   0  0  0  0  0  0  0  0  0
   -5.2876    2.2810    0.0000 C   0  0  0  0  0  0  0  0  0
   -5.2876    3.1060    0.0000 C   0  0  0  0  0  0  0  0  0
   -4.5731    3.5185    0.0000 C   0  0  0  0  0  0  0  0  0
   -3.8586    3.1060    0.0000 C   0  0  0  0  0  0  0  0  0
   -3.8586    2.2810    0.0000 C   0  0  0  0  0  0  0  0  0
  1  2  1  0  0  0  0
  1 11  1  0  0  0  0
  2  3  4  0  0  0  0
  2  7  4  0  0  0  0
  3  4  4  0  0  0  0
  3  8  1  0  0  0  0
  4  5  4  0  0  0  0
  5  6  4  0  0  0  0
  6  7  4  0  0  0  0
  8  9  2  0  0  0  0
  8 10  1  0  0  0  0
 10 11  1  0  0  0  0
 11 12  1  0  0  0  0
 12 13  1  0  0  0  0
 13 14  1  0  0  0  0
 13 18  1  0  0  0  0
 14 15  1  0  0  0  0
 15 16  1  0  0  0  0
 16 17  1  0  0  0  0
 16 19  1  0  0  0  0
 17 18  1  0  0  0  0
 19 20  1  0  0  0  0
 20 21  4  0  0  0  0
 20 25  4  0  0  0  0
 21 22  4  0  0  0  0
 22 23  4  0  0  0  0
 23 24  4  0  0  0  0
 24 25  4  0  0  0  0
M  END
>  <Name_Molregno>
299511

>  <5-HT1A>
6

$$$$
299512
  Marvin  02231216192D 0   1.00000     0.00000     0

 25 28  0  0  0  0  0  0  0  0999 V2000
   -0.2863   -0.6065    0.0000 O   0  0  0  0  0  0  0  0  0
    0.4282   -0.1940    0.0000 C   0  0  0  0  0  0  0  0  0
    0.4282    0.6310    0.0000 C   0  0  0  0  0  0  0  0  0
    1.1427    1.0435    0.0000 C   0  0  0  0  0  0  0  0  0
    1.8571    0.6310    0.0000 C   0  0  0  0  0  0  0  0  0
    1.8571   -0.1940    0.0000 C   0  0  0  0  0  0  0  0  0
    1.1427   -0.6065    0.0000 C   0  0  0  0  0  0  0  0  0
   -0.2863    1.0435    0.0000 C   0  0  0  0  0  0  0  0  0
   -0.2863    1.8685    0.0000 O   0  0  0  0  0  0  0  0  0
   -1.0007    0.6310    0.0000 C   0  0  0  0  0  0  0  0  0
   -1.0007   -0.1940    0.0000 C   0  0  0  0  0  0  0  0  0
   -1.7152   -0.6065    0.0000 C   0  0  0  0  0  0  0  0  0
   -2.4297   -0.1940    0.0000 N   0  0  0  0  0  0  0  0  0
   -3.1442   -0.6065    0.0000 C   0  0  0  0  0  0  0  0  0
   -3.8586   -0.1940    0.0000 C   0  0  0  0  0  0  0  0  0
   -3.8586    0.6310    0.0000 N   0  0  0  0  0  0  0  0  0
   -3.1442    1.0435    0.0000 C   0  0  0  0  0  0  0  0  0
   -2.4297    0.6310    0.0000 C   0  0  0  0  0  0  0  0  0
   -4.5731    1.0435    0.0000 C   0  0  0  0  0  0  0  0  0
   -4.5731    1.8685    0.0000 C   0  0  0  0  0  0  0  0  0
   -5.2876    2.2810    0.0000 C   0  0  0  0  0  0  0  0  0
   -5.2876    3.1060    0.0000 C   0  0  0  0  0  0  0  0  0
   -4.5731    3.5185    0.0000 C   0  0  0  0  0  0  0  0  0
   -3.8586    3.1060    0.0000 C   0  0  0  0  0  0  0  0  0
   -3.8586    2.2810    0.0000 C   0  0  0  0  0  0  0  0  0
  1  2  1  0  0  0  0
  1 11  1  0  0  0  0
  2  3  4  0  0  0  0
  2  7  4  0  0  0  0
  3  4  4  0  0  0  0
  3  8  1  0  0  0  0
  4  5  4  0  0  0  0
  5  6  4  0  0  0  0
  6  7  4  0  0  0  0
  8  9  2  0  0  0  0
  8 10  1  0  0  0  0
 10 11  2  0  0  0  0
 11 12  1  0  0  0  0
 12 13  1  0  0  0  0
 13 14  1  0  0  0  0
 13 18  1  0  0  0  0
 14 15  1  0  0  0  0
 15 16  1  0  0  0  0
 16 17  1  0  0  0  0
 16 19  1  0  0  0  0
 17 18  1  0  0  0  0
 19 20  1  0  0  0  0
 20 21  4  0  0  0  0
 20 25  4  0  0  0  0
 21 22  4  0  0  0  0
 22 23  4  0  0  0  0
 23 24  4  0  0  0  0
 24 25  4  0  0  0  0
M  END
>  <Name_Molregno>
299512

>  <5-HT1A>
6

$$$$
299528
  Marvin  02231216192D 0   1.00000     0.00000     0

 25 28  0  0  1  0  0  0  0  0999 V2000
   -0.2863   -0.6065    0.0000 O   0  0  0  0  0  0  0  0  0
    0.4282   -0.1940    0.0000 C   0  0  0  0  0  0  0  0  0
    0.4282    0.6310    0.0000 C   0  0  0  0  0  0  0  0  0
    1.1427    1.0435    0.0000 C   0  0  0  0  0  0  0  0  0
    1.8571    0.6310    0.0000 C   0  0  0  0  0  0  0  0  0
    1.8571   -0.1940    0.0000 C   0  0  0  0  0  0  0  0  0
    1.1427   -0.6065    0.0000 C   0  0  0  0  0  0  0  0  0
   -0.2863    1.0435    0.0000 C   0  0  0  0  0  0  0  0  0
   -0.2863    1.8685    0.0000 O   0  0  0  0  0  0  0  0  0
   -1.0007    0.6310    0.0000 C   0  0  0  0  0  0  0  0  0
   -1.0007   -0.1940    0.0000 C   0  0  0  0  0  0  0  0  0
   -1.7152   -0.6065    0.0000 C   0  0  0  0  0  0  0  0  0
   -2.4297   -0.1940    0.0000 N   0  0  0  0  0  0  0  0  0
   -3.1442   -0.6065    0.0000 C   0  0  0  0  0  0  0  0  0
   -3.8586   -0.1940    0.0000 C   0  0  0  0  0  0  0  0  0
   -3.8586    0.6310    0.0000 C   0  0  0  0  0  0  0  0  0
   -3.1442    1.0435    0.0000 C   0  0  0  0  0  0  0  0  0
   -2.4297    0.6310    0.0000 C   0  0  0  0  0  0  0  0  0
   -4.5731    1.0435    0.0000 C   0  0  0  0  0  0  0  0  0
   -4.5731    1.8685    0.0000 C   0  0  0  0  0  0  0  0  0
   -5.2876    2.2810    0.0000 C   0  0  0  0  0  0  0  0  0
   -5.2876    3.1060    0.0000 C   0  0  0  0  0  0  0  0  0
   -4.5731    3.5185    0.0000 C   0  0  0  0  0  0  0  0  0
   -3.8586    3.1060    0.0000 C   0  0  0  0  0  0  0  0  0
   -3.8586    2.2810    0.0000 C   0  0  0  0  0  0  0  0  0
  1  2  1  0  0  0  0
  1 11  1  0  0  0  0
  2  3  4  0  0  0  0
  2  7  4  0  0  0  0
  3  4  4  0  0  0  0
  3  8  1  0  0  0  0
  4  5  4  0  0  0  0
  5  6  4  0  0  0  0
  6  7  4  0  0  0  0
  8  9  2  0  0  0  0
  8 10  1  0  0  0  0
 10 11  1  0  0  0  0
 11 12  1  0  0  0  0
 12 13  1  0  0  0  0
 13 14  1  0  0  0  0
 13 18  1  0  0  0  0
 14 15  1  0  0  0  0
 15 16  1  0  0  0  0
 16 17  1  0  0  0  0
 16 19  1  0  0  0  0
 17 18  1  0  0  0  0
 19 20  1  0  0  0  0
 20 21  4  0  0  0  0
 20 25  4  0  0  0  0
 21 22  4  0  0  0  0
 22 23  4  0  0  0  0
 23 24  4  0  0  0  0
 24 25  4  0  0  0  0
M  END
>  <Name_Molregno>
299528

>  <5-HT1A>
6.53

$$$$
299529
  Marvin  02231216192D 0   1.00000     0.00000     0

 25 28  0  0  1  0  0  0  0  0999 V2000
    4.1157   -2.5454    0.0000 O   0  0  0  0  0  0  0  0  0
    4.1157   -1.7204    0.0000 C   0  0  0  0  0  0  0  0  0
    4.8301   -1.3079    0.0000 C   0  0  0  0  0  0  0  0  0
    4.8301   -0.4829    0.0000 C   0  0  0  0  0  0  0  0  0
    4.1157   -0.0704    0.0000 C   0  0  0  0  0  0  0  0  0
    3.4012   -0.4829    0.0000 C   0  0  0  0  0  0  0  0  0
    3.4012   -1.3079    0.0000 C   0  0  0  0  0  0  0  0  0
    2.6867   -1.7204    0.0000 C   0  0  0  0  0  0  0  0  0
    1.9723   -1.3079    0.0000 N   0  0  0  0  0  0  0  0  0
    1.2578   -1.7204    0.0000 C   0  0  0  0  0  0  0  0  0
    0.5433   -1.3079    0.0000 C   0  0  0  0  0  0  0  0  0
    0.5433   -0.4829    0.0000 N   0  0  0  0  0  0  0  0  0
    1.2578   -0.0704    0.0000 C   0  0  0  0  0  0  0  0  0
    1.9723   -0.4829    0.0000 C   0  0  0  0  0  0  0  0  0
   -0.1712   -0.0704    0.0000 C   0  0  0  0  0  0  0  0  0
   -0.1712    0.7546    0.0000 C   0  0  0  0  0  0  0  0  0
   -0.8856    1.1671    0.0000 C   0  0  0  0  0  0  0  0  0
   -0.8856    1.9921    0.0000 C   0  0  0  0  0  0  0  0  0
   -0.1712    2.4046    0.0000 C   0  0  0  0  0  0  0  0  0
    0.5433    1.9921    0.0000 C   0  0  0  0  0  0  0  0  0
    0.5433    1.1671    0.0000 C   0  0  0  0  0  0  0  0  0
    5.5446   -0.0704    0.0000 C   0  0  0  0  0  0  0  0  0
    6.2591   -0.4829    0.0000 C   0  0  0  0  0  0  0  0  0
    6.2591   -1.3079    0.0000 C   0  0  0  0  0  0  0  0  0
    5.5446   -1.7204    0.0000 C   0  0  0  0  0  0  0  0  0
  1  2  2  0  0  0  0
  2  3  1  0  0  0  0
  2  7  1  0  0  0  0
  3  4  4  0  0  0  0
  3 25  4  0  0  0  0
  4  5  1  0  0  0  0
  4 22  4  0  0  0  0
  5  6  1  0  0  0  0
  6  7  1  0  0  0  0
  7  8  1  0  0  0  0
  8  9  1  0  0  0  0
  9 10  1  0  0  0  0
  9 14  1  0  0  0  0
 10 11  1  0  0  0  0
 11 12  1  0  0  0  0
 12 13  1  0  0  0  0
 12 15  1  0  0  0  0
 13 14  1  0  0  0  0
 15 16  1  0  0  0  0
 16 17  4  0  0  0  0
 16 21  4  0  0  0  0
 17 18  4  0  0  0  0
 18 19  4  0  0  0  0
 19 20  4  0  0  0  0
 20 21  4  0  0  0  0
 22 23  4  0  0  0  0
 23 24  4  0  0  0  0
 24 25  4  0  0  0  0
M  END
>  <Name_Molregno>
299529

>  <5-HT1A>
6.35

$$$$
299535
  Marvin  02231216192D 0   1.00000     0.00000     0

 22 24  0  0  0  0  0  0  0  0999 V2000
   -0.3526    0.6100    0.0000 N   0  0  0  0  0  0  0  0  0
    0.3619    0.1975    0.0000 C   0  0  0  0  0  0  0  0  0
    0.3619   -0.6275    0.0000 C   0  0  0  0  0  0  0  0  0
   -0.3526   -1.0400    0.0000 C   0  0  0  0  0  0  0  0  0
   -1.0671   -0.6275    0.0000 C   0  0  0  0  0  0  0  0  0
   -1.0671    0.1975    0.0000 C   0  0  0  0  0  0  0  0  0
   -0.3526   -1.8650    0.0000 C   0  0  0  0  0  0  0  0  0
   -1.0671   -2.2775    0.0000 C   0  0  0  0  0  0  0  0  0
   -1.0671   -3.1025    0.0000 C   0  0  0  0  0  0  0  0  0
   -1.7815   -3.5150    0.0000 C   0  0  0  0  0  0  0  0  0
   -2.4960   -3.1025    0.0000 C   0  0  0  0  0  0  0  0  0
   -2.4960   -2.2775    0.0000 C   0  0  0  0  0  0  0  0  0
   -1.7815   -1.8650    0.0000 C   0  0  0  0  0  0  0  0  0
   -0.3526    1.4350    0.0000 C   0  0  0  0  0  0  0  0  0
    0.3619    1.8475    0.0000 C   0  0  0  0  0  0  0  0  0
    0.3619    2.6725    0.0000 C   0  0  0  0  0  0  0  0  0
    1.0763    3.0850    0.0000 C   0  0  0  0  0  0  0  0  0
    1.0763    3.9100    0.0000 C   0  0  0  0  0  0  0  0  0
    1.7908    4.3225    0.0000 C   0  0  0  0  0  0  0  0  0
    2.5053    3.9100    0.0000 C   0  0  0  0  0  0  0  0  0
    2.5053    3.0850    0.0000 C   0  0  0  0  0  0  0  0  0
    1.7908    2.6725    0.0000 C   0  0  0  0  0  0  0  0  0
  1  2  1  0  0  0  0
  1  6  1  0  0  0  0
  1 14  1  0  0  0  0
  2  3  1  0  0  0  0
  3  4  1  0  0  0  0
  4  5  1  0  0  0  0
  4  7  1  0  0  0  0
  5  6  1  0  0  0  0
  7  8  1  0  0  0  0
  8  9  4  0  0  0  0
  8 13  4  0  0  0  0
  9 10  4  0  0  0  0
 10 11  4  0  0  0  0
 11 12  4  0  0  0  0
 12 13  4  0  0  0  0
 14 15  1  0  0  0  0
 15 16  1  0  0  0  0
 16 17  1  0  0  0  0
 17 18  4  0  0  0  0
 17 22  4  0  0  0  0
 18 19  4  0  0  0  0
 19 20  4  0  0  0  0
 20 21  4  0  0  0  0
 21 22  4  0  0  0  0
M  END
>  <Name_Molregno>
299535

>  <5-HT1A>
6

$$$$
299536
  Marvin  02231216192D 0   1.00000     0.00000     0

 26 29  0  0  1  0  0  0  0  0999 V2000
   -8.6224    0.6007    0.0000 O   0  0  0  0  0  0  0  0  0
   -9.3369    0.1882    0.0000 C   0  0  0  0  0  0  0  0  0
   -7.9079    0.1882    0.0000 C   0  0  0  0  0  0  0  0  0
   -7.1934    0.6007    0.0000 C   0  0  0  0  0  0  0  0  0
   -6.4790    0.1882    0.0000 C   0  0  0  0  0  0  0  0  0
   -5.7645    0.6007    0.0000 C   0  0  0  0  0  0  0  0  0
   -5.0500    0.1882    0.0000 C   0  0  0  0  0  0  0  0  0
   -5.0500   -0.6368    0.0000 C   0  0  0  0  0  0  0  0  0
   -5.7645   -1.0493    0.0000 C   0  0  0  0  0  0  0  0  0
   -6.4790   -0.6368    0.0000 C   0  0  0  0  0  0  0  0  0
   -7.1934   -1.0493    0.0000 C   0  0  0  0  0  0  0  0  0
   -7.9079   -0.6368    0.0000 C   0  0  0  0  0  0  0  0  0
   -4.3356    0.6007    0.0000 C   0  0  0  0  0  0  0  0  0
   -3.6211    0.1882    0.0000 N   0  0  0  0  0  0  0  0  0
   -2.9066    0.6007    0.0000 C   0  0  0  0  0  0  0  0  0
   -2.1921    0.1882    0.0000 C   0  0  0  0  0  0  0  0  0
   -2.1921   -0.6368    0.0000 C   0  0  0  0  0  0  0  0  0
   -2.9066   -1.0493    0.0000 C   0  0  0  0  0  0  0  0  0
   -3.6211   -0.6368    0.0000 C   0  0  0  0  0  0  0  0  0
   -1.4777   -1.0493    0.0000 C   0  0  0  0  0  0  0  0  0
   -1.4777   -1.8743    0.0000 C   0  0  0  0  0  0  0  0  0
   -0.7632   -2.2868    0.0000 C   0  0  0  0  0  0  0  0  0
   -0.7632   -3.1118    0.0000 C   0  0  0  0  0  0  0  0  0
   -1.4777   -3.5243    0.0000 C   0  0  0  0  0  0  0  0  0
   -2.1921   -3.1118    0.0000 C   0  0  0  0  0  0  0  0  0
   -2.1921   -2.2868    0.0000 C   0  0  0  0  0  0  0  0  0
  1  2  1  0  0  0  0
  1  3  1  0  0  0  0
  3  4  4  0  0  0  0
  3 12  4  0  0  0  0
  4  5  4  0  0  0  0
  5  6  1  0  0  0  0
  5 10  4  0  0  0  0
  6  7  1  0  0  0  0
  7  8  1  0  0  0  0
  7 13  1  0  0  0  0
  8  9  1  0  0  0  0
  9 10  1  0  0  0  0
 10 11  4  0  0  0  0
 11 12  4  0  0  0  0
 13 14  1  0  0  0  0
 14 15  1  0  0  0  0
 14 19  1  0  0  0  0
 15 16  1  0  0  0  0
 16 17  1  0  0  0  0
 17 18  1  0  0  0  0
 17 20  1  0  0  0  0
 18 19  1  0  0  0  0
 20 21  1  0  0  0  0
 21 22  4  0  0  0  0
 21 26  4  0  0  0  0
 22 23  4  0  0  0  0
 23 24  4  0  0  0  0
 24 25  4  0  0  0  0
 25 26  4  0  0  0  0
M  END
>  <Name_Molregno>
299536

>  <5-HT1A>
7.27

$$$$
299537
  Marvin  02231216192D 0   1.00000     0.00000     0

 25 28  0  0  1  0  0  0  0  0999 V2000
    0.3462    1.3740    0.0000 N   0  0  0  0  0  0  0  0  0
    0.8606    2.0190    0.0000 C   0  0  0  0  0  0  0  0  0
    1.6764    1.8961    0.0000 C   0  0  0  0  0  0  0  0  0
    1.9778    1.1281    0.0000 C   0  0  0  0  0  0  0  0  0
    1.4634    0.4831    0.0000 C   0  0  0  0  0  0  0  0  0
    0.6476    0.6060    0.0000 C   0  0  0  0  0  0  0  0  0
    2.7936    1.0051    0.0000 C   0  0  0  0  0  0  0  0  0
    3.0950    0.2372    0.0000 C   0  0  0  0  0  0  0  0  0
    3.9108    0.1142    0.0000 C   0  0  0  0  0  0  0  0  0
    4.2122   -0.6538    0.0000 C   0  0  0  0  0  0  0  0  0
    3.6978   -1.2988    0.0000 C   0  0  0  0  0  0  0  0  0
    2.8820   -1.1758    0.0000 C   0  0  0  0  0  0  0  0  0
    2.5806   -0.4079    0.0000 C   0  0  0  0  0  0  0  0  0
   -0.4696    1.4970    0.0000 C   0  0  0  0  0  0  0  0  0
   -0.9839    0.8520    0.0000 C   0  0  0  0  0  0  0  0  0
   -0.6260    0.1087    0.0000 C   0  0  0  0  0  0  0  0  0
   -0.9839   -0.6346    0.0000 C   0  0  0  0  0  0  0  0  0
   -1.7882   -0.8182    0.0000 C   0  0  0  0  0  0  0  0  0
   -2.4333   -0.3038    0.0000 C   0  0  0  0  0  0  0  0  0
   -2.4333    0.5212    0.0000 C   0  0  0  0  0  0  0  0  0
   -1.7882    1.0355    0.0000 C   0  0  0  0  0  0  0  0  0
   -3.1477    0.9337    0.0000 C   0  0  0  0  0  0  0  0  0
   -3.8622    0.5212    0.0000 C   0  0  0  0  0  0  0  0  0
   -3.8622   -0.3038    0.0000 C   0  0  0  0  0  0  0  0  0
   -3.1477   -0.7163    0.0000 C   0  0  0  0  0  0  0  0  0
  1  2  1  0  0  0  0
  1  6  1  0  0  0  0
  1 14  1  0  0  0  0
  2  3  1  0  0  0  0
  3  4  1  0  0  0  0
  4  5  1  0  0  0  0
  4  7  1  0  0  0  0
  5  6  1  0  0  0  0
  7  8  1  0  0  0  0
  8  9  4  0  0  0  0
  8 13  4  0  0  0  0
  9 10  4  0  0  0  0
 10 11  4  0  0  0  0
 11 12  4  0  0  0  0
 12 13  4  0  0  0  0
 14 15  1  0  0  0  0
 15 16  1  0  0  0  0
 15 21  1  0  0  0  0
 16 17  1  0  0  0  0
 17 18  1  0  0  0  0
 18 19  1  0  0  0  0
 19 20  4  0  0  0  0
 19 25  4  0  0  0  0
 20 21  1  0  0  0  0
 20 22  4  0  0  0  0
 22 23  4  0  0  0  0
 23 24  4  0  0  0  0
 24 25  4  0  0  0  0
M  END
>  <Name_Molregno>
299537

>  <5-HT1A>
6

$$$$
299544
  Marvin  02231216192D 0   1.00000     0.00000     0

 26 29  0  0  1  0  0  0  0  0999 V2000
   -6.3333    2.3513    0.0000 O   0  0  0  0  0  0  0  0  0
   -7.0477    2.7638    0.0000 C   0  0  0  0  0  0  0  0  0
   -6.3333    1.5263    0.0000 C   0  0  0  0  0  0  0  0  0
   -5.6188    1.1138    0.0000 C   0  0  0  0  0  0  0  0  0
   -4.9043    1.5263    0.0000 C   0  0  0  0  0  0  0  0  0
   -4.1898    1.1138    0.0000 C   0  0  0  0  0  0  0  0  0
   -4.1898    0.2888    0.0000 C   0  0  0  0  0  0  0  0  0
   -4.9043   -0.1237    0.0000 C   0  0  0  0  0  0  0  0  0
   -5.6188    0.2888    0.0000 C   0  0  0  0  0  0  0  0  0
   -6.3333   -0.1237    0.0000 C   0  0  0  0  0  0  0  0  0
   -7.0477    0.2888    0.0000 C   0  0  0  0  0  0  0  0  0
   -7.0477    1.1138    0.0000 C   0  0  0  0  0  0  0  0  0
   -3.4754    1.5263    0.0000 C   0  0  0  0  0  0  0  0  0
   -2.7609    1.1137    0.0000 N   0  0  0  0  0  0  0  0  0
   -2.0464    1.5262    0.0000 C   0  0  0  0  0  0  0  0  0
   -1.3320    1.1137    0.0000 C   0  0  0  0  0  0  0  0  0
   -1.3320    0.2887    0.0000 C   0  0  0  0  0  0  0  0  0
   -2.0464   -0.1238    0.0000 C   0  0  0  0  0  0  0  0  0
   -2.7609    0.2888    0.0000 C   0  0  0  0  0  0  0  0  0
   -0.6175   -0.1238    0.0000 C   0  0  0  0  0  0  0  0  0
   -0.6175   -0.9488    0.0000 C   0  0  0  0  0  0  0  0  0
    0.0970   -1.3613    0.0000 C   0  0  0  0  0  0  0  0  0
    0.0970   -2.1863    0.0000 C   0  0  0  0  0  0  0  0  0
   -0.6175   -2.5988    0.0000 C   0  0  0  0  0  0  0  0  0
   -1.3320   -2.1863    0.0000 C   0  0  0  0  0  0  0  0  0
   -1.3320   -1.3613    0.0000 C   0  0  0  0  0  0  0  0  0
  1  2  1  0  0  0  0
  1  3  1  0  0  0  0
  3  4  4  0  0  0  0
  3 12  4  0  0  0  0
  4  5  1  0  0  0  0
  4  9  4  0  0  0  0
  5  6  1  0  0  0  0
  6  7  1  0  0  0  0
  6 13  1  0  0  0  0
  7  8  1  0  0  0  0
  8  9  1  0  0  0  0
  9 10  4  0  0  0  0
 10 11  4  0  0  0  0
 11 12  4  0  0  0  0
 13 14  1  0  0  0  0
 14 15  1  0  0  0  0
 14 19  1  0  0  0  0
 15 16  1  0  0  0  0
 16 17  1  0  0  0  0
 17 18  1  0  0  0  0
 17 20  1  0  0  0  0
 18 19  1  0  0  0  0
 20 21  1  0  0  0  0
 21 22  4  0  0  0  0
 21 26  4  0  0  0  0
 22 23  4  0  0  0  0
 23 24  4  0  0  0  0
 24 25  4  0  0  0  0
 25 26  4  0  0  0  0
M  END
>  <Name_Molregno>
299544

>  <5-HT1A>
7.24

$$$$
300073
  Marvin  02231216192D 0   1.00000     0.00000     0

 26 29  0  0  0  0  0  0  0  0999 V2000
    2.6383   -3.0579    0.0000 Cl  0  0  0  0  0  0  0  0  0
    1.9239   -2.6454    0.0000 C   0  0  0  0  0  0  0  0  0
    1.2094   -3.0579    0.0000 C   0  0  0  0  0  0  0  0  0
    0.4949   -2.6454    0.0000 C   0  0  0  0  0  0  0  0  0
   -0.2897   -2.9004    0.0000 N   0  0  0  0  0  0  0  0  0
   -0.5446   -3.6850    0.0000 S   0  0  0  0  0  0  0  0  0
    0.2400   -3.9399    0.0000 O   0  0  0  0  0  0  0  0  0
   -1.3293   -3.4301    0.0000 O   0  0  0  0  0  0  0  0  0
   -0.7996   -4.4696    0.0000 C   0  0  0  0  0  0  0  0  0
   -0.2476   -5.0827    0.0000 C   0  0  0  0  0  0  0  0  0
   -0.5025   -5.8673    0.0000 C   0  0  0  0  0  0  0  0  0
   -1.3095   -6.0389    0.0000 C   0  0  0  0  0  0  0  0  0
   -1.5644   -6.8235    0.0000 N   0  0  0  0  0  0  0  0  0
   -1.8615   -5.4258    0.0000 C   0  0  0  0  0  0  0  0  0
   -1.6066   -4.6411    0.0000 C   0  0  0  0  0  0  0  0  0
   -0.7746   -2.2329    0.0000 C   0  0  0  0  0  0  0  0  0
   -0.2897   -1.5655    0.0000 C   0  0  0  0  0  0  0  0  0
    0.4949   -1.8204    0.0000 C   0  0  0  0  0  0  0  0  0
    1.2094   -1.4079    0.0000 C   0  0  0  0  0  0  0  0  0
    1.9239   -1.8204    0.0000 C   0  0  0  0  0  0  0  0  0
   -0.5446   -0.7809    0.0000 C   0  0  0  0  0  0  0  0  0
   -1.3516   -0.6093    0.0000 C   0  0  0  0  0  0  0  0  0
   -1.6066    0.1753    0.0000 C   0  0  0  0  0  0  0  0  0
   -1.0545    0.7884    0.0000 N   0  0  0  0  0  0  0  0  0
   -0.2476    0.6168    0.0000 C   0  0  0  0  0  0  0  0  0
    0.0074   -0.1678    0.0000 C   0  0  0  0  0  0  0  0  0
  1  2  1  0  0  0  0
  2  3  4  0  0  0  0
  2 20  4  0  0  0  0
  3  4  4  0  0  0  0
  4  5  4  0  0  0  0
  4 18  4  0  0  0  0
  5  6  1  0  0  0  0
  5 16  4  0  0  0  0
  6  7  2  0  0  0  0
  6  8  2  0  0  0  0
  6  9  1  0  0  0  0
  9 10  4  0  0  0  0
  9 15  4  0  0  0  0
 10 11  4  0  0  0  0
 11 12  4  0  0  0  0
 12 13  1  0  0  0  0
 12 14  4  0  0  0  0
 14 15  4  0  0  0  0
 16 17  4  0  0  0  0
 17 18  4  0  0  0  0
 17 21  1  0  0  0  0
 18 19  4  0  0  0  0
 19 20  4  0  0  0  0
 21 22  1  0  0  0  0
 21 26  1  0  0  0  0
 22 23  1  0  0  0  0
 23 24  1  0  0  0  0
 24 25  1  0  0  0  0
 25 26  1  0  0  0  0
M  END
>  <Name_Molregno>
300073

>  <5-HT1A>
6.94

>  <5-HT6>
8.52

>  <5-HT7>
5.7

$$$$
300084
  Marvin  02231216192D 0   1.00000     0.00000     0

 27 30  0  0  0  0  0  0  0  0999 V2000
    0.6005   -0.8632    0.0000 S   0  0  0  0  0  0  0  0  0
   -0.1841   -0.6082    0.0000 O   0  0  0  0  0  0  0  0  0
    1.3851   -1.1181    0.0000 O   0  0  0  0  0  0  0  0  0
    0.8555   -0.0785    0.0000 N   0  0  0  0  0  0  0  0  0
    0.3705    0.5889    0.0000 C   0  0  0  0  0  0  0  0  0
    0.8555    1.2563    0.0000 C   0  0  0  0  0  0  0  0  0
    1.6401    1.0014    0.0000 C   0  0  0  0  0  0  0  0  0
    2.3545    1.4139    0.0000 C   0  0  0  0  0  0  0  0  0
    3.0690    1.0014    0.0000 C   0  0  0  0  0  0  0  0  0
    3.7835    1.4139    0.0000 O   0  0  0  0  0  0  0  0  0
    4.4980    1.0014    0.0000 C   0  0  0  0  0  0  0  0  0
    3.0690    0.1764    0.0000 C   0  0  0  0  0  0  0  0  0
    2.3545   -0.2361    0.0000 C   0  0  0  0  0  0  0  0  0
    1.6401    0.1764    0.0000 C   0  0  0  0  0  0  0  0  0
    0.6005    2.0410    0.0000 C   0  0  0  0  0  0  0  0  0
   -0.2065    2.2125    0.0000 C   0  0  0  0  0  0  0  0  0
   -0.4614    2.9971    0.0000 C   0  0  0  0  0  0  0  0  0
    0.0906    3.6102    0.0000 N   0  0  0  0  0  0  0  0  0
    0.8976    3.4387    0.0000 C   0  0  0  0  0  0  0  0  0
    1.1526    2.6541    0.0000 C   0  0  0  0  0  0  0  0  0
    0.3456   -1.6478    0.0000 C   0  0  0  0  0  0  0  0  0
    0.8976   -2.2609    0.0000 C   0  0  0  0  0  0  0  0  0
    0.6427   -3.0455    0.0000 C   0  0  0  0  0  0  0  0  0
   -0.1643   -3.2170    0.0000 C   0  0  0  0  0  0  0  0  0
   -0.4192   -4.0017    0.0000 N   0  0  0  0  0  0  0  0  0
   -0.7163   -2.6039    0.0000 C   0  0  0  0  0  0  0  0  0
   -0.4614   -1.8193    0.0000 C   0  0  0  0  0  0  0  0  0
  1  2  2  0  0  0  0
  1  3  2  0  0  0  0
  1  4  1  0  0  0  0
  1 21  1  0  0  0  0
  4  5  4  0  0  0  0
  4 14  4  0  0  0  0
  5  6  4  0  0  0  0
  6  7  4  0  0  0  0
  6 15  1  0  0  0  0
  7  8  4  0  0  0  0
  7 14  4  0  0  0  0
  8  9  4  0  0  0  0
  9 10  1  0  0  0  0
  9 12  4  0  0  0  0
 10 11  1  0  0  0  0
 12 13  4  0  0  0  0
 13 14  4  0  0  0  0
 15 16  1  0  0  0  0
 15 20  2  0  0  0  0
 16 17  1  0  0  0  0
 17 18  1  0  0  0  0
 18 19  1  0  0  0  0
 19 20  1  0  0  0  0
 21 22  4  0  0  0  0
 21 27  4  0  0  0  0
 22 23  4  0  0  0  0
 23 24  4  0  0  0  0
 24 25  1  0  0  0  0
 24 26  4  0  0  0  0
 26 27  4  0  0  0  0
M  END
>  <Name_Molregno>
300084

>  <5-HT1A>
7.01

>  <5-HT6>
8.52

>  <5-HT7>
5.3

$$$$
300135
  Marvin  02231216192D 0   1.00000     0.00000     0

 25 28  0  0  0  0  0  0  0  0999 V2000
   -0.0061    0.0907    0.0000 Cl  0  0  0  0  0  0  0  0  0
    0.5459    0.7038    0.0000 C   0  0  0  0  0  0  0  0  0
    0.2910    1.4884    0.0000 C   0  0  0  0  0  0  0  0  0
    0.8430    2.1015    0.0000 C   0  0  0  0  0  0  0  0  0
    1.6500    1.9300    0.0000 C   0  0  0  0  0  0  0  0  0
    1.9049    1.1454    0.0000 C   0  0  0  0  0  0  0  0  0
    1.3529    0.5323    0.0000 C   0  0  0  0  0  0  0  0  0
    1.6079   -0.2524    0.0000 S   0  0  0  0  0  0  0  0  0
    0.8232   -0.5073    0.0000 O   0  0  0  0  0  0  0  0  0
    2.3925    0.0026    0.0000 O   0  0  0  0  0  0  0  0  0
    1.8628   -1.0370    0.0000 N   0  0  0  0  0  0  0  0  0
    1.3779   -1.7044    0.0000 C   0  0  0  0  0  0  0  0  0
    1.8628   -2.3719    0.0000 C   0  0  0  0  0  0  0  0  0
    2.6474   -2.1169    0.0000 C   0  0  0  0  0  0  0  0  0
    2.6474   -1.2919    0.0000 C   0  0  0  0  0  0  0  0  0
    3.3619   -0.8794    0.0000 C   0  0  0  0  0  0  0  0  0
    4.0764   -1.2919    0.0000 C   0  0  0  0  0  0  0  0  0
    4.0764   -2.1169    0.0000 C   0  0  0  0  0  0  0  0  0
    3.3619   -2.5294    0.0000 C   0  0  0  0  0  0  0  0  0
    1.6079   -3.1565    0.0000 C   0  0  0  0  0  0  0  0  0
    2.1599   -3.7696    0.0000 C   0  0  0  0  0  0  0  0  0
    1.9049   -4.5542    0.0000 C   0  0  0  0  0  0  0  0  0
    1.0980   -4.7257    0.0000 N   0  0  0  0  0  0  0  0  0
    0.5459   -4.1126    0.0000 C   0  0  0  0  0  0  0  0  0
    0.8009   -3.3280    0.0000 C   0  0  0  0  0  0  0  0  0
  1  2  1  0  0  0  0
  2  3  4  0  0  0  0
  2  7  4  0  0  0  0
  3  4  4  0  0  0  0
  4  5  4  0  0  0  0
  5  6  4  0  0  0  0
  6  7  4  0  0  0  0
  7  8  1  0  0  0  0
  8  9  2  0  0  0  0
  8 10  2  0  0  0  0
  8 11  1  0  0  0  0
 11 12  4  0  0  0  0
 11 15  4  0  0  0  0
 12 13  4  0  0  0  0
 13 14  4  0  0  0  0
 13 20  1  0  0  0  0
 14 15  4  0  0  0  0
 14 19  4  0  0  0  0
 15 16  4  0  0  0  0
 16 17  4  0  0  0  0
 17 18  4  0  0  0  0
 18 19  4  0  0  0  0
 20 21  1  0  0  0  0
 20 25  2  0  0  0  0
 21 22  1  0  0  0  0
 22 23  1  0  0  0  0
 23 24  1  0  0  0  0
 24 25  1  0  0  0  0
M  END
>  <Name_Molregno>
300135

>  <5-HT1A>
5.7

>  <5-HT2A>
6.22

>  <5-HT2C>
6.42

>  <5-HT6>
9.4

>  <DOPAMINE D2>
5.7

>  <DOPAMINE D3>
6.2

>  <DOPAMINE D4>
5.3

$$$$
300151
  Marvin  02231216192D 0   1.00000     0.00000     0

 25 28  0  0  0  0  0  0  0  0999 V2000
    0.7064    1.1104    0.0000 S   0  0  0  0  0  0  0  0  0
    1.4910    1.3653    0.0000 O   0  0  0  0  0  0  0  0  0
   -0.0782    0.8555    0.0000 O   0  0  0  0  0  0  0  0  0
    0.9613    0.3258    0.0000 N   0  0  0  0  0  0  0  0  0
    0.4764   -0.3417    0.0000 C   0  0  0  0  0  0  0  0  0
    0.9613   -1.0091    0.0000 C   0  0  0  0  0  0  0  0  0
    1.7459   -0.7542    0.0000 C   0  0  0  0  0  0  0  0  0
    1.7459    0.0708    0.0000 C   0  0  0  0  0  0  0  0  0
    2.4604    0.4833    0.0000 C   0  0  0  0  0  0  0  0  0
    3.1749    0.0708    0.0000 C   0  0  0  0  0  0  0  0  0
    3.1749   -0.7542    0.0000 C   0  0  0  0  0  0  0  0  0
    2.4604   -1.1667    0.0000 C   0  0  0  0  0  0  0  0  0
    0.7064   -1.7937    0.0000 C   0  0  0  0  0  0  0  0  0
    1.2584   -2.4068    0.0000 C   0  0  0  0  0  0  0  0  0
    1.0035   -3.1914    0.0000 C   0  0  0  0  0  0  0  0  0
    0.1965   -3.3630    0.0000 N   0  0  0  0  0  0  0  0  0
   -0.3555   -2.7499    0.0000 C   0  0  0  0  0  0  0  0  0
   -0.1006   -1.9652    0.0000 C   0  0  0  0  0  0  0  0  0
    0.4514    1.8950    0.0000 C   0  0  0  0  0  0  0  0  0
   -0.3555    2.0666    0.0000 C   0  0  0  0  0  0  0  0  0
   -0.6105    2.8512    0.0000 C   0  0  0  0  0  0  0  0  0
   -0.0584    3.4643    0.0000 C   0  0  0  0  0  0  0  0  0
    0.7485    3.2927    0.0000 C   0  0  0  0  0  0  0  0  0
    1.0035    2.5081    0.0000 C   0  0  0  0  0  0  0  0  0
    1.8104    2.3366    0.0000 F   0  0  0  0  0  0  0  0  0
  1  2  2  0  0  0  0
  1  3  2  0  0  0  0
  1  4  1  0  0  0  0
  1 19  1  0  0  0  0
  4  5  4  0  0  0  0
  4  8  4  0  0  0  0
  5  6  4  0  0  0  0
  6  7  4  0  0  0  0
  6 13  1  0  0  0  0
  7  8  4  0  0  0  0
  7 12  4  0  0  0  0
  8  9  4  0  0  0  0
  9 10  4  0  0  0  0
 10 11  4  0  0  0  0
 11 12  4  0  0  0  0
 13 14  1  0  0  0  0
 13 18  2  0  0  0  0
 14 15  1  0  0  0  0
 15 16  1  0  0  0  0
 16 17  1  0  0  0  0
 17 18  1  0  0  0  0
 19 20  4  0  0  0  0
 19 24  4  0  0  0  0
 20 21  4  0  0  0  0
 21 22  4  0  0  0  0
 22 23  4  0  0  0  0
 23 24  4  0  0  0  0
 24 25  1  0  0  0  0
M  END
>  <Name_Molregno>
300151

>  <5-HT1A>
6.06

>  <5-HT6>
9

>  <DOPAMINE D2>
5.7

>  <DOPAMINE D3>
6.13

>  <DOPAMINE D4>
5.3

$$$$
300181
  Marvin  02231216192D 0   1.00000     0.00000     0

 25 28  0  0  0  0  0  0  0  0999 V2000
    0.6945    0.9791    0.0000 S   0  0  0  0  0  0  0  0  0
    1.4791    1.2341    0.0000 O   0  0  0  0  0  0  0  0  0
   -0.0901    0.7242    0.0000 O   0  0  0  0  0  0  0  0  0
    0.9494    0.1945    0.0000 N   0  0  0  0  0  0  0  0  0
    0.4645   -0.4729    0.0000 C   0  0  0  0  0  0  0  0  0
    0.9494   -1.1404    0.0000 C   0  0  0  0  0  0  0  0  0
    1.7341   -0.8854    0.0000 C   0  0  0  0  0  0  0  0  0
    1.7341   -0.0604    0.0000 C   0  0  0  0  0  0  0  0  0
    2.4485    0.3521    0.0000 C   0  0  0  0  0  0  0  0  0
    3.1630   -0.0604    0.0000 C   0  0  0  0  0  0  0  0  0
    3.1630   -0.8854    0.0000 C   0  0  0  0  0  0  0  0  0
    2.4485   -1.2979    0.0000 C   0  0  0  0  0  0  0  0  0
    0.6945   -1.9250    0.0000 C   0  0  0  0  0  0  0  0  0
    1.2465   -2.5381    0.0000 C   0  0  0  0  0  0  0  0  0
    0.9916   -3.3227    0.0000 C   0  0  0  0  0  0  0  0  0
    0.1846   -3.4942    0.0000 N   0  0  0  0  0  0  0  0  0
   -0.3674   -2.8811    0.0000 C   0  0  0  0  0  0  0  0  0
   -0.1125   -2.0965    0.0000 C   0  0  0  0  0  0  0  0  0
    0.4396    1.7638    0.0000 C   0  0  0  0  0  0  0  0  0
   -0.3674    1.9353    0.0000 C   0  0  0  0  0  0  0  0  0
   -0.6224    2.7199    0.0000 C   0  0  0  0  0  0  0  0  0
   -0.0703    3.3330    0.0000 C   0  0  0  0  0  0  0  0  0
   -0.3253    4.1176    0.0000 N   0  0  0  0  0  0  0  0  0
    0.7367    3.1615    0.0000 C   0  0  0  0  0  0  0  0  0
    0.9916    2.3769    0.0000 C   0  0  0  0  0  0  0  0  0
  1  2  2  0  0  0  0
  1  3  2  0  0  0  0
  1  4  1  0  0  0  0
  1 19  1  0  0  0  0
  4  5  4  0  0  0  0
  4  8  4  0  0  0  0
  5  6  4  0  0  0  0
  6  7  4  0  0  0  0
  6 13  1  0  0  0  0
  7  8  4  0  0  0  0
  7 12  4  0  0  0  0
  8  9  4  0  0  0  0
  9 10  4  0  0  0  0
 10 11  4  0  0  0  0
 11 12  4  0  0  0  0
 13 14  1  0  0  0  0
 13 18  2  0  0  0  0
 14 15  1  0  0  0  0
 15 16  1  0  0  0  0
 16 17  1  0  0  0  0
 17 18  1  0  0  0  0
 19 20  4  0  0  0  0
 19 25  4  0  0  0  0
 20 21  4  0  0  0  0
 21 22  4  0  0  0  0
 22 23  1  0  0  0  0
 22 24  4  0  0  0  0
 24 25  4  0  0  0  0
M  END
>  <Name_Molregno>
300181

>  <5-HT1A>
5.78

>  <5-HT6>
8.7

>  <5-HT7>
5.81

$$$$
300198
  Marvin  02231216192D 0   1.00000     0.00000     0

 30 34  0  0  0  0  0  0  0  0999 V2000
   -0.1660    0.5108    0.0000 F   0  0  0  0  0  0  0  0  0
   -0.8805    0.9233    0.0000 C   0  0  0  0  0  0  0  0  0
   -1.5950    0.5108    0.0000 C   0  0  0  0  0  0  0  0  0
   -2.3095    0.9233    0.0000 C   0  0  0  0  0  0  0  0  0
   -2.3095    1.7483    0.0000 C   0  0  0  0  0  0  0  0  0
   -3.0941    2.0033    0.0000 N   0  0  0  0  0  0  0  0  0
   -3.5790    1.3358    0.0000 C   0  0  0  0  0  0  0  0  0
   -3.0941    0.6684    0.0000 C   0  0  0  0  0  0  0  0  0
   -3.3490   -0.1162    0.0000 C   0  0  0  0  0  0  0  0  0
   -2.7970   -0.7293    0.0000 C   0  0  0  0  0  0  0  0  0
   -3.0519   -1.5139    0.0000 C   0  0  0  0  0  0  0  0  0
   -3.8589   -1.6855    0.0000 C   0  0  0  0  0  0  0  0  0
   -4.1138   -2.4701    0.0000 N   0  0  0  0  0  0  0  0  0
   -3.5618   -3.0832    0.0000 C   0  0  0  0  0  0  0  0  0
   -3.8167   -3.8678    0.0000 C   0  0  0  0  0  0  0  0  0
   -4.6237   -4.0393    0.0000 N   0  0  0  0  0  0  0  0  0
   -5.1757   -3.4262    0.0000 C   0  0  0  0  0  0  0  0  0
   -4.9208   -2.6416    0.0000 C   0  0  0  0  0  0  0  0  0
   -4.8786   -4.8240    0.0000 C   0  0  0  0  0  0  0  0  0
   -4.3266   -5.4371    0.0000 C   0  0  0  0  0  0  0  0  0
   -4.5816   -6.2217    0.0000 C   0  0  0  0  0  0  0  0  0
   -5.3885   -6.3932    0.0000 C   0  0  0  0  0  0  0  0  0
   -5.9406   -5.7801    0.0000 C   0  0  0  0  0  0  0  0  0
   -5.6856   -4.9955    0.0000 C   0  0  0  0  0  0  0  0  0
   -6.2377   -4.3824    0.0000 O   0  0  0  0  0  0  0  0  0
   -7.0446   -4.5539    0.0000 C   0  0  0  0  0  0  0  0  0
   -4.4109   -1.0724    0.0000 C   0  0  0  0  0  0  0  0  0
   -4.1560   -0.2878    0.0000 C   0  0  0  0  0  0  0  0  0
   -1.5950    2.1608    0.0000 C   0  0  0  0  0  0  0  0  0
   -0.8805    1.7483    0.0000 C   0  0  0  0  0  0  0  0  0
  1  2  1  0  0  0  0
  2  3  4  0  0  0  0
  2 30  4  0  0  0  0
  3  4  4  0  0  0  0
  4  5  4  0  0  0  0
  4  8  4  0  0  0  0
  5  6  4  0  0  0  0
  5 29  4  0  0  0  0
  6  7  4  0  0  0  0
  7  8  4  0  0  0  0
  8  9  1  0  0  0  0
  9 10  1  0  0  0  0
  9 28  1  0  0  0  0
 10 11  1  0  0  0  0
 11 12  1  0  0  0  0
 12 13  1  0  0  0  0
 12 27  1  0  0  0  0
 13 14  1  0  0  0  0
 13 18  1  0  0  0  0
 14 15  1  0  0  0  0
 15 16  1  0  0  0  0
 16 17  1  0  0  0  0
 16 19  1  0  0  0  0
 17 18  1  0  0  0  0
 19 20  4  0  0  0  0
 19 24  4  0  0  0  0
 20 21  4  0  0  0  0
 21 22  4  0  0  0  0
 22 23  4  0  0  0  0
 23 24  4  0  0  0  0
 24 25  1  0  0  0  0
 25 26  1  0  0  0  0
 27 28  1  0  0  0  0
 29 30  4  0  0  0  0
M  STY  1   1 DAT
M  SAL   1  1   6
M  SDT   1 MRV_IMPLICIT_H                                        
M  SDD   1     0.0000    0.0000    DR    ALL  0       0  
M  SED   1 IMPL_H1
M  END
>  <Name_Molregno>
300198

>  <5-HT1A>
7.37

$$$$
300222
  Marvin  02231216192D 0   1.00000     0.00000     0

 32 37  0  0  0  0  0  0  0  0999 V2000
   -1.6873    1.7217    0.0000 F   0  0  0  0  0  0  0  0  0
   -2.4943    1.8932    0.0000 C   0  0  0  0  0  0  0  0  0
   -3.0463    1.2801    0.0000 C   0  0  0  0  0  0  0  0  0
   -3.8533    1.4517    0.0000 C   0  0  0  0  0  0  0  0  0
   -4.1083    2.2363    0.0000 C   0  0  0  0  0  0  0  0  0
   -4.9333    2.2363    0.0000 N   0  0  0  0  0  0  0  0  0
   -5.1882    1.4517    0.0000 C   0  0  0  0  0  0  0  0  0
   -4.5208    0.9667    0.0000 C   0  0  0  0  0  0  0  0  0
   -4.5208    0.1417    0.0000 C   0  0  0  0  0  0  0  0  0
   -3.8063   -0.2708    0.0000 C   0  0  0  0  0  0  0  0  0
   -3.8063   -1.0958    0.0000 C   0  0  0  0  0  0  0  0  0
   -4.5208   -1.5083    0.0000 C   0  0  0  0  0  0  0  0  0
   -4.5208   -2.3333    0.0000 N   0  0  0  0  0  0  0  0  0
   -3.8063   -2.7458    0.0000 C   0  0  0  0  0  0  0  0  0
   -3.8063   -3.5708    0.0000 C   0  0  0  0  0  0  0  0  0
   -4.5208   -3.9833    0.0000 N   0  0  0  0  0  0  0  0  0
   -5.2352   -3.5708    0.0000 C   0  0  0  0  0  0  0  0  0
   -5.2352   -2.7458    0.0000 C   0  0  0  0  0  0  0  0  0
   -4.5208   -4.8083    0.0000 C   0  0  0  0  0  0  0  0  0
   -3.8063   -5.2208    0.0000 C   0  0  0  0  0  0  0  0  0
   -3.0918   -4.8083    0.0000 O   0  0  0  0  0  0  0  0  0
   -2.3773   -5.2208    0.0000 C   0  0  0  0  0  0  0  0  0
   -2.3773   -6.0458    0.0000 C   0  0  0  0  0  0  0  0  0
   -3.0918   -6.4583    0.0000 O   0  0  0  0  0  0  0  0  0
   -3.8063   -6.0458    0.0000 C   0  0  0  0  0  0  0  0  0
   -4.5208   -6.4583    0.0000 C   0  0  0  0  0  0  0  0  0
   -5.2352   -6.0458    0.0000 C   0  0  0  0  0  0  0  0  0
   -5.2352   -5.2208    0.0000 C   0  0  0  0  0  0  0  0  0
   -5.2352   -1.0958    0.0000 C   0  0  0  0  0  0  0  0  0
   -5.2352   -0.2708    0.0000 C   0  0  0  0  0  0  0  0  0
   -3.5562    2.8494    0.0000 C   0  0  0  0  0  0  0  0  0
   -2.7493    2.6778    0.0000 C   0  0  0  0  0  0  0  0  0
  1  2  1  0  0  0  0
  2  3  4  0  0  0  0
  2 32  4  0  0  0  0
  3  4  4  0  0  0  0
  4  5  4  0  0  0  0
  4  8  4  0  0  0  0
  5  6  4  0  0  0  0
  5 31  4  0  0  0  0
  6  7  4  0  0  0  0
  7  8  4  0  0  0  0
  8  9  1  0  0  0  0
  9 10  1  0  0  0  0
  9 30  1  0  0  0  0
 10 11  1  0  0  0  0
 11 12  1  0  0  0  0
 12 13  1  0  0  0  0
 12 29  1  0  0  0  0
 13 14  1  0  0  0  0
 13 18  1  0  0  0  0
 14 15  1  0  0  0  0
 15 16  1  0  0  0  0
 16 17  1  0  0  0  0
 16 19  1  0  0  0  0
 17 18  1  0  0  0  0
 19 20  4  0  0  0  0
 19 28  4  0  0  0  0
 20 21  1  0  0  0  0
 20 25  4  0  0  0  0
 21 22  1  0  0  0  0
 22 23  1  0  0  0  0
 23 24  1  0  0  0  0
 24 25  1  0  0  0  0
 25 26  4  0  0  0  0
 26 27  4  0  0  0  0
 27 28  4  0  0  0  0
 29 30  1  0  0  0  0
 31 32  4  0  0  0  0
M  STY  1   1 DAT
M  SAL   1  1   6
M  SDT   1 MRV_IMPLICIT_H                                        
M  SDD   1     0.0000    0.0000    DR    ALL  0       0  
M  SED   1 IMPL_H1
M  END
>  <Name_Molregno>
300222

>  <5-HT1A>
7.56

$$$$
300332
  Marvin  02231216192D 0   1.00000     0.00000     0

 28 32  0  0  1  0  0  0  0  0999 V2000
   -7.3355   -1.8524    0.0000 F   0  0  0  0  0  0  0  0  0
   -7.0806   -2.6371    0.0000 C   0  0  0  0  0  0  0  0  0
   -6.2736   -2.8086    0.0000 C   0  0  0  0  0  0  0  0  0
   -6.0187   -3.5932    0.0000 C   0  0  0  0  0  0  0  0  0
   -6.5707   -4.2063    0.0000 C   0  0  0  0  0  0  0  0  0
   -6.1582   -4.9208    0.0000 N   0  0  0  0  0  0  0  0  0
   -5.3512   -4.7493    0.0000 C   0  0  0  0  0  0  0  0  0
   -5.2650   -3.9288    0.0000 C   0  0  0  0  0  0  0  0  0
   -4.5505   -3.5163    0.0000 C   0  0  0  0  0  0  0  0  0
   -4.5505   -2.6913    0.0000 C   0  0  0  0  0  0  0  0  0
   -3.8361   -2.2788    0.0000 C   0  0  0  0  0  0  0  0  0
   -3.1216   -2.6913    0.0000 C   0  0  0  0  0  0  0  0  0
   -2.4071   -2.2788    0.0000 N   0  0  0  0  0  0  0  0  0
   -1.6926   -2.6913    0.0000 C   0  0  0  0  0  0  0  0  0
   -0.9782   -2.2788    0.0000 C   0  0  0  0  0  0  0  0  0
   -0.2637   -2.6913    0.0000 O   0  0  0  0  0  0  0  0  0
    0.4508   -2.2788    0.0000 C   0  0  0  0  0  0  0  0  0
    0.4508   -1.4538    0.0000 C   0  0  0  0  0  0  0  0  0
   -0.2637   -1.0413    0.0000 O   0  0  0  0  0  0  0  0  0
   -0.9782   -1.4538    0.0000 C   0  0  0  0  0  0  0  0  0
    1.1652   -1.0413    0.0000 C   0  0  0  0  0  0  0  0  0
    1.8797   -1.4538    0.0000 C   0  0  0  0  0  0  0  0  0
    1.8797   -2.2788    0.0000 C   0  0  0  0  0  0  0  0  0
    1.1652   -2.6913    0.0000 C   0  0  0  0  0  0  0  0  0
   -3.1216   -3.5163    0.0000 C   0  0  0  0  0  0  0  0  0
   -3.8361   -3.9288    0.0000 C   0  0  0  0  0  0  0  0  0
   -7.3777   -4.0348    0.0000 C   0  0  0  0  0  0  0  0  0
   -7.6326   -3.2502    0.0000 C   0  0  0  0  0  0  0  0  0
  1  2  1  0  0  0  0
  2  3  4  0  0  0  0
  2 28  4  0  0  0  0
  3  4  4  0  0  0  0
  4  5  4  0  0  0  0
  4  8  4  0  0  0  0
  5  6  4  0  0  0  0
  5 27  4  0  0  0  0
  6  7  4  0  0  0  0
  7  8  4  0  0  0  0
  8  9  1  0  0  0  0
  9 10  1  0  0  0  0
  9 26  1  0  0  0  0
 10 11  1  0  0  0  0
 11 12  1  0  0  0  0
 12 13  1  0  0  0  0
 12 25  1  0  0  0  0
 13 14  1  0  0  0  0
 14 15  1  0  0  0  0
 15 16  1  0  0  0  0
 15 20  1  0  0  0  0
 16 17  1  0  0  0  0
 17 18  4  0  0  0  0
 17 24  4  0  0  0  0
 18 19  1  0  0  0  0
 18 21  4  0  0  0  0
 19 20  1  0  0  0  0
 21 22  4  0  0  0  0
 22 23  4  0  0  0  0
 23 24  4  0  0  0  0
 25 26  1  0  0  0  0
 27 28  4  0  0  0  0
M  STY  1   1 DAT
M  SAL   1  1   6
M  SDT   1 MRV_IMPLICIT_H                                        
M  SDD   1     0.0000    0.0000    DR    ALL  0       0  
M  SED   1 IMPL_H1
M  END
>  <Name_Molregno>
300332

>  <5-HT1A>
6.6

$$$$
300333
  Marvin  02231216192D 0   1.00000     0.00000     0

 31 36  0  0  0  0  0  0  0  0999 V2000
   -5.8329   -6.0632    0.0000 F   0  0  0  0  0  0  0  0  0
   -5.0259   -6.2347    0.0000 C   0  0  0  0  0  0  0  0  0
   -4.4739   -5.6216    0.0000 C   0  0  0  0  0  0  0  0  0
   -3.6669   -5.7932    0.0000 C   0  0  0  0  0  0  0  0  0
   -3.4120   -6.5778    0.0000 C   0  0  0  0  0  0  0  0  0
   -2.5870   -6.5778    0.0000 N   0  0  0  0  0  0  0  0  0
   -2.3321   -5.7932    0.0000 C   0  0  0  0  0  0  0  0  0
   -2.9995   -5.3082    0.0000 C   0  0  0  0  0  0  0  0  0
   -2.9995   -4.4832    0.0000 C   0  0  0  0  0  0  0  0  0
   -3.7140   -4.0707    0.0000 C   0  0  0  0  0  0  0  0  0
   -3.7140   -3.2457    0.0000 C   0  0  0  0  0  0  0  0  0
   -2.9995   -2.8332    0.0000 C   0  0  0  0  0  0  0  0  0
   -2.9995   -2.0082    0.0000 N   0  0  0  0  0  0  0  0  0
   -3.7140   -1.5957    0.0000 C   0  0  0  0  0  0  0  0  0
   -3.7140   -0.7707    0.0000 C   0  0  0  0  0  0  0  0  0
   -2.9995   -0.3582    0.0000 N   0  0  0  0  0  0  0  0  0
   -2.2850   -0.7707    0.0000 C   0  0  0  0  0  0  0  0  0
   -2.2850   -1.5957    0.0000 C   0  0  0  0  0  0  0  0  0
   -2.9995    0.4668    0.0000 C   0  0  0  0  0  0  0  0  0
   -3.7140    0.8793    0.0000 C   0  0  0  0  0  0  0  0  0
   -3.7140    1.7043    0.0000 C   0  0  0  0  0  0  0  0  0
   -4.4986    1.9592    0.0000 N   0  0  0  0  0  0  0  0  0
   -4.9835    1.2918    0.0000 C   0  0  0  0  0  0  0  0  0
   -4.4986    0.6243    0.0000 C   0  0  0  0  0  0  0  0  0
   -2.9995    2.1168    0.0000 C   0  0  0  0  0  0  0  0  0
   -2.2850    1.7043    0.0000 C   0  0  0  0  0  0  0  0  0
   -2.2850    0.8793    0.0000 C   0  0  0  0  0  0  0  0  0
   -2.2850   -3.2457    0.0000 C   0  0  0  0  0  0  0  0  0
   -2.2850   -4.0707    0.0000 C   0  0  0  0  0  0  0  0  0
   -3.9640   -7.1909    0.0000 C   0  0  0  0  0  0  0  0  0
   -4.7710   -7.0193    0.0000 C   0  0  0  0  0  0  0  0  0
  1  2  1  0  0  0  0
  2  3  4  0  0  0  0
  2 31  4  0  0  0  0
  3  4  4  0  0  0  0
  4  5  4  0  0  0  0
  4  8  4  0  0  0  0
  5  6  4  0  0  0  0
  5 30  4  0  0  0  0
  6  7  4  0  0  0  0
  7  8  4  0  0  0  0
  8  9  1  0  0  0  0
  9 10  1  0  0  0  0
  9 29  1  0  0  0  0
 10 11  1  0  0  0  0
 11 12  1  0  0  0  0
 12 13  1  0  0  0  0
 12 28  1  0  0  0  0
 13 14  1  0  0  0  0
 13 18  1  0  0  0  0
 14 15  1  0  0  0  0
 15 16  1  0  0  0  0
 16 17  1  0  0  0  0
 16 19  1  0  0  0  0
 17 18  1  0  0  0  0
 19 20  4  0  0  0  0
 19 27  4  0  0  0  0
 20 21  4  0  0  0  0
 20 24  4  0  0  0  0
 21 22  4  0  0  0  0
 21 25  4  0  0  0  0
 22 23  4  0  0  0  0
 23 24  4  0  0  0  0
 25 26  4  0  0  0  0
 26 27  4  0  0  0  0
 28 29  1  0  0  0  0
 30 31  4  0  0  0  0
M  STY  2   1 DAT   2 DAT
M  SAL   1  1   6
M  SDT   1 MRV_IMPLICIT_H                                        
M  SDD   1     0.0000    0.0000    DR    ALL  0       0  
M  SED   1 IMPL_H1
M  SAL   2  1  22
M  SDT   2 MRV_IMPLICIT_H                                        
M  SDD   2     0.0000    0.0000    DR    ALL  0       0  
M  SED   2 IMPL_H1
M  END
>  <Name_Molregno>
300333

>  <5-HT1A>
7.89

$$$$
300462
  Marvin  02231216192D 0   1.00000     0.00000     0

 29 33  0  0  0  0  0  0  0  0999 V2000
   -5.1646   -6.5011    0.0000 F   0  0  0  0  0  0  0  0  0
   -4.3576   -6.6726    0.0000 C   0  0  0  0  0  0  0  0  0
   -3.8056   -6.0595    0.0000 C   0  0  0  0  0  0  0  0  0
   -2.9986   -6.2310    0.0000 C   0  0  0  0  0  0  0  0  0
   -2.7437   -7.0157    0.0000 C   0  0  0  0  0  0  0  0  0
   -1.9187   -7.0157    0.0000 N   0  0  0  0  0  0  0  0  0
   -1.6637   -6.2310    0.0000 C   0  0  0  0  0  0  0  0  0
   -2.3312   -5.7461    0.0000 C   0  0  0  0  0  0  0  0  0
   -2.3312   -4.9211    0.0000 C   0  0  0  0  0  0  0  0  0
   -3.0457   -4.5086    0.0000 C   0  0  0  0  0  0  0  0  0
   -3.0457   -3.6836    0.0000 C   0  0  0  0  0  0  0  0  0
   -2.3312   -3.2711    0.0000 C   0  0  0  0  0  0  0  0  0
   -2.3312   -2.4461    0.0000 N   0  0  0  0  0  0  0  0  0
   -3.0457   -2.0336    0.0000 C   0  0  0  0  0  0  0  0  0
   -3.0457   -1.2086    0.0000 C   0  0  0  0  0  0  0  0  0
   -3.7601   -0.7961    0.0000 O   0  0  0  0  0  0  0  0  0
   -3.7601    0.0289    0.0000 C   0  0  0  0  0  0  0  0  0
   -4.4746    0.4414    0.0000 C   0  0  0  0  0  0  0  0  0
   -4.4746    1.2664    0.0000 C   0  0  0  0  0  0  0  0  0
   -5.2592    1.5213    0.0000 N   0  0  0  0  0  0  0  0  0
   -5.7441    0.8539    0.0000 C   0  0  0  0  0  0  0  0  0
   -5.2592    0.1865    0.0000 C   0  0  0  0  0  0  0  0  0
   -3.7601    1.6789    0.0000 C   0  0  0  0  0  0  0  0  0
   -3.0457    1.2664    0.0000 C   0  0  0  0  0  0  0  0  0
   -3.0457    0.4414    0.0000 C   0  0  0  0  0  0  0  0  0
   -1.6167   -3.6836    0.0000 C   0  0  0  0  0  0  0  0  0
   -1.6167   -4.5086    0.0000 C   0  0  0  0  0  0  0  0  0
   -3.2957   -7.6287    0.0000 C   0  0  0  0  0  0  0  0  0
   -4.1027   -7.4572    0.0000 C   0  0  0  0  0  0  0  0  0
  1  2  1  0  0  0  0
  2  3  4  0  0  0  0
  2 29  4  0  0  0  0
  3  4  4  0  0  0  0
  4  5  4  0  0  0  0
  4  8  4  0  0  0  0
  5  6  4  0  0  0  0
  5 28  4  0  0  0  0
  6  7  4  0  0  0  0
  7  8  4  0  0  0  0
  8  9  1  0  0  0  0
  9 10  1  0  0  0  0
  9 27  1  0  0  0  0
 10 11  1  0  0  0  0
 11 12  1  0  0  0  0
 12 13  1  0  0  0  0
 12 26  1  0  0  0  0
 13 14  1  0  0  0  0
 14 15  1  0  0  0  0
 15 16  1  0  0  0  0
 16 17  1  0  0  0  0
 17 18  4  0  0  0  0
 17 25  4  0  0  0  0
 18 19  4  0  0  0  0
 18 22  4  0  0  0  0
 19 20  4  0  0  0  0
 19 23  4  0  0  0  0
 20 21  4  0  0  0  0
 21 22  4  0  0  0  0
 23 24  4  0  0  0  0
 24 25  4  0  0  0  0
 26 27  1  0  0  0  0
 28 29  4  0  0  0  0
M  STY  2   1 DAT   2 DAT
M  SAL   1  1   6
M  SDT   1 MRV_IMPLICIT_H                                        
M  SDD   1     0.0000    0.0000    DR    ALL  0       0  
M  SED   1 IMPL_H1
M  SAL   2  1  20
M  SDT   2 MRV_IMPLICIT_H                                        
M  SDD   2     0.0000    0.0000    DR    ALL  0       0  
M  SED   2 IMPL_H1
M  END
>  <Name_Molregno>
300462

>  <5-HT1A>
7.9

$$$$
300492
  Marvin  02231216192D 0   1.00000     0.00000     0

 28 31  0  0  0  0  0  0  0  0999 V2000
   -1.3631    2.2406    0.0000 F   0  0  0  0  0  0  0  0  0
   -2.0775    2.6531    0.0000 C   0  0  0  0  0  0  0  0  0
   -2.7920    2.2406    0.0000 C   0  0  0  0  0  0  0  0  0
   -3.5065    2.6531    0.0000 C   0  0  0  0  0  0  0  0  0
   -3.5065    3.4781    0.0000 C   0  0  0  0  0  0  0  0  0
   -4.2911    3.7330    0.0000 N   0  0  0  0  0  0  0  0  0
   -4.7760    3.0656    0.0000 C   0  0  0  0  0  0  0  0  0
   -4.2911    2.3981    0.0000 C   0  0  0  0  0  0  0  0  0
   -4.5460    1.6135    0.0000 C   0  0  0  0  0  0  0  0  0
   -3.9940    1.0004    0.0000 C   0  0  0  0  0  0  0  0  0
   -4.2489    0.2158    0.0000 C   0  0  0  0  0  0  0  0  0
   -5.0559    0.0443    0.0000 C   0  0  0  0  0  0  0  0  0
   -5.3108   -0.7404    0.0000 N   0  0  0  0  0  0  0  0  0
   -4.7588   -1.3534    0.0000 C   0  0  0  0  0  0  0  0  0
   -5.0138   -2.1381    0.0000 C   0  0  0  0  0  0  0  0  0
   -4.4617   -2.7512    0.0000 O   0  0  0  0  0  0  0  0  0
   -4.7167   -3.5358    0.0000 C   0  0  0  0  0  0  0  0  0
   -4.1646   -4.1489    0.0000 C   0  0  0  0  0  0  0  0  0
   -4.4196   -4.9335    0.0000 C   0  0  0  0  0  0  0  0  0
   -5.2265   -5.1050    0.0000 C   0  0  0  0  0  0  0  0  0
   -5.7786   -4.4919    0.0000 C   0  0  0  0  0  0  0  0  0
   -5.5236   -3.7073    0.0000 C   0  0  0  0  0  0  0  0  0
   -6.0757   -3.0942    0.0000 O   0  0  0  0  0  0  0  0  0
   -6.8826   -3.2657    0.0000 C   0  0  0  0  0  0  0  0  0
   -5.6079    0.6574    0.0000 C   0  0  0  0  0  0  0  0  0
   -5.3530    1.4420    0.0000 C   0  0  0  0  0  0  0  0  0
   -2.7920    3.8906    0.0000 C   0  0  0  0  0  0  0  0  0
   -2.0775    3.4781    0.0000 C   0  0  0  0  0  0  0  0  0
  1  2  1  0  0  0  0
  2  3  4  0  0  0  0
  2 28  4  0  0  0  0
  3  4  4  0  0  0  0
  4  5  4  0  0  0  0
  4  8  4  0  0  0  0
  5  6  4  0  0  0  0
  5 27  4  0  0  0  0
  6  7  4  0  0  0  0
  7  8  4  0  0  0  0
  8  9  1  0  0  0  0
  9 10  1  0  0  0  0
  9 26  1  0  0  0  0
 10 11  1  0  0  0  0
 11 12  1  0  0  0  0
 12 13  1  0  0  0  0
 12 25  1  0  0  0  0
 13 14  1  0  0  0  0
 14 15  1  0  0  0  0
 15 16  1  0  0  0  0
 16 17  1  0  0  0  0
 17 18  4  0  0  0  0
 17 22  4  0  0  0  0
 18 19  4  0  0  0  0
 19 20  4  0  0  0  0
 20 21  4  0  0  0  0
 21 22  4  0  0  0  0
 22 23  1  0  0  0  0
 23 24  1  0  0  0  0
 25 26  1  0  0  0  0
 27 28  4  0  0  0  0
M  STY  1   1 DAT
M  SAL   1  1   6
M  SDT   1 MRV_IMPLICIT_H                                        
M  SDD   1     0.0000    0.0000    DR    ALL  0       0  
M  SED   1 IMPL_H1
M  END
>  <Name_Molregno>
300492

>  <5-HT1A>
7.08

$$$$
300544
  Marvin  02231216192D 0   1.00000     0.00000     0

 30 34  0  0  0  0  0  0  0  0999 V2000
   -1.7746    0.3379    0.0000 F   0  0  0  0  0  0  0  0  0
   -2.5816    0.5095    0.0000 C   0  0  0  0  0  0  0  0  0
   -3.1336   -0.1036    0.0000 C   0  0  0  0  0  0  0  0  0
   -3.9406    0.0679    0.0000 C   0  0  0  0  0  0  0  0  0
   -4.1956    0.8525    0.0000 C   0  0  0  0  0  0  0  0  0
   -5.0206    0.8525    0.0000 N   0  0  0  0  0  0  0  0  0
   -5.2755    0.0679    0.0000 C   0  0  0  0  0  0  0  0  0
   -4.6081   -0.4170    0.0000 C   0  0  0  0  0  0  0  0  0
   -4.6081   -1.2420    0.0000 C   0  0  0  0  0  0  0  0  0
   -3.8936   -1.6545    0.0000 C   0  0  0  0  0  0  0  0  0
   -3.8936   -2.4795    0.0000 C   0  0  0  0  0  0  0  0  0
   -4.6081   -2.8920    0.0000 C   0  0  0  0  0  0  0  0  0
   -4.6081   -3.7170    0.0000 N   0  0  0  0  0  0  0  0  0
   -3.8936   -4.1295    0.0000 C   0  0  0  0  0  0  0  0  0
   -3.8936   -4.9545    0.0000 C   0  0  0  0  0  0  0  0  0
   -3.1791   -5.3670    0.0000 O   0  0  0  0  0  0  0  0  0
   -3.1791   -6.1920    0.0000 C   0  0  0  0  0  0  0  0  0
   -2.4646   -6.6045    0.0000 C   0  0  0  0  0  0  0  0  0
   -1.7502   -6.1920    0.0000 O   0  0  0  0  0  0  0  0  0
   -1.0357   -6.6045    0.0000 C   0  0  0  0  0  0  0  0  0
   -1.0357   -7.4295    0.0000 C   0  0  0  0  0  0  0  0  0
   -1.7502   -7.8420    0.0000 O   0  0  0  0  0  0  0  0  0
   -2.4646   -7.4295    0.0000 C   0  0  0  0  0  0  0  0  0
   -3.1791   -7.8420    0.0000 C   0  0  0  0  0  0  0  0  0
   -3.8936   -7.4295    0.0000 C   0  0  0  0  0  0  0  0  0
   -3.8936   -6.6045    0.0000 C   0  0  0  0  0  0  0  0  0
   -5.3225   -2.4795    0.0000 C   0  0  0  0  0  0  0  0  0
   -5.3225   -1.6545    0.0000 C   0  0  0  0  0  0  0  0  0
   -3.6435    1.4656    0.0000 C   0  0  0  0  0  0  0  0  0
   -2.8366    1.2941    0.0000 C   0  0  0  0  0  0  0  0  0
  1  2  1  0  0  0  0
  2  3  4  0  0  0  0
  2 30  4  0  0  0  0
  3  4  4  0  0  0  0
  4  5  4  0  0  0  0
  4  8  4  0  0  0  0
  5  6  4  0  0  0  0
  5 29  4  0  0  0  0
  6  7  4  0  0  0  0
  7  8  4  0  0  0  0
  8  9  1  0  0  0  0
  9 10  1  0  0  0  0
  9 28  1  0  0  0  0
 10 11  1  0  0  0  0
 11 12  1  0  0  0  0
 12 13  1  0  0  0  0
 12 27  1  0  0  0  0
 13 14  1  0  0  0  0
 14 15  1  0  0  0  0
 15 16  1  0  0  0  0
 16 17  1  0  0  0  0
 17 18  4  0  0  0  0
 17 26  4  0  0  0  0
 18 19  1  0  0  0  0
 18 23  4  0  0  0  0
 19 20  1  0  0  0  0
 20 21  1  0  0  0  0
 21 22  1  0  0  0  0
 22 23  1  0  0  0  0
 23 24  4  0  0  0  0
 24 25  4  0  0  0  0
 25 26  4  0  0  0  0
 27 28  1  0  0  0  0
 29 30  4  0  0  0  0
M  STY  1   1 DAT
M  SAL   1  1   6
M  SDT   1 MRV_IMPLICIT_H                                        
M  SDD   1     0.0000    0.0000    DR    ALL  0       0  
M  SED   1 IMPL_H1
M  END
>  <Name_Molregno>
300544

>  <5-HT1A>
7.02

$$$$
300732
  Marvin  02231216192D 0   1.00000     0.00000     0

 28 31  0  0  1  0  0  0  0  0999 V2000
    1.9979   -2.1490    0.0000 S   0  0  0  0  0  0  0  0  0
    1.4676   -2.7810    0.0000 O   0  0  0  0  0  0  0  0  0
    2.5282   -2.7810    0.0000 O   0  0  0  0  0  0  0  0  0
    1.2834   -1.7365    0.0000 N   0  0  0  0  0  0  0  0  0
    1.2834   -0.9115    0.0000 C   0  0  0  0  0  0  0  0  0
    1.9979   -0.4990    0.0000 N   0  0  0  0  0  0  0  0  0
    2.7124   -0.9115    0.0000 C   0  0  0  0  0  0  0  0  0
    3.4269   -0.4990    0.0000 C   0  0  0  0  0  0  0  0  0
    4.1413   -0.9115    0.0000 C   0  0  0  0  0  0  0  0  0
    4.1413   -1.7365    0.0000 C   0  0  0  0  0  0  0  0  0
    3.4269   -2.1490    0.0000 C   0  0  0  0  0  0  0  0  0
    2.7124   -1.7365    0.0000 C   0  0  0  0  0  0  0  0  0
    4.8558   -0.4990    0.0000 C   0  0  0  0  0  0  0  0  0
    0.5690   -0.4990    0.0000 C   0  0  0  0  0  0  0  0  0
    0.5690    0.3260    0.0000 N   0  0  0  0  0  0  0  0  0
   -0.1455    0.7385    0.0000 C   0  0  0  0  0  0  0  0  0
   -0.1455    1.5635    0.0000 C   0  0  0  0  0  0  0  0  0
    0.5690    1.9760    0.0000 N   0  0  0  0  0  0  0  0  0
    1.2834    1.5635    0.0000 C   0  0  0  0  0  0  0  0  0
    1.2834    0.7385    0.0000 C   0  0  0  0  0  0  0  0  0
    0.5690    2.8010    0.0000 C   0  0  0  0  0  0  0  0  0
   -0.1455    3.2135    0.0000 C   0  0  0  0  0  0  0  0  0
   -0.1455    4.0385    0.0000 C   0  0  0  0  0  0  0  0  0
    0.5690    4.4510    0.0000 C   0  0  0  0  0  0  0  0  0
    1.2834    4.0385    0.0000 C   0  0  0  0  0  0  0  0  0
    1.2834    3.2135    0.0000 C   0  0  0  0  0  0  0  0  0
    1.9979    2.8010    0.0000 O   0  0  0  0  0  0  0  0  0
    2.7124    3.2135    0.0000 C   0  0  0  0  0  0  0  0  0
  1  2  2  0  0  0  0
  1  3  2  0  0  0  0
  1  4  1  0  0  0  0
  1 12  1  0  0  0  0
  4  5  1  0  0  0  0
  5  6  1  0  0  0  0
  5 14  1  0  0  0  0
  6  7  1  0  0  0  0
  7  8  4  0  0  0  0
  7 12  4  0  0  0  0
  8  9  4  0  0  0  0
  9 10  4  0  0  0  0
  9 13  1  0  0  0  0
 10 11  4  0  0  0  0
 11 12  4  0  0  0  0
 14 15  1  0  0  0  0
 15 16  1  0  0  0  0
 15 20  1  0  0  0  0
 16 17  1  0  0  0  0
 17 18  1  0  0  0  0
 18 19  1  0  0  0  0
 18 21  1  0  0  0  0
 19 20  1  0  0  0  0
 21 22  4  0  0  0  0
 21 26  4  0  0  0  0
 22 23  4  0  0  0  0
 23 24  4  0  0  0  0
 24 25  4  0  0  0  0
 25 26  4  0  0  0  0
 26 27  1  0  0  0  0
 27 28  1  0  0  0  0
M  END
>  <Name_Molregno>
300732

>  <5-HT1A>
7

$$$$
300754
  Marvin  02231216192D 0   1.00000     0.00000     0

 28 31  0  0  1  0  0  0  0  0999 V2000
    0.0030    0.2243    0.0000 Cl  0  0  0  0  0  0  0  0  0
    0.7175   -0.1882    0.0000 C   0  0  0  0  0  0  0  0  0
    1.4319    0.2243    0.0000 C   0  0  0  0  0  0  0  0  0
    2.1464   -0.1882    0.0000 C   0  0  0  0  0  0  0  0  0
    2.8609    0.2243    0.0000 N   0  0  0  0  0  0  0  0  0
    3.5753   -0.1882    0.0000 C   0  0  0  0  0  0  0  0  0
    3.5753   -1.0132    0.0000 N   0  0  0  0  0  0  0  0  0
    2.8609   -1.4257    0.0000 S   0  0  0  0  0  0  0  0  0
    3.3912   -2.0577    0.0000 O   0  0  0  0  0  0  0  0  0
    2.3306   -2.0577    0.0000 O   0  0  0  0  0  0  0  0  0
    2.1464   -1.0132    0.0000 C   0  0  0  0  0  0  0  0  0
    1.4319   -1.4257    0.0000 C   0  0  0  0  0  0  0  0  0
    0.7175   -1.0132    0.0000 C   0  0  0  0  0  0  0  0  0
    4.2898    0.2243    0.0000 C   0  0  0  0  0  0  0  0  0
    5.0043   -0.1882    0.0000 N   0  0  0  0  0  0  0  0  0
    5.7188    0.2243    0.0000 C   0  0  0  0  0  0  0  0  0
    6.4332   -0.1882    0.0000 C   0  0  0  0  0  0  0  0  0
    6.4332   -1.0132    0.0000 N   0  0  0  0  0  0  0  0  0
    5.7188   -1.4257    0.0000 C   0  0  0  0  0  0  0  0  0
    5.0043   -1.0132    0.0000 C   0  0  0  0  0  0  0  0  0
    7.1477   -1.4257    0.0000 C   0  0  0  0  0  0  0  0  0
    7.8622   -1.0132    0.0000 C   0  0  0  0  0  0  0  0  0
    8.5766   -1.4257    0.0000 C   0  0  0  0  0  0  0  0  0
    8.5766   -2.2507    0.0000 C   0  0  0  0  0  0  0  0  0
    7.8622   -2.6632    0.0000 C   0  0  0  0  0  0  0  0  0
    7.1477   -2.2507    0.0000 C   0  0  0  0  0  0  0  0  0
    6.4332   -2.6632    0.0000 O   0  0  0  0  0  0  0  0  0
    6.4332   -3.4882    0.0000 C   0  0  0  0  0  0  0  0  0
  1  2  1  0  0  0  0
  2  3  4  0  0  0  0
  2 13  4  0  0  0  0
  3  4  4  0  0  0  0
  4  5  1  0  0  0  0
  4 11  4  0  0  0  0
  5  6  1  0  0  0  0
  6  7  1  0  0  0  0
  6 14  1  0  0  0  0
  7  8  1  0  0  0  0
  8  9  2  0  0  0  0
  8 10  2  0  0  0  0
  8 11  1  0  0  0  0
 11 12  4  0  0  0  0
 12 13  4  0  0  0  0
 14 15  1  0  0  0  0
 15 16  1  0  0  0  0
 15 20  1  0  0  0  0
 16 17  1  0  0  0  0
 17 18  1  0  0  0  0
 18 19  1  0  0  0  0
 18 21  1  0  0  0  0
 19 20  1  0  0  0  0
 21 22  4  0  0  0  0
 21 26  4  0  0  0  0
 22 23  4  0  0  0  0
 23 24  4  0  0  0  0
 24 25  4  0  0  0  0
 25 26  4  0  0  0  0
 26 27  1  0  0  0  0
 27 28  1  0  0  0  0
M  END
>  <Name_Molregno>
300754

>  <5-HT1A>
8.04

$$$$
300903
  Marvin  02231216192D 0   1.00000     0.00000     0

 27 30  0  0  0  0  0  0  0  0999 V2000
    4.4034   -0.4945    0.0000 S   0  0  0  0  0  0  0  0  0
    3.8731    0.1375    0.0000 O   0  0  0  0  0  0  0  0  0
    4.9337    0.1375    0.0000 O   0  0  0  0  0  0  0  0  0
    3.6889   -0.9070    0.0000 N   0  0  0  0  0  0  0  0  0
    3.6889   -1.7320    0.0000 C   0  0  0  0  0  0  0  0  0
    4.4034   -2.1445    0.0000 N   0  0  0  0  0  0  0  0  0
    5.1178   -1.7320    0.0000 C   0  0  0  0  0  0  0  0  0
    5.1178   -0.9070    0.0000 C   0  0  0  0  0  0  0  0  0
    5.8323   -0.4945    0.0000 C   0  0  0  0  0  0  0  0  0
    6.5468   -0.9070    0.0000 C   0  0  0  0  0  0  0  0  0
    6.5468   -1.7320    0.0000 C   0  0  0  0  0  0  0  0  0
    5.8323   -2.1445    0.0000 C   0  0  0  0  0  0  0  0  0
    2.9744   -2.1445    0.0000 C   0  0  0  0  0  0  0  0  0
    2.2599   -1.7320    0.0000 N   0  0  0  0  0  0  0  0  0
    1.5455   -2.1445    0.0000 C   0  0  0  0  0  0  0  0  0
    0.8310   -1.7320    0.0000 C   0  0  0  0  0  0  0  0  0
    0.8310   -0.9070    0.0000 N   0  0  0  0  0  0  0  0  0
    1.5455   -0.4945    0.0000 C   0  0  0  0  0  0  0  0  0
    2.2599   -0.9070    0.0000 C   0  0  0  0  0  0  0  0  0
    0.1165   -0.4945    0.0000 C   0  0  0  0  0  0  0  0  0
   -0.5979   -0.9070    0.0000 C   0  0  0  0  0  0  0  0  0
   -1.3124   -0.4945    0.0000 C   0  0  0  0  0  0  0  0  0
   -1.3124    0.3305    0.0000 C   0  0  0  0  0  0  0  0  0
   -0.5979    0.7430    0.0000 C   0  0  0  0  0  0  0  0  0
    0.1165    0.3305    0.0000 C   0  0  0  0  0  0  0  0  0
    0.8310    0.7430    0.0000 O   0  0  0  0  0  0  0  0  0
    0.8310    1.5680    0.0000 C   0  0  0  0  0  0  0  0  0
  1  2  2  0  0  0  0
  1  3  2  0  0  0  0
  1  4  1  0  0  0  0
  1  8  1  0  0  0  0
  4  5  2  0  0  0  0
  5  6  1  0  0  0  0
  5 13  1  0  0  0  0
  6  7  1  0  0  0  0
  7  8  4  0  0  0  0
  7 12  4  0  0  0  0
  8  9  4  0  0  0  0
  9 10  4  0  0  0  0
 10 11  4  0  0  0  0
 11 12  4  0  0  0  0
 13 14  1  0  0  0  0
 14 15  1  0  0  0  0
 14 19  1  0  0  0  0
 15 16  1  0  0  0  0
 16 17  1  0  0  0  0
 17 18  1  0  0  0  0
 17 20  1  0  0  0  0
 18 19  1  0  0  0  0
 20 21  4  0  0  0  0
 20 25  4  0  0  0  0
 21 22  4  0  0  0  0
 22 23  4  0  0  0  0
 23 24  4  0  0  0  0
 24 25  4  0  0  0  0
 25 26  1  0  0  0  0
 26 27  1  0  0  0  0
M  END
>  <Name_Molregno>
300903

>  <5-HT1A>
6

$$$$
300918
  Marvin  02231216192D 0   1.00000     0.00000     0

 28 31  0  0  0  0  0  0  0  0999 V2000
    1.9979   -2.1490    0.0000 S   0  0  0  0  0  0  0  0  0
    1.4676   -2.7810    0.0000 O   0  0  0  0  0  0  0  0  0
    2.5282   -2.7810    0.0000 O   0  0  0  0  0  0  0  0  0
    1.2834   -1.7365    0.0000 N   0  0  0  0  0  0  0  0  0
    1.2834   -0.9115    0.0000 C   0  0  0  0  0  0  0  0  0
    1.9979   -0.4990    0.0000 N   0  0  0  0  0  0  0  0  0
    2.7124   -0.9115    0.0000 C   0  0  0  0  0  0  0  0  0
    3.4269   -0.4990    0.0000 C   0  0  0  0  0  0  0  0  0
    4.1413   -0.9115    0.0000 C   0  0  0  0  0  0  0  0  0
    4.1413   -1.7365    0.0000 C   0  0  0  0  0  0  0  0  0
    3.4269   -2.1490    0.0000 C   0  0  0  0  0  0  0  0  0
    2.7124   -1.7365    0.0000 C   0  0  0  0  0  0  0  0  0
    4.8558   -0.4990    0.0000 C   0  0  0  0  0  0  0  0  0
    0.5690   -0.4990    0.0000 C   0  0  0  0  0  0  0  0  0
    0.5690    0.3260    0.0000 N   0  0  0  0  0  0  0  0  0
   -0.1455    0.7385    0.0000 C   0  0  0  0  0  0  0  0  0
   -0.1455    1.5635    0.0000 C   0  0  0  0  0  0  0  0  0
    0.5690    1.9760    0.0000 N   0  0  0  0  0  0  0  0  0
    1.2834    1.5635    0.0000 C   0  0  0  0  0  0  0  0  0
    1.2834    0.7385    0.0000 C   0  0  0  0  0  0  0  0  0
    0.5690    2.8010    0.0000 C   0  0  0  0  0  0  0  0  0
   -0.1455    3.2135    0.0000 C   0  0  0  0  0  0  0  0  0
   -0.1455    4.0385    0.0000 C   0  0  0  0  0  0  0  0  0
    0.5690    4.4510    0.0000 C   0  0  0  0  0  0  0  0  0
    1.2834    4.0385    0.0000 C   0  0  0  0  0  0  0  0  0
    1.2834    3.2135    0.0000 C   0  0  0  0  0  0  0  0  0
    1.9979    2.8010    0.0000 O   0  0  0  0  0  0  0  0  0
    2.7124    3.2135    0.0000 C   0  0  0  0  0  0  0  0  0
  1  2  2  0  0  0  0
  1  3  2  0  0  0  0
  1  4  1  0  0  0  0
  1 12  1  0  0  0  0
  4  5  2  0  0  0  0
  5  6  1  0  0  0  0
  5 14  1  0  0  0  0
  6  7  1  0  0  0  0
  7  8  4  0  0  0  0
  7 12  4  0  0  0  0
  8  9  4  0  0  0  0
  9 10  4  0  0  0  0
  9 13  1  0  0  0  0
 10 11  4  0  0  0  0
 11 12  4  0  0  0  0
 14 15  1  0  0  0  0
 15 16  1  0  0  0  0
 15 20  1  0  0  0  0
 16 17  1  0  0  0  0
 17 18  1  0  0  0  0
 18 19  1  0  0  0  0
 18 21  1  0  0  0  0
 19 20  1  0  0  0  0
 21 22  4  0  0  0  0
 21 26  4  0  0  0  0
 22 23  4  0  0  0  0
 23 24  4  0  0  0  0
 24 25  4  0  0  0  0
 25 26  4  0  0  0  0
 26 27  1  0  0  0  0
 27 28  1  0  0  0  0
M  END
>  <Name_Molregno>
300918

>  <5-HT1A>
6.97

$$$$
300937
  Marvin  02231216192D 0   1.00000     0.00000     0

 28 31  0  0  0  0  0  0  0  0999 V2000
    0.0030    0.2243    0.0000 Cl  0  0  0  0  0  0  0  0  0
    0.7175   -0.1882    0.0000 C   0  0  0  0  0  0  0  0  0
    1.4319    0.2243    0.0000 C   0  0  0  0  0  0  0  0  0
    2.1464   -0.1882    0.0000 C   0  0  0  0  0  0  0  0  0
    2.8609    0.2243    0.0000 N   0  0  0  0  0  0  0  0  0
    3.5753   -0.1882    0.0000 C   0  0  0  0  0  0  0  0  0
    3.5753   -1.0132    0.0000 N   0  0  0  0  0  0  0  0  0
    2.8609   -1.4257    0.0000 S   0  0  0  0  0  0  0  0  0
    3.3912   -2.0577    0.0000 O   0  0  0  0  0  0  0  0  0
    2.3306   -2.0577    0.0000 O   0  0  0  0  0  0  0  0  0
    2.1464   -1.0132    0.0000 C   0  0  0  0  0  0  0  0  0
    1.4319   -1.4257    0.0000 C   0  0  0  0  0  0  0  0  0
    0.7175   -1.0132    0.0000 C   0  0  0  0  0  0  0  0  0
    4.2898    0.2243    0.0000 C   0  0  0  0  0  0  0  0  0
    5.0043   -0.1882    0.0000 N   0  0  0  0  0  0  0  0  0
    5.7188    0.2243    0.0000 C   0  0  0  0  0  0  0  0  0
    6.4332   -0.1882    0.0000 C   0  0  0  0  0  0  0  0  0
    6.4332   -1.0132    0.0000 N   0  0  0  0  0  0  0  0  0
    5.7188   -1.4257    0.0000 C   0  0  0  0  0  0  0  0  0
    5.0043   -1.0132    0.0000 C   0  0  0  0  0  0  0  0  0
    7.1477   -1.4257    0.0000 C   0  0  0  0  0  0  0  0  0
    7.8622   -1.0132    0.0000 C   0  0  0  0  0  0  0  0  0
    8.5766   -1.4257    0.0000 C   0  0  0  0  0  0  0  0  0
    8.5766   -2.2507    0.0000 C   0  0  0  0  0  0  0  0  0
    7.8622   -2.6632    0.0000 C   0  0  0  0  0  0  0  0  0
    7.1477   -2.2507    0.0000 C   0  0  0  0  0  0  0  0  0
    6.4332   -2.6632    0.0000 O   0  0  0  0  0  0  0  0  0
    6.4332   -3.4882    0.0000 C   0  0  0  0  0  0  0  0  0
  1  2  1  0  0  0  0
  2  3  4  0  0  0  0
  2 13  4  0  0  0  0
  3  4  4  0  0  0  0
  4  5  1  0  0  0  0
  4 11  4  0  0  0  0
  5  6  1  0  0  0  0
  6  7  2  0  0  0  0
  6 14  1  0  0  0  0
  7  8  1  0  0  0  0
  8  9  2  0  0  0  0
  8 10  2  0  0  0  0
  8 11  1  0  0  0  0
 11 12  4  0  0  0  0
 12 13  4  0  0  0  0
 14 15  1  0  0  0  0
 15 16  1  0  0  0  0
 15 20  1  0  0  0  0
 16 17  1  0  0  0  0
 17 18  1  0  0  0  0
 18 19  1  0  0  0  0
 18 21  1  0  0  0  0
 19 20  1  0  0  0  0
 21 22  4  0  0  0  0
 21 26  4  0  0  0  0
 22 23  4  0  0  0  0
 23 24  4  0  0  0  0
 24 25  4  0  0  0  0
 25 26  4  0  0  0  0
 26 27  1  0  0  0  0
 27 28  1  0  0  0  0
M  END
>  <Name_Molregno>
300937

>  <5-HT1A>
7.33

$$$$
300938
  Marvin  02231216192D 0   1.00000     0.00000     0

 27 30  0  0  1  0  0  0  0  0999 V2000
    4.4034   -0.4945    0.0000 S   0  0  0  0  0  0  0  0  0
    3.8731    0.1375    0.0000 O   0  0  0  0  0  0  0  0  0
    4.9337    0.1375    0.0000 O   0  0  0  0  0  0  0  0  0
    3.6889   -0.9070    0.0000 N   0  0  0  0  0  0  0  0  0
    3.6889   -1.7320    0.0000 C   0  0  0  0  0  0  0  0  0
    4.4034   -2.1445    0.0000 N   0  0  0  0  0  0  0  0  0
    5.1178   -1.7320    0.0000 C   0  0  0  0  0  0  0  0  0
    5.1178   -0.9070    0.0000 C   0  0  0  0  0  0  0  0  0
    5.8323   -0.4945    0.0000 C   0  0  0  0  0  0  0  0  0
    6.5468   -0.9070    0.0000 C   0  0  0  0  0  0  0  0  0
    6.5468   -1.7320    0.0000 C   0  0  0  0  0  0  0  0  0
    5.8323   -2.1445    0.0000 C   0  0  0  0  0  0  0  0  0
    2.9744   -2.1445    0.0000 C   0  0  0  0  0  0  0  0  0
    2.2599   -1.7320    0.0000 N   0  0  0  0  0  0  0  0  0
    1.5455   -2.1445    0.0000 C   0  0  0  0  0  0  0  0  0
    0.8310   -1.7320    0.0000 C   0  0  0  0  0  0  0  0  0
    0.8310   -0.9070    0.0000 N   0  0  0  0  0  0  0  0  0
    1.5455   -0.4945    0.0000 C   0  0  0  0  0  0  0  0  0
    2.2599   -0.9070    0.0000 C   0  0  0  0  0  0  0  0  0
    0.1165   -0.4945    0.0000 C   0  0  0  0  0  0  0  0  0
   -0.5979   -0.9070    0.0000 C   0  0  0  0  0  0  0  0  0
   -1.3124   -0.4945    0.0000 C   0  0  0  0  0  0  0  0  0
   -1.3124    0.3305    0.0000 C   0  0  0  0  0  0  0  0  0
   -0.5979    0.7430    0.0000 C   0  0  0  0  0  0  0  0  0
    0.1165    0.3305    0.0000 C   0  0  0  0  0  0  0  0  0
    0.8310    0.7430    0.0000 O   0  0  0  0  0  0  0  0  0
    0.8310    1.5680    0.0000 C   0  0  0  0  0  0  0  0  0
  1  2  2  0  0  0  0
  1  3  2  0  0  0  0
  1  4  1  0  0  0  0
  1  8  1  0  0  0  0
  4  5  1  0  0  0  0
  5  6  1  0  0  0  0
  5 13  1  0  0  0  0
  6  7  1  0  0  0  0
  7  8  4  0  0  0  0
  7 12  4  0  0  0  0
  8  9  4  0  0  0  0
  9 10  4  0  0  0  0
 10 11  4  0  0  0  0
 11 12  4  0  0  0  0
 13 14  1  0  0  0  0
 14 15  1  0  0  0  0
 14 19  1  0  0  0  0
 15 16  1  0  0  0  0
 16 17  1  0  0  0  0
 17 18  1  0  0  0  0
 17 20  1  0  0  0  0
 18 19  1  0  0  0  0
 20 21  4  0  0  0  0
 20 25  4  0  0  0  0
 21 22  4  0  0  0  0
 22 23  4  0  0  0  0
 23 24  4  0  0  0  0
 24 25  4  0  0  0  0
 25 26  1  0  0  0  0
 26 27  1  0  0  0  0
M  END
>  <Name_Molregno>
300938

>  <5-HT1A>
7.78

$$$$
303730
  Marvin  02231216192D 0   1.00000     0.00000     0

 30 33  0  0  1  0  0  0  0  0999 V2000
   -9.7438   -0.3452    0.0000 O   0  0  0  0  0  0  0  0  0
   -9.7438    0.4798    0.0000 C   0  0  0  0  0  0  0  0  0
   -9.0294    0.8923    0.0000 C   0  0  0  0  0  0  0  0  0
   -9.0294    1.7173    0.0000 O   0  0  0  0  0  0  0  0  0
   -8.3149    0.4798    0.0000 N   0  0  0  0  0  0  0  0  0
   -8.3149   -0.3452    0.0000 C   0  0  0  0  0  0  0  0  0
   -7.6004   -0.7577    0.0000 C   0  0  0  0  0  0  0  0  0
   -7.6004   -1.5827    0.0000 C   0  0  0  0  0  0  0  0  0
   -6.8859   -1.9952    0.0000 O   0  0  0  0  0  0  0  0  0
   -6.1715   -1.5827    0.0000 C   0  0  0  0  0  0  0  0  0
   -5.4570   -1.9952    0.0000 C   0  0  0  0  0  0  0  0  0
   -4.7425   -1.5827    0.0000 N   0  0  0  0  0  0  0  0  0
   -4.0281   -1.9952    0.0000 C   0  0  0  0  0  0  0  0  0
   -3.3136   -1.5827    0.0000 C   0  0  0  0  0  0  0  0  0
   -3.3136   -0.7577    0.0000 O   0  0  0  0  0  0  0  0  0
   -2.5991   -1.9952    0.0000 C   0  0  0  0  0  0  0  0  0
   -1.8846   -1.5827    0.0000 O   0  0  0  0  0  0  0  0  0
   -1.1702   -1.9952    0.0000 C   0  0  0  0  0  0  0  0  0
   -0.4557   -1.5827    0.0000 C   0  0  0  0  0  0  0  0  0
    0.2588   -1.9952    0.0000 C   0  0  0  0  0  0  0  0  0
    0.8719   -1.4432    0.0000 N   0  0  0  0  0  0  0  0  0
    0.5363   -0.6895    0.0000 C   0  0  0  0  0  0  0  0  0
   -0.2842   -0.7758    0.0000 C   0  0  0  0  0  0  0  0  0
    0.2588   -2.8202    0.0000 C   0  0  0  0  0  0  0  0  0
   -0.4557   -3.2327    0.0000 C   0  0  0  0  0  0  0  0  0
   -1.1702   -2.8202    0.0000 C   0  0  0  0  0  0  0  0  0
   -5.4570   -2.8202    0.0000 C   0  0  0  0  0  0  0  0  0
   -8.3149   -1.9952    0.0000 C   0  0  0  0  0  0  0  0  0
   -9.0294   -1.5827    0.0000 C   0  0  0  0  0  0  0  0  0
   -9.0294   -0.7577    0.0000 C   0  0  0  0  0  0  0  0  0
  1  2  1  0  0  0  0
  1 30  1  0  0  0  0
  2  3  1  0  0  0  0
  3  4  2  0  0  0  0
  3  5  1  0  0  0  0
  5  6  1  0  0  0  0
  6  7  4  0  0  0  0
  6 30  4  0  0  0  0
  7  8  4  0  0  0  0
  8  9  1  0  0  0  0
  8 28  4  0  0  0  0
  9 10  1  0  0  0  0
 10 11  1  0  0  0  0
 11 12  1  0  0  0  0
 11 27  1  0  0  0  0
 12 13  1  0  0  0  0
 13 14  1  0  0  0  0
 14 15  1  0  0  0  0
 14 16  1  0  0  0  0
 16 17  1  0  0  0  0
 17 18  1  0  0  0  0
 18 19  4  0  0  0  0
 18 26  4  0  0  0  0
 19 20  4  0  0  0  0
 19 23  4  0  0  0  0
 20 21  4  0  0  0  0
 20 24  4  0  0  0  0
 21 22  4  0  0  0  0
 22 23  4  0  0  0  0
 24 25  4  0  0  0  0
 25 26  4  0  0  0  0
 28 29  4  0  0  0  0
 29 30  4  0  0  0  0
M  STY  1   1 DAT
M  SAL   1  1  21
M  SDT   1 MRV_IMPLICIT_H                                        
M  SDD   1     0.0000    0.0000    DR    ALL  0       0  
M  SED   1 IMPL_H1
M  END
>  <Name_Molregno>
303730

>  <5-HT1A>
8.7

>  <Beta-2>
8.53

>  <Serotonin transporter>
7.3

$$$$
303746
  Marvin  02231216192D 0   1.00000     0.00000     0

 31 35  0  0  0  0  0  0  0  0999 V2000
   -6.2665   -4.8780    0.0000 O   0  0  0  0  0  0  0  0  0
   -6.9810   -5.2905    0.0000 C   0  0  0  0  0  0  0  0  0
   -7.6955   -4.8780    0.0000 C   0  0  0  0  0  0  0  0  0
   -8.4099   -5.2905    0.0000 O   0  0  0  0  0  0  0  0  0
   -7.6955   -4.0530    0.0000 N   0  0  0  0  0  0  0  0  0
   -6.9810   -3.6405    0.0000 C   0  0  0  0  0  0  0  0  0
   -6.9810   -2.8155    0.0000 C   0  0  0  0  0  0  0  0  0
   -6.2665   -2.4030    0.0000 C   0  0  0  0  0  0  0  0  0
   -5.5520   -2.8155    0.0000 C   0  0  0  0  0  0  0  0  0
   -5.5520   -3.6405    0.0000 C   0  0  0  0  0  0  0  0  0
   -6.2665   -4.0530    0.0000 C   0  0  0  0  0  0  0  0  0
   -6.2665   -1.5780    0.0000 C   0  0  0  0  0  0  0  0  0
   -5.5520   -1.1655    0.0000 C   0  0  0  0  0  0  0  0  0
   -5.5520   -0.3405    0.0000 C   0  0  0  0  0  0  0  0  0
   -4.8376    0.0720    0.0000 C   0  0  0  0  0  0  0  0  0
   -4.1231   -0.3405    0.0000 N   0  0  0  0  0  0  0  0  0
   -4.1231   -1.1655    0.0000 C   0  0  0  0  0  0  0  0  0
   -4.8376   -1.5780    0.0000 C   0  0  0  0  0  0  0  0  0
   -3.4086    0.0720    0.0000 C   0  0  0  0  0  0  0  0  0
   -3.4086    0.8970    0.0000 C   0  0  0  0  0  0  0  0  0
   -2.6942    1.3095    0.0000 O   0  0  0  0  0  0  0  0  0
   -2.6942    2.1345    0.0000 C   0  0  0  0  0  0  0  0  0
   -1.9797    2.5470    0.0000 C   0  0  0  0  0  0  0  0  0
   -1.9797    3.3720    0.0000 C   0  0  0  0  0  0  0  0  0
   -1.2652    3.7845    0.0000 N   0  0  0  0  0  0  0  0  0
   -0.5507    3.3720    0.0000 C   0  0  0  0  0  0  0  0  0
   -0.5507    2.5470    0.0000 C   0  0  0  0  0  0  0  0  0
   -1.2652    2.1345    0.0000 C   0  0  0  0  0  0  0  0  0
   -2.6942    3.7845    0.0000 C   0  0  0  0  0  0  0  0  0
   -3.4086    3.3720    0.0000 C   0  0  0  0  0  0  0  0  0
   -3.4086    2.5470    0.0000 C   0  0  0  0  0  0  0  0  0
  1  2  1  0  0  0  0
  1 11  1  0  0  0  0
  2  3  1  0  0  0  0
  3  4  2  0  0  0  0
  3  5  1  0  0  0  0
  5  6  1  0  0  0  0
  6  7  4  0  0  0  0
  6 11  4  0  0  0  0
  7  8  4  0  0  0  0
  8  9  4  0  0  0  0
  8 12  1  0  0  0  0
  9 10  4  0  0  0  0
 10 11  4  0  0  0  0
 12 13  1  0  0  0  0
 13 14  1  0  0  0  0
 13 18  1  0  0  0  0
 14 15  1  0  0  0  0
 15 16  1  0  0  0  0
 16 17  1  0  0  0  0
 16 19  1  0  0  0  0
 17 18  1  0  0  0  0
 19 20  1  0  0  0  0
 20 21  1  0  0  0  0
 21 22  1  0  0  0  0
 22 23  4  0  0  0  0
 22 31  4  0  0  0  0
 23 24  4  0  0  0  0
 23 28  4  0  0  0  0
 24 25  4  0  0  0  0
 24 29  4  0  0  0  0
 25 26  4  0  0  0  0
 26 27  4  0  0  0  0
 27 28  4  0  0  0  0
 29 30  4  0  0  0  0
 30 31  4  0  0  0  0
M  END
>  <Name_Molregno>
303746

>  <5-HT1A>
8.9

$$$$
303756
  Marvin  02231216192D 0   1.00000     0.00000     0

 31 35  0  0  0  0  0  0  0  0999 V2000
   -9.1014   -1.1921    0.0000 O   0  0  0  0  0  0  0  0  0
   -9.8158   -0.7796    0.0000 C   0  0  0  0  0  0  0  0  0
   -9.8158    0.0454    0.0000 C   0  0  0  0  0  0  0  0  0
  -10.5303    0.4579    0.0000 O   0  0  0  0  0  0  0  0  0
   -9.1014    0.4579    0.0000 N   0  0  0  0  0  0  0  0  0
   -8.3869    0.0454    0.0000 C   0  0  0  0  0  0  0  0  0
   -7.6724    0.4579    0.0000 C   0  0  0  0  0  0  0  0  0
   -6.9579    0.0454    0.0000 C   0  0  0  0  0  0  0  0  0
   -6.2435    0.4579    0.0000 O   0  0  0  0  0  0  0  0  0
   -5.5290    0.0454    0.0000 C   0  0  0  0  0  0  0  0  0
   -4.8145    0.4579    0.0000 C   0  0  0  0  0  0  0  0  0
   -4.1001    0.0454    0.0000 C   0  0  0  0  0  0  0  0  0
   -4.1001   -0.7796    0.0000 N   0  0  0  0  0  0  0  0  0
   -4.8145   -1.1921    0.0000 C   0  0  0  0  0  0  0  0  0
   -5.5290   -0.7796    0.0000 C   0  0  0  0  0  0  0  0  0
   -3.3856   -1.1921    0.0000 C   0  0  0  0  0  0  0  0  0
   -2.6711   -0.7796    0.0000 C   0  0  0  0  0  0  0  0  0
   -1.9566   -1.1921    0.0000 O   0  0  0  0  0  0  0  0  0
   -1.2422   -0.7796    0.0000 C   0  0  0  0  0  0  0  0  0
   -0.5277   -1.1921    0.0000 C   0  0  0  0  0  0  0  0  0
    0.1868   -0.7796    0.0000 C   0  0  0  0  0  0  0  0  0
    0.1868    0.0454    0.0000 C   0  0  0  0  0  0  0  0  0
   -0.5277    0.4579    0.0000 C   0  0  0  0  0  0  0  0  0
   -1.2422    0.0454    0.0000 C   0  0  0  0  0  0  0  0  0
    0.9012   -1.1921    0.0000 C   0  0  0  0  0  0  0  0  0
    0.9012   -2.0171    0.0000 C   0  0  0  0  0  0  0  0  0
    0.1868   -2.4296    0.0000 C   0  0  0  0  0  0  0  0  0
   -0.5277   -2.0171    0.0000 C   0  0  0  0  0  0  0  0  0
   -6.9579   -0.7796    0.0000 C   0  0  0  0  0  0  0  0  0
   -7.6724   -1.1921    0.0000 C   0  0  0  0  0  0  0  0  0
   -8.3869   -0.7796    0.0000 C   0  0  0  0  0  0  0  0  0
  1  2  1  0  0  0  0
  1 31  1  0  0  0  0
  2  3  1  0  0  0  0
  3  4  2  0  0  0  0
  3  5  1  0  0  0  0
  5  6  1  0  0  0  0
  6  7  4  0  0  0  0
  6 31  4  0  0  0  0
  7  8  4  0  0  0  0
  8  9  1  0  0  0  0
  8 29  4  0  0  0  0
  9 10  1  0  0  0  0
 10 11  1  0  0  0  0
 10 15  1  0  0  0  0
 11 12  1  0  0  0  0
 12 13  1  0  0  0  0
 13 14  1  0  0  0  0
 13 16  1  0  0  0  0
 14 15  1  0  0  0  0
 16 17  1  0  0  0  0
 17 18  1  0  0  0  0
 18 19  1  0  0  0  0
 19 20  4  0  0  0  0
 19 24  4  0  0  0  0
 20 21  4  0  0  0  0
 20 28  4  0  0  0  0
 21 22  4  0  0  0  0
 21 25  4  0  0  0  0
 22 23  4  0  0  0  0
 23 24  4  0  0  0  0
 25 26  4  0  0  0  0
 26 27  4  0  0  0  0
 27 28  4  0  0  0  0
 29 30  4  0  0  0  0
 30 31  4  0  0  0  0
M  END
>  <Name_Molregno>
303756

>  <5-HT1A>
8.6

$$$$
303760
  Marvin  02231216192D 0   1.00000     0.00000     0

 28 31  0  0  0  0  0  0  0  0999 V2000
   -9.7006    2.1546    0.0000 O   0  0  0  0  0  0  0  0  0
   -9.7006    2.9796    0.0000 C   0  0  0  0  0  0  0  0  0
   -8.9862    3.3921    0.0000 C   0  0  0  0  0  0  0  0  0
   -8.9862    4.2171    0.0000 O   0  0  0  0  0  0  0  0  0
   -8.2717    2.9796    0.0000 N   0  0  0  0  0  0  0  0  0
   -8.2717    2.1546    0.0000 C   0  0  0  0  0  0  0  0  0
   -7.5572    1.7421    0.0000 C   0  0  0  0  0  0  0  0  0
   -7.5572    0.9171    0.0000 C   0  0  0  0  0  0  0  0  0
   -6.8428    0.5046    0.0000 O   0  0  0  0  0  0  0  0  0
   -6.1283    0.9171    0.0000 C   0  0  0  0  0  0  0  0  0
   -5.4138    0.5046    0.0000 C   0  0  0  0  0  0  0  0  0
   -4.6993    0.9171    0.0000 N   0  0  0  0  0  0  0  0  0
   -3.9849    0.5046    0.0000 C   0  0  0  0  0  0  0  0  0
   -3.2704    0.9171    0.0000 C   0  0  0  0  0  0  0  0  0
   -2.5559    0.5046    0.0000 C   0  0  0  0  0  0  0  0  0
   -1.8415    0.9171    0.0000 O   0  0  0  0  0  0  0  0  0
   -1.1270    0.5046    0.0000 C   0  0  0  0  0  0  0  0  0
   -0.4125    0.9171    0.0000 C   0  0  0  0  0  0  0  0  0
    0.3020    0.5046    0.0000 C   0  0  0  0  0  0  0  0  0
    0.9150    1.0566    0.0000 N   0  0  0  0  0  0  0  0  0
    0.5795    1.8103    0.0000 C   0  0  0  0  0  0  0  0  0
   -0.2410    1.7241    0.0000 C   0  0  0  0  0  0  0  0  0
    0.3020   -0.3204    0.0000 C   0  0  0  0  0  0  0  0  0
   -0.4125   -0.7329    0.0000 C   0  0  0  0  0  0  0  0  0
   -1.1270   -0.3204    0.0000 C   0  0  0  0  0  0  0  0  0
   -8.2717    0.5046    0.0000 C   0  0  0  0  0  0  0  0  0
   -8.9862    0.9171    0.0000 C   0  0  0  0  0  0  0  0  0
   -8.9862    1.7421    0.0000 C   0  0  0  0  0  0  0  0  0
  1  2  1  0  0  0  0
  1 28  1  0  0  0  0
  2  3  1  0  0  0  0
  3  4  2  0  0  0  0
  3  5  1  0  0  0  0
  5  6  1  0  0  0  0
  6  7  4  0  0  0  0
  6 28  4  0  0  0  0
  7  8  4  0  0  0  0
  8  9  1  0  0  0  0
  8 26  4  0  0  0  0
  9 10  1  0  0  0  0
 10 11  1  0  0  0  0
 11 12  1  0  0  0  0
 12 13  1  0  0  0  0
 13 14  1  0  0  0  0
 14 15  1  0  0  0  0
 15 16  1  0  0  0  0
 16 17  1  0  0  0  0
 17 18  4  0  0  0  0
 17 25  4  0  0  0  0
 18 19  4  0  0  0  0
 18 22  4  0  0  0  0
 19 20  4  0  0  0  0
 19 23  4  0  0  0  0
 20 21  4  0  0  0  0
 21 22  4  0  0  0  0
 23 24  4  0  0  0  0
 24 25  4  0  0  0  0
 26 27  4  0  0  0  0
 27 28  4  0  0  0  0
M  STY  1   1 DAT
M  SAL   1  1  20
M  SDT   1 MRV_IMPLICIT_H                                        
M  SDD   1     0.0000    0.0000    DR    ALL  0       0  
M  SED   1 IMPL_H1
M  END
>  <Name_Molregno>
303760

>  <5-HT1A>
9.15

>  <Beta-2>
6.15

>  <Serotonin transporter>
8.2

$$$$
303772
  Marvin  02231216192D 0   1.00000     0.00000     0

 32 36  0  0  0  0  0  0  0  0999 V2000
   -6.5979   -4.9561    0.0000 O   0  0  0  0  0  0  0  0  0
   -7.3124   -5.3686    0.0000 C   0  0  0  0  0  0  0  0  0
   -8.0268   -4.9561    0.0000 C   0  0  0  0  0  0  0  0  0
   -8.7413   -5.3686    0.0000 O   0  0  0  0  0  0  0  0  0
   -8.0268   -4.1311    0.0000 N   0  0  0  0  0  0  0  0  0
   -7.3124   -3.7186    0.0000 C   0  0  0  0  0  0  0  0  0
   -7.3124   -2.8936    0.0000 C   0  0  0  0  0  0  0  0  0
   -6.5979   -2.4811    0.0000 C   0  0  0  0  0  0  0  0  0
   -5.8834   -2.8936    0.0000 C   0  0  0  0  0  0  0  0  0
   -5.8834   -3.7186    0.0000 C   0  0  0  0  0  0  0  0  0
   -6.5979   -4.1311    0.0000 C   0  0  0  0  0  0  0  0  0
   -6.5979   -1.6561    0.0000 C   0  0  0  0  0  0  0  0  0
   -5.8834   -1.2436    0.0000 C   0  0  0  0  0  0  0  0  0
   -5.8834   -0.4186    0.0000 C   0  0  0  0  0  0  0  0  0
   -5.1690   -0.0061    0.0000 C   0  0  0  0  0  0  0  0  0
   -4.4545   -0.4186    0.0000 N   0  0  0  0  0  0  0  0  0
   -4.4545   -1.2436    0.0000 C   0  0  0  0  0  0  0  0  0
   -5.1690   -1.6561    0.0000 C   0  0  0  0  0  0  0  0  0
   -3.7400   -0.0061    0.0000 C   0  0  0  0  0  0  0  0  0
   -3.7400    0.8189    0.0000 C   0  0  0  0  0  0  0  0  0
   -3.0255    1.2314    0.0000 O   0  0  0  0  0  0  0  0  0
   -3.0255    2.0564    0.0000 C   0  0  0  0  0  0  0  0  0
   -2.3111    2.4689    0.0000 C   0  0  0  0  0  0  0  0  0
   -2.3111    3.2939    0.0000 C   0  0  0  0  0  0  0  0  0
   -1.5966    3.7064    0.0000 N   0  0  0  0  0  0  0  0  0
   -0.8821    3.2939    0.0000 C   0  0  0  0  0  0  0  0  0
   -0.8821    2.4689    0.0000 C   0  0  0  0  0  0  0  0  0
   -1.5966    2.0564    0.0000 C   0  0  0  0  0  0  0  0  0
   -0.1677    3.7064    0.0000 C   0  0  0  0  0  0  0  0  0
   -3.0255    3.7064    0.0000 C   0  0  0  0  0  0  0  0  0
   -3.7400    3.2939    0.0000 C   0  0  0  0  0  0  0  0  0
   -3.7400    2.4689    0.0000 C   0  0  0  0  0  0  0  0  0
  1  2  1  0  0  0  0
  1 11  1  0  0  0  0
  2  3  1  0  0  0  0
  3  4  2  0  0  0  0
  3  5  1  0  0  0  0
  5  6  1  0  0  0  0
  6  7  4  0  0  0  0
  6 11  4  0  0  0  0
  7  8  4  0  0  0  0
  8  9  4  0  0  0  0
  8 12  1  0  0  0  0
  9 10  4  0  0  0  0
 10 11  4  0  0  0  0
 12 13  1  0  0  0  0
 13 14  1  0  0  0  0
 13 18  1  0  0  0  0
 14 15  1  0  0  0  0
 15 16  1  0  0  0  0
 16 17  1  0  0  0  0
 16 19  1  0  0  0  0
 17 18  1  0  0  0  0
 19 20  1  0  0  0  0
 20 21  1  0  0  0  0
 21 22  1  0  0  0  0
 22 23  4  0  0  0  0
 22 32  4  0  0  0  0
 23 24  4  0  0  0  0
 23 28  4  0  0  0  0
 24 25  4  0  0  0  0
 24 30  4  0  0  0  0
 25 26  4  0  0  0  0
 26 27  4  0  0  0  0
 26 29  1  0  0  0  0
 27 28  4  0  0  0  0
 30 31  4  0  0  0  0
 31 32  4  0  0  0  0
M  END
>  <Name_Molregno>
303772

>  <5-HT1A>
8.92

>  <5-HT1B>
8

>  <5-HT1D>
8.8

>  <5-HT2A>
5.5

>  <5-HT2C>
5.1

>  <5-HT6>
5

>  <5-HT7>
6.7

>  <Beta-2>
6

>  <DOPAMINE D2>
5.9

>  <DOPAMINE D3>
6.2

>  <Serotonin transporter>
7.1

$$$$
303787
  Marvin  02231216192D 0   1.00000     0.00000     0

 31 35  0  0  0  0  0  0  0  0999 V2000
   -9.1014   -1.1921    0.0000 O   0  0  0  0  0  0  0  0  0
   -9.8158   -0.7796    0.0000 C   0  0  0  0  0  0  0  0  0
   -9.8158    0.0454    0.0000 C   0  0  0  0  0  0  0  0  0
  -10.5303    0.4579    0.0000 O   0  0  0  0  0  0  0  0  0
   -9.1014    0.4579    0.0000 N   0  0  0  0  0  0  0  0  0
   -8.3869    0.0454    0.0000 C   0  0  0  0  0  0  0  0  0
   -7.6724    0.4579    0.0000 C   0  0  0  0  0  0  0  0  0
   -6.9579    0.0454    0.0000 C   0  0  0  0  0  0  0  0  0
   -6.2435    0.4579    0.0000 O   0  0  0  0  0  0  0  0  0
   -5.5290    0.0454    0.0000 C   0  0  0  0  0  0  0  0  0
   -4.8145    0.4579    0.0000 C   0  0  0  0  0  0  0  0  0
   -4.1001    0.0454    0.0000 C   0  0  0  0  0  0  0  0  0
   -4.1001   -0.7796    0.0000 N   0  0  0  0  0  0  0  0  0
   -4.8145   -1.1921    0.0000 C   0  0  0  0  0  0  0  0  0
   -5.5290   -0.7796    0.0000 C   0  0  0  0  0  0  0  0  0
   -3.3856   -1.1921    0.0000 C   0  0  0  0  0  0  0  0  0
   -2.6711   -0.7796    0.0000 C   0  0  0  0  0  0  0  0  0
   -1.9566   -1.1921    0.0000 O   0  0  0  0  0  0  0  0  0
   -1.2422   -0.7796    0.0000 C   0  0  0  0  0  0  0  0  0
   -0.5277   -1.1921    0.0000 C   0  0  0  0  0  0  0  0  0
    0.1868   -0.7796    0.0000 C   0  0  0  0  0  0  0  0  0
    0.9012   -1.1921    0.0000 N   0  0  0  0  0  0  0  0  0
    0.9012   -2.0171    0.0000 C   0  0  0  0  0  0  0  0  0
    0.1868   -2.4296    0.0000 C   0  0  0  0  0  0  0  0  0
   -0.5277   -2.0171    0.0000 C   0  0  0  0  0  0  0  0  0
    0.1868    0.0454    0.0000 C   0  0  0  0  0  0  0  0  0
   -0.5277    0.4579    0.0000 C   0  0  0  0  0  0  0  0  0
   -1.2422    0.0454    0.0000 C   0  0  0  0  0  0  0  0  0
   -6.9579   -0.7796    0.0000 C   0  0  0  0  0  0  0  0  0
   -7.6724   -1.1921    0.0000 C   0  0  0  0  0  0  0  0  0
   -8.3869   -0.7796    0.0000 C   0  0  0  0  0  0  0  0  0
  1  2  1  0  0  0  0
  1 31  1  0  0  0  0
  2  3  1  0  0  0  0
  3  4  2  0  0  0  0
  3  5  1  0  0  0  0
  5  6  1  0  0  0  0
  6  7  4  0  0  0  0
  6 31  4  0  0  0  0
  7  8  4  0  0  0  0
  8  9  1  0  0  0  0
  8 29  4  0  0  0  0
  9 10  1  0  0  0  0
 10 11  1  0  0  0  0
 10 15  1  0  0  0  0
 11 12  1  0  0  0  0
 12 13  1  0  0  0  0
 13 14  1  0  0  0  0
 13 16  1  0  0  0  0
 14 15  1  0  0  0  0
 16 17  1  0  0  0  0
 17 18  1  0  0  0  0
 18 19  1  0  0  0  0
 19 20  4  0  0  0  0
 19 28  4  0  0  0  0
 20 21  4  0  0  0  0
 20 25  4  0  0  0  0
 21 22  4  0  0  0  0
 21 26  4  0  0  0  0
 22 23  4  0  0  0  0
 23 24  4  0  0  0  0
 24 25  4  0  0  0  0
 26 27  4  0  0  0  0
 27 28  4  0  0  0  0
 29 30  4  0  0  0  0
 30 31  4  0  0  0  0
M  END
>  <Name_Molregno>
303787

>  <5-HT1A>
7.9

$$$$
303804
  Marvin  02231216192D 0   1.00000     0.00000     0

 30 34  0  0  1  0  0  0  0  0999 V2000
   -8.1609   -0.2569    0.0000 O   0  0  0  0  0  0  0  0  0
   -8.8754    0.1556    0.0000 C   0  0  0  0  0  0  0  0  0
   -8.8754    0.9806    0.0000 C   0  0  0  0  0  0  0  0  0
   -9.5898    1.3931    0.0000 O   0  0  0  0  0  0  0  0  0
   -8.1609    1.3931    0.0000 N   0  0  0  0  0  0  0  0  0
   -7.4464    0.9806    0.0000 C   0  0  0  0  0  0  0  0  0
   -6.7319    1.3931    0.0000 C   0  0  0  0  0  0  0  0  0
   -6.0175    0.9806    0.0000 C   0  0  0  0  0  0  0  0  0
   -5.3030    1.3931    0.0000 O   0  0  0  0  0  0  0  0  0
   -4.5885    0.9806    0.0000 C   0  0  0  0  0  0  0  0  0
   -3.8741    1.3931    0.0000 C   0  0  0  0  0  0  0  0  0
   -3.1596    0.9806    0.0000 C   0  0  0  0  0  0  0  0  0
   -3.1596    0.1556    0.0000 N   0  0  0  0  0  0  0  0  0
   -3.8741   -0.2569    0.0000 C   0  0  0  0  0  0  0  0  0
   -4.5885    0.1556    0.0000 C   0  0  0  0  0  0  0  0  0
   -2.4451   -0.2569    0.0000 C   0  0  0  0  0  0  0  0  0
   -2.4451   -1.0819    0.0000 C   0  0  0  0  0  0  0  0  0
   -1.7306   -1.4944    0.0000 O   0  0  0  0  0  0  0  0  0
   -1.7306   -2.3194    0.0000 C   0  0  0  0  0  0  0  0  0
   -1.0162   -2.7319    0.0000 C   0  0  0  0  0  0  0  0  0
   -1.0162   -3.5569    0.0000 C   0  0  0  0  0  0  0  0  0
   -0.2316   -3.8118    0.0000 N   0  0  0  0  0  0  0  0  0
    0.2534   -3.1444    0.0000 C   0  0  0  0  0  0  0  0  0
   -0.2316   -2.4769    0.0000 C   0  0  0  0  0  0  0  0  0
   -1.7306   -3.9694    0.0000 C   0  0  0  0  0  0  0  0  0
   -2.4451   -3.5569    0.0000 C   0  0  0  0  0  0  0  0  0
   -2.4451   -2.7319    0.0000 C   0  0  0  0  0  0  0  0  0
   -6.0175    0.1556    0.0000 C   0  0  0  0  0  0  0  0  0
   -6.7319   -0.2569    0.0000 C   0  0  0  0  0  0  0  0  0
   -7.4464    0.1556    0.0000 C   0  0  0  0  0  0  0  0  0
  1  2  1  0  0  0  0
  1 30  1  0  0  0  0
  2  3  1  0  0  0  0
  3  4  2  0  0  0  0
  3  5  1  0  0  0  0
  5  6  1  0  0  0  0
  6  7  4  0  0  0  0
  6 30  4  0  0  0  0
  7  8  4  0  0  0  0
  8  9  1  0  0  0  0
  8 28  4  0  0  0  0
  9 10  1  0  0  0  0
 10 11  1  0  0  0  0
 10 15  1  0  0  0  0
 11 12  1  0  0  0  0
 12 13  1  0  0  0  0
 13 14  1  0  0  0  0
 13 16  1  0  0  0  0
 14 15  1  0  0  0  0
 16 17  1  0  0  0  0
 17 18  1  0  0  0  0
 18 19  1  0  0  0  0
 19 20  1  0  0  0  0
 19 27  2  0  0  0  0
 20 21  1  0  0  0  0
 20 24  1  0  0  0  0
 21 22  1  0  0  0  0
 21 25  1  0  0  0  0
 22 23  1  0  0  0  0
 23 24  2  0  0  0  0
 25 26  2  0  0  0  0
 26 27  1  0  0  0  0
 28 29  4  0  0  0  0
 29 30  4  0  0  0  0
M  END
>  <Name_Molregno>
303804

>  <5-HT1A>
8.4

$$$$
303810
  Marvin  02231216192D 0   1.00000     0.00000     0

 31 35  0  0  1  0  0  0  0  0999 V2000
   -9.9228   -2.7155    0.0000 O   0  0  0  0  0  0  0  0  0
  -10.6373   -2.3030    0.0000 C   0  0  0  0  0  0  0  0  0
  -10.6373   -1.4780    0.0000 C   0  0  0  0  0  0  0  0  0
  -11.3517   -1.0655    0.0000 O   0  0  0  0  0  0  0  0  0
   -9.9228   -1.0655    0.0000 N   0  0  0  0  0  0  0  0  0
   -9.2083   -1.4780    0.0000 C   0  0  0  0  0  0  0  0  0
   -8.4938   -1.0655    0.0000 C   0  0  0  0  0  0  0  0  0
   -7.7794   -1.4780    0.0000 C   0  0  0  0  0  0  0  0  0
   -7.0649   -1.0655    0.0000 O   0  0  0  0  0  0  0  0  0
   -6.3504   -1.4780    0.0000 C   0  0  0  0  0  0  0  0  0
   -5.6360   -1.0655    0.0000 C   0  0  0  0  0  0  0  0  0
   -5.5497   -0.2450    0.0000 C   0  0  0  0  0  0  0  0  0
   -4.7428   -0.0735    0.0000 C   0  0  0  0  0  0  0  0  0
   -4.3303   -0.7879    0.0000 N   0  0  0  0  0  0  0  0  0
   -4.8823   -1.4010    0.0000 C   0  0  0  0  0  0  0  0  0
   -3.5098   -0.8742    0.0000 C   0  0  0  0  0  0  0  0  0
   -3.0249   -0.2067    0.0000 C   0  0  0  0  0  0  0  0  0
   -2.2044   -0.2930    0.0000 O   0  0  0  0  0  0  0  0  0
   -1.7195    0.3745    0.0000 C   0  0  0  0  0  0  0  0  0
   -0.8990    0.2882    0.0000 C   0  0  0  0  0  0  0  0  0
   -0.4140    0.9557    0.0000 C   0  0  0  0  0  0  0  0  0
    0.4064    0.8694    0.0000 N   0  0  0  0  0  0  0  0  0
    0.7420    0.1158    0.0000 C   0  0  0  0  0  0  0  0  0
    0.2571   -0.5517    0.0000 C   0  0  0  0  0  0  0  0  0
   -0.5634   -0.4654    0.0000 C   0  0  0  0  0  0  0  0  0
   -0.7496    1.7093    0.0000 C   0  0  0  0  0  0  0  0  0
   -1.5701    1.7956    0.0000 C   0  0  0  0  0  0  0  0  0
   -2.0550    1.1281    0.0000 C   0  0  0  0  0  0  0  0  0
   -7.7794   -2.3030    0.0000 C   0  0  0  0  0  0  0  0  0
   -8.4938   -2.7155    0.0000 C   0  0  0  0  0  0  0  0  0
   -9.2083   -2.3030    0.0000 C   0  0  0  0  0  0  0  0  0
  1  2  1  0  0  0  0
  1 31  1  0  0  0  0
  2  3  1  0  0  0  0
  3  4  2  0  0  0  0
  3  5  1  0  0  0  0
  5  6  1  0  0  0  0
  6  7  4  0  0  0  0
  6 31  4  0  0  0  0
  7  8  4  0  0  0  0
  8  9  1  0  0  0  0
  8 29  4  0  0  0  0
  9 10  1  0  0  0  0
 10 11  1  0  0  0  0
 11 12  1  0  0  0  0
 11 15  1  0  0  0  0
 12 13  1  0  0  0  0
 13 14  1  0  0  0  0
 14 15  1  0  0  0  0
 14 16  1  0  0  0  0
 16 17  1  0  0  0  0
 17 18  1  0  0  0  0
 18 19  1  0  0  0  0
 19 20  4  0  0  0  0
 19 28  4  0  0  0  0
 20 21  4  0  0  0  0
 20 25  4  0  0  0  0
 21 22  4  0  0  0  0
 21 26  4  0  0  0  0
 22 23  4  0  0  0  0
 23 24  4  0  0  0  0
 24 25  4  0  0  0  0
 26 27  4  0  0  0  0
 27 28  4  0  0  0  0
 29 30  4  0  0  0  0
 30 31  4  0  0  0  0
M  END
>  <Name_Molregno>
303810

>  <5-HT1A>
8.9

$$$$
303832
  Marvin  02231216192D 0   1.00000     0.00000     0

 32 36  0  0  1  0  0  0  0  0999 V2000
   -8.8721    0.0441    0.0000 O   0  0  0  0  0  0  0  0  0
   -9.5866    0.4566    0.0000 C   0  0  0  0  0  0  0  0  0
   -9.5866    1.2816    0.0000 C   0  0  0  0  0  0  0  0  0
  -10.3010    1.6941    0.0000 O   0  0  0  0  0  0  0  0  0
   -8.8721    1.6941    0.0000 N   0  0  0  0  0  0  0  0  0
   -8.1576    1.2816    0.0000 C   0  0  0  0  0  0  0  0  0
   -7.4432    1.6941    0.0000 C   0  0  0  0  0  0  0  0  0
   -6.7287    1.2816    0.0000 C   0  0  0  0  0  0  0  0  0
   -6.0142    1.6941    0.0000 O   0  0  0  0  0  0  0  0  0
   -5.2997    1.2816    0.0000 C   0  0  0  0  0  0  0  0  0
   -4.5853    1.6941    0.0000 C   0  0  0  0  0  0  0  0  0
   -3.8708    1.2816    0.0000 C   0  0  0  0  0  0  0  0  0
   -3.8708    0.4566    0.0000 N   0  0  0  0  0  0  0  0  0
   -4.5853    0.0441    0.0000 C   0  0  0  0  0  0  0  0  0
   -5.2997    0.4566    0.0000 C   0  0  0  0  0  0  0  0  0
   -3.1563    0.0441    0.0000 C   0  0  0  0  0  0  0  0  0
   -3.1563   -0.7809    0.0000 C   0  0  0  0  0  0  0  0  0
   -2.4419   -1.1934    0.0000 O   0  0  0  0  0  0  0  0  0
   -2.4419   -2.0184    0.0000 C   0  0  0  0  0  0  0  0  0
   -1.7274   -2.4309    0.0000 C   0  0  0  0  0  0  0  0  0
   -0.9428   -2.1760    0.0000 C   0  0  0  0  0  0  0  0  0
   -0.4578   -2.8434    0.0000 C   0  0  0  0  0  0  0  0  0
   -0.9428   -3.5108    0.0000 N   0  0  0  0  0  0  0  0  0
   -1.7274   -3.2559    0.0000 C   0  0  0  0  0  0  0  0  0
   -2.4419   -3.6684    0.0000 C   0  0  0  0  0  0  0  0  0
   -3.1563   -3.2559    0.0000 C   0  0  0  0  0  0  0  0  0
   -3.1563   -2.4309    0.0000 C   0  0  0  0  0  0  0  0  0
    0.3672   -2.8434    0.0000 C   0  0  0  0  0  0  0  0  0
    1.1922   -2.8434    0.0000 N   0  0  0  0  0  0  0  0  0
   -6.7287    0.4566    0.0000 C   0  0  0  0  0  0  0  0  0
   -7.4432    0.0441    0.0000 C   0  0  0  0  0  0  0  0  0
   -8.1576    0.4566    0.0000 C   0  0  0  0  0  0  0  0  0
  1  2  1  0  0  0  0
  1 32  1  0  0  0  0
  2  3  1  0  0  0  0
  3  4  2  0  0  0  0
  3  5  1  0  0  0  0
  5  6  1  0  0  0  0
  6  7  4  0  0  0  0
  6 32  4  0  0  0  0
  7  8  4  0  0  0  0
  8  9  1  0  0  0  0
  8 30  4  0  0  0  0
  9 10  1  0  0  0  0
 10 11  1  0  0  0  0
 10 15  1  0  0  0  0
 11 12  1  0  0  0  0
 12 13  1  0  0  0  0
 13 14  1  0  0  0  0
 13 16  1  0  0  0  0
 14 15  1  0  0  0  0
 16 17  1  0  0  0  0
 17 18  1  0  0  0  0
 18 19  1  0  0  0  0
 19 20  1  0  0  0  0
 19 27  2  0  0  0  0
 20 21  1  0  0  0  0
 20 24  1  0  0  0  0
 21 22  2  0  0  0  0
 22 23  1  0  0  0  0
 22 28  1  0  0  0  0
 23 24  1  0  0  0  0
 24 25  1  0  0  0  0
 25 26  2  0  0  0  0
 26 27  1  0  0  0  0
 28 29  3  0  0  0  0
 30 31  4  0  0  0  0
 31 32  4  0  0  0  0
M  END
>  <Name_Molregno>
303832

>  <5-HT1A>
8.8

$$$$
303837
  Marvin  02231216192D 0   1.00000     0.00000     0

 32 36  0  0  1  0  0  0  0  0999 V2000
   -9.8918   -2.6250    0.0000 O   0  0  0  0  0  0  0  0  0
  -10.6063   -2.2125    0.0000 C   0  0  0  0  0  0  0  0  0
  -10.6063   -1.3875    0.0000 C   0  0  0  0  0  0  0  0  0
  -11.3207   -0.9750    0.0000 O   0  0  0  0  0  0  0  0  0
   -9.8918   -0.9750    0.0000 N   0  0  0  0  0  0  0  0  0
   -9.1773   -1.3875    0.0000 C   0  0  0  0  0  0  0  0  0
   -8.4628   -0.9750    0.0000 C   0  0  0  0  0  0  0  0  0
   -7.7484   -1.3875    0.0000 C   0  0  0  0  0  0  0  0  0
   -7.0339   -0.9750    0.0000 O   0  0  0  0  0  0  0  0  0
   -6.3194   -1.3875    0.0000 C   0  0  0  0  0  0  0  0  0
   -5.6050   -0.9750    0.0000 C   0  0  0  0  0  0  0  0  0
   -5.6050   -0.1500    0.0000 C   0  0  0  0  0  0  0  0  0
   -4.8905    0.2625    0.0000 C   0  0  0  0  0  0  0  0  0
   -4.1760   -0.1500    0.0000 C   0  0  0  0  0  0  0  0  0
   -4.1760   -0.9750    0.0000 N   0  0  0  0  0  0  0  0  0
   -4.8905   -1.3875    0.0000 C   0  0  0  0  0  0  0  0  0
   -3.4615   -1.3875    0.0000 C   0  0  0  0  0  0  0  0  0
   -2.7471   -0.9750    0.0000 C   0  0  0  0  0  0  0  0  0
   -2.0326   -1.3875    0.0000 O   0  0  0  0  0  0  0  0  0
   -1.3181   -0.9750    0.0000 C   0  0  0  0  0  0  0  0  0
   -0.6037   -1.3875    0.0000 C   0  0  0  0  0  0  0  0  0
    0.1108   -0.9750    0.0000 C   0  0  0  0  0  0  0  0  0
    0.8253   -1.3875    0.0000 N   0  0  0  0  0  0  0  0  0
    0.8253   -2.2125    0.0000 C   0  0  0  0  0  0  0  0  0
    0.1108   -2.6250    0.0000 C   0  0  0  0  0  0  0  0  0
   -0.6037   -2.2125    0.0000 C   0  0  0  0  0  0  0  0  0
    0.1108   -0.1500    0.0000 C   0  0  0  0  0  0  0  0  0
   -0.6037    0.2625    0.0000 C   0  0  0  0  0  0  0  0  0
   -1.3181   -0.1500    0.0000 C   0  0  0  0  0  0  0  0  0
   -7.7484   -2.2125    0.0000 C   0  0  0  0  0  0  0  0  0
   -8.4628   -2.6250    0.0000 C   0  0  0  0  0  0  0  0  0
   -9.1773   -2.2125    0.0000 C   0  0  0  0  0  0  0  0  0
  1  2  1  0  0  0  0
  1 32  1  0  0  0  0
  2  3  1  0  0  0  0
  3  4  2  0  0  0  0
  3  5  1  0  0  0  0
  5  6  1  0  0  0  0
  6  7  4  0  0  0  0
  6 32  4  0  0  0  0
  7  8  4  0  0  0  0
  8  9  1  0  0  0  0
  8 30  4  0  0  0  0
  9 10  1  0  0  0  0
 10 11  1  0  0  0  0
 11 12  1  0  0  0  0
 11 16  1  0  0  0  0
 12 13  1  0  0  0  0
 13 14  1  0  0  0  0
 14 15  1  0  0  0  0
 15 16  1  0  0  0  0
 15 17  1  0  0  0  0
 17 18  1  0  0  0  0
 18 19  1  0  0  0  0
 19 20  1  0  0  0  0
 20 21  4  0  0  0  0
 20 29  4  0  0  0  0
 21 22  4  0  0  0  0
 21 26  4  0  0  0  0
 22 23  4  0  0  0  0
 22 27  4  0  0  0  0
 23 24  4  0  0  0  0
 24 25  4  0  0  0  0
 25 26  4  0  0  0  0
 27 28  4  0  0  0  0
 28 29  4  0  0  0  0
 30 31  4  0  0  0  0
 31 32  4  0  0  0  0
M  END
>  <Name_Molregno>
303837

>  <5-HT1A>
8.8

$$$$
303860
  Marvin  02231216192D 0   1.00000     0.00000     0

 32 36  0  0  1  0  0  0  0  0999 V2000
   -7.5886   -3.1487    0.0000 O   0  0  0  0  0  0  0  0  0
   -6.7636   -3.1487    0.0000 C   0  0  0  0  0  0  0  0  0
   -6.5087   -2.3641    0.0000 C   0  0  0  0  0  0  0  0  0
   -5.7017   -2.1925    0.0000 C   0  0  0  0  0  0  0  0  0
   -5.1497   -2.8056    0.0000 C   0  0  0  0  0  0  0  0  0
   -5.4046   -3.5902    0.0000 C   0  0  0  0  0  0  0  0  0
   -6.2116   -3.7618    0.0000 C   0  0  0  0  0  0  0  0  0
   -7.1761   -1.8791    0.0000 C   0  0  0  0  0  0  0  0  0
   -7.1761   -1.0541    0.0000 O   0  0  0  0  0  0  0  0  0
   -6.4617   -0.6416    0.0000 C   0  0  0  0  0  0  0  0  0
   -6.4617    0.1834    0.0000 C   0  0  0  0  0  0  0  0  0
   -5.7472    0.5959    0.0000 N   0  0  0  0  0  0  0  0  0
   -5.7472    1.4209    0.0000 C   0  0  0  0  0  0  0  0  0
   -5.0327    1.8334    0.0000 C   0  0  0  0  0  0  0  0  0
   -4.3183    1.4209    0.0000 C   0  0  0  0  0  0  0  0  0
   -3.6038    1.8334    0.0000 O   0  0  0  0  0  0  0  0  0
   -2.8893    1.4209    0.0000 C   0  0  0  0  0  0  0  0  0
   -2.1749    1.8334    0.0000 C   0  0  0  0  0  0  0  0  0
   -1.4604    1.4209    0.0000 C   0  0  0  0  0  0  0  0  0
   -0.7459    1.8334    0.0000 N   0  0  0  0  0  0  0  0  0
   -0.0314    1.4209    0.0000 C   0  0  0  0  0  0  0  0  0
    0.6830    1.8334    0.0000 O   0  0  0  0  0  0  0  0  0
   -0.0314    0.5959    0.0000 C   0  0  0  0  0  0  0  0  0
   -0.7459    0.1834    0.0000 O   0  0  0  0  0  0  0  0  0
   -1.4604    0.5959    0.0000 C   0  0  0  0  0  0  0  0  0
   -2.1749    0.1834    0.0000 C   0  0  0  0  0  0  0  0  0
   -2.8893    0.5959    0.0000 C   0  0  0  0  0  0  0  0  0
   -4.3183    0.5959    0.0000 C   0  0  0  0  0  0  0  0  0
   -5.0327    0.1834    0.0000 C   0  0  0  0  0  0  0  0  0
   -7.8436   -2.3641    0.0000 C   0  0  0  0  0  0  0  0  0
   -8.6523   -2.5271    0.0000 C   0  0  0  0  0  0  0  0  0
   -8.4020   -1.7568    0.0000 C   0  0  0  0  0  0  0  0  0
  1  2  1  0  0  0  0
  1 30  1  0  0  0  0
  2  3  1  0  0  0  0
  2  7  1  0  0  0  0
  3  4  1  0  0  0  0
  3  8  2  0  0  0  0
  4  5  2  0  0  0  0
  5  6  1  0  0  0  0
  6  7  2  0  0  0  0
  8  9  1  0  0  0  0
  8 30  1  0  0  0  0
  9 10  1  0  0  0  0
 10 11  1  0  0  0  0
 11 12  1  0  0  0  0
 12 13  1  0  0  0  0
 12 29  1  0  0  0  0
 13 14  1  0  0  0  0
 14 15  1  0  0  0  0
 15 16  1  0  0  0  0
 15 28  1  0  0  0  0
 16 17  1  0  0  0  0
 17 18  4  0  0  0  0
 17 27  4  0  0  0  0
 18 19  4  0  0  0  0
 19 20  1  0  0  0  0
 19 25  4  0  0  0  0
 20 21  1  0  0  0  0
 21 22  2  0  0  0  0
 21 23  1  0  0  0  0
 23 24  1  0  0  0  0
 24 25  1  0  0  0  0
 25 26  4  0  0  0  0
 26 27  4  0  0  0  0
 28 29  1  0  0  0  0
 30 31  1  0  0  0  0
 30 32  1  0  0  0  0
M  END
>  <Name_Molregno>
303860

>  <5-HT1A>
8.7

$$$$
303865
  Marvin  02231216192D 0   1.00000     0.00000     0

 31 35  0  0  0  0  0  0  0  0999 V2000
   -6.2665   -4.8780    0.0000 O   0  0  0  0  0  0  0  0  0
   -6.9810   -5.2905    0.0000 C   0  0  0  0  0  0  0  0  0
   -7.6955   -4.8780    0.0000 C   0  0  0  0  0  0  0  0  0
   -8.4099   -5.2905    0.0000 O   0  0  0  0  0  0  0  0  0
   -7.6955   -4.0530    0.0000 N   0  0  0  0  0  0  0  0  0
   -6.9810   -3.6405    0.0000 C   0  0  0  0  0  0  0  0  0
   -6.9810   -2.8155    0.0000 C   0  0  0  0  0  0  0  0  0
   -6.2665   -2.4030    0.0000 C   0  0  0  0  0  0  0  0  0
   -5.5520   -2.8155    0.0000 C   0  0  0  0  0  0  0  0  0
   -5.5520   -3.6405    0.0000 C   0  0  0  0  0  0  0  0  0
   -6.2665   -4.0530    0.0000 C   0  0  0  0  0  0  0  0  0
   -6.2665   -1.5780    0.0000 C   0  0  0  0  0  0  0  0  0
   -5.5520   -1.1655    0.0000 N   0  0  0  0  0  0  0  0  0
   -5.5520   -0.3405    0.0000 C   0  0  0  0  0  0  0  0  0
   -4.8376    0.0720    0.0000 C   0  0  0  0  0  0  0  0  0
   -4.1231   -0.3405    0.0000 N   0  0  0  0  0  0  0  0  0
   -4.1231   -1.1655    0.0000 C   0  0  0  0  0  0  0  0  0
   -4.8376   -1.5780    0.0000 C   0  0  0  0  0  0  0  0  0
   -3.4086    0.0720    0.0000 C   0  0  0  0  0  0  0  0  0
   -3.4086    0.8970    0.0000 C   0  0  0  0  0  0  0  0  0
   -2.6942    1.3095    0.0000 O   0  0  0  0  0  0  0  0  0
   -2.6942    2.1345    0.0000 C   0  0  0  0  0  0  0  0  0
   -1.9797    2.5470    0.0000 C   0  0  0  0  0  0  0  0  0
   -1.9797    3.3720    0.0000 C   0  0  0  0  0  0  0  0  0
   -1.2652    3.7845    0.0000 N   0  0  0  0  0  0  0  0  0
   -0.5507    3.3720    0.0000 C   0  0  0  0  0  0  0  0  0
   -0.5507    2.5470    0.0000 C   0  0  0  0  0  0  0  0  0
   -1.2652    2.1345    0.0000 C   0  0  0  0  0  0  0  0  0
   -2.6942    3.7845    0.0000 C   0  0  0  0  0  0  0  0  0
   -3.4086    3.3720    0.0000 C   0  0  0  0  0  0  0  0  0
   -3.4086    2.5470    0.0000 C   0  0  0  0  0  0  0  0  0
  1  2  1  0  0  0  0
  1 11  1  0  0  0  0
  2  3  1  0  0  0  0
  3  4  2  0  0  0  0
  3  5  1  0  0  0  0
  5  6  1  0  0  0  0
  6  7  4  0  0  0  0
  6 11  4  0  0  0  0
  7  8  4  0  0  0  0
  8  9  4  0  0  0  0
  8 12  1  0  0  0  0
  9 10  4  0  0  0  0
 10 11  4  0  0  0  0
 12 13  1  0  0  0  0
 13 14  1  0  0  0  0
 13 18  1  0  0  0  0
 14 15  1  0  0  0  0
 15 16  1  0  0  0  0
 16 17  1  0  0  0  0
 16 19  1  0  0  0  0
 17 18  1  0  0  0  0
 19 20  1  0  0  0  0
 20 21  1  0  0  0  0
 21 22  1  0  0  0  0
 22 23  4  0  0  0  0
 22 31  4  0  0  0  0
 23 24  4  0  0  0  0
 23 28  4  0  0  0  0
 24 25  4  0  0  0  0
 24 29  4  0  0  0  0
 25 26  4  0  0  0  0
 26 27  4  0  0  0  0
 27 28  4  0  0  0  0
 29 30  4  0  0  0  0
 30 31  4  0  0  0  0
M  END
>  <Name_Molregno>
303865

>  <5-HT1A>
8

$$$$
303922
  Marvin  02231216192D 0   1.00000     0.00000     0

 31 35  0  0  0  0  0  0  0  0999 V2000
   -8.4791   -0.1143    0.0000 O   0  0  0  0  0  0  0  0  0
   -9.1935    0.2982    0.0000 C   0  0  0  0  0  0  0  0  0
   -9.1935    1.1232    0.0000 C   0  0  0  0  0  0  0  0  0
   -9.9080    1.5357    0.0000 O   0  0  0  0  0  0  0  0  0
   -8.4791    1.5357    0.0000 N   0  0  0  0  0  0  0  0  0
   -7.7646    1.1232    0.0000 C   0  0  0  0  0  0  0  0  0
   -7.0501    1.5357    0.0000 C   0  0  0  0  0  0  0  0  0
   -6.3357    1.1232    0.0000 C   0  0  0  0  0  0  0  0  0
   -5.6212    1.5357    0.0000 O   0  0  0  0  0  0  0  0  0
   -4.9067    1.1232    0.0000 C   0  0  0  0  0  0  0  0  0
   -4.1922    1.5357    0.0000 C   0  0  0  0  0  0  0  0  0
   -3.4778    1.1232    0.0000 C   0  0  0  0  0  0  0  0  0
   -3.4778    0.2982    0.0000 N   0  0  0  0  0  0  0  0  0
   -4.1922   -0.1143    0.0000 C   0  0  0  0  0  0  0  0  0
   -4.9067    0.2982    0.0000 C   0  0  0  0  0  0  0  0  0
   -2.7633   -0.1143    0.0000 C   0  0  0  0  0  0  0  0  0
   -2.7633   -0.9393    0.0000 C   0  0  0  0  0  0  0  0  0
   -2.0488   -1.3518    0.0000 O   0  0  0  0  0  0  0  0  0
   -2.0488   -2.1768    0.0000 C   0  0  0  0  0  0  0  0  0
   -2.7633   -2.5893    0.0000 N   0  0  0  0  0  0  0  0  0
   -2.7633   -3.4143    0.0000 C   0  0  0  0  0  0  0  0  0
   -2.0488   -3.8268    0.0000 C   0  0  0  0  0  0  0  0  0
   -1.3344   -3.4143    0.0000 C   0  0  0  0  0  0  0  0  0
   -1.3344   -2.5893    0.0000 C   0  0  0  0  0  0  0  0  0
   -0.6199   -2.1768    0.0000 C   0  0  0  0  0  0  0  0  0
    0.0946   -2.5893    0.0000 C   0  0  0  0  0  0  0  0  0
    0.0946   -3.4143    0.0000 C   0  0  0  0  0  0  0  0  0
   -0.6199   -3.8268    0.0000 C   0  0  0  0  0  0  0  0  0
   -6.3357    0.2982    0.0000 C   0  0  0  0  0  0  0  0  0
   -7.0501   -0.1143    0.0000 C   0  0  0  0  0  0  0  0  0
   -7.7646    0.2982    0.0000 C   0  0  0  0  0  0  0  0  0
  1  2  1  0  0  0  0
  1 31  1  0  0  0  0
  2  3  1  0  0  0  0
  3  4  2  0  0  0  0
  3  5  1  0  0  0  0
  5  6  1  0  0  0  0
  6  7  4  0  0  0  0
  6 31  4  0  0  0  0
  7  8  4  0  0  0  0
  8  9  1  0  0  0  0
  8 29  4  0  0  0  0
  9 10  1  0  0  0  0
 10 11  1  0  0  0  0
 10 15  1  0  0  0  0
 11 12  1  0  0  0  0
 12 13  1  0  0  0  0
 13 14  1  0  0  0  0
 13 16  1  0  0  0  0
 14 15  1  0  0  0  0
 16 17  1  0  0  0  0
 17 18  1  0  0  0  0
 18 19  1  0  0  0  0
 19 20  4  0  0  0  0
 19 24  4  0  0  0  0
 20 21  4  0  0  0  0
 21 22  4  0  0  0  0
 22 23  4  0  0  0  0
 23 24  4  0  0  0  0
 23 28  4  0  0  0  0
 24 25  4  0  0  0  0
 25 26  4  0  0  0  0
 26 27  4  0  0  0  0
 27 28  4  0  0  0  0
 29 30  4  0  0  0  0
 30 31  4  0  0  0  0
M  END
>  <Name_Molregno>
303922

>  <5-HT1A>
8.1

$$$$
303946
  Marvin  02231216192D 0   1.00000     0.00000     0

 31 35  0  0  0  0  0  0  0  0999 V2000
   -9.1014   -1.1921    0.0000 O   0  0  0  0  0  0  0  0  0
   -9.8158   -0.7796    0.0000 C   0  0  0  0  0  0  0  0  0
   -9.8158    0.0454    0.0000 C   0  0  0  0  0  0  0  0  0
  -10.5303    0.4579    0.0000 O   0  0  0  0  0  0  0  0  0
   -9.1014    0.4579    0.0000 N   0  0  0  0  0  0  0  0  0
   -8.3869    0.0454    0.0000 C   0  0  0  0  0  0  0  0  0
   -7.6724    0.4579    0.0000 C   0  0  0  0  0  0  0  0  0
   -6.9579    0.0454    0.0000 C   0  0  0  0  0  0  0  0  0
   -6.2435    0.4579    0.0000 O   0  0  0  0  0  0  0  0  0
   -5.5290    0.0454    0.0000 C   0  0  0  0  0  0  0  0  0
   -4.8145    0.4579    0.0000 C   0  0  0  0  0  0  0  0  0
   -4.1001    0.0454    0.0000 C   0  0  0  0  0  0  0  0  0
   -4.1001   -0.7796    0.0000 N   0  0  0  0  0  0  0  0  0
   -4.8145   -1.1921    0.0000 C   0  0  0  0  0  0  0  0  0
   -5.5290   -0.7796    0.0000 C   0  0  0  0  0  0  0  0  0
   -3.3856   -1.1921    0.0000 C   0  0  0  0  0  0  0  0  0
   -2.6711   -0.7796    0.0000 C   0  0  0  0  0  0  0  0  0
   -1.9566   -1.1921    0.0000 O   0  0  0  0  0  0  0  0  0
   -1.2422   -0.7796    0.0000 C   0  0  0  0  0  0  0  0  0
   -0.5277   -1.1921    0.0000 C   0  0  0  0  0  0  0  0  0
    0.1868   -0.7796    0.0000 C   0  0  0  0  0  0  0  0  0
    0.1868    0.0454    0.0000 N   0  0  0  0  0  0  0  0  0
   -0.5277    0.4579    0.0000 C   0  0  0  0  0  0  0  0  0
   -1.2422    0.0454    0.0000 C   0  0  0  0  0  0  0  0  0
    0.9012   -1.1921    0.0000 C   0  0  0  0  0  0  0  0  0
    0.9012   -2.0171    0.0000 C   0  0  0  0  0  0  0  0  0
    0.1868   -2.4296    0.0000 C   0  0  0  0  0  0  0  0  0
   -0.5277   -2.0171    0.0000 C   0  0  0  0  0  0  0  0  0
   -6.9579   -0.7796    0.0000 C   0  0  0  0  0  0  0  0  0
   -7.6724   -1.1921    0.0000 C   0  0  0  0  0  0  0  0  0
   -8.3869   -0.7796    0.0000 C   0  0  0  0  0  0  0  0  0
  1  2  1  0  0  0  0
  1 31  1  0  0  0  0
  2  3  1  0  0  0  0
  3  4  2  0  0  0  0
  3  5  1  0  0  0  0
  5  6  1  0  0  0  0
  6  7  4  0  0  0  0
  6 31  4  0  0  0  0
  7  8  4  0  0  0  0
  8  9  1  0  0  0  0
  8 29  4  0  0  0  0
  9 10  1  0  0  0  0
 10 11  1  0  0  0  0
 10 15  1  0  0  0  0
 11 12  1  0  0  0  0
 12 13  1  0  0  0  0
 13 14  1  0  0  0  0
 13 16  1  0  0  0  0
 14 15  1  0  0  0  0
 16 17  1  0  0  0  0
 17 18  1  0  0  0  0
 18 19  1  0  0  0  0
 19 20  4  0  0  0  0
 19 24  4  0  0  0  0
 20 21  4  0  0  0  0
 20 28  4  0  0  0  0
 21 22  4  0  0  0  0
 21 25  4  0  0  0  0
 22 23  4  0  0  0  0
 23 24  4  0  0  0  0
 25 26  4  0  0  0  0
 26 27  4  0  0  0  0
 27 28  4  0  0  0  0
 29 30  4  0  0  0  0
 30 31  4  0  0  0  0
M  END
>  <Name_Molregno>
303946

>  <5-HT1A>
7

$$$$
303978
  Marvin  02231216192D 0   1.00000     0.00000     0

 31 35  0  0  0  0  0  0  0  0999 V2000
   -8.4791   -0.1143    0.0000 O   0  0  0  0  0  0  0  0  0
   -9.1935    0.2982    0.0000 C   0  0  0  0  0  0  0  0  0
   -9.1935    1.1232    0.0000 C   0  0  0  0  0  0  0  0  0
   -9.9080    1.5357    0.0000 O   0  0  0  0  0  0  0  0  0
   -8.4791    1.5357    0.0000 N   0  0  0  0  0  0  0  0  0
   -7.7646    1.1232    0.0000 C   0  0  0  0  0  0  0  0  0
   -7.0501    1.5357    0.0000 C   0  0  0  0  0  0  0  0  0
   -6.3357    1.1232    0.0000 C   0  0  0  0  0  0  0  0  0
   -5.6212    1.5357    0.0000 O   0  0  0  0  0  0  0  0  0
   -4.9067    1.1232    0.0000 C   0  0  0  0  0  0  0  0  0
   -4.1922    1.5357    0.0000 C   0  0  0  0  0  0  0  0  0
   -3.4778    1.1232    0.0000 C   0  0  0  0  0  0  0  0  0
   -3.4778    0.2982    0.0000 N   0  0  0  0  0  0  0  0  0
   -4.1922   -0.1143    0.0000 C   0  0  0  0  0  0  0  0  0
   -4.9067    0.2982    0.0000 C   0  0  0  0  0  0  0  0  0
   -2.7633   -0.1143    0.0000 C   0  0  0  0  0  0  0  0  0
   -2.7633   -0.9393    0.0000 C   0  0  0  0  0  0  0  0  0
   -2.0488   -1.3518    0.0000 O   0  0  0  0  0  0  0  0  0
   -2.0488   -2.1768    0.0000 C   0  0  0  0  0  0  0  0  0
   -1.3344   -2.5893    0.0000 C   0  0  0  0  0  0  0  0  0
   -0.6199   -2.1768    0.0000 N   0  0  0  0  0  0  0  0  0
    0.0946   -2.5893    0.0000 C   0  0  0  0  0  0  0  0  0
    0.0946   -3.4143    0.0000 C   0  0  0  0  0  0  0  0  0
   -0.6199   -3.8268    0.0000 C   0  0  0  0  0  0  0  0  0
   -1.3344   -3.4143    0.0000 C   0  0  0  0  0  0  0  0  0
   -2.0488   -3.8268    0.0000 C   0  0  0  0  0  0  0  0  0
   -2.7633   -3.4143    0.0000 C   0  0  0  0  0  0  0  0  0
   -2.7633   -2.5893    0.0000 C   0  0  0  0  0  0  0  0  0
   -6.3357    0.2982    0.0000 C   0  0  0  0  0  0  0  0  0
   -7.0501   -0.1143    0.0000 C   0  0  0  0  0  0  0  0  0
   -7.7646    0.2982    0.0000 C   0  0  0  0  0  0  0  0  0
  1  2  1  0  0  0  0
  1 31  1  0  0  0  0
  2  3  1  0  0  0  0
  3  4  2  0  0  0  0
  3  5  1  0  0  0  0
  5  6  1  0  0  0  0
  6  7  4  0  0  0  0
  6 31  4  0  0  0  0
  7  8  4  0  0  0  0
  8  9  1  0  0  0  0
  8 29  4  0  0  0  0
  9 10  1  0  0  0  0
 10 11  1  0  0  0  0
 10 15  1  0  0  0  0
 11 12  1  0  0  0  0
 12 13  1  0  0  0  0
 13 14  1  0  0  0  0
 13 16  1  0  0  0  0
 14 15  1  0  0  0  0
 16 17  1  0  0  0  0
 17 18  1  0  0  0  0
 18 19  1  0  0  0  0
 19 20  4  0  0  0  0
 19 28  4  0  0  0  0
 20 21  4  0  0  0  0
 20 25  4  0  0  0  0
 21 22  4  0  0  0  0
 22 23  4  0  0  0  0
 23 24  4  0  0  0  0
 24 25  4  0  0  0  0
 25 26  4  0  0  0  0
 26 27  4  0  0  0  0
 27 28  4  0  0  0  0
 29 30  4  0  0  0  0
 30 31  4  0  0  0  0
M  END
>  <Name_Molregno>
303978

>  <5-HT1A>
8.2

$$$$
310332
  Marvin  02231216192D 0   1.00000     0.00000     0

 30 35  0  0  1  0  0  0  0  0999 V2000
   -3.5691   -4.2929    0.0000 O   0  0  0  0  0  0  0  0  0
   -3.5691   -5.1179    0.0000 O   0  0  0  0  0  0  0  0  0
   -2.8546   -5.5304    0.0000 C   0  0  0  0  0  0  0  0  0
   -2.1401   -5.1179    0.0000 C   0  0  0  0  0  0  0  0  0
   -2.1401   -4.2929    0.0000 C   0  0  0  0  0  0  0  0  0
   -2.8546   -3.8804    0.0000 C   0  0  0  0  0  0  0  0  0
   -2.8546   -3.0554    0.0000 C   0  0  0  0  0  0  0  0  0
   -3.5691   -2.6429    0.0000 O   0  0  0  0  0  0  0  0  0
   -3.5691   -1.8179    0.0000 C   0  0  0  0  0  0  0  0  0
   -4.2835   -1.4054    0.0000 C   0  0  0  0  0  0  0  0  0
   -4.2835   -0.5804    0.0000 N   0  0  0  0  0  0  0  0  0
   -4.5397    0.0846    0.0000 C   0  0  0  0  0  0  0  0  0
   -5.3453    0.5471    0.0000 C   0  0  0  0  0  0  0  0  0
   -5.0453    1.3199    0.0000 C   0  0  0  0  0  0  0  0  0
   -4.8215    0.6872    0.0000 C   0  0  0  0  0  0  0  0  0
   -3.9870    0.1895    0.0000 C   0  0  0  0  0  0  0  0  0
   -3.1756    0.5349    0.0000 C   0  0  0  0  0  0  0  0  0
   -3.9014    0.5290    0.0000 C   0  0  0  0  0  0  0  0  0
   -5.0327    2.1448    0.0000 C   0  0  0  0  0  0  0  0  0
   -4.3580    2.6195    0.0000 C   0  0  0  0  0  0  0  0  0
   -4.6010    3.4079    0.0000 C   0  0  0  0  0  0  0  0  0
   -5.4259    3.4204    0.0000 N   0  0  0  0  0  0  0  0  0
   -5.6927    2.6398    0.0000 C   0  0  0  0  0  0  0  0  0
   -4.0397    4.0125    0.0000 C   0  0  0  0  0  0  0  0  0
   -3.2354    3.8288    0.0000 C   0  0  0  0  0  0  0  0  0
   -2.9924    3.0404    0.0000 C   0  0  0  0  0  0  0  0  0
   -3.5537    2.4357    0.0000 C   0  0  0  0  0  0  0  0  0
   -2.1401   -2.6429    0.0000 C   0  0  0  0  0  0  0  0  0
   -1.4257   -3.0554    0.0000 C   0  0  0  0  0  0  0  0  0
   -1.4257   -3.8804    0.0000 C   0  0  0  0  0  0  0  0  0
  1  2  1  0  0  0  0
  1  6  1  0  0  0  0
  2  3  1  0  0  0  0
  3  4  1  0  0  0  0
  4  5  1  0  0  0  0
  5  6  4  0  0  0  0
  5 30  4  0  0  0  0
  6  7  4  0  0  0  0
  7  8  1  0  0  0  0
  7 28  4  0  0  0  0
  8  9  1  0  0  0  0
  9 10  1  0  0  0  0
 10 11  1  0  0  0  0
 11 12  1  0  0  0  0
 11 16  1  0  0  0  0
 12 13  1  0  0  0  0
 12 18  1  0  0  0  0
 13 14  1  0  0  0  0
 14 15  2  0  0  0  0
 14 19  1  0  0  0  0
 15 16  1  0  0  0  0
 16 17  1  0  0  0  0
 17 18  1  0  0  0  0
 19 20  4  0  0  0  0
 19 23  4  0  0  0  0
 20 21  4  0  0  0  0
 20 27  4  0  0  0  0
 21 22  4  0  0  0  0
 21 24  4  0  0  0  0
 22 23  4  0  0  0  0
 24 25  4  0  0  0  0
 25 26  4  0  0  0  0
 26 27  4  0  0  0  0
 28 29  4  0  0  0  0
 29 30  4  0  0  0  0
M  STY  1   1 DAT
M  SAL   1  1  22
M  SDT   1 MRV_IMPLICIT_H                                        
M  SDD   1     0.0000    0.0000    DR    ALL  0       0  
M  SED   1 IMPL_H1
M  END
>  <Name_Molregno>
310332

>  <5-HT1A>
7.07

$$$$
310346
  Marvin  02231216192D 0   1.00000     0.00000     0

 32 37  0  0  1  0  0  0  0  0999 V2000
    3.6921   -2.9684    0.0000 O   0  0  0  0  0  0  0  0  0
    2.9715   -2.5668    0.0000 C   0  0  0  0  0  0  0  0  0
    2.9589   -1.7419    0.0000 C   0  0  0  0  0  0  0  0  0
    3.6671   -1.3186    0.0000 O   0  0  0  0  0  0  0  0  0
    2.2383   -1.3403    0.0000 C   0  0  0  0  0  0  0  0  0
    2.2258   -0.5154    0.0000 N   0  0  0  0  0  0  0  0  0
    1.9596    0.1456    0.0000 C   0  0  0  0  0  0  0  0  0
    1.1470    0.5958    0.0000 C   0  0  0  0  0  0  0  0  0
    1.4352    1.3730    0.0000 C   0  0  0  0  0  0  0  0  0
    1.6686    0.7439    0.0000 C   0  0  0  0  0  0  0  0  0
    2.5106    0.2589    0.0000 C   0  0  0  0  0  0  0  0  0
    3.3166    0.6166    0.0000 C   0  0  0  0  0  0  0  0  0
    2.5910    0.5996    0.0000 C   0  0  0  0  0  0  0  0  0
    1.4352    2.1980    0.0000 C   0  0  0  0  0  0  0  0  0
    2.1497    2.6105    0.0000 C   0  0  0  0  0  0  0  0  0
    2.1497    3.4355    0.0000 C   0  0  0  0  0  0  0  0  0
    1.4352    3.8480    0.0000 C   0  0  0  0  0  0  0  0  0
    0.7208    3.4355    0.0000 C   0  0  0  0  0  0  0  0  0
    0.7208    2.6105    0.0000 C   0  0  0  0  0  0  0  0  0
    1.4352    4.6730    0.0000 C   0  0  0  0  0  0  0  0  0
    2.1497    5.0855    0.0000 C   0  0  0  0  0  0  0  0  0
    2.8642    4.6730    0.0000 C   0  0  0  0  0  0  0  0  0
    2.8642    3.8480    0.0000 C   0  0  0  0  0  0  0  0  0
    3.7047   -3.7933    0.0000 C   0  0  0  0  0  0  0  0  0
    4.4253   -4.1949    0.0000 C   0  0  0  0  0  0  0  0  0
    4.4378   -5.0198    0.0000 C   0  0  0  0  0  0  0  0  0
    5.2262   -5.2628    0.0000 N   0  0  0  0  0  0  0  0  0
    5.7010   -4.5881    0.0000 C   0  0  0  0  0  0  0  0  0
    5.2060   -3.9281    0.0000 C   0  0  0  0  0  0  0  0  0
    3.7297   -5.4431    0.0000 C   0  0  0  0  0  0  0  0  0
    3.0091   -5.0415    0.0000 C   0  0  0  0  0  0  0  0  0
    2.9965   -4.2166    0.0000 C   0  0  0  0  0  0  0  0  0
  1  2  1  0  0  0  0
  1 24  1  0  0  0  0
  2  3  1  0  0  0  0
  3  4  1  0  0  0  0
  3  5  1  0  0  0  0
  5  6  1  0  0  0  0
  6  7  1  0  0  0  0
  6 11  1  0  0  0  0
  7  8  1  0  0  0  0
  7 13  1  0  0  0  0
  8  9  1  0  0  0  0
  9 10  2  0  0  0  0
  9 14  1  0  0  0  0
 10 11  1  0  0  0  0
 11 12  1  0  0  0  0
 12 13  1  0  0  0  0
 14 15  4  0  0  0  0
 14 19  4  0  0  0  0
 15 16  4  0  0  0  0
 16 17  4  0  0  0  0
 16 23  4  0  0  0  0
 17 18  4  0  0  0  0
 17 20  4  0  0  0  0
 18 19  4  0  0  0  0
 20 21  4  0  0  0  0
 21 22  4  0  0  0  0
 22 23  4  0  0  0  0
 24 25  4  0  0  0  0
 24 32  4  0  0  0  0
 25 26  4  0  0  0  0
 25 29  4  0  0  0  0
 26 27  4  0  0  0  0
 26 30  4  0  0  0  0
 27 28  4  0  0  0  0
 28 29  4  0  0  0  0
 30 31  4  0  0  0  0
 31 32  4  0  0  0  0
M  STY  1   1 DAT
M  SAL   1  1  27
M  SDT   1 MRV_IMPLICIT_H                                        
M  SDD   1     0.0000    0.0000    DR    ALL  0       0  
M  SED   1 IMPL_H1
M  END
>  <Name_Molregno>
310346

>  <5-HT1A>
6.76

$$$$
310361
  Marvin  02231216192D 0   1.00000     0.00000     0

 29 34  0  0  1  0  0  0  0  0999 V2000
    0.2608    0.5382    0.0000 O   0  0  0  0  0  0  0  0  0
    0.9753    0.1257    0.0000 C   0  0  0  0  0  0  0  0  0
    0.9753   -0.6993    0.0000 C   0  0  0  0  0  0  0  0  0
    1.6898   -1.1118    0.0000 N   0  0  0  0  0  0  0  0  0
    2.3937   -1.2225    0.0000 C   0  0  0  0  0  0  0  0  0
    3.1970   -0.7560    0.0000 C   0  0  0  0  0  0  0  0  0
    3.7163   -1.4022    0.0000 C   0  0  0  0  0  0  0  0  0
    3.0566   -1.2797    0.0000 C   0  0  0  0  0  0  0  0  0
    2.2083   -1.7535    0.0000 C   0  0  0  0  0  0  0  0  0
    2.1017   -2.6289    0.0000 C   0  0  0  0  0  0  0  0  0
    2.4595   -1.9974    0.0000 C   0  0  0  0  0  0  0  0  0
    4.4244   -1.8255    0.0000 C   0  0  0  0  0  0  0  0  0
    4.4982   -2.6472    0.0000 C   0  0  0  0  0  0  0  0  0
    5.3025   -2.8310    0.0000 C   0  0  0  0  0  0  0  0  0
    5.7258   -2.1229    0.0000 N   0  0  0  0  0  0  0  0  0
    5.1831   -1.5015    0.0000 C   0  0  0  0  0  0  0  0  0
    5.5455   -3.6194    0.0000 C   0  0  0  0  0  0  0  0  0
    4.9842   -4.2240    0.0000 C   0  0  0  0  0  0  0  0  0
    4.1799   -4.0403    0.0000 C   0  0  0  0  0  0  0  0  0
    3.9369   -3.2519    0.0000 C   0  0  0  0  0  0  0  0  0
    0.2608    1.3632    0.0000 C   0  0  0  0  0  0  0  0  0
   -0.4536    1.7757    0.0000 C   0  0  0  0  0  0  0  0  0
   -0.4536    2.6007    0.0000 C   0  0  0  0  0  0  0  0  0
   -1.2382    2.8557    0.0000 N   0  0  0  0  0  0  0  0  0
   -1.7232    2.1882    0.0000 C   0  0  0  0  0  0  0  0  0
   -1.2382    1.5208    0.0000 C   0  0  0  0  0  0  0  0  0
    0.2608    3.0132    0.0000 C   0  0  0  0  0  0  0  0  0
    0.9753    2.6007    0.0000 C   0  0  0  0  0  0  0  0  0
    0.9753    1.7757    0.0000 C   0  0  0  0  0  0  0  0  0
  1  2  1  0  0  0  0
  1 21  1  0  0  0  0
  2  3  1  0  0  0  0
  3  4  1  0  0  0  0
  4  5  1  0  0  0  0
  4  9  1  0  0  0  0
  5  6  1  0  0  0  0
  5 11  1  0  0  0  0
  6  7  1  0  0  0  0
  7  8  2  0  0  0  0
  7 12  1  0  0  0  0
  8  9  1  0  0  0  0
  9 10  1  0  0  0  0
 10 11  1  0  0  0  0
 12 13  4  0  0  0  0
 12 16  4  0  0  0  0
 13 14  4  0  0  0  0
 13 20  4  0  0  0  0
 14 15  4  0  0  0  0
 14 17  4  0  0  0  0
 15 16  4  0  0  0  0
 17 18  4  0  0  0  0
 18 19  4  0  0  0  0
 19 20  4  0  0  0  0
 21 22  4  0  0  0  0
 21 29  4  0  0  0  0
 22 23  4  0  0  0  0
 22 26  4  0  0  0  0
 23 24  4  0  0  0  0
 23 27  4  0  0  0  0
 24 25  4  0  0  0  0
 25 26  4  0  0  0  0
 27 28  4  0  0  0  0
 28 29  4  0  0  0  0
M  STY  2   1 DAT   2 DAT
M  SAL   1  1  15
M  SDT   1 MRV_IMPLICIT_H                                        
M  SDD   1     0.0000    0.0000    DR    ALL  0       0  
M  SED   1 IMPL_H1
M  SAL   2  1  24
M  SDT   2 MRV_IMPLICIT_H                                        
M  SDD   2     0.0000    0.0000    DR    ALL  0       0  
M  SED   2 IMPL_H1
M  END
>  <Name_Molregno>
310361

>  <5-HT1A>
6.95

$$$$
310431
  Marvin  02231216192D 0   1.00000     0.00000     0

 30 35  0  0  1  0  0  0  0  0999 V2000
    1.7678    1.4438    0.0000 O   0  0  0  0  0  0  0  0  0
    1.7678    0.6188    0.0000 C   0  0  0  0  0  0  0  0  0
    2.4822    0.2063    0.0000 C   0  0  0  0  0  0  0  0  0
    2.4822   -0.6187    0.0000 N   0  0  0  0  0  0  0  0  0
    2.7384   -1.2837    0.0000 C   0  0  0  0  0  0  0  0  0
    3.5440   -1.7461    0.0000 C   0  0  0  0  0  0  0  0  0
    3.2440   -2.5189    0.0000 C   0  0  0  0  0  0  0  0  0
    3.0202   -1.8863    0.0000 C   0  0  0  0  0  0  0  0  0
    2.1857   -1.3886    0.0000 C   0  0  0  0  0  0  0  0  0
    1.3743   -1.7340    0.0000 C   0  0  0  0  0  0  0  0  0
    2.1001   -1.7281    0.0000 C   0  0  0  0  0  0  0  0  0
    3.2314   -3.3438    0.0000 C   0  0  0  0  0  0  0  0  0
    2.5567   -3.8186    0.0000 N   0  0  0  0  0  0  0  0  0
    2.7997   -4.6070    0.0000 C   0  0  0  0  0  0  0  0  0
    3.6246   -4.6195    0.0000 C   0  0  0  0  0  0  0  0  0
    3.8914   -3.8388    0.0000 C   0  0  0  0  0  0  0  0  0
    4.0262   -5.3402    0.0000 C   0  0  0  0  0  0  0  0  0
    3.6029   -6.0483    0.0000 C   0  0  0  0  0  0  0  0  0
    2.7780   -6.0358    0.0000 C   0  0  0  0  0  0  0  0  0
    2.3764   -5.3151    0.0000 C   0  0  0  0  0  0  0  0  0
    1.0533    1.8563    0.0000 C   0  0  0  0  0  0  0  0  0
    1.0533    2.6813    0.0000 C   0  0  0  0  0  0  0  0  0
    0.3388    3.0938    0.0000 C   0  0  0  0  0  0  0  0  0
    0.3388    3.9188    0.0000 N   0  0  0  0  0  0  0  0  0
    1.0533    4.3313    0.0000 C   0  0  0  0  0  0  0  0  0
    1.7678    3.9188    0.0000 C   0  0  0  0  0  0  0  0  0
    1.7678    3.0938    0.0000 C   0  0  0  0  0  0  0  0  0
   -0.3756    2.6813    0.0000 C   0  0  0  0  0  0  0  0  0
   -0.3756    1.8563    0.0000 C   0  0  0  0  0  0  0  0  0
    0.3388    1.4438    0.0000 C   0  0  0  0  0  0  0  0  0
  1  2  1  0  0  0  0
  1 21  1  0  0  0  0
  2  3  1  0  0  0  0
  3  4  1  0  0  0  0
  4  5  1  0  0  0  0
  4  9  1  0  0  0  0
  5  6  1  0  0  0  0
  5 11  1  0  0  0  0
  6  7  1  0  0  0  0
  7  8  2  0  0  0  0
  7 12  1  0  0  0  0
  8  9  1  0  0  0  0
  9 10  1  0  0  0  0
 10 11  1  0  0  0  0
 12 13  4  0  0  0  0
 12 16  4  0  0  0  0
 13 14  4  0  0  0  0
 14 15  4  0  0  0  0
 14 20  4  0  0  0  0
 15 16  4  0  0  0  0
 15 17  4  0  0  0  0
 17 18  4  0  0  0  0
 18 19  4  0  0  0  0
 19 20  4  0  0  0  0
 21 22  4  0  0  0  0
 21 30  4  0  0  0  0
 22 23  4  0  0  0  0
 22 27  4  0  0  0  0
 23 24  4  0  0  0  0
 23 28  4  0  0  0  0
 24 25  4  0  0  0  0
 25 26  4  0  0  0  0
 26 27  4  0  0  0  0
 28 29  4  0  0  0  0
 29 30  4  0  0  0  0
M  STY  1   1 DAT
M  SAL   1  1  13
M  SDT   1 MRV_IMPLICIT_H                                        
M  SDD   1     0.0000    0.0000    DR    ALL  0       0  
M  SED   1 IMPL_H1
M  END
>  <Name_Molregno>
310431

>  <5-HT1A>
6.49

$$$$
310514
  Marvin  02231216192D 0   1.00000     0.00000     0

 30 34  0  0  1  0  0  0  0  0999 V2000
    5.0111   -4.8254    0.0000 Cl  0  0  0  0  0  0  0  0  0
    5.7318   -4.4238    0.0000 C   0  0  0  0  0  0  0  0  0
    5.7443   -3.5989    0.0000 C   0  0  0  0  0  0  0  0  0
    6.4650   -3.1973    0.0000 C   0  0  0  0  0  0  0  0  0
    7.1731   -3.6206    0.0000 C   0  0  0  0  0  0  0  0  0
    7.1605   -4.4455    0.0000 C   0  0  0  0  0  0  0  0  0
    6.4399   -4.8471    0.0000 C   0  0  0  0  0  0  0  0  0
    6.4274   -5.6720    0.0000 Cl  0  0  0  0  0  0  0  0  0
    6.4775   -2.3724    0.0000 C   0  0  0  0  0  0  0  0  0
    6.7775   -1.5996    0.0000 C   0  0  0  0  0  0  0  0  0
    5.9719   -1.1371    0.0000 C   0  0  0  0  0  0  0  0  0
    5.7158   -0.4721    0.0000 N   0  0  0  0  0  0  0  0  0
    5.4192   -1.2420    0.0000 C   0  0  0  0  0  0  0  0  0
    6.2538   -1.7398    0.0000 C   0  0  0  0  0  0  0  0  0
    4.6078   -1.5875    0.0000 C   0  0  0  0  0  0  0  0  0
    5.3336   -1.5815    0.0000 C   0  0  0  0  0  0  0  0  0
    5.7158    0.3529    0.0000 C   0  0  0  0  0  0  0  0  0
    5.0013    0.7654    0.0000 C   0  0  0  0  0  0  0  0  0
    4.2868    0.3529    0.0000 O   0  0  0  0  0  0  0  0  0
    5.0013    1.5904    0.0000 C   0  0  0  0  0  0  0  0  0
    4.2868    2.0029    0.0000 O   0  0  0  0  0  0  0  0  0
    4.2868    2.8279    0.0000 C   0  0  0  0  0  0  0  0  0
    3.5723    3.2404    0.0000 C   0  0  0  0  0  0  0  0  0
    3.5723    4.0654    0.0000 C   0  0  0  0  0  0  0  0  0
    2.7877    4.3203    0.0000 N   0  0  0  0  0  0  0  0  0
    2.3028    3.6529    0.0000 C   0  0  0  0  0  0  0  0  0
    2.7877    2.9854    0.0000 C   0  0  0  0  0  0  0  0  0
    4.2868    4.4779    0.0000 C   0  0  0  0  0  0  0  0  0
    5.0013    4.0654    0.0000 C   0  0  0  0  0  0  0  0  0
    5.0013    3.2404    0.0000 C   0  0  0  0  0  0  0  0  0
  1  2  1  0  0  0  0
  2  3  4  0  0  0  0
  2  7  4  0  0  0  0
  3  4  4  0  0  0  0
  4  5  4  0  0  0  0
  4  9  1  0  0  0  0
  5  6  4  0  0  0  0
  6  7  4  0  0  0  0
  7  8  1  0  0  0  0
  9 10  1  0  0  0  0
  9 14  2  0  0  0  0
 10 11  1  0  0  0  0
 11 12  1  0  0  0  0
 11 16  1  0  0  0  0
 12 13  1  0  0  0  0
 12 17  1  0  0  0  0
 13 14  1  0  0  0  0
 13 15  1  0  0  0  0
 15 16  1  0  0  0  0
 17 18  1  0  0  0  0
 18 19  1  0  0  0  0
 18 20  1  0  0  0  0
 20 21  1  0  0  0  0
 21 22  1  0  0  0  0
 22 23  4  0  0  0  0
 22 30  4  0  0  0  0
 23 24  4  0  0  0  0
 23 27  4  0  0  0  0
 24 25  4  0  0  0  0
 24 28  4  0  0  0  0
 25 26  4  0  0  0  0
 26 27  4  0  0  0  0
 28 29  4  0  0  0  0
 29 30  4  0  0  0  0
M  STY  1   1 DAT
M  SAL   1  1  25
M  SDT   1 MRV_IMPLICIT_H                                        
M  SDD   1     0.0000    0.0000    DR    ALL  0       0  
M  SED   1 IMPL_H1
M  END
>  <Name_Molregno>
310514

>  <5-HT1A>
6.97

$$$$
310637
  Marvin  02231216192D 0   1.00000     0.00000     0

 30 35  0  0  1  0  0  0  0  0999 V2000
    2.6073   -3.0124    0.0000 O   0  0  0  0  0  0  0  0  0
    2.5947   -2.1875    0.0000 C   0  0  0  0  0  0  0  0  0
    3.3029   -1.7642    0.0000 C   0  0  0  0  0  0  0  0  0
    3.2903   -0.9393    0.0000 N   0  0  0  0  0  0  0  0  0
    3.0241   -0.2783    0.0000 C   0  0  0  0  0  0  0  0  0
    2.2116    0.1719    0.0000 C   0  0  0  0  0  0  0  0  0
    2.4998    0.9492    0.0000 C   0  0  0  0  0  0  0  0  0
    2.7331    0.3200    0.0000 C   0  0  0  0  0  0  0  0  0
    3.5751   -0.1650    0.0000 C   0  0  0  0  0  0  0  0  0
    4.3812    0.1927    0.0000 C   0  0  0  0  0  0  0  0  0
    3.6555    0.1758    0.0000 C   0  0  0  0  0  0  0  0  0
    2.4998    1.7742    0.0000 C   0  0  0  0  0  0  0  0  0
    3.2143    2.1867    0.0000 C   0  0  0  0  0  0  0  0  0
    3.2143    3.0117    0.0000 C   0  0  0  0  0  0  0  0  0
    2.4998    3.4242    0.0000 C   0  0  0  0  0  0  0  0  0
    1.7853    3.0117    0.0000 C   0  0  0  0  0  0  0  0  0
    1.7853    2.1867    0.0000 C   0  0  0  0  0  0  0  0  0
    2.4998    4.2492    0.0000 C   0  0  0  0  0  0  0  0  0
    3.2143    4.6617    0.0000 C   0  0  0  0  0  0  0  0  0
    3.9288    4.2492    0.0000 C   0  0  0  0  0  0  0  0  0
    3.9288    3.4242    0.0000 C   0  0  0  0  0  0  0  0  0
    1.8991   -3.4357    0.0000 C   0  0  0  0  0  0  0  0  0
    1.9117   -4.2606    0.0000 C   0  0  0  0  0  0  0  0  0
    1.2035   -4.6839    0.0000 C   0  0  0  0  0  0  0  0  0
    1.3873   -5.4882    0.0000 N   0  0  0  0  0  0  0  0  0
    2.2090   -5.5620    0.0000 C   0  0  0  0  0  0  0  0  0
    2.5331   -4.8033    0.0000 C   0  0  0  0  0  0  0  0  0
    0.4829   -4.2823    0.0000 C   0  0  0  0  0  0  0  0  0
    0.4704   -3.4574    0.0000 C   0  0  0  0  0  0  0  0  0
    1.1785   -3.0341    0.0000 C   0  0  0  0  0  0  0  0  0
  1  2  1  0  0  0  0
  1 22  1  0  0  0  0
  2  3  1  0  0  0  0
  3  4  1  0  0  0  0
  4  5  1  0  0  0  0
  4  9  1  0  0  0  0
  5  6  1  0  0  0  0
  5 11  1  0  0  0  0
  6  7  1  0  0  0  0
  7  8  2  0  0  0  0
  7 12  1  0  0  0  0
  8  9  1  0  0  0  0
  9 10  1  0  0  0  0
 10 11  1  0  0  0  0
 12 13  4  0  0  0  0
 12 17  4  0  0  0  0
 13 14  4  0  0  0  0
 14 15  4  0  0  0  0
 14 21  4  0  0  0  0
 15 16  4  0  0  0  0
 15 18  4  0  0  0  0
 16 17  4  0  0  0  0
 18 19  4  0  0  0  0
 19 20  4  0  0  0  0
 20 21  4  0  0  0  0
 22 23  4  0  0  0  0
 22 30  4  0  0  0  0
 23 24  4  0  0  0  0
 23 27  4  0  0  0  0
 24 25  4  0  0  0  0
 24 28  4  0  0  0  0
 25 26  4  0  0  0  0
 26 27  4  0  0  0  0
 28 29  4  0  0  0  0
 29 30  4  0  0  0  0
M  STY  1   1 DAT
M  SAL   1  1  25
M  SDT   1 MRV_IMPLICIT_H                                        
M  SDD   1     0.0000    0.0000    DR    ALL  0       0  
M  SED   1 IMPL_H1
M  END
>  <Name_Molregno>
310637

>  <5-HT1A>
6.53

$$$$
311086
  Marvin  02231216192D 0   1.00000     0.00000     0

 26 29  0  0  1  0  0  0  0  0999 V2000
    7.8472   -4.0396    0.0000 F   0  0  0  0  0  0  0  0  0
    7.1328   -3.6271    0.0000 C   0  0  0  0  0  0  0  0  0
    6.4183   -4.0396    0.0000 C   0  0  0  0  0  0  0  0  0
    5.7038   -3.6271    0.0000 C   0  0  0  0  0  0  0  0  0
    5.7038   -2.8021    0.0000 C   0  0  0  0  0  0  0  0  0
    6.4183   -2.3896    0.0000 C   0  0  0  0  0  0  0  0  0
    7.1328   -2.8021    0.0000 C   0  0  0  0  0  0  0  0  0
    4.9894   -2.3896    0.0000 C   0  0  0  0  0  0  0  0  0
    4.9894   -1.5646    0.0000 O   0  0  0  0  0  0  0  0  0
    4.2749   -2.8021    0.0000 N   0  0  0  0  0  0  0  0  0
    3.5604   -2.3896    0.0000 C   0  0  0  0  0  0  0  0  0
    2.8459   -2.8021    0.0000 C   0  0  0  0  0  0  0  0  0
    2.1315   -2.3896    0.0000 C   0  0  0  0  0  0  0  0  0
    2.1315   -1.5646    0.0000 C   0  0  0  0  0  0  0  0  0
    1.3468   -1.3097    0.0000 N   0  0  0  0  0  0  0  0  0
    0.8619   -1.9771    0.0000 C   0  0  0  0  0  0  0  0  0
    1.3468   -2.6445    0.0000 C   0  0  0  0  0  0  0  0  0
    1.0919   -3.4292    0.0000 C   0  0  0  0  0  0  0  0  0
    1.6439   -4.0423    0.0000 C   0  0  0  0  0  0  0  0  0
    1.3890   -4.8269    0.0000 C   0  0  0  0  0  0  0  0  0
    0.5820   -4.9984    0.0000 N   0  0  0  0  0  0  0  0  0
    0.0300   -4.3853    0.0000 C   0  0  0  0  0  0  0  0  0
    0.2849   -3.6007    0.0000 C   0  0  0  0  0  0  0  0  0
    0.3271   -5.7830    0.0000 C   0  0  0  0  0  0  0  0  0
    2.8459   -1.1521    0.0000 C   0  0  0  0  0  0  0  0  0
    3.5604   -1.5646    0.0000 C   0  0  0  0  0  0  0  0  0
  1  2  1  0  0  0  0
  2  3  4  0  0  0  0
  2  7  4  0  0  0  0
  3  4  4  0  0  0  0
  4  5  4  0  0  0  0
  5  6  4  0  0  0  0
  5  8  1  0  0  0  0
  6  7  4  0  0  0  0
  8  9  2  0  0  0  0
  8 10  1  0  0  0  0
 10 11  1  0  0  0  0
 11 12  4  0  0  0  0
 11 26  4  0  0  0  0
 12 13  4  0  0  0  0
 13 14  4  0  0  0  0
 13 17  1  0  0  0  0
 14 15  1  0  0  0  0
 14 25  4  0  0  0  0
 15 16  1  0  0  0  0
 16 17  1  0  0  0  0
 17 18  1  0  0  0  0
 18 19  1  0  0  0  0
 18 23  1  0  0  0  0
 19 20  1  0  0  0  0
 20 21  1  0  0  0  0
 21 22  1  0  0  0  0
 21 24  1  0  0  0  0
 22 23  1  0  0  0  0
 25 26  4  0  0  0  0
M  END
>  <Name_Molregno>
311086

>  <5-HT1A>
6.61

>  <5-HT1D>
5.64

$$$$
311131
  Marvin  02231216192D 0   1.00000     0.00000     0

 26 29  0  0  0  0  0  0  0  0999 V2000
    7.8472   -4.0396    0.0000 F   0  0  0  0  0  0  0  0  0
    7.1328   -3.6271    0.0000 C   0  0  0  0  0  0  0  0  0
    6.4183   -4.0396    0.0000 C   0  0  0  0  0  0  0  0  0
    5.7038   -3.6271    0.0000 C   0  0  0  0  0  0  0  0  0
    5.7038   -2.8021    0.0000 C   0  0  0  0  0  0  0  0  0
    6.4183   -2.3896    0.0000 C   0  0  0  0  0  0  0  0  0
    7.1328   -2.8021    0.0000 C   0  0  0  0  0  0  0  0  0
    4.9894   -2.3896    0.0000 C   0  0  0  0  0  0  0  0  0
    4.9894   -1.5646    0.0000 O   0  0  0  0  0  0  0  0  0
    4.2749   -2.8021    0.0000 N   0  0  0  0  0  0  0  0  0
    3.5604   -2.3896    0.0000 C   0  0  0  0  0  0  0  0  0
    2.8459   -2.8021    0.0000 C   0  0  0  0  0  0  0  0  0
    2.1315   -2.3896    0.0000 C   0  0  0  0  0  0  0  0  0
    2.1315   -1.5646    0.0000 C   0  0  0  0  0  0  0  0  0
    1.3468   -1.3097    0.0000 O   0  0  0  0  0  0  0  0  0
    0.8619   -1.9771    0.0000 N   0  0  0  0  0  0  0  0  0
    1.3468   -2.6445    0.0000 C   0  0  0  0  0  0  0  0  0
    1.0919   -3.4292    0.0000 C   0  0  0  0  0  0  0  0  0
    1.6439   -4.0423    0.0000 C   0  0  0  0  0  0  0  0  0
    1.3890   -4.8269    0.0000 C   0  0  0  0  0  0  0  0  0
    0.5820   -4.9984    0.0000 N   0  0  0  0  0  0  0  0  0
    0.0300   -4.3853    0.0000 C   0  0  0  0  0  0  0  0  0
    0.2849   -3.6007    0.0000 C   0  0  0  0  0  0  0  0  0
    0.3271   -5.7830    0.0000 C   0  0  0  0  0  0  0  0  0
    2.8459   -1.1521    0.0000 C   0  0  0  0  0  0  0  0  0
    3.5604   -1.5646    0.0000 C   0  0  0  0  0  0  0  0  0
  1  2  1  0  0  0  0
  2  3  4  0  0  0  0
  2  7  4  0  0  0  0
  3  4  4  0  0  0  0
  4  5  4  0  0  0  0
  5  6  4  0  0  0  0
  5  8  1  0  0  0  0
  6  7  4  0  0  0  0
  8  9  2  0  0  0  0
  8 10  1  0  0  0  0
 10 11  1  0  0  0  0
 11 12  4  0  0  0  0
 11 26  4  0  0  0  0
 12 13  4  0  0  0  0
 13 14  4  0  0  0  0
 13 17  4  0  0  0  0
 14 15  4  0  0  0  0
 14 25  4  0  0  0  0
 15 16  4  0  0  0  0
 16 17  4  0  0  0  0
 17 18  1  0  0  0  0
 18 19  1  0  0  0  0
 18 23  1  0  0  0  0
 19 20  1  0  0  0  0
 20 21  1  0  0  0  0
 21 22  1  0  0  0  0
 21 24  1  0  0  0  0
 22 23  1  0  0  0  0
 25 26  4  0  0  0  0
M  END
>  <Name_Molregno>
311131

>  <5-HT1A>
6.8

$$$$
311132
  Marvin  02231216192D 0   1.00000     0.00000     0

 26 29  0  0  0  0  0  0  0  0999 V2000
    7.8472   -4.0396    0.0000 F   0  0  0  0  0  0  0  0  0
    7.1328   -3.6271    0.0000 C   0  0  0  0  0  0  0  0  0
    6.4183   -4.0396    0.0000 C   0  0  0  0  0  0  0  0  0
    5.7038   -3.6271    0.0000 C   0  0  0  0  0  0  0  0  0
    5.7038   -2.8021    0.0000 C   0  0  0  0  0  0  0  0  0
    6.4183   -2.3896    0.0000 C   0  0  0  0  0  0  0  0  0
    7.1328   -2.8021    0.0000 C   0  0  0  0  0  0  0  0  0
    4.9894   -2.3896    0.0000 C   0  0  0  0  0  0  0  0  0
    4.9894   -1.5646    0.0000 O   0  0  0  0  0  0  0  0  0
    4.2749   -2.8021    0.0000 N   0  0  0  0  0  0  0  0  0
    3.5604   -2.3896    0.0000 C   0  0  0  0  0  0  0  0  0
    2.8459   -2.8021    0.0000 C   0  0  0  0  0  0  0  0  0
    2.1315   -2.3896    0.0000 C   0  0  0  0  0  0  0  0  0
    1.3468   -2.6445    0.0000 N   0  0  0  0  0  0  0  0  0
    0.8619   -1.9771    0.0000 N   0  0  0  0  0  0  0  0  0
    1.3468   -1.3097    0.0000 C   0  0  0  0  0  0  0  0  0
    2.1315   -1.5646    0.0000 C   0  0  0  0  0  0  0  0  0
    2.8459   -1.1521    0.0000 C   0  0  0  0  0  0  0  0  0
    3.5604   -1.5646    0.0000 C   0  0  0  0  0  0  0  0  0
    1.0919   -3.4292    0.0000 C   0  0  0  0  0  0  0  0  0
    1.6439   -4.0423    0.0000 C   0  0  0  0  0  0  0  0  0
    1.3890   -4.8269    0.0000 C   0  0  0  0  0  0  0  0  0
    0.5820   -4.9984    0.0000 N   0  0  0  0  0  0  0  0  0
    0.0300   -4.3853    0.0000 C   0  0  0  0  0  0  0  0  0
    0.2849   -3.6007    0.0000 C   0  0  0  0  0  0  0  0  0
    0.3271   -5.7830    0.0000 C   0  0  0  0  0  0  0  0  0
  1  2  1  0  0  0  0
  2  3  4  0  0  0  0
  2  7  4  0  0  0  0
  3  4  4  0  0  0  0
  4  5  4  0  0  0  0
  5  6  4  0  0  0  0
  5  8  1  0  0  0  0
  6  7  4  0  0  0  0
  8  9  2  0  0  0  0
  8 10  1  0  0  0  0
 10 11  1  0  0  0  0
 11 12  4  0  0  0  0
 11 19  4  0  0  0  0
 12 13  4  0  0  0  0
 13 14  4  0  0  0  0
 13 17  4  0  0  0  0
 14 15  4  0  0  0  0
 14 20  1  0  0  0  0
 15 16  4  0  0  0  0
 16 17  4  0  0  0  0
 17 18  4  0  0  0  0
 18 19  4  0  0  0  0
 20 21  1  0  0  0  0
 20 25  1  0  0  0  0
 21 22  1  0  0  0  0
 22 23  1  0  0  0  0
 23 24  1  0  0  0  0
 23 26  1  0  0  0  0
 24 25  1  0  0  0  0
M  END
>  <Name_Molregno>
311132

>  <5-HT1A>
6.51

>  <5-HT1B>
5.62

$$$$
311175
  Marvin  02231216192D 0   1.00000     0.00000     0

 26 29  0  0  0  0  0  0  0  0999 V2000
    7.8472   -4.0396    0.0000 F   0  0  0  0  0  0  0  0  0
    7.1328   -3.6271    0.0000 C   0  0  0  0  0  0  0  0  0
    6.4183   -4.0396    0.0000 C   0  0  0  0  0  0  0  0  0
    5.7038   -3.6271    0.0000 C   0  0  0  0  0  0  0  0  0
    5.7038   -2.8021    0.0000 C   0  0  0  0  0  0  0  0  0
    6.4183   -2.3896    0.0000 C   0  0  0  0  0  0  0  0  0
    7.1328   -2.8021    0.0000 C   0  0  0  0  0  0  0  0  0
    4.9894   -2.3896    0.0000 C   0  0  0  0  0  0  0  0  0
    4.9894   -1.5646    0.0000 O   0  0  0  0  0  0  0  0  0
    4.2749   -2.8021    0.0000 N   0  0  0  0  0  0  0  0  0
    3.5604   -2.3896    0.0000 C   0  0  0  0  0  0  0  0  0
    2.8459   -2.8021    0.0000 C   0  0  0  0  0  0  0  0  0
    2.1315   -2.3896    0.0000 C   0  0  0  0  0  0  0  0  0
    1.3468   -2.6445    0.0000 N   0  0  0  0  0  0  0  0  0
    0.8619   -1.9771    0.0000 C   0  0  0  0  0  0  0  0  0
    1.3468   -1.3097    0.0000 C   0  0  0  0  0  0  0  0  0
    2.1315   -1.5646    0.0000 C   0  0  0  0  0  0  0  0  0
    2.8459   -1.1521    0.0000 C   0  0  0  0  0  0  0  0  0
    3.5604   -1.5646    0.0000 C   0  0  0  0  0  0  0  0  0
    1.0919   -3.4292    0.0000 C   0  0  0  0  0  0  0  0  0
    1.6439   -4.0423    0.0000 C   0  0  0  0  0  0  0  0  0
    1.3890   -4.8269    0.0000 C   0  0  0  0  0  0  0  0  0
    0.5820   -4.9984    0.0000 N   0  0  0  0  0  0  0  0  0
    0.0300   -4.3853    0.0000 C   0  0  0  0  0  0  0  0  0
    0.2849   -3.6007    0.0000 C   0  0  0  0  0  0  0  0  0
    0.3271   -5.7830    0.0000 C   0  0  0  0  0  0  0  0  0
  1  2  1  0  0  0  0
  2  3  4  0  0  0  0
  2  7  4  0  0  0  0
  3  4  4  0  0  0  0
  4  5  4  0  0  0  0
  5  6  4  0  0  0  0
  5  8  1  0  0  0  0
  6  7  4  0  0  0  0
  8  9  2  0  0  0  0
  8 10  1  0  0  0  0
 10 11  1  0  0  0  0
 11 12  4  0  0  0  0
 11 19  4  0  0  0  0
 12 13  4  0  0  0  0
 13 14  1  0  0  0  0
 13 17  4  0  0  0  0
 14 15  1  0  0  0  0
 14 20  1  0  0  0  0
 15 16  1  0  0  0  0
 16 17  1  0  0  0  0
 17 18  4  0  0  0  0
 18 19  4  0  0  0  0
 20 21  1  0  0  0  0
 20 25  1  0  0  0  0
 21 22  1  0  0  0  0
 22 23  1  0  0  0  0
 23 24  1  0  0  0  0
 23 26  1  0  0  0  0
 24 25  1  0  0  0  0
M  END
>  <Name_Molregno>
311175

>  <5-HT1A>
7.94

>  <5-HT1B>
6.48

>  <5-HT1D>
6.76

$$$$
311176
  Marvin  02231216192D 0   1.00000     0.00000     0

 27 30  0  0  0  0  0  0  0  0999 V2000
   -1.1856    3.9827    0.0000 F   0  0  0  0  0  0  0  0  0
   -0.4711    3.5702    0.0000 C   0  0  0  0  0  0  0  0  0
    0.2433    3.9827    0.0000 C   0  0  0  0  0  0  0  0  0
    0.9578    3.5702    0.0000 C   0  0  0  0  0  0  0  0  0
    0.9578    2.7452    0.0000 C   0  0  0  0  0  0  0  0  0
    0.2433    2.3327    0.0000 C   0  0  0  0  0  0  0  0  0
   -0.4711    2.7452    0.0000 C   0  0  0  0  0  0  0  0  0
    1.6723    2.3327    0.0000 C   0  0  0  0  0  0  0  0  0
    1.6723    1.5077    0.0000 O   0  0  0  0  0  0  0  0  0
    2.3868    2.7452    0.0000 N   0  0  0  0  0  0  0  0  0
    3.1012    2.3327    0.0000 C   0  0  0  0  0  0  0  0  0
    3.8157    2.7452    0.0000 C   0  0  0  0  0  0  0  0  0
    4.5302    2.3327    0.0000 C   0  0  0  0  0  0  0  0  0
    5.2446    2.7452    0.0000 N   0  0  0  0  0  0  0  0  0
    5.9591    2.3327    0.0000 C   0  0  0  0  0  0  0  0  0
    5.9591    1.5077    0.0000 C   0  0  0  0  0  0  0  0  0
    5.2446    1.0952    0.0000 O   0  0  0  0  0  0  0  0  0
    4.5302    1.5077    0.0000 C   0  0  0  0  0  0  0  0  0
    3.8157    1.0952    0.0000 C   0  0  0  0  0  0  0  0  0
    3.1012    1.5077    0.0000 C   0  0  0  0  0  0  0  0  0
    5.2446    3.5702    0.0000 C   0  0  0  0  0  0  0  0  0
    4.5302    3.9827    0.0000 C   0  0  0  0  0  0  0  0  0
    4.5302    4.8077    0.0000 C   0  0  0  0  0  0  0  0  0
    5.2446    5.2202    0.0000 N   0  0  0  0  0  0  0  0  0
    5.9591    4.8077    0.0000 C   0  0  0  0  0  0  0  0  0
    5.9591    3.9827    0.0000 C   0  0  0  0  0  0  0  0  0
    5.2446    6.0452    0.0000 C   0  0  0  0  0  0  0  0  0
  1  2  1  0  0  0  0
  2  3  4  0  0  0  0
  2  7  4  0  0  0  0
  3  4  4  0  0  0  0
  4  5  4  0  0  0  0
  5  6  4  0  0  0  0
  5  8  1  0  0  0  0
  6  7  4  0  0  0  0
  8  9  2  0  0  0  0
  8 10  1  0  0  0  0
 10 11  1  0  0  0  0
 11 12  4  0  0  0  0
 11 20  4  0  0  0  0
 12 13  4  0  0  0  0
 13 14  1  0  0  0  0
 13 18  4  0  0  0  0
 14 15  1  0  0  0  0
 14 21  1  0  0  0  0
 15 16  1  0  0  0  0
 16 17  1  0  0  0  0
 17 18  1  0  0  0  0
 18 19  4  0  0  0  0
 19 20  4  0  0  0  0
 21 22  1  0  0  0  0
 21 26  1  0  0  0  0
 22 23  1  0  0  0  0
 23 24  1  0  0  0  0
 24 25  1  0  0  0  0
 24 27  1  0  0  0  0
 25 26  1  0  0  0  0
M  END
>  <Name_Molregno>
311176

>  <5-HT1A>
6.07

>  <5-HT1D>
5.64

$$$$
311185
  Marvin  02231216192D 0   1.00000     0.00000     0

 26 29  0  0  0  0  0  0  0  0999 V2000
    7.8472   -4.0396    0.0000 F   0  0  0  0  0  0  0  0  0
    7.1328   -3.6271    0.0000 C   0  0  0  0  0  0  0  0  0
    6.4183   -4.0396    0.0000 C   0  0  0  0  0  0  0  0  0
    5.7038   -3.6271    0.0000 C   0  0  0  0  0  0  0  0  0
    5.7038   -2.8021    0.0000 C   0  0  0  0  0  0  0  0  0
    6.4183   -2.3896    0.0000 C   0  0  0  0  0  0  0  0  0
    7.1328   -2.8021    0.0000 C   0  0  0  0  0  0  0  0  0
    4.9894   -2.3896    0.0000 C   0  0  0  0  0  0  0  0  0
    4.9894   -1.5646    0.0000 O   0  0  0  0  0  0  0  0  0
    4.2749   -2.8021    0.0000 N   0  0  0  0  0  0  0  0  0
    3.5604   -2.3896    0.0000 C   0  0  0  0  0  0  0  0  0
    2.8459   -2.8021    0.0000 C   0  0  0  0  0  0  0  0  0
    2.1315   -2.3896    0.0000 C   0  0  0  0  0  0  0  0  0
    2.1315   -1.5646    0.0000 C   0  0  0  0  0  0  0  0  0
    1.3468   -1.3097    0.0000 N   0  0  0  0  0  0  0  0  0
    0.8619   -1.9771    0.0000 N   0  0  0  0  0  0  0  0  0
    1.3468   -2.6445    0.0000 C   0  0  0  0  0  0  0  0  0
    1.0919   -3.4292    0.0000 C   0  0  0  0  0  0  0  0  0
    1.6439   -4.0423    0.0000 C   0  0  0  0  0  0  0  0  0
    1.3890   -4.8269    0.0000 C   0  0  0  0  0  0  0  0  0
    0.5820   -4.9984    0.0000 N   0  0  0  0  0  0  0  0  0
    0.0300   -4.3853    0.0000 C   0  0  0  0  0  0  0  0  0
    0.2849   -3.6007    0.0000 C   0  0  0  0  0  0  0  0  0
    0.3271   -5.7830    0.0000 C   0  0  0  0  0  0  0  0  0
    2.8459   -1.1521    0.0000 C   0  0  0  0  0  0  0  0  0
    3.5604   -1.5646    0.0000 C   0  0  0  0  0  0  0  0  0
  1  2  1  0  0  0  0
  2  3  4  0  0  0  0
  2  7  4  0  0  0  0
  3  4  4  0  0  0  0
  4  5  4  0  0  0  0
  5  6  4  0  0  0  0
  5  8  1  0  0  0  0
  6  7  4  0  0  0  0
  8  9  2  0  0  0  0
  8 10  1  0  0  0  0
 10 11  1  0  0  0  0
 11 12  4  0  0  0  0
 11 26  4  0  0  0  0
 12 13  4  0  0  0  0
 13 14  4  0  0  0  0
 13 17  4  0  0  0  0
 14 15  4  0  0  0  0
 14 25  4  0  0  0  0
 15 16  4  0  0  0  0
 16 17  4  0  0  0  0
 17 18  1  0  0  0  0
 18 19  1  0  0  0  0
 18 23  1  0  0  0  0
 19 20  1  0  0  0  0
 20 21  1  0  0  0  0
 21 22  1  0  0  0  0
 21 24  1  0  0  0  0
 22 23  1  0  0  0  0
 25 26  4  0  0  0  0
M  STY  1   1 DAT
M  SAL   1  1  15
M  SDT   1 MRV_IMPLICIT_H                                        
M  SDD   1     0.0000    0.0000    DR    ALL  0       0  
M  SED   1 IMPL_H1
M  END
>  <Name_Molregno>
311185

>  <5-HT1A>
6.06

>  <5-HT1B>
5.64

>  <5-HT1D>
5.51

$$$$
311897
  Marvin  02231216192D 0   1.00000     0.00000     0

 23 25  0  0  1  0  0  0  0  0999 V2000
   -4.3427    1.1810    0.0000 O   0  0  0  0  0  0  0  0  0
   -5.0572    1.5935    0.0000 C   0  0  0  0  0  0  0  0  0
   -3.6282    1.5935    0.0000 C   0  0  0  0  0  0  0  0  0
   -3.6282    2.4185    0.0000 C   0  0  0  0  0  0  0  0  0
   -2.9137    2.8310    0.0000 C   0  0  0  0  0  0  0  0  0
   -2.1993    2.4185    0.0000 C   0  0  0  0  0  0  0  0  0
   -2.1993    1.5935    0.0000 C   0  0  0  0  0  0  0  0  0
   -1.4848    1.1810    0.0000 O   0  0  0  0  0  0  0  0  0
   -0.7703    1.5935    0.0000 C   0  0  0  0  0  0  0  0  0
   -2.9137    1.1810    0.0000 C   0  0  0  0  0  0  0  0  0
   -2.9137    0.3560    0.0000 C   0  0  0  0  0  0  0  0  0
   -2.1993   -0.0565    0.0000 C   0  0  0  0  0  0  0  0  0
   -1.4848    0.3560    0.0000 C   0  0  0  0  0  0  0  0  0
   -0.7703   -0.0565    0.0000 C   0  0  0  0  0  0  0  0  0
   -0.7703   -0.8815    0.0000 C   0  0  0  0  0  0  0  0  0
   -0.0559   -1.2940    0.0000 N   0  0  0  0  0  0  0  0  0
    0.6586   -0.8815    0.0000 C   0  0  0  0  0  0  0  0  0
   -0.0559   -2.1190    0.0000 C   0  0  0  0  0  0  0  0  0
   -1.4848   -1.2940    0.0000 C   0  0  0  0  0  0  0  0  0
   -2.1993   -0.8815    0.0000 C   0  0  0  0  0  0  0  0  0
   -2.9137   -1.2940    0.0000 C   0  0  0  0  0  0  0  0  0
   -3.6282   -0.8815    0.0000 C   0  0  0  0  0  0  0  0  0
   -3.6282   -0.0565    0.0000 C   0  0  0  0  0  0  0  0  0
  1  2  1  0  0  0  0
  1  3  1  0  0  0  0
  3  4  4  0  0  0  0
  3 10  4  0  0  0  0
  4  5  4  0  0  0  0
  5  6  4  0  0  0  0
  6  7  4  0  0  0  0
  7  8  1  0  0  0  0
  7 10  4  0  0  0  0
  8  9  1  0  0  0  0
 10 11  1  0  0  0  0
 11 12  4  0  0  0  0
 11 23  4  0  0  0  0
 12 13  1  0  0  0  0
 12 20  4  0  0  0  0
 13 14  1  0  0  0  0
 14 15  1  0  0  0  0
 15 16  1  0  0  0  0
 15 19  1  0  0  0  0
 16 17  1  0  0  0  0
 16 18  1  0  0  0  0
 19 20  1  0  0  0  0
 20 21  4  0  0  0  0
 21 22  4  0  0  0  0
 22 23  4  0  0  0  0
M  END
>  <Name_Molregno>
311897

>  <5-HT1A>
5.85

>  <DOPAMINE D2>
6.62

$$$$
311921
  Marvin  02231216192D 0   1.00000     0.00000     0

 27 29  0  0  1  0  0  0  0  0999 V2000
   -2.4820   -2.5799    0.0000 O   0  0  0  0  0  0  0  0  0
   -2.4820   -3.4049    0.0000 C   0  0  0  0  0  0  0  0  0
   -3.1965   -2.1674    0.0000 C   0  0  0  0  0  0  0  0  0
   -3.9109   -2.5799    0.0000 C   0  0  0  0  0  0  0  0  0
   -4.6254   -2.1674    0.0000 C   0  0  0  0  0  0  0  0  0
   -4.6254   -1.3424    0.0000 C   0  0  0  0  0  0  0  0  0
   -3.9109   -0.9299    0.0000 C   0  0  0  0  0  0  0  0  0
   -3.9109   -0.1049    0.0000 O   0  0  0  0  0  0  0  0  0
   -4.6254    0.3076    0.0000 C   0  0  0  0  0  0  0  0  0
   -3.1965   -1.3424    0.0000 C   0  0  0  0  0  0  0  0  0
   -2.4820   -0.9299    0.0000 C   0  0  0  0  0  0  0  0  0
   -2.4820   -0.1049    0.0000 C   0  0  0  0  0  0  0  0  0
   -3.1965    0.3076    0.0000 C   0  0  0  0  0  0  0  0  0
   -3.1965    1.1326    0.0000 C   0  0  0  0  0  0  0  0  0
   -2.4820    1.5451    0.0000 C   0  0  0  0  0  0  0  0  0
   -2.4820    2.3701    0.0000 N   0  0  0  0  0  0  0  0  0
   -3.1965    2.7826    0.0000 C   0  0  0  0  0  0  0  0  0
   -3.1965    3.6076    0.0000 C   0  0  0  0  0  0  0  0  0
   -3.9109    4.0201    0.0000 C   0  0  0  0  0  0  0  0  0
   -1.7675    2.7826    0.0000 C   0  0  0  0  0  0  0  0  0
   -1.7675    3.6076    0.0000 C   0  0  0  0  0  0  0  0  0
   -1.0530    4.0201    0.0000 C   0  0  0  0  0  0  0  0  0
   -1.7675    1.1326    0.0000 C   0  0  0  0  0  0  0  0  0
   -1.7675    0.3076    0.0000 C   0  0  0  0  0  0  0  0  0
   -1.0530   -0.1049    0.0000 C   0  0  0  0  0  0  0  0  0
   -1.0530   -0.9299    0.0000 C   0  0  0  0  0  0  0  0  0
   -1.7675   -1.3424    0.0000 C   0  0  0  0  0  0  0  0  0
  1  2  1  0  0  0  0
  1  3  1  0  0  0  0
  3  4  4  0  0  0  0
  3 10  4  0  0  0  0
  4  5  4  0  0  0  0
  5  6  4  0  0  0  0
  6  7  4  0  0  0  0
  7  8  1  0  0  0  0
  7 10  4  0  0  0  0
  8  9  1  0  0  0  0
 10 11  1  0  0  0  0
 11 12  4  0  0  0  0
 11 27  4  0  0  0  0
 12 13  1  0  0  0  0
 12 24  4  0  0  0  0
 13 14  1  0  0  0  0
 14 15  1  0  0  0  0
 15 16  1  0  0  0  0
 15 23  1  0  0  0  0
 16 17  1  0  0  0  0
 16 20  1  0  0  0  0
 17 18  1  0  0  0  0
 18 19  1  0  0  0  0
 20 21  1  0  0  0  0
 21 22  1  0  0  0  0
 23 24  1  0  0  0  0
 24 25  4  0  0  0  0
 25 26  4  0  0  0  0
 26 27  4  0  0  0  0
M  END
>  <Name_Molregno>
311921

>  <5-HT1A>
6.46

>  <DOPAMINE D2>
5.92

$$$$
315432
  Marvin  02231216192D 0   1.00000     0.00000     0

 39 42  0  0  0  0  0  0  0  0999 V2000
    1.3459    1.7399    0.0000 O   0  0  0  0  0  0  0  0  0
    2.1709    1.7399    0.0000 C   0  0  0  0  0  0  0  0  0
    2.5834    1.0254    0.0000 N   0  0  0  0  0  0  0  0  0
    2.1709    0.3109    0.0000 C   0  0  0  0  0  0  0  0  0
    2.5834   -0.4036    0.0000 C   0  0  0  0  0  0  0  0  0
    3.4084   -0.4036    0.0000 C   0  0  0  0  0  0  0  0  0
    3.8209   -1.1180    0.0000 C   0  0  0  0  0  0  0  0  0
    3.4084   -1.8325    0.0000 C   0  0  0  0  0  0  0  0  0
    2.5834   -1.8325    0.0000 C   0  0  0  0  0  0  0  0  0
    2.1709   -1.1180    0.0000 C   0  0  0  0  0  0  0  0  0
    3.8209   -2.5470    0.0000 C   0  0  0  0  0  0  0  0  0
    4.6459   -2.5470    0.0000 C   0  0  0  0  0  0  0  0  0
    5.0584   -3.2614    0.0000 C   0  0  0  0  0  0  0  0  0
    4.6459   -3.9759    0.0000 C   0  0  0  0  0  0  0  0  0
    3.8209   -3.9759    0.0000 C   0  0  0  0  0  0  0  0  0
    3.4084   -3.2614    0.0000 C   0  0  0  0  0  0  0  0  0
    5.0584   -4.6904    0.0000 C   0  0  0  0  0  0  0  0  0
    4.6459   -5.4049    0.0000 N   0  0  0  0  0  0  0  0  0
    5.0584   -6.1193    0.0000 C   0  0  0  0  0  0  0  0  0
    4.6459   -6.8338    0.0000 C   0  0  0  0  0  0  0  0  0
    5.0584   -7.5483    0.0000 C   0  0  0  0  0  0  0  0  0
    5.8834   -7.5483    0.0000 C   0  0  0  0  0  0  0  0  0
    6.2959   -8.2627    0.0000 C   0  0  0  0  0  0  0  0  0
    5.8834   -8.9772    0.0000 C   0  0  0  0  0  0  0  0  0
    5.0584   -8.9772    0.0000 C   0  0  0  0  0  0  0  0  0
    4.6459   -8.2627    0.0000 C   0  0  0  0  0  0  0  0  0
    3.4084    1.0254    0.0000 C   0  0  0  0  0  0  0  0  0
    3.8209    0.3109    0.0000 C   0  0  0  0  0  0  0  0  0
    4.6459    0.3109    0.0000 N   0  0  0  0  0  0  0  0  0
    5.0584    1.0254    0.0000 C   0  0  0  0  0  0  0  0  0
    5.0584   -0.4036    0.0000 C   0  0  0  0  0  0  0  0  0
    2.5834    2.4543    0.0000 C   0  0  0  0  0  0  0  0  0
    2.1709    3.1688    0.0000 C   0  0  0  0  0  0  0  0  0
    2.5834    3.8833    0.0000 C   0  0  0  0  0  0  0  0  0
    2.1709    4.5977    0.0000 C   0  0  0  0  0  0  0  0  0
    2.5834    5.3122    0.0000 C   0  0  0  0  0  0  0  0  0
    3.4084    5.3122    0.0000 C   0  0  0  0  0  0  0  0  0
    3.8209    4.5977    0.0000 C   0  0  0  0  0  0  0  0  0
    3.4084    3.8833    0.0000 C   0  0  0  0  0  0  0  0  0
  1  2  2  0  0  0  0
  2  3  1  0  0  0  0
  2 32  1  0  0  0  0
  3  4  1  0  0  0  0
  3 27  1  0  0  0  0
  4  5  1  0  0  0  0
  5  6  4  0  0  0  0
  5 10  4  0  0  0  0
  6  7  4  0  0  0  0
  7  8  4  0  0  0  0
  8  9  4  0  0  0  0
  8 11  1  0  0  0  0
  9 10  4  0  0  0  0
 11 12  4  0  0  0  0
 11 16  4  0  0  0  0
 12 13  4  0  0  0  0
 13 14  4  0  0  0  0
 14 15  4  0  0  0  0
 14 17  1  0  0  0  0
 15 16  4  0  0  0  0
 17 18  1  0  0  0  0
 18 19  1  0  0  0  0
 19 20  1  0  0  0  0
 20 21  1  0  0  0  0
 21 22  4  0  0  0  0
 21 26  4  0  0  0  0
 22 23  4  0  0  0  0
 23 24  4  0  0  0  0
 24 25  4  0  0  0  0
 25 26  4  0  0  0  0
 27 28  1  0  0  0  0
 28 29  1  0  0  0  0
 29 30  1  0  0  0  0
 29 31  1  0  0  0  0
 32 33  2  0  0  0  0
 33 34  1  0  0  0  0
 34 35  4  0  0  0  0
 34 39  4  0  0  0  0
 35 36  4  0  0  0  0
 36 37  4  0  0  0  0
 37 38  4  0  0  0  0
 38 39  4  0  0  0  0
M  END
>  <Name_Molregno>
315432

>  <5-HT1A>
6.1

>  <5-HT1B>
6.2

>  <5-HT1D>
6.8

>  <5-HT1E>
5

>  <5-HT2A>
6.4

>  <5-HT2C>
6.2

>  <5-HT5>
7.6

>  <5-HT6>
5.1

>  <5-HT7>
6

>  <Alpha-1B>
6.7

>  <DOPAMINE D2>
6.1

>  <DOPAMINE D3>
6

>  <DOPAMINE D4>
5.9

$$$$
315433
  Marvin  02231216192D 0   1.00000     0.00000     0

 41 45  0  0  0  0  0  0  0  0999 V2000
    3.1883    0.1879    0.0000 O   0  0  0  0  0  0  0  0  0
    3.1883    1.0129    0.0000 C   0  0  0  0  0  0  0  0  0
    3.9028    1.4254    0.0000 N   0  0  0  0  0  0  0  0  0
    4.6173    1.0129    0.0000 C   0  0  0  0  0  0  0  0  0
    4.6173    0.1879    0.0000 C   0  0  0  0  0  0  0  0  0
    5.3317   -0.2246    0.0000 C   0  0  0  0  0  0  0  0  0
    5.3317   -1.0496    0.0000 C   0  0  0  0  0  0  0  0  0
    4.6173   -1.4621    0.0000 C   0  0  0  0  0  0  0  0  0
    3.9028   -1.0496    0.0000 C   0  0  0  0  0  0  0  0  0
    3.9028   -0.2246    0.0000 C   0  0  0  0  0  0  0  0  0
    4.6173   -2.2871    0.0000 C   0  0  0  0  0  0  0  0  0
    5.3317   -2.6996    0.0000 C   0  0  0  0  0  0  0  0  0
    5.3317   -3.5246    0.0000 C   0  0  0  0  0  0  0  0  0
    4.6173   -3.9371    0.0000 C   0  0  0  0  0  0  0  0  0
    3.9028   -3.5246    0.0000 C   0  0  0  0  0  0  0  0  0
    3.9028   -2.6996    0.0000 C   0  0  0  0  0  0  0  0  0
    4.6173   -4.7621    0.0000 C   0  0  0  0  0  0  0  0  0
    3.9028   -5.1746    0.0000 N   0  0  0  0  0  0  0  0  0
    3.9028   -5.9996    0.0000 C   0  0  0  0  0  0  0  0  0
    3.1883   -6.4121    0.0000 C   0  0  0  0  0  0  0  0  0
    3.1883   -7.2371    0.0000 C   0  0  0  0  0  0  0  0  0
    3.9028   -7.6496    0.0000 C   0  0  0  0  0  0  0  0  0
    3.9028   -8.4746    0.0000 C   0  0  0  0  0  0  0  0  0
    3.1883   -8.8871    0.0000 C   0  0  0  0  0  0  0  0  0
    2.4738   -8.4746    0.0000 C   0  0  0  0  0  0  0  0  0
    2.4738   -7.6496    0.0000 C   0  0  0  0  0  0  0  0  0
    3.9028    2.2504    0.0000 C   0  0  0  0  0  0  0  0  0
    4.6173    2.6629    0.0000 C   0  0  0  0  0  0  0  0  0
    5.3317    2.2504    0.0000 C   0  0  0  0  0  0  0  0  0
    6.0462    2.6629    0.0000 C   0  0  0  0  0  0  0  0  0
    6.0462    3.4879    0.0000 C   0  0  0  0  0  0  0  0  0
    5.3317    3.9004    0.0000 N   0  0  0  0  0  0  0  0  0
    4.6173    3.4879    0.0000 C   0  0  0  0  0  0  0  0  0
    2.4738    1.4254    0.0000 C   0  0  0  0  0  0  0  0  0
    1.7594    1.0129    0.0000 C   0  0  0  0  0  0  0  0  0
    1.0449    1.4254    0.0000 C   0  0  0  0  0  0  0  0  0
    0.3304    1.0129    0.0000 C   0  0  0  0  0  0  0  0  0
   -0.3840    1.4254    0.0000 C   0  0  0  0  0  0  0  0  0
   -0.3840    2.2504    0.0000 C   0  0  0  0  0  0  0  0  0
    0.3304    2.6629    0.0000 C   0  0  0  0  0  0  0  0  0
    1.0449    2.2504    0.0000 C   0  0  0  0  0  0  0  0  0
  1  2  2  0  0  0  0
  2  3  1  0  0  0  0
  2 34  1  0  0  0  0
  3  4  1  0  0  0  0
  3 27  1  0  0  0  0
  4  5  1  0  0  0  0
  5  6  4  0  0  0  0
  5 10  4  0  0  0  0
  6  7  4  0  0  0  0
  7  8  4  0  0  0  0
  8  9  4  0  0  0  0
  8 11  1  0  0  0  0
  9 10  4  0  0  0  0
 11 12  4  0  0  0  0
 11 16  4  0  0  0  0
 12 13  4  0  0  0  0
 13 14  4  0  0  0  0
 14 15  4  0  0  0  0
 14 17  1  0  0  0  0
 15 16  4  0  0  0  0
 17 18  1  0  0  0  0
 18 19  1  0  0  0  0
 19 20  1  0  0  0  0
 20 21  1  0  0  0  0
 21 22  4  0  0  0  0
 21 26  4  0  0  0  0
 22 23  4  0  0  0  0
 23 24  4  0  0  0  0
 24 25  4  0  0  0  0
 25 26  4  0  0  0  0
 27 28  1  0  0  0  0
 28 29  4  0  0  0  0
 28 33  4  0  0  0  0
 29 30  4  0  0  0  0
 30 31  4  0  0  0  0
 31 32  4  0  0  0  0
 32 33  4  0  0  0  0
 34 35  2  0  0  0  0
 35 36  1  0  0  0  0
 36 37  4  0  0  0  0
 36 41  4  0  0  0  0
 37 38  4  0  0  0  0
 38 39  4  0  0  0  0
 39 40  4  0  0  0  0
 40 41  4  0  0  0  0
M  END
>  <Name_Molregno>
315433

>  <5-HT1A>
6

>  <5-HT1B>
6.2

>  <5-HT1D>
5.9

>  <5-HT1E>
5

>  <5-HT2A>
6.1

>  <5-HT2C>
6

>  <5-HT5>
7.3

>  <5-HT6>
5.7

>  <5-HT7>
5.9

>  <Alpha-1B>
6.5

>  <DOPAMINE D2>
5.9

>  <DOPAMINE D3>
5.8

>  <DOPAMINE D4>
5.8

$$$$
315545
  Marvin  02231216192D 0   1.00000     0.00000     0

 38 41  0  0  0  0  0  0  0  0999 V2000
    8.3584    0.3824    0.0000 O   0  0  0  0  0  0  0  0  0
    7.8183   -0.2412    0.0000 C   0  0  0  0  0  0  0  0  0
    7.0082   -0.0853    0.0000 N   0  0  0  0  0  0  0  0  0
    6.7381    0.6942    0.0000 C   0  0  0  0  0  0  0  0  0
    5.9280    0.8501    0.0000 C   0  0  0  0  0  0  0  0  0
    5.3879    0.2265    0.0000 C   0  0  0  0  0  0  0  0  0
    4.5778    0.3824    0.0000 C   0  0  0  0  0  0  0  0  0
    4.3077    1.1620    0.0000 C   0  0  0  0  0  0  0  0  0
    4.8478    1.7856    0.0000 C   0  0  0  0  0  0  0  0  0
    5.6579    1.6297    0.0000 C   0  0  0  0  0  0  0  0  0
    3.4976    1.3179    0.0000 C   0  0  0  0  0  0  0  0  0
    2.9575    0.6942    0.0000 C   0  0  0  0  0  0  0  0  0
    2.1474    0.8501    0.0000 C   0  0  0  0  0  0  0  0  0
    1.8773    1.6297    0.0000 C   0  0  0  0  0  0  0  0  0
    2.4174    2.2533    0.0000 C   0  0  0  0  0  0  0  0  0
    3.2275    2.0974    0.0000 C   0  0  0  0  0  0  0  0  0
    1.0672    1.7856    0.0000 C   0  0  0  0  0  0  0  0  0
    0.7971    2.5652    0.0000 N   0  0  0  0  0  0  0  0  0
   -0.0130    2.7211    0.0000 C   0  0  0  0  0  0  0  0  0
   -0.2830    3.5006    0.0000 C   0  0  0  0  0  0  0  0  0
   -1.0932    3.6565    0.0000 C   0  0  0  0  0  0  0  0  0
   -1.6333    3.0329    0.0000 C   0  0  0  0  0  0  0  0  0
   -2.4434    3.1888    0.0000 C   0  0  0  0  0  0  0  0  0
   -2.7135    3.9683    0.0000 C   0  0  0  0  0  0  0  0  0
   -2.1734    4.5920    0.0000 C   0  0  0  0  0  0  0  0  0
   -1.3632    4.4361    0.0000 C   0  0  0  0  0  0  0  0  0
    6.4681   -0.7090    0.0000 C   0  0  0  0  0  0  0  0  0
    5.6579   -0.5531    0.0000 C   0  0  0  0  0  0  0  0  0
    5.1178   -1.1767    0.0000 N   0  0  0  0  0  0  0  0  0
    5.3879   -1.9562    0.0000 C   0  0  0  0  0  0  0  0  0
    4.3077   -1.0208    0.0000 C   0  0  0  0  0  0  0  0  0
    8.0883   -1.0208    0.0000 C   0  0  0  0  0  0  0  0  0
    8.8985   -1.1767    0.0000 C   0  0  0  0  0  0  0  0  0
    9.1685   -1.9562    0.0000 C   0  0  0  0  0  0  0  0  0
    9.9579   -2.1960    0.0000 C   0  0  0  0  0  0  0  0  0
    9.9738   -3.0208    0.0000 C   0  0  0  0  0  0  0  0  0
    9.1943   -3.2909    0.0000 C   0  0  0  0  0  0  0  0  0
    8.6966   -2.6329    0.0000 C   0  0  0  0  0  0  0  0  0
  1  2  2  0  0  0  0
  2  3  1  0  0  0  0
  2 32  1  0  0  0  0
  3  4  1  0  0  0  0
  3 27  1  0  0  0  0
  4  5  1  0  0  0  0
  5  6  4  0  0  0  0
  5 10  4  0  0  0  0
  6  7  4  0  0  0  0
  7  8  4  0  0  0  0
  8  9  4  0  0  0  0
  8 11  1  0  0  0  0
  9 10  4  0  0  0  0
 11 12  4  0  0  0  0
 11 16  4  0  0  0  0
 12 13  4  0  0  0  0
 13 14  4  0  0  0  0
 14 15  4  0  0  0  0
 14 17  1  0  0  0  0
 15 16  4  0  0  0  0
 17 18  1  0  0  0  0
 18 19  1  0  0  0  0
 19 20  1  0  0  0  0
 20 21  1  0  0  0  0
 21 22  4  0  0  0  0
 21 26  4  0  0  0  0
 22 23  4  0  0  0  0
 23 24  4  0  0  0  0
 24 25  4  0  0  0  0
 25 26  4  0  0  0  0
 27 28  1  0  0  0  0
 28 29  1  0  0  0  0
 29 30  1  0  0  0  0
 29 31  1  0  0  0  0
 32 33  1  0  0  0  0
 33 34  1  0  0  0  0
 34 35  1  0  0  0  0
 34 38  1  0  0  0  0
 35 36  1  0  0  0  0
 36 37  1  0  0  0  0
 37 38  1  0  0  0  0
M  END
>  <Name_Molregno>
315545

>  <5-HT1A>
6.3

>  <5-HT1B>
6.5

>  <5-HT1D>
6.4

>  <5-HT1E>
5

>  <5-HT2A>
6.1

>  <5-HT2C>
6.4

>  <5-HT5>
8.2

>  <5-HT6>
5.4

>  <5-HT7>
5.4

>  <Alpha-1B>
6.5

>  <DOPAMINE D2>
5.9

>  <DOPAMINE D3>
6.2

>  <DOPAMINE D4>
6.1

>  <Serotonin transporter>
7.6

$$$$
320047
  Marvin  02231216192D 0   1.00000     0.00000     0

 33 37  0  0  0  0  0  0  0  0999 V2000
    0.1212   -0.0292    0.0000 Cl  0  0  0  0  0  0  0  0  0
    0.1212   -0.8542    0.0000 C   0  0  0  0  0  0  0  0  0
    0.8356   -1.2667    0.0000 C   0  0  0  0  0  0  0  0  0
    0.8356   -2.0917    0.0000 C   0  0  0  0  0  0  0  0  0
    0.1212   -2.5042    0.0000 C   0  0  0  0  0  0  0  0  0
   -0.5933   -2.0917    0.0000 C   0  0  0  0  0  0  0  0  0
   -0.5933   -1.2667    0.0000 C   0  0  0  0  0  0  0  0  0
   -1.3078   -0.8542    0.0000 N   0  0  0  0  0  0  0  0  0
   -2.0222   -1.2667    0.0000 C   0  0  0  0  0  0  0  0  0
   -2.7367   -0.8542    0.0000 C   0  0  0  0  0  0  0  0  0
   -2.7367   -0.0292    0.0000 N   0  0  0  0  0  0  0  0  0
   -2.0222    0.3833    0.0000 C   0  0  0  0  0  0  0  0  0
   -1.3078   -0.0292    0.0000 C   0  0  0  0  0  0  0  0  0
   -3.4512    0.3833    0.0000 C   0  0  0  0  0  0  0  0  0
   -4.1657   -0.0292    0.0000 C   0  0  0  0  0  0  0  0  0
   -4.8801    0.3833    0.0000 N   0  0  0  0  0  0  0  0  0
   -5.5946   -0.0292    0.0000 C   0  0  0  0  0  0  0  0  0
   -5.5946   -0.8542    0.0000 O   0  0  0  0  0  0  0  0  0
   -6.3091    0.3833    0.0000 C   0  0  0  0  0  0  0  0  0
   -7.0937    0.1284    0.0000 N   0  0  0  0  0  0  0  0  0
   -7.5786    0.7958    0.0000 C   0  0  0  0  0  0  0  0  0
   -7.0937    1.4633    0.0000 C   0  0  0  0  0  0  0  0  0
   -6.3091    1.2083    0.0000 C   0  0  0  0  0  0  0  0  0
   -5.5946    1.6208    0.0000 N   0  0  0  0  0  0  0  0  0
   -4.8801    1.2083    0.0000 C   0  0  0  0  0  0  0  0  0
   -4.1657    1.6208    0.0000 O   0  0  0  0  0  0  0  0  0
   -8.4036    0.7958    0.0000 C   0  0  0  0  0  0  0  0  0
   -8.8161    0.0813    0.0000 C   0  0  0  0  0  0  0  0  0
   -9.6411    0.0813    0.0000 C   0  0  0  0  0  0  0  0  0
  -10.0536    0.7958    0.0000 C   0  0  0  0  0  0  0  0  0
   -9.6411    1.5103    0.0000 C   0  0  0  0  0  0  0  0  0
   -8.8161    1.5103    0.0000 C   0  0  0  0  0  0  0  0  0
  -10.8786    0.7958    0.0000 C   0  0  0  0  0  0  0  0  0
  1  2  1  0  0  0  0
  2  3  4  0  0  0  0
  2  7  4  0  0  0  0
  3  4  4  0  0  0  0
  4  5  4  0  0  0  0
  5  6  4  0  0  0  0
  6  7  4  0  0  0  0
  7  8  1  0  0  0  0
  8  9  1  0  0  0  0
  8 13  1  0  0  0  0
  9 10  1  0  0  0  0
 10 11  1  0  0  0  0
 11 12  1  0  0  0  0
 11 14  1  0  0  0  0
 12 13  1  0  0  0  0
 14 15  1  0  0  0  0
 15 16  1  0  0  0  0
 16 17  1  0  0  0  0
 16 25  1  0  0  0  0
 17 18  2  0  0  0  0
 17 19  1  0  0  0  0
 19 20  4  0  0  0  0
 19 23  4  0  0  0  0
 20 21  4  0  0  0  0
 21 22  4  0  0  0  0
 21 27  1  0  0  0  0
 22 23  4  0  0  0  0
 23 24  1  0  0  0  0
 24 25  1  0  0  0  0
 25 26  2  0  0  0  0
 27 28  4  0  0  0  0
 27 32  4  0  0  0  0
 28 29  4  0  0  0  0
 29 30  4  0  0  0  0
 30 31  4  0  0  0  0
 30 33  1  0  0  0  0
 31 32  4  0  0  0  0
M  STY  1   1 DAT
M  SAL   1  1  20
M  SDT   1 MRV_IMPLICIT_H                                        
M  SDD   1     0.0000    0.0000    DR    ALL  0       0  
M  SED   1 IMPL_H1
M  END
>  <Name_Molregno>
320047

>  <5-HT1A>
5

>  <DOPAMINE D1>
5

>  <DOPAMINE D2>
5

$$$$
320346
  Marvin  02231216192D 0   1.00000     0.00000     0

 25 28  0  0  1  0  0  0  0  0999 V2000
   -0.3965   -3.1617    0.0000 O   0  0  0  0  0  0  0  0  0
    0.3175   -3.5751    0.0000 C   0  0  0  0  0  0  0  0  0
    1.0325   -3.1634    0.0000 N   0  0  0  0  0  0  0  0  0
    1.0334   -2.3384    0.0000 C   0  0  0  0  0  0  0  0  0
    1.7484   -1.9268    0.0000 C   0  0  0  0  0  0  0  0  0
    1.7494   -1.1018    0.0000 C   0  0  0  0  0  0  0  0  0
    1.0354   -0.6884    0.0000 C   0  0  0  0  0  0  0  0  0
    0.3205   -1.1001    0.0000 N   0  0  0  0  0  0  0  0  0
    0.3195   -1.9251    0.0000 C   0  0  0  0  0  0  0  0  0
   -0.3935   -0.6867    0.0000 C   0  0  0  0  0  0  0  0  0
    1.0369    0.1357    0.0000 C   0  0  0  0  0  0  0  0  0
    1.7494    0.5482    0.0000 C   0  0  0  0  0  0  0  0  0
    2.4619    0.1357    0.0000 C   0  0  0  0  0  0  0  0  0
    2.4619   -0.6893    0.0000 C   0  0  0  0  0  0  0  0  0
    3.1798   -1.1018    0.0000 C   0  0  0  0  0  0  0  0  0
    3.8923   -0.6893    0.0000 C   0  0  0  0  0  0  0  0  0
    3.8923    0.1357    0.0000 C   0  0  0  0  0  0  0  0  0
    3.1798    0.5482    0.0000 C   0  0  0  0  0  0  0  0  0
    2.8744    1.4054    0.0000 N   0  0  0  0  0  0  0  0  0
    2.0494    1.4054    0.0000 C   0  0  0  0  0  0  0  0  0
    0.3165   -4.4001    0.0000 N   0  0  0  0  0  0  0  0  0
   -0.3985   -4.8117    0.0000 C   0  0  0  0  0  0  0  0  0
   -0.3994   -5.6367    0.0000 C   0  0  0  0  0  0  0  0  0
    1.0305   -4.8134    0.0000 C   0  0  0  0  0  0  0  0  0
    1.0295   -5.6384    0.0000 C   0  0  0  0  0  0  0  0  0
  1  2  2  0  0  0  0
  2  3  1  0  0  0  0
  2 21  1  0  0  0  0
  3  4  1  0  0  0  0
  4  5  1  0  0  0  0
  4  9  1  0  0  0  0
  5  6  2  0  0  0  0
  6  7  1  0  0  0  0
  6 14  1  0  0  0  0
  7  8  1  0  0  0  0
  7 11  1  0  0  0  0
  8  9  1  0  0  0  0
  8 10  1  0  0  0  0
 11 12  1  0  0  0  0
 12 13  4  0  0  0  0
 12 20  4  0  0  0  0
 13 14  4  0  0  0  0
 13 18  4  0  0  0  0
 14 15  4  0  0  0  0
 15 16  4  0  0  0  0
 16 17  4  0  0  0  0
 17 18  4  0  0  0  0
 18 19  4  0  0  0  0
 19 20  4  0  0  0  0
 21 22  1  0  0  0  0
 21 24  1  0  0  0  0
 22 23  1  0  0  0  0
 24 25  1  0  0  0  0
M  STY  1   1 DAT
M  SAL   1  1  19
M  SDT   1 MRV_IMPLICIT_H                                        
M  SDD   1     0.0000    0.0000    DR    ALL  0       0  
M  SED   1 IMPL_H1
M  END
>  <Name_Molregno>
320346

>  <5-HT1A>
9.06

>  <5-HT1B>
7.73

>  <5-HT1D>
9.01

>  <5-HT2A>
8.71

>  <5-HT2C>
8.2

>  <Alpha-1A>
8.26

>  <Alpha-1B>
7.78

>  <Alpha-2A>
10.26

>  <Alpha-2B>
9.87

>  <Beta-1>
7.17

>  <Beta-2>
8.1

>  <DOPAMINE D1>
7.19

>  <DOPAMINE D2>
9.31

>  <DOPAMINE D3>
9.14

>  <DOPAMINE D4>
8.33

>  <DOPAMINE D5>
8.45

$$$$
320997
  Marvin  02231216192D 0   1.00000     0.00000     0

 28 31  0  0  0  0  0  0  0  0999 V2000
    8.9717   -1.0343    0.0000 F   0  0  0  0  0  0  0  0  0
    8.5592   -0.3199    0.0000 C   0  0  0  0  0  0  0  0  0
    7.7342   -0.3199    0.0000 C   0  0  0  0  0  0  0  0  0
    7.3217    0.3946    0.0000 C   0  0  0  0  0  0  0  0  0
    6.4967    0.3946    0.0000 N   0  0  0  0  0  0  0  0  0
    6.0842   -0.3199    0.0000 C   0  0  0  0  0  0  0  0  0
    5.2592   -0.3199    0.0000 C   0  0  0  0  0  0  0  0  0
    4.8467    0.3946    0.0000 N   0  0  0  0  0  0  0  0  0
    5.2592    1.1091    0.0000 C   0  0  0  0  0  0  0  0  0
    6.0842    1.1091    0.0000 C   0  0  0  0  0  0  0  0  0
    4.0217    0.3946    0.0000 C   0  0  0  0  0  0  0  0  0
    3.6092    1.1091    0.0000 C   0  0  0  0  0  0  0  0  0
    2.7842    1.1091    0.0000 N   0  0  0  0  0  0  0  0  0
    2.3717    0.3946    0.0000 C   0  0  0  0  0  0  0  0  0
    2.7842   -0.3199    0.0000 O   0  0  0  0  0  0  0  0  0
    1.5467    0.3946    0.0000 C   0  0  0  0  0  0  0  0  0
    1.1342    1.1091    0.0000 C   0  0  0  0  0  0  0  0  0
    1.5467    1.8235    0.0000 C   0  0  0  0  0  0  0  0  0
    2.3717    1.8235    0.0000 C   0  0  0  0  0  0  0  0  0
    2.7842    2.5380    0.0000 O   0  0  0  0  0  0  0  0  0
    0.6493    0.4416    0.0000 C   0  0  0  0  0  0  0  0  0
   -0.1353    0.6966    0.0000 C   0  0  0  0  0  0  0  0  0
   -0.1353    1.5216    0.0000 C   0  0  0  0  0  0  0  0  0
    0.6493    1.7765    0.0000 C   0  0  0  0  0  0  0  0  0
    7.7342    1.1091    0.0000 C   0  0  0  0  0  0  0  0  0
    8.5592    1.1091    0.0000 C   0  0  0  0  0  0  0  0  0
    8.9717    0.3946    0.0000 C   0  0  0  0  0  0  0  0  0
    9.7967    0.3946    0.0000 F   0  0  0  0  0  0  0  0  0
  1  2  1  0  0  0  0
  2  3  4  0  0  0  0
  2 27  4  0  0  0  0
  3  4  4  0  0  0  0
  4  5  1  0  0  0  0
  4 25  4  0  0  0  0
  5  6  1  0  0  0  0
  5 10  1  0  0  0  0
  6  7  1  0  0  0  0
  7  8  1  0  0  0  0
  8  9  1  0  0  0  0
  8 11  1  0  0  0  0
  9 10  1  0  0  0  0
 11 12  1  0  0  0  0
 12 13  1  0  0  0  0
 13 14  1  0  0  0  0
 13 19  1  0  0  0  0
 14 15  2  0  0  0  0
 14 16  1  0  0  0  0
 16 17  1  0  0  0  0
 17 18  1  0  0  0  0
 17 21  1  0  0  0  0
 17 24  1  0  0  0  0
 18 19  1  0  0  0  0
 19 20  2  0  0  0  0
 21 22  1  0  0  0  0
 22 23  1  0  0  0  0
 23 24  1  0  0  0  0
 25 26  4  0  0  0  0
 26 27  4  0  0  0  0
 27 28  1  0  0  0  0
M  END
>  <Name_Molregno>
320997

>  <5-HT1A>
7.26

>  <Alpha-1A>
5.39

>  <Alpha-1B>
5.85

$$$$
321201
  Marvin  02231216192D 0   1.00000     0.00000     0

 28 31  0  0  0  0  0  0  0  0999 V2000
   -0.3915    1.6598    0.0000 F   0  0  0  0  0  0  0  0  0
    0.0210    0.9454    0.0000 C   0  0  0  0  0  0  0  0  0
    0.8460    0.9454    0.0000 C   0  0  0  0  0  0  0  0  0
    1.2585    0.2309    0.0000 C   0  0  0  0  0  0  0  0  0
    2.0835    0.2309    0.0000 F   0  0  0  0  0  0  0  0  0
    0.8460   -0.4836    0.0000 C   0  0  0  0  0  0  0  0  0
    0.0210   -0.4836    0.0000 C   0  0  0  0  0  0  0  0  0
   -0.3915    0.2309    0.0000 C   0  0  0  0  0  0  0  0  0
   -1.2165    0.2309    0.0000 N   0  0  0  0  0  0  0  0  0
   -1.6290   -0.4836    0.0000 C   0  0  0  0  0  0  0  0  0
   -2.4540   -0.4836    0.0000 C   0  0  0  0  0  0  0  0  0
   -2.8665    0.2309    0.0000 N   0  0  0  0  0  0  0  0  0
   -2.4540    0.9454    0.0000 C   0  0  0  0  0  0  0  0  0
   -1.6290    0.9454    0.0000 C   0  0  0  0  0  0  0  0  0
   -3.6915    0.2309    0.0000 C   0  0  0  0  0  0  0  0  0
   -4.1040   -0.4836    0.0000 C   0  0  0  0  0  0  0  0  0
   -4.9290   -0.4836    0.0000 N   0  0  0  0  0  0  0  0  0
   -5.3415   -1.1980    0.0000 C   0  0  0  0  0  0  0  0  0
   -4.9290   -1.9125    0.0000 O   0  0  0  0  0  0  0  0  0
   -6.1665   -1.1980    0.0000 C   0  0  0  0  0  0  0  0  0
   -6.5790   -0.4836    0.0000 C   0  0  0  0  0  0  0  0  0
   -6.1665    0.2309    0.0000 C   0  0  0  0  0  0  0  0  0
   -5.3415    0.2309    0.0000 C   0  0  0  0  0  0  0  0  0
   -4.9290    0.9454    0.0000 O   0  0  0  0  0  0  0  0  0
   -7.0640   -1.1510    0.0000 C   0  0  0  0  0  0  0  0  0
   -7.8486   -0.8961    0.0000 C   0  0  0  0  0  0  0  0  0
   -7.8486   -0.0711    0.0000 C   0  0  0  0  0  0  0  0  0
   -7.0640    0.1839    0.0000 C   0  0  0  0  0  0  0  0  0
  1  2  1  0  0  0  0
  2  3  4  0  0  0  0
  2  8  4  0  0  0  0
  3  4  4  0  0  0  0
  4  5  1  0  0  0  0
  4  6  4  0  0  0  0
  6  7  4  0  0  0  0
  7  8  4  0  0  0  0
  8  9  1  0  0  0  0
  9 10  1  0  0  0  0
  9 14  1  0  0  0  0
 10 11  1  0  0  0  0
 11 12  1  0  0  0  0
 12 13  1  0  0  0  0
 12 15  1  0  0  0  0
 13 14  1  0  0  0  0
 15 16  1  0  0  0  0
 16 17  1  0  0  0  0
 17 18  1  0  0  0  0
 17 23  1  0  0  0  0
 18 19  2  0  0  0  0
 18 20  1  0  0  0  0
 20 21  1  0  0  0  0
 21 22  1  0  0  0  0
 21 25  1  0  0  0  0
 21 28  1  0  0  0  0
 22 23  1  0  0  0  0
 23 24  2  0  0  0  0
 25 26  1  0  0  0  0
 26 27  1  0  0  0  0
 27 28  1  0  0  0  0
M  END
>  <Name_Molregno>
321201

>  <5-HT1A>
7.62

>  <Alpha-1A>
5.42

>  <Alpha-1B>
5.96

$$$$
321357
  Marvin  02231216192D 0   1.00000     0.00000     0

 29 32  0  0  0  0  0  0  0  0999 V2000
   -0.4337    1.5579    0.0000 F   0  0  0  0  0  0  0  0  0
   -0.0212    0.8434    0.0000 C   0  0  0  0  0  0  0  0  0
    0.8038    0.8434    0.0000 C   0  0  0  0  0  0  0  0  0
    1.2163    0.1289    0.0000 C   0  0  0  0  0  0  0  0  0
    2.0413    0.1289    0.0000 F   0  0  0  0  0  0  0  0  0
    0.8038   -0.5855    0.0000 C   0  0  0  0  0  0  0  0  0
    1.2163   -1.3000    0.0000 F   0  0  0  0  0  0  0  0  0
   -0.0212   -0.5855    0.0000 C   0  0  0  0  0  0  0  0  0
   -0.4337    0.1289    0.0000 C   0  0  0  0  0  0  0  0  0
   -1.2587    0.1289    0.0000 N   0  0  0  0  0  0  0  0  0
   -1.6712   -0.5855    0.0000 C   0  0  0  0  0  0  0  0  0
   -2.4962   -0.5855    0.0000 C   0  0  0  0  0  0  0  0  0
   -2.9087    0.1289    0.0000 N   0  0  0  0  0  0  0  0  0
   -2.4962    0.8434    0.0000 C   0  0  0  0  0  0  0  0  0
   -1.6712    0.8434    0.0000 C   0  0  0  0  0  0  0  0  0
   -3.7337    0.1289    0.0000 C   0  0  0  0  0  0  0  0  0
   -4.1462   -0.5855    0.0000 C   0  0  0  0  0  0  0  0  0
   -4.9712   -0.5855    0.0000 N   0  0  0  0  0  0  0  0  0
   -5.3837   -1.3000    0.0000 C   0  0  0  0  0  0  0  0  0
   -4.9712   -2.0145    0.0000 O   0  0  0  0  0  0  0  0  0
   -6.2087   -1.3000    0.0000 C   0  0  0  0  0  0  0  0  0
   -6.6212   -0.5855    0.0000 C   0  0  0  0  0  0  0  0  0
   -6.2087    0.1289    0.0000 C   0  0  0  0  0  0  0  0  0
   -5.3837    0.1289    0.0000 C   0  0  0  0  0  0  0  0  0
   -4.9712    0.8434    0.0000 O   0  0  0  0  0  0  0  0  0
   -7.1061   -1.2530    0.0000 C   0  0  0  0  0  0  0  0  0
   -7.8907   -0.9980    0.0000 C   0  0  0  0  0  0  0  0  0
   -7.8907   -0.1730    0.0000 C   0  0  0  0  0  0  0  0  0
   -7.1061    0.0819    0.0000 C   0  0  0  0  0  0  0  0  0
  1  2  1  0  0  0  0
  2  3  4  0  0  0  0
  2  9  4  0  0  0  0
  3  4  4  0  0  0  0
  4  5  1  0  0  0  0
  4  6  4  0  0  0  0
  6  7  1  0  0  0  0
  6  8  4  0  0  0  0
  8  9  4  0  0  0  0
  9 10  1  0  0  0  0
 10 11  1  0  0  0  0
 10 15  1  0  0  0  0
 11 12  1  0  0  0  0
 12 13  1  0  0  0  0
 13 14  1  0  0  0  0
 13 16  1  0  0  0  0
 14 15  1  0  0  0  0
 16 17  1  0  0  0  0
 17 18  1  0  0  0  0
 18 19  1  0  0  0  0
 18 24  1  0  0  0  0
 19 20  2  0  0  0  0
 19 21  1  0  0  0  0
 21 22  1  0  0  0  0
 22 23  1  0  0  0  0
 22 26  1  0  0  0  0
 22 29  1  0  0  0  0
 23 24  1  0  0  0  0
 24 25  2  0  0  0  0
 26 27  1  0  0  0  0
 27 28  1  0  0  0  0
 28 29  1  0  0  0  0
M  END
>  <Name_Molregno>
321357

>  <5-HT1A>
6.44

>  <Alpha-1A>
5.36

>  <Alpha-1B>
6.42

$$$$
321706
  Marvin  02231216192D 0   1.00000     0.00000     0

 30 34  0  0  0  0  0  0  0  0999 V2000
    3.7428    1.0385    0.0000 O   0  0  0  0  0  0  0  0  0
    3.0283    0.6260    0.0000 C   0  0  0  0  0  0  0  0  0
    3.0283   -0.1990    0.0000 C   0  0  0  0  0  0  0  0  0
    2.3138   -0.6115    0.0000 N   0  0  0  0  0  0  0  0  0
    2.3138   -1.4365    0.0000 C   0  0  0  0  0  0  0  0  0
    1.5994   -1.8490    0.0000 C   0  0  0  0  0  0  0  0  0
    0.8849   -1.4365    0.0000 N   0  0  0  0  0  0  0  0  0
    0.8849   -0.6115    0.0000 C   0  0  0  0  0  0  0  0  0
    1.5994   -0.1990    0.0000 C   0  0  0  0  0  0  0  0  0
    0.1704   -1.8490    0.0000 C   0  0  0  0  0  0  0  0  0
   -0.5440   -1.4365    0.0000 C   0  0  0  0  0  0  0  0  0
   -1.2585   -1.8490    0.0000 C   0  0  0  0  0  0  0  0  0
   -1.4300   -2.6560    0.0000 N   0  0  0  0  0  0  0  0  0
   -2.2505   -2.7422    0.0000 C   0  0  0  0  0  0  0  0  0
   -2.5861   -1.9885    0.0000 N   0  0  0  0  0  0  0  0  0
   -1.9730   -1.4365    0.0000 C   0  0  0  0  0  0  0  0  0
   -1.9730   -0.6115    0.0000 C   0  0  0  0  0  0  0  0  0
   -1.2585   -0.1990    0.0000 C   0  0  0  0  0  0  0  0  0
   -0.5440   -0.6115    0.0000 C   0  0  0  0  0  0  0  0  0
    3.7428    1.8635    0.0000 C   0  0  0  0  0  0  0  0  0
    4.4573    2.2760    0.0000 C   0  0  0  0  0  0  0  0  0
    4.4573    3.1010    0.0000 C   0  0  0  0  0  0  0  0  0
    5.1717    3.5135    0.0000 N   0  0  0  0  0  0  0  0  0
    5.8862    3.1010    0.0000 C   0  0  0  0  0  0  0  0  0
    5.8862    2.2760    0.0000 C   0  0  0  0  0  0  0  0  0
    5.1717    1.8635    0.0000 C   0  0  0  0  0  0  0  0  0
    6.6007    3.5135    0.0000 C   0  0  0  0  0  0  0  0  0
    3.7428    3.5135    0.0000 C   0  0  0  0  0  0  0  0  0
    3.0283    3.1010    0.0000 C   0  0  0  0  0  0  0  0  0
    3.0283    2.2760    0.0000 C   0  0  0  0  0  0  0  0  0
  1  2  1  0  0  0  0
  1 20  1  0  0  0  0
  2  3  1  0  0  0  0
  3  4  1  0  0  0  0
  4  5  1  0  0  0  0
  4  9  1  0  0  0  0
  5  6  1  0  0  0  0
  6  7  1  0  0  0  0
  7  8  1  0  0  0  0
  7 10  1  0  0  0  0
  8  9  1  0  0  0  0
 10 11  1  0  0  0  0
 11 12  4  0  0  0  0
 11 19  4  0  0  0  0
 12 13  4  0  0  0  0
 12 16  4  0  0  0  0
 13 14  4  0  0  0  0
 14 15  4  0  0  0  0
 15 16  4  0  0  0  0
 16 17  4  0  0  0  0
 17 18  4  0  0  0  0
 18 19  4  0  0  0  0
 20 21  4  0  0  0  0
 20 30  4  0  0  0  0
 21 22  4  0  0  0  0
 21 26  4  0  0  0  0
 22 23  4  0  0  0  0
 22 28  4  0  0  0  0
 23 24  4  0  0  0  0
 24 25  4  0  0  0  0
 24 27  1  0  0  0  0
 25 26  4  0  0  0  0
 28 29  4  0  0  0  0
 29 30  4  0  0  0  0
M  STY  1   1 DAT
M  SAL   1  1  15
M  SDT   1 MRV_IMPLICIT_H                                        
M  SDD   1     0.0000    0.0000    DR    ALL  0       0  
M  SED   1 IMPL_H1
M  END
>  <Name_Molregno>
321706

>  <5-HT1A>
6.8

>  <5-HT1B>
7.2

>  <5-HT1D>
9.6

$$$$
321722
  Marvin  02231216192D 0   1.00000     0.00000     0

 37 41  0  0  1  0  0  0  0  0999 V2000
    0.8935    5.3369    0.0000 O   0  0  0  0  0  0  0  0  0
    1.6080    5.7494    0.0000 C   0  0  0  0  0  0  0  0  0
    1.6080    6.5744    0.0000 C   0  0  0  0  0  0  0  0  0
    0.8935    6.9869    0.0000 O   0  0  0  0  0  0  0  0  0
    0.1790    6.5744    0.0000 C   0  0  0  0  0  0  0  0  0
    0.1790    5.7494    0.0000 C   0  0  0  0  0  0  0  0  0
    2.3225    6.9869    0.0000 C   0  0  0  0  0  0  0  0  0
    3.0369    6.5744    0.0000 C   0  0  0  0  0  0  0  0  0
    3.0369    5.7494    0.0000 C   0  0  0  0  0  0  0  0  0
    2.3225    5.3369    0.0000 C   0  0  0  0  0  0  0  0  0
    2.3225    4.5119    0.0000 N   0  0  0  0  0  0  0  0  0
    3.0369    4.0994    0.0000 C   0  0  0  0  0  0  0  0  0
    3.0369    3.2744    0.0000 C   0  0  0  0  0  0  0  0  0
    2.3225    2.8619    0.0000 N   0  0  0  0  0  0  0  0  0
    1.6080    3.2744    0.0000 C   0  0  0  0  0  0  0  0  0
    1.6080    4.0994    0.0000 C   0  0  0  0  0  0  0  0  0
    2.3225    2.0369    0.0000 C   0  0  0  0  0  0  0  0  0
    3.0369    1.6244    0.0000 C   0  0  0  0  0  0  0  0  0
    3.0369    0.7994    0.0000 N   0  0  0  0  0  0  0  0  0
    3.7514    0.3869    0.0000 C   0  0  0  0  0  0  0  0  0
    4.4659    0.7994    0.0000 O   0  0  0  0  0  0  0  0  0
    3.7514   -0.4381    0.0000 C   0  0  0  0  0  0  0  0  0
    4.4659   -0.8506    0.0000 C   0  0  0  0  0  0  0  0  0
    4.4659   -1.6756    0.0000 C   0  0  0  0  0  0  0  0  0
    3.7514   -2.0881    0.0000 C   0  0  0  0  0  0  0  0  0
    3.7514   -2.9131    0.0000 N   0  3  0  0  0  0  0  0  0
    4.4659   -3.3256    0.0000 O   0  5  0  0  0  0  0  0  0
    3.0369   -3.3256    0.0000 O   0  5  0  0  0  0  0  0  0
    3.0369   -1.6756    0.0000 C   0  0  0  0  0  0  0  0  0
    3.0369   -0.8506    0.0000 C   0  0  0  0  0  0  0  0  0
    2.3225    0.3869    0.0000 C   0  0  0  0  0  0  0  0  0
    2.3225   -0.4381    0.0000 N   0  0  0  0  0  0  0  0  0
    1.6080   -0.8506    0.0000 C   0  0  0  0  0  0  0  0  0
    0.8935   -0.4381    0.0000 C   0  0  0  0  0  0  0  0  0
    0.8935    0.3869    0.0000 C   0  0  0  0  0  0  0  0  0
    1.6080    0.7994    0.0000 C   0  0  0  0  0  0  0  0  0
    1.6080    1.6244    0.0000 C   0  0  0  0  0  0  0  0  0
  1  2  1  0  0  0  0
  1  6  1  0  0  0  0
  2  3  4  0  0  0  0
  2 10  4  0  0  0  0
  3  4  1  0  0  0  0
  3  7  4  0  0  0  0
  4  5  1  0  0  0  0
  5  6  1  0  0  0  0
  7  8  4  0  0  0  0
  8  9  4  0  0  0  0
  9 10  4  0  0  0  0
 10 11  1  0  0  0  0
 11 12  1  0  0  0  0
 11 16  1  0  0  0  0
 12 13  1  0  0  0  0
 13 14  1  0  0  0  0
 14 15  1  0  0  0  0
 14 17  1  0  0  0  0
 15 16  1  0  0  0  0
 17 18  1  0  0  0  0
 17 37  1  0  0  0  0
 18 19  1  0  0  0  0
 19 20  1  0  0  0  0
 19 31  1  0  0  0  0
 20 21  2  0  0  0  0
 20 22  1  0  0  0  0
 22 23  4  0  0  0  0
 22 30  4  0  0  0  0
 23 24  4  0  0  0  0
 24 25  4  0  0  0  0
 25 26  1  0  0  0  0
 25 29  4  0  0  0  0
 26 27  1  0  0  0  0
 26 28  1  0  0  0  0
 29 30  4  0  0  0  0
 31 32  4  0  0  0  0
 31 36  4  0  0  0  0
 32 33  4  0  0  0  0
 33 34  4  0  0  0  0
 34 35  4  0  0  0  0
 35 36  4  0  0  0  0
M  CHG  3  26   1  27  -1  28  -1
M  END
>  <Name_Molregno>
321722

>  <5-HT1A>
8.74

$$$$
321723
  Marvin  02231216192D 0   1.00000     0.00000     0

 31 34  0  0  0  0  0  0  0  0999 V2000
    2.5646   -5.2263    0.0000 Cl  0  0  0  0  0  0  0  0  0
    2.5646   -4.4013    0.0000 C   0  0  0  0  0  0  0  0  0
    1.8501   -3.9888    0.0000 C   0  0  0  0  0  0  0  0  0
    1.8501   -3.1638    0.0000 C   0  0  0  0  0  0  0  0  0
    2.5646   -2.7513    0.0000 C   0  0  0  0  0  0  0  0  0
    3.2791   -3.1638    0.0000 C   0  0  0  0  0  0  0  0  0
    3.2791   -3.9888    0.0000 C   0  0  0  0  0  0  0  0  0
    3.9936   -4.4013    0.0000 N   0  3  0  0  0  0  0  0  0
    4.7080   -3.9888    0.0000 O   0  5  0  0  0  0  0  0  0
    3.9936   -5.2263    0.0000 O   0  5  0  0  0  0  0  0  0
    2.5646   -1.9263    0.0000 C   0  0  0  0  0  0  0  0  0
    3.2791   -1.5138    0.0000 N   0  0  0  0  0  0  0  0  0
    3.2791   -0.6888    0.0000 C   0  0  0  0  0  0  0  0  0
    3.9936   -0.2763    0.0000 C   0  0  0  0  0  0  0  0  0
    4.7080   -0.6888    0.0000 N   0  0  0  0  0  0  0  0  0
    4.7080   -1.5138    0.0000 C   0  0  0  0  0  0  0  0  0
    3.9936   -1.9263    0.0000 C   0  0  0  0  0  0  0  0  0
    5.4225   -0.2763    0.0000 C   0  0  0  0  0  0  0  0  0
    5.4225    0.5487    0.0000 C   0  0  0  0  0  0  0  0  0
    6.1370    0.9612    0.0000 O   0  0  0  0  0  0  0  0  0
    6.1370    1.7862    0.0000 C   0  0  0  0  0  0  0  0  0
    6.8514    2.1987    0.0000 C   0  0  0  0  0  0  0  0  0
    6.8514    3.0237    0.0000 C   0  0  0  0  0  0  0  0  0
    7.5659    3.4362    0.0000 N   0  0  0  0  0  0  0  0  0
    8.2804    3.0237    0.0000 C   0  0  0  0  0  0  0  0  0
    8.2804    2.1987    0.0000 C   0  0  0  0  0  0  0  0  0
    7.5659    1.7862    0.0000 C   0  0  0  0  0  0  0  0  0
    8.9948    3.4362    0.0000 C   0  0  0  0  0  0  0  0  0
    6.1370    3.4362    0.0000 C   0  0  0  0  0  0  0  0  0
    5.4225    3.0237    0.0000 C   0  0  0  0  0  0  0  0  0
    5.4225    2.1987    0.0000 C   0  0  0  0  0  0  0  0  0
  1  2  1  0  0  0  0
  2  3  4  0  0  0  0
  2  7  4  0  0  0  0
  3  4  4  0  0  0  0
  4  5  4  0  0  0  0
  5  6  4  0  0  0  0
  5 11  1  0  0  0  0
  6  7  4  0  0  0  0
  7  8  1  0  0  0  0
  8  9  1  0  0  0  0
  8 10  1  0  0  0  0
 11 12  1  0  0  0  0
 12 13  1  0  0  0  0
 12 17  1  0  0  0  0
 13 14  1  0  0  0  0
 14 15  1  0  0  0  0
 15 16  1  0  0  0  0
 15 18  1  0  0  0  0
 16 17  1  0  0  0  0
 18 19  1  0  0  0  0
 19 20  1  0  0  0  0
 20 21  1  0  0  0  0
 21 22  4  0  0  0  0
 21 31  4  0  0  0  0
 22 23  4  0  0  0  0
 22 27  4  0  0  0  0
 23 24  4  0  0  0  0
 23 29  4  0  0  0  0
 24 25  4  0  0  0  0
 25 26  4  0  0  0  0
 25 28  1  0  0  0  0
 26 27  4  0  0  0  0
 29 30  4  0  0  0  0
 30 31  4  0  0  0  0
M  CHG  3   8   1   9  -1  10  -1
M  END
>  <Name_Molregno>
321723

>  <5-HT1A>
7.2

>  <5-HT1B>
6.7

>  <5-HT1D>
8.3

$$$$
321727
  Marvin  02231216192D 0   1.00000     0.00000     0

 36 40  0  0  1  0  0  0  0  0999 V2000
    0.9172    5.0899    0.0000 O   0  0  0  0  0  0  0  0  0
    1.6317    5.5024    0.0000 C   0  0  0  0  0  0  0  0  0
    1.6317    6.3274    0.0000 C   0  0  0  0  0  0  0  0  0
    0.9172    6.7399    0.0000 O   0  0  0  0  0  0  0  0  0
    0.2027    6.3274    0.0000 C   0  0  0  0  0  0  0  0  0
    0.2027    5.5024    0.0000 C   0  0  0  0  0  0  0  0  0
    2.3461    6.7399    0.0000 C   0  0  0  0  0  0  0  0  0
    3.0606    6.3274    0.0000 C   0  0  0  0  0  0  0  0  0
    3.0606    5.5024    0.0000 C   0  0  0  0  0  0  0  0  0
    2.3461    5.0899    0.0000 C   0  0  0  0  0  0  0  0  0
    2.3461    4.2649    0.0000 N   0  0  0  0  0  0  0  0  0
    3.0606    3.8524    0.0000 C   0  0  0  0  0  0  0  0  0
    3.0606    3.0274    0.0000 C   0  0  0  0  0  0  0  0  0
    2.3461    2.6149    0.0000 N   0  0  0  0  0  0  0  0  0
    1.6317    3.0274    0.0000 C   0  0  0  0  0  0  0  0  0
    1.6317    3.8524    0.0000 C   0  0  0  0  0  0  0  0  0
    2.3461    1.7899    0.0000 C   0  0  0  0  0  0  0  0  0
    3.0606    1.3774    0.0000 C   0  0  0  0  0  0  0  0  0
    3.0606    0.5524    0.0000 N   0  0  0  0  0  0  0  0  0
    3.7751    0.1399    0.0000 C   0  0  0  0  0  0  0  0  0
    4.4895    0.5524    0.0000 O   0  0  0  0  0  0  0  0  0
    3.7751   -0.6851    0.0000 C   0  0  0  0  0  0  0  0  0
    4.4895   -1.0976    0.0000 C   0  0  0  0  0  0  0  0  0
    4.4895   -1.9226    0.0000 C   0  0  0  0  0  0  0  0  0
    3.7751   -2.3351    0.0000 C   0  0  0  0  0  0  0  0  0
    3.0606   -1.9226    0.0000 C   0  0  0  0  0  0  0  0  0
    3.0606   -1.0976    0.0000 C   0  0  0  0  0  0  0  0  0
    3.7751   -3.1601    0.0000 C   0  0  0  0  0  0  0  0  0
    3.7751   -3.9851    0.0000 N   0  0  0  0  0  0  0  0  0
    2.3461    0.1399    0.0000 C   0  0  0  0  0  0  0  0  0
    2.3461   -0.6851    0.0000 N   0  0  0  0  0  0  0  0  0
    1.6317   -1.0976    0.0000 C   0  0  0  0  0  0  0  0  0
    0.9172   -0.6851    0.0000 C   0  0  0  0  0  0  0  0  0
    0.9172    0.1399    0.0000 C   0  0  0  0  0  0  0  0  0
    1.6317    0.5524    0.0000 C   0  0  0  0  0  0  0  0  0
    1.6317    1.3774    0.0000 C   0  0  0  0  0  0  0  0  0
  1  2  1  0  0  0  0
  1  6  1  0  0  0  0
  2  3  4  0  0  0  0
  2 10  4  0  0  0  0
  3  4  1  0  0  0  0
  3  7  4  0  0  0  0
  4  5  1  0  0  0  0
  5  6  1  0  0  0  0
  7  8  4  0  0  0  0
  8  9  4  0  0  0  0
  9 10  4  0  0  0  0
 10 11  1  0  0  0  0
 11 12  1  0  0  0  0
 11 16  1  0  0  0  0
 12 13  1  0  0  0  0
 13 14  1  0  0  0  0
 14 15  1  0  0  0  0
 14 17  1  0  0  0  0
 15 16  1  0  0  0  0
 17 18  1  0  0  0  0
 17 36  1  0  0  0  0
 18 19  1  0  0  0  0
 19 20  1  0  0  0  0
 19 30  1  0  0  0  0
 20 21  2  0  0  0  0
 20 22  1  0  0  0  0
 22 23  4  0  0  0  0
 22 27  4  0  0  0  0
 23 24  4  0  0  0  0
 24 25  4  0  0  0  0
 25 26  4  0  0  0  0
 25 28  1  0  0  0  0
 26 27  4  0  0  0  0
 28 29  3  0  0  0  0
 30 31  4  0  0  0  0
 30 35  4  0  0  0  0
 31 32  4  0  0  0  0
 32 33  4  0  0  0  0
 33 34  4  0  0  0  0
 34 35  4  0  0  0  0
M  END
>  <Name_Molregno>
321727

>  <5-HT1A>
8.42

$$$$
321747
  Marvin  02231216192D 0   1.00000     0.00000     0

 29 32  0  0  0  0  0  0  0  0999 V2000
    3.4544    0.9778    0.0000 O   0  0  0  0  0  0  0  0  0
    2.7399    0.5653    0.0000 C   0  0  0  0  0  0  0  0  0
    2.7399   -0.2597    0.0000 C   0  0  0  0  0  0  0  0  0
    2.0254   -0.6722    0.0000 N   0  0  0  0  0  0  0  0  0
    2.0254   -1.4972    0.0000 C   0  0  0  0  0  0  0  0  0
    1.3110   -1.9097    0.0000 C   0  0  0  0  0  0  0  0  0
    0.5965   -1.4972    0.0000 N   0  0  0  0  0  0  0  0  0
    0.5965   -0.6722    0.0000 C   0  0  0  0  0  0  0  0  0
    1.3110   -0.2597    0.0000 C   0  0  0  0  0  0  0  0  0
   -0.1180   -1.9097    0.0000 C   0  0  0  0  0  0  0  0  0
   -0.8324   -1.4972    0.0000 C   0  0  0  0  0  0  0  0  0
   -1.5469   -1.9097    0.0000 C   0  0  0  0  0  0  0  0  0
   -2.2614   -1.4972    0.0000 C   0  0  0  0  0  0  0  0  0
   -2.9759   -1.9097    0.0000 N   0  0  0  0  0  0  0  0  0
   -2.2614   -0.6722    0.0000 C   0  0  0  0  0  0  0  0  0
   -2.9759   -0.2597    0.0000 O   0  0  0  0  0  0  0  0  0
   -1.5469   -0.2597    0.0000 C   0  0  0  0  0  0  0  0  0
   -0.8324   -0.6722    0.0000 C   0  0  0  0  0  0  0  0  0
    3.4544    1.8028    0.0000 C   0  0  0  0  0  0  0  0  0
    4.1689    2.2153    0.0000 C   0  0  0  0  0  0  0  0  0
    4.1689    3.0403    0.0000 C   0  0  0  0  0  0  0  0  0
    4.8833    3.4528    0.0000 N   0  0  0  0  0  0  0  0  0
    5.5978    3.0403    0.0000 C   0  0  0  0  0  0  0  0  0
    5.5978    2.2153    0.0000 C   0  0  0  0  0  0  0  0  0
    4.8833    1.8028    0.0000 C   0  0  0  0  0  0  0  0  0
    6.3123    3.4528    0.0000 C   0  0  0  0  0  0  0  0  0
    3.4544    3.4528    0.0000 C   0  0  0  0  0  0  0  0  0
    2.7399    3.0403    0.0000 C   0  0  0  0  0  0  0  0  0
    2.7399    2.2153    0.0000 C   0  0  0  0  0  0  0  0  0
  1  2  1  0  0  0  0
  1 19  1  0  0  0  0
  2  3  1  0  0  0  0
  3  4  1  0  0  0  0
  4  5  1  0  0  0  0
  4  9  1  0  0  0  0
  5  6  1  0  0  0  0
  6  7  1  0  0  0  0
  7  8  1  0  0  0  0
  7 10  1  0  0  0  0
  8  9  1  0  0  0  0
 10 11  1  0  0  0  0
 11 12  4  0  0  0  0
 11 18  4  0  0  0  0
 12 13  4  0  0  0  0
 13 14  1  0  0  0  0
 13 15  4  0  0  0  0
 15 16  1  0  0  0  0
 15 17  4  0  0  0  0
 17 18  4  0  0  0  0
 19 20  4  0  0  0  0
 19 29  4  0  0  0  0
 20 21  4  0  0  0  0
 20 25  4  0  0  0  0
 21 22  4  0  0  0  0
 21 27  4  0  0  0  0
 22 23  4  0  0  0  0
 23 24  4  0  0  0  0
 23 26  1  0  0  0  0
 24 25  4  0  0  0  0
 27 28  4  0  0  0  0
 28 29  4  0  0  0  0
M  END
>  <Name_Molregno>
321747

>  <5-HT1A>
5.9

>  <5-HT1B>
6.6

>  <5-HT1D>
8.8

$$$$
321752
  Marvin  02231216192D 0   1.00000     0.00000     0

 29 32  0  0  0  0  0  0  0  0999 V2000
    1.5631   -2.9896    0.0000 Cl  0  0  0  0  0  0  0  0  0
    2.2775   -2.5771    0.0000 C   0  0  0  0  0  0  0  0  0
    2.2775   -1.7521    0.0000 C   0  0  0  0  0  0  0  0  0
    2.9920   -1.3396    0.0000 C   0  0  0  0  0  0  0  0  0
    3.7065   -1.7521    0.0000 C   0  0  0  0  0  0  0  0  0
    3.7065   -2.5771    0.0000 C   0  0  0  0  0  0  0  0  0
    2.9920   -2.9896    0.0000 C   0  0  0  0  0  0  0  0  0
    2.9920   -3.8146    0.0000 Cl  0  0  0  0  0  0  0  0  0
    2.9920   -0.5146    0.0000 C   0  0  0  0  0  0  0  0  0
    3.7065   -0.1021    0.0000 N   0  0  0  0  0  0  0  0  0
    3.7065    0.7229    0.0000 C   0  0  0  0  0  0  0  0  0
    4.4209    1.1354    0.0000 C   0  0  0  0  0  0  0  0  0
    5.1354    0.7229    0.0000 N   0  0  0  0  0  0  0  0  0
    5.1354   -0.1021    0.0000 C   0  0  0  0  0  0  0  0  0
    4.4209   -0.5146    0.0000 C   0  0  0  0  0  0  0  0  0
    5.8499    1.1354    0.0000 C   0  0  0  0  0  0  0  0  0
    5.8499    1.9604    0.0000 C   0  0  0  0  0  0  0  0  0
    6.5643    2.3729    0.0000 O   0  0  0  0  0  0  0  0  0
    6.5643    3.1979    0.0000 C   0  0  0  0  0  0  0  0  0
    7.2788    3.6104    0.0000 C   0  0  0  0  0  0  0  0  0
    7.2788    4.4354    0.0000 C   0  0  0  0  0  0  0  0  0
    7.9933    4.8479    0.0000 N   0  0  0  0  0  0  0  0  0
    8.7078    4.4354    0.0000 C   0  0  0  0  0  0  0  0  0
    8.7078    3.6104    0.0000 C   0  0  0  0  0  0  0  0  0
    7.9933    3.1979    0.0000 C   0  0  0  0  0  0  0  0  0
    9.4222    4.8479    0.0000 C   0  0  0  0  0  0  0  0  0
    6.5643    4.8479    0.0000 C   0  0  0  0  0  0  0  0  0
    5.8499    4.4354    0.0000 C   0  0  0  0  0  0  0  0  0
    5.8499    3.6104    0.0000 C   0  0  0  0  0  0  0  0  0
  1  2  1  0  0  0  0
  2  3  4  0  0  0  0
  2  7  4  0  0  0  0
  3  4  4  0  0  0  0
  4  5  4  0  0  0  0
  4  9  1  0  0  0  0
  5  6  4  0  0  0  0
  6  7  4  0  0  0  0
  7  8  1  0  0  0  0
  9 10  1  0  0  0  0
 10 11  1  0  0  0  0
 10 15  1  0  0  0  0
 11 12  1  0  0  0  0
 12 13  1  0  0  0  0
 13 14  1  0  0  0  0
 13 16  1  0  0  0  0
 14 15  1  0  0  0  0
 16 17  1  0  0  0  0
 17 18  1  0  0  0  0
 18 19  1  0  0  0  0
 19 20  4  0  0  0  0
 19 29  4  0  0  0  0
 20 21  4  0  0  0  0
 20 25  4  0  0  0  0
 21 22  4  0  0  0  0
 21 27  4  0  0  0  0
 22 23  4  0  0  0  0
 23 24  4  0  0  0  0
 23 26  1  0  0  0  0
 24 25  4  0  0  0  0
 27 28  4  0  0  0  0
 28 29  4  0  0  0  0
M  END
>  <Name_Molregno>
321752

>  <5-HT1A>
5

>  <5-HT1B>
5.7

>  <5-HT1D>
5.6

$$$$
321756
  Marvin  02231216192D 0   1.00000     0.00000     0

 31 35  0  0  0  0  0  0  0  0999 V2000
    3.8098    0.0042    0.0000 O   0  0  0  0  0  0  0  0  0
    3.0953   -0.4083    0.0000 C   0  0  0  0  0  0  0  0  0
    3.0953   -1.2333    0.0000 C   0  0  0  0  0  0  0  0  0
    2.3809   -1.6458    0.0000 N   0  0  0  0  0  0  0  0  0
    2.3809   -2.4708    0.0000 C   0  0  0  0  0  0  0  0  0
    1.6664   -2.8833    0.0000 C   0  0  0  0  0  0  0  0  0
    0.9519   -2.4708    0.0000 N   0  0  0  0  0  0  0  0  0
    0.9519   -1.6458    0.0000 C   0  0  0  0  0  0  0  0  0
    1.6664   -1.2333    0.0000 C   0  0  0  0  0  0  0  0  0
    0.2375   -2.8833    0.0000 C   0  0  0  0  0  0  0  0  0
   -0.4770   -2.4708    0.0000 C   0  0  0  0  0  0  0  0  0
   -0.4770   -1.6458    0.0000 C   0  0  0  0  0  0  0  0  0
   -1.1915   -1.2333    0.0000 C   0  0  0  0  0  0  0  0  0
   -1.1915   -0.4083    0.0000 N   0  0  0  0  0  0  0  0  0
   -0.4770    0.0042    0.0000 C   0  0  0  0  0  0  0  0  0
    0.2375   -0.4083    0.0000 C   0  0  0  0  0  0  0  0  0
    0.2375   -1.2333    0.0000 C   0  0  0  0  0  0  0  0  0
   -1.9059   -1.6458    0.0000 C   0  0  0  0  0  0  0  0  0
   -1.9059   -2.4708    0.0000 C   0  0  0  0  0  0  0  0  0
   -1.1915   -2.8833    0.0000 C   0  0  0  0  0  0  0  0  0
    3.8098    0.8292    0.0000 C   0  0  0  0  0  0  0  0  0
    4.5243    1.2417    0.0000 C   0  0  0  0  0  0  0  0  0
    4.5243    2.0667    0.0000 C   0  0  0  0  0  0  0  0  0
    5.2388    2.4792    0.0000 N   0  0  0  0  0  0  0  0  0
    5.9532    2.0667    0.0000 C   0  0  0  0  0  0  0  0  0
    5.9532    1.2417    0.0000 C   0  0  0  0  0  0  0  0  0
    5.2388    0.8292    0.0000 C   0  0  0  0  0  0  0  0  0
    6.6677    2.4792    0.0000 C   0  0  0  0  0  0  0  0  0
    3.8098    2.4792    0.0000 C   0  0  0  0  0  0  0  0  0
    3.0953    2.0667    0.0000 C   0  0  0  0  0  0  0  0  0
    3.0953    1.2417    0.0000 C   0  0  0  0  0  0  0  0  0
  1  2  1  0  0  0  0
  1 21  1  0  0  0  0
  2  3  1  0  0  0  0
  3  4  1  0  0  0  0
  4  5  1  0  0  0  0
  4  9  1  0  0  0  0
  5  6  1  0  0  0  0
  6  7  1  0  0  0  0
  7  8  1  0  0  0  0
  7 10  1  0  0  0  0
  8  9  1  0  0  0  0
 10 11  1  0  0  0  0
 11 12  4  0  0  0  0
 11 20  4  0  0  0  0
 12 13  4  0  0  0  0
 12 17  4  0  0  0  0
 13 14  4  0  0  0  0
 13 18  4  0  0  0  0
 14 15  4  0  0  0  0
 15 16  4  0  0  0  0
 16 17  4  0  0  0  0
 18 19  4  0  0  0  0
 19 20  4  0  0  0  0
 21 22  4  0  0  0  0
 21 31  4  0  0  0  0
 22 23  4  0  0  0  0
 22 27  4  0  0  0  0
 23 24  4  0  0  0  0
 23 29  4  0  0  0  0
 24 25  4  0  0  0  0
 25 26  4  0  0  0  0
 25 28  1  0  0  0  0
 26 27  4  0  0  0  0
 29 30  4  0  0  0  0
 30 31  4  0  0  0  0
M  END
>  <Name_Molregno>
321756

>  <5-HT1A>
6.4

>  <5-HT1B>
6.6

>  <5-HT1D>
8.6

$$$$
321822
  Marvin  02231216192D 0   1.00000     0.00000     0

 35 39  0  0  1  0  0  0  0  0999 V2000
   -2.1314    1.4146    0.0000 Cl  0  0  0  0  0  0  0  0  0
   -2.1314    0.5896    0.0000 C   0  0  0  0  0  0  0  0  0
   -1.4169    0.1771    0.0000 C   0  0  0  0  0  0  0  0  0
   -1.4169   -0.6479    0.0000 C   0  0  0  0  0  0  0  0  0
   -2.1314   -1.0604    0.0000 C   0  0  0  0  0  0  0  0  0
   -2.8458   -0.6479    0.0000 C   0  0  0  0  0  0  0  0  0
   -2.8458    0.1771    0.0000 C   0  0  0  0  0  0  0  0  0
   -2.1314   -1.8854    0.0000 C   0  0  0  0  0  0  0  0  0
   -2.8458   -2.2979    0.0000 O   0  0  0  0  0  0  0  0  0
   -1.4169   -2.2979    0.0000 N   0  0  0  0  0  0  0  0  0
   -1.4169   -3.1229    0.0000 C   0  0  0  0  0  0  0  0  0
   -0.7024   -3.5354    0.0000 C   0  0  0  0  0  0  0  0  0
   -0.7024   -4.3604    0.0000 N   0  0  0  0  0  0  0  0  0
    0.0120   -4.7729    0.0000 C   0  0  0  0  0  0  0  0  0
    0.0120   -5.5979    0.0000 C   0  0  0  0  0  0  0  0  0
   -0.7024   -6.0104    0.0000 N   0  0  0  0  0  0  0  0  0
   -1.4169   -5.5979    0.0000 C   0  0  0  0  0  0  0  0  0
   -1.4169   -4.7729    0.0000 C   0  0  0  0  0  0  0  0  0
   -0.7024   -6.8354    0.0000 C   0  0  0  0  0  0  0  0  0
    0.0120   -7.2479    0.0000 C   0  0  0  0  0  0  0  0  0
    0.7265   -6.8354    0.0000 O   0  0  0  0  0  0  0  0  0
    1.4410   -7.2479    0.0000 C   0  0  0  0  0  0  0  0  0
    1.4410   -8.0729    0.0000 C   0  0  0  0  0  0  0  0  0
    0.7265   -8.4854    0.0000 O   0  0  0  0  0  0  0  0  0
    0.0120   -8.0729    0.0000 C   0  0  0  0  0  0  0  0  0
   -0.7024   -8.4854    0.0000 C   0  0  0  0  0  0  0  0  0
   -1.4169   -8.0729    0.0000 C   0  0  0  0  0  0  0  0  0
   -1.4169   -7.2479    0.0000 C   0  0  0  0  0  0  0  0  0
    0.0120   -3.1229    0.0000 C   0  0  0  0  0  0  0  0  0
   -0.7024   -1.8854    0.0000 C   0  0  0  0  0  0  0  0  0
   -0.7024   -1.0604    0.0000 N   0  0  0  0  0  0  0  0  0
    0.0120   -0.6479    0.0000 C   0  0  0  0  0  0  0  0  0
    0.7265   -1.0604    0.0000 C   0  0  0  0  0  0  0  0  0
    0.7265   -1.8854    0.0000 C   0  0  0  0  0  0  0  0  0
    0.0120   -2.2979    0.0000 C   0  0  0  0  0  0  0  0  0
  1  2  1  0  0  0  0
  2  3  4  0  0  0  0
  2  7  4  0  0  0  0
  3  4  4  0  0  0  0
  4  5  4  0  0  0  0
  5  6  4  0  0  0  0
  5  8  1  0  0  0  0
  6  7  4  0  0  0  0
  8  9  2  0  0  0  0
  8 10  1  0  0  0  0
 10 11  1  0  0  0  0
 10 30  1  0  0  0  0
 11 12  1  0  0  0  0
 12 13  1  0  0  0  0
 12 29  1  0  0  0  0
 13 14  1  0  0  0  0
 13 18  1  0  0  0  0
 14 15  1  0  0  0  0
 15 16  1  0  0  0  0
 16 17  1  0  0  0  0
 16 19  1  0  0  0  0
 17 18  1  0  0  0  0
 19 20  4  0  0  0  0
 19 28  4  0  0  0  0
 20 21  1  0  0  0  0
 20 25  4  0  0  0  0
 21 22  1  0  0  0  0
 22 23  1  0  0  0  0
 23 24  1  0  0  0  0
 24 25  1  0  0  0  0
 25 26  4  0  0  0  0
 26 27  4  0  0  0  0
 27 28  4  0  0  0  0
 30 31  4  0  0  0  0
 30 35  4  0  0  0  0
 31 32  4  0  0  0  0
 32 33  4  0  0  0  0
 33 34  4  0  0  0  0
 34 35  4  0  0  0  0
M  END
>  <Name_Molregno>
321822

>  <5-HT1A>
8.61

$$$$
321848
  Marvin  02231216192D 0   1.00000     0.00000     0

 32 35  0  0  0  0  0  0  0  0999 V2000
    0.5456   -0.0341    0.0000 O   0  0  0  0  0  0  0  0  0
   -0.1689   -0.4466    0.0000 C   0  0  0  0  0  0  0  0  0
    1.2601   -0.4466    0.0000 C   0  0  0  0  0  0  0  0  0
    1.9745   -0.0341    0.0000 C   0  0  0  0  0  0  0  0  0
    2.6890   -0.4466    0.0000 C   0  0  0  0  0  0  0  0  0
    2.6890   -1.2716    0.0000 C   0  0  0  0  0  0  0  0  0
    1.9745   -1.6841    0.0000 C   0  0  0  0  0  0  0  0  0
    1.2601   -1.2716    0.0000 C   0  0  0  0  0  0  0  0  0
    0.5456   -1.6841    0.0000 N   0  3  0  0  0  0  0  0  0
    0.5456   -2.5091    0.0000 O   0  5  0  0  0  0  0  0  0
   -0.1689   -1.2716    0.0000 O   0  5  0  0  0  0  0  0  0
    3.4035   -1.6841    0.0000 C   0  0  0  0  0  0  0  0  0
    4.1179   -1.2716    0.0000 N   0  0  0  0  0  0  0  0  0
    4.1179   -0.4466    0.0000 C   0  0  0  0  0  0  0  0  0
    4.8324   -0.0341    0.0000 C   0  0  0  0  0  0  0  0  0
    5.5469   -0.4466    0.0000 N   0  0  0  0  0  0  0  0  0
    5.5469   -1.2716    0.0000 C   0  0  0  0  0  0  0  0  0
    4.8324   -1.6841    0.0000 C   0  0  0  0  0  0  0  0  0
    6.2613   -0.0341    0.0000 C   0  0  0  0  0  0  0  0  0
    6.2613    0.7909    0.0000 C   0  0  0  0  0  0  0  0  0
    6.9758    1.2034    0.0000 O   0  0  0  0  0  0  0  0  0
    6.9758    2.0284    0.0000 C   0  0  0  0  0  0  0  0  0
    7.6903    2.4409    0.0000 C   0  0  0  0  0  0  0  0  0
    7.6903    3.2659    0.0000 C   0  0  0  0  0  0  0  0  0
    8.4048    3.6784    0.0000 N   0  0  0  0  0  0  0  0  0
    9.1192    3.2659    0.0000 C   0  0  0  0  0  0  0  0  0
    9.1192    2.4409    0.0000 C   0  0  0  0  0  0  0  0  0
    8.4048    2.0284    0.0000 C   0  0  0  0  0  0  0  0  0
    9.8337    3.6784    0.0000 C   0  0  0  0  0  0  0  0  0
    6.9758    3.6784    0.0000 C   0  0  0  0  0  0  0  0  0
    6.2613    3.2659    0.0000 C   0  0  0  0  0  0  0  0  0
    6.2613    2.4409    0.0000 C   0  0  0  0  0  0  0  0  0
  1  2  1  0  0  0  0
  1  3  1  0  0  0  0
  3  4  4  0  0  0  0
  3  8  4  0  0  0  0
  4  5  4  0  0  0  0
  5  6  4  0  0  0  0
  6  7  4  0  0  0  0
  6 12  1  0  0  0  0
  7  8  4  0  0  0  0
  8  9  1  0  0  0  0
  9 10  1  0  0  0  0
  9 11  1  0  0  0  0
 12 13  1  0  0  0  0
 13 14  1  0  0  0  0
 13 18  1  0  0  0  0
 14 15  1  0  0  0  0
 15 16  1  0  0  0  0
 16 17  1  0  0  0  0
 16 19  1  0  0  0  0
 17 18  1  0  0  0  0
 19 20  1  0  0  0  0
 20 21  1  0  0  0  0
 21 22  1  0  0  0  0
 22 23  4  0  0  0  0
 22 32  4  0  0  0  0
 23 24  4  0  0  0  0
 23 28  4  0  0  0  0
 24 25  4  0  0  0  0
 24 30  4  0  0  0  0
 25 26  4  0  0  0  0
 26 27  4  0  0  0  0
 26 29  1  0  0  0  0
 27 28  4  0  0  0  0
 30 31  4  0  0  0  0
 31 32  4  0  0  0  0
M  CHG  3   9   1  10  -1  11  -1
M  END
>  <Name_Molregno>
321848

>  <5-HT1A>
6.4

>  <5-HT1B>
6.5

>  <5-HT1D>
7.7

$$$$
321873
  Marvin  02231216192D 0   1.00000     0.00000     0

 30 34  0  0  0  0  0  0  0  0999 V2000
    3.7428    1.0385    0.0000 O   0  0  0  0  0  0  0  0  0
    3.0283    0.6260    0.0000 C   0  0  0  0  0  0  0  0  0
    3.0283   -0.1990    0.0000 C   0  0  0  0  0  0  0  0  0
    2.3138   -0.6115    0.0000 N   0  0  0  0  0  0  0  0  0
    2.3138   -1.4365    0.0000 C   0  0  0  0  0  0  0  0  0
    1.5994   -1.8490    0.0000 C   0  0  0  0  0  0  0  0  0
    0.8849   -1.4365    0.0000 N   0  0  0  0  0  0  0  0  0
    0.8849   -0.6115    0.0000 C   0  0  0  0  0  0  0  0  0
    1.5994   -0.1990    0.0000 C   0  0  0  0  0  0  0  0  0
    0.1704   -1.8490    0.0000 C   0  0  0  0  0  0  0  0  0
   -0.5440   -1.4365    0.0000 C   0  0  0  0  0  0  0  0  0
   -1.2585   -1.8490    0.0000 C   0  0  0  0  0  0  0  0  0
   -1.4300   -2.6560    0.0000 N   0  0  0  0  0  0  0  0  0
   -2.2505   -2.7422    0.0000 C   0  0  0  0  0  0  0  0  0
   -2.5861   -1.9885    0.0000 C   0  0  0  0  0  0  0  0  0
   -1.9730   -1.4365    0.0000 C   0  0  0  0  0  0  0  0  0
   -1.9730   -0.6115    0.0000 C   0  0  0  0  0  0  0  0  0
   -1.2585   -0.1990    0.0000 C   0  0  0  0  0  0  0  0  0
   -0.5440   -0.6115    0.0000 C   0  0  0  0  0  0  0  0  0
    3.7428    1.8635    0.0000 C   0  0  0  0  0  0  0  0  0
    4.4573    2.2760    0.0000 C   0  0  0  0  0  0  0  0  0
    4.4573    3.1010    0.0000 C   0  0  0  0  0  0  0  0  0
    5.1717    3.5135    0.0000 N   0  0  0  0  0  0  0  0  0
    5.8862    3.1010    0.0000 C   0  0  0  0  0  0  0  0  0
    5.8862    2.2760    0.0000 C   0  0  0  0  0  0  0  0  0
    5.1717    1.8635    0.0000 C   0  0  0  0  0  0  0  0  0
    6.6007    3.5135    0.0000 C   0  0  0  0  0  0  0  0  0
    3.7428    3.5135    0.0000 C   0  0  0  0  0  0  0  0  0
    3.0283    3.1010    0.0000 C   0  0  0  0  0  0  0  0  0
    3.0283    2.2760    0.0000 C   0  0  0  0  0  0  0  0  0
  1  2  1  0  0  0  0
  1 20  1  0  0  0  0
  2  3  1  0  0  0  0
  3  4  1  0  0  0  0
  4  5  1  0  0  0  0
  4  9  1  0  0  0  0
  5  6  1  0  0  0  0
  6  7  1  0  0  0  0
  7  8  1  0  0  0  0
  7 10  1  0  0  0  0
  8  9  1  0  0  0  0
 10 11  1  0  0  0  0
 11 12  4  0  0  0  0
 11 19  4  0  0  0  0
 12 13  4  0  0  0  0
 12 16  4  0  0  0  0
 13 14  4  0  0  0  0
 14 15  4  0  0  0  0
 15 16  4  0  0  0  0
 16 17  4  0  0  0  0
 17 18  4  0  0  0  0
 18 19  4  0  0  0  0
 20 21  4  0  0  0  0
 20 30  4  0  0  0  0
 21 22  4  0  0  0  0
 21 26  4  0  0  0  0
 22 23  4  0  0  0  0
 22 28  4  0  0  0  0
 23 24  4  0  0  0  0
 24 25  4  0  0  0  0
 24 27  1  0  0  0  0
 25 26  4  0  0  0  0
 28 29  4  0  0  0  0
 29 30  4  0  0  0  0
M  STY  1   1 DAT
M  SAL   1  1  13
M  SDT   1 MRV_IMPLICIT_H                                        
M  SDD   1     0.0000    0.0000    DR    ALL  0       0  
M  SED   1 IMPL_H1
M  END
>  <Name_Molregno>
321873

>  <5-HT1A>
6.4

>  <5-HT1B>
6.4

>  <5-HT1D>
8.5

$$$$
321894
  Marvin  02231216192D 0   1.00000     0.00000     0

 38 42  0  0  1  0  0  0  0  0999 V2000
   -0.9463    1.4241    0.0000 F   0  0  0  0  0  0  0  0  0
   -0.9463    0.5991    0.0000 C   0  0  0  0  0  0  0  0  0
   -1.7713    0.5991    0.0000 F   0  0  0  0  0  0  0  0  0
   -0.1213    0.5991    0.0000 F   0  0  0  0  0  0  0  0  0
   -0.9463   -0.2259    0.0000 C   0  0  0  0  0  0  0  0  0
   -0.2318   -0.6384    0.0000 C   0  0  0  0  0  0  0  0  0
   -0.2318   -1.4634    0.0000 C   0  0  0  0  0  0  0  0  0
   -0.9463   -1.8759    0.0000 C   0  0  0  0  0  0  0  0  0
   -1.6608   -1.4634    0.0000 C   0  0  0  0  0  0  0  0  0
   -1.6608   -0.6384    0.0000 C   0  0  0  0  0  0  0  0  0
   -0.9463   -2.7009    0.0000 C   0  0  0  0  0  0  0  0  0
   -1.6608   -3.1134    0.0000 O   0  0  0  0  0  0  0  0  0
   -0.2318   -3.1134    0.0000 N   0  0  0  0  0  0  0  0  0
   -0.2318   -3.9384    0.0000 C   0  0  0  0  0  0  0  0  0
    0.4827   -4.3509    0.0000 C   0  0  0  0  0  0  0  0  0
    0.4827   -5.1759    0.0000 N   0  0  0  0  0  0  0  0  0
    1.1971   -5.5884    0.0000 C   0  0  0  0  0  0  0  0  0
    1.1971   -6.4134    0.0000 C   0  0  0  0  0  0  0  0  0
    0.4827   -6.8259    0.0000 N   0  0  0  0  0  0  0  0  0
   -0.2318   -6.4134    0.0000 C   0  0  0  0  0  0  0  0  0
   -0.2318   -5.5884    0.0000 C   0  0  0  0  0  0  0  0  0
    0.4827   -7.6509    0.0000 C   0  0  0  0  0  0  0  0  0
    1.1971   -8.0634    0.0000 C   0  0  0  0  0  0  0  0  0
    1.9116   -7.6509    0.0000 O   0  0  0  0  0  0  0  0  0
    2.6261   -8.0634    0.0000 C   0  0  0  0  0  0  0  0  0
    2.6261   -8.8884    0.0000 C   0  0  0  0  0  0  0  0  0
    1.9116   -9.3009    0.0000 O   0  0  0  0  0  0  0  0  0
    1.1971   -8.8884    0.0000 C   0  0  0  0  0  0  0  0  0
    0.4827   -9.3009    0.0000 C   0  0  0  0  0  0  0  0  0
   -0.2318   -8.8884    0.0000 C   0  0  0  0  0  0  0  0  0
   -0.2318   -8.0634    0.0000 C   0  0  0  0  0  0  0  0  0
    1.1971   -3.9384    0.0000 C   0  0  0  0  0  0  0  0  0
    0.4827   -2.7009    0.0000 C   0  0  0  0  0  0  0  0  0
    0.4827   -1.8759    0.0000 N   0  0  0  0  0  0  0  0  0
    1.1971   -1.4634    0.0000 C   0  0  0  0  0  0  0  0  0
    1.9116   -1.8759    0.0000 C   0  0  0  0  0  0  0  0  0
    1.9116   -2.7009    0.0000 C   0  0  0  0  0  0  0  0  0
    1.1971   -3.1134    0.0000 C   0  0  0  0  0  0  0  0  0
  1  2  1  0  0  0  0
  2  3  1  0  0  0  0
  2  4  1  0  0  0  0
  2  5  1  0  0  0  0
  5  6  4  0  0  0  0
  5 10  4  0  0  0  0
  6  7  4  0  0  0  0
  7  8  4  0  0  0  0
  8  9  4  0  0  0  0
  8 11  1  0  0  0  0
  9 10  4  0  0  0  0
 11 12  2  0  0  0  0
 11 13  1  0  0  0  0
 13 14  1  0  0  0  0
 13 33  1  0  0  0  0
 14 15  1  0  0  0  0
 15 16  1  0  0  0  0
 15 32  1  0  0  0  0
 16 17  1  0  0  0  0
 16 21  1  0  0  0  0
 17 18  1  0  0  0  0
 18 19  1  0  0  0  0
 19 20  1  0  0  0  0
 19 22  1  0  0  0  0
 20 21  1  0  0  0  0
 22 23  4  0  0  0  0
 22 31  4  0  0  0  0
 23 24  1  0  0  0  0
 23 28  4  0  0  0  0
 24 25  1  0  0  0  0
 25 26  1  0  0  0  0
 26 27  1  0  0  0  0
 27 28  1  0  0  0  0
 28 29  4  0  0  0  0
 29 30  4  0  0  0  0
 30 31  4  0  0  0  0
 33 34  4  0  0  0  0
 33 38  4  0  0  0  0
 34 35  4  0  0  0  0
 35 36  4  0  0  0  0
 36 37  4  0  0  0  0
 37 38  4  0  0  0  0
M  END
>  <Name_Molregno>
321894

>  <5-HT1A>
8.4

$$$$
321920
  Marvin  02231216192D 0   1.00000     0.00000     0

 30 34  0  0  1  0  0  0  0  0999 V2000
    3.7422   -0.1072    0.0000 O   0  0  0  0  0  0  0  0  0
    3.0277   -0.5197    0.0000 C   0  0  0  0  0  0  0  0  0
    3.0277   -1.3447    0.0000 C   0  0  0  0  0  0  0  0  0
    2.3133   -1.7572    0.0000 N   0  0  0  0  0  0  0  0  0
    2.3133   -2.5822    0.0000 C   0  0  0  0  0  0  0  0  0
    1.5988   -2.9947    0.0000 C   0  0  0  0  0  0  0  0  0
    0.8843   -2.5822    0.0000 N   0  0  0  0  0  0  0  0  0
    0.8843   -1.7572    0.0000 C   0  0  0  0  0  0  0  0  0
    1.5988   -1.3447    0.0000 C   0  0  0  0  0  0  0  0  0
    0.1699   -2.9947    0.0000 C   0  0  0  0  0  0  0  0  0
   -0.5446   -2.5822    0.0000 C   0  0  0  0  0  0  0  0  0
   -1.2591   -2.9947    0.0000 C   0  0  0  0  0  0  0  0  0
   -1.9735   -2.5822    0.0000 C   0  0  0  0  0  0  0  0  0
   -1.9735   -1.7572    0.0000 C   0  0  0  0  0  0  0  0  0
   -2.5866   -1.2051    0.0000 N   0  0  0  0  0  0  0  0  0
   -2.2511   -0.4515    0.0000 C   0  0  0  0  0  0  0  0  0
   -1.4306   -0.5377    0.0000 C   0  0  0  0  0  0  0  0  0
   -1.2591   -1.3447    0.0000 C   0  0  0  0  0  0  0  0  0
   -0.5446   -1.7572    0.0000 C   0  0  0  0  0  0  0  0  0
    3.7422    0.7178    0.0000 C   0  0  0  0  0  0  0  0  0
    4.4567    1.1303    0.0000 C   0  0  0  0  0  0  0  0  0
    4.4567    1.9553    0.0000 C   0  0  0  0  0  0  0  0  0
    5.1712    2.3678    0.0000 N   0  0  0  0  0  0  0  0  0
    5.8856    1.9553    0.0000 C   0  0  0  0  0  0  0  0  0
    5.8856    1.1303    0.0000 C   0  0  0  0  0  0  0  0  0
    5.1712    0.7178    0.0000 C   0  0  0  0  0  0  0  0  0
    6.6001    2.3678    0.0000 C   0  0  0  0  0  0  0  0  0
    3.7422    2.3678    0.0000 C   0  0  0  0  0  0  0  0  0
    3.0277    1.9553    0.0000 C   0  0  0  0  0  0  0  0  0
    3.0277    1.1303    0.0000 C   0  0  0  0  0  0  0  0  0
  1  2  1  0  0  0  0
  1 20  1  0  0  0  0
  2  3  1  0  0  0  0
  3  4  1  0  0  0  0
  4  5  1  0  0  0  0
  4  9  1  0  0  0  0
  5  6  1  0  0  0  0
  6  7  1  0  0  0  0
  7  8  1  0  0  0  0
  7 10  1  0  0  0  0
  8  9  1  0  0  0  0
 10 11  1  0  0  0  0
 11 12  1  0  0  0  0
 11 19  2  0  0  0  0
 12 13  2  0  0  0  0
 13 14  1  0  0  0  0
 14 15  1  0  0  0  0
 14 18  1  0  0  0  0
 15 16  1  0  0  0  0
 16 17  2  0  0  0  0
 17 18  1  0  0  0  0
 18 19  1  0  0  0  0
 20 21  4  0  0  0  0
 20 30  4  0  0  0  0
 21 22  4  0  0  0  0
 21 26  4  0  0  0  0
 22 23  4  0  0  0  0
 22 28  4  0  0  0  0
 23 24  4  0  0  0  0
 24 25  4  0  0  0  0
 24 27  1  0  0  0  0
 25 26  4  0  0  0  0
 28 29  4  0  0  0  0
 29 30  4  0  0  0  0
M  END
>  <Name_Molregno>
321920

>  <5-HT1A>
6

>  <5-HT1B>
6.8

>  <5-HT1D>
8.5

$$$$
321927
  Marvin  02231216192D 0   1.00000     0.00000     0

 32 36  0  0  0  0  0  0  0  0999 V2000
    0.7182   -1.6466    0.0000 O   0  0  0  0  0  0  0  0  0
    1.4327   -1.2341    0.0000 N   0  0  0  0  0  0  0  0  0
    2.1472   -1.6466    0.0000 C   0  0  0  0  0  0  0  0  0
    2.1472   -2.4716    0.0000 C   0  0  0  0  0  0  0  0  0
    1.4327   -2.8841    0.0000 C   0  0  0  0  0  0  0  0  0
    1.4327   -3.7091    0.0000 C   0  0  0  0  0  0  0  0  0
    0.7182   -4.1216    0.0000 C   0  0  0  0  0  0  0  0  0
    0.7182   -4.9466    0.0000 O   0  0  0  0  0  0  0  0  0
    0.0038   -3.7091    0.0000 C   0  0  0  0  0  0  0  0  0
    0.0038   -2.8841    0.0000 C   0  0  0  0  0  0  0  0  0
    0.7182   -2.4716    0.0000 C   0  0  0  0  0  0  0  0  0
    1.4327   -0.4091    0.0000 C   0  0  0  0  0  0  0  0  0
    2.1472    0.0034    0.0000 N   0  0  0  0  0  0  0  0  0
    2.1472    0.8284    0.0000 C   0  0  0  0  0  0  0  0  0
    2.8616    1.2409    0.0000 C   0  0  0  0  0  0  0  0  0
    3.5761    0.8284    0.0000 N   0  0  0  0  0  0  0  0  0
    3.5761    0.0034    0.0000 C   0  0  0  0  0  0  0  0  0
    2.8616   -0.4091    0.0000 C   0  0  0  0  0  0  0  0  0
    4.2906    1.2409    0.0000 C   0  0  0  0  0  0  0  0  0
    4.2906    2.0659    0.0000 C   0  0  0  0  0  0  0  0  0
    5.0051    2.4784    0.0000 O   0  0  0  0  0  0  0  0  0
    5.0051    3.3034    0.0000 C   0  0  0  0  0  0  0  0  0
    5.7195    3.7159    0.0000 C   0  0  0  0  0  0  0  0  0
    5.7195    4.5409    0.0000 C   0  0  0  0  0  0  0  0  0
    6.4340    4.9534    0.0000 N   0  0  0  0  0  0  0  0  0
    7.1485    4.5409    0.0000 C   0  0  0  0  0  0  0  0  0
    7.1485    3.7159    0.0000 C   0  0  0  0  0  0  0  0  0
    6.4340    3.3034    0.0000 C   0  0  0  0  0  0  0  0  0
    7.8629    4.9534    0.0000 C   0  0  0  0  0  0  0  0  0
    5.0051    4.9534    0.0000 C   0  0  0  0  0  0  0  0  0
    4.2906    4.5409    0.0000 C   0  0  0  0  0  0  0  0  0
    4.2906    3.7159    0.0000 C   0  0  0  0  0  0  0  0  0
  1  2  1  0  0  0  0
  1 11  1  0  0  0  0
  2  3  1  0  0  0  0
  2 12  1  0  0  0  0
  3  4  2  0  0  0  0
  4  5  1  0  0  0  0
  5  6  2  0  0  0  0
  5 11  1  0  0  0  0
  6  7  1  0  0  0  0
  7  8  2  0  0  0  0
  7  9  1  0  0  0  0
  9 10  1  0  0  0  0
 10 11  2  0  0  0  0
 12 13  1  0  0  0  0
 13 14  1  0  0  0  0
 13 18  1  0  0  0  0
 14 15  1  0  0  0  0
 15 16  1  0  0  0  0
 16 17  1  0  0  0  0
 16 19  1  0  0  0  0
 17 18  1  0  0  0  0
 19 20  1  0  0  0  0
 20 21  1  0  0  0  0
 21 22  1  0  0  0  0
 22 23  4  0  0  0  0
 22 32  4  0  0  0  0
 23 24  4  0  0  0  0
 23 28  4  0  0  0  0
 24 25  4  0  0  0  0
 24 30  4  0  0  0  0
 25 26  4  0  0  0  0
 26 27  4  0  0  0  0
 26 29  1  0  0  0  0
 27 28  4  0  0  0  0
 30 31  4  0  0  0  0
 31 32  4  0  0  0  0
M  END
>  <Name_Molregno>
321927

>  <5-HT1A>
7.2

>  <5-HT1B>
7

>  <5-HT1D>
8

$$$$
321947
  Marvin  02231216192D 0   1.00000     0.00000     0

 31 34  0  0  0  0  0  0  0  0999 V2000
    4.1410    1.2305    0.0000 O   0  0  0  0  0  0  0  0  0
    3.4265    0.8180    0.0000 C   0  0  0  0  0  0  0  0  0
    3.4265   -0.0070    0.0000 C   0  0  0  0  0  0  0  0  0
    2.7120   -0.4195    0.0000 N   0  0  0  0  0  0  0  0  0
    2.7120   -1.2445    0.0000 C   0  0  0  0  0  0  0  0  0
    1.9976   -1.6570    0.0000 C   0  0  0  0  0  0  0  0  0
    1.2831   -1.2445    0.0000 N   0  0  0  0  0  0  0  0  0
    1.2831   -0.4195    0.0000 C   0  0  0  0  0  0  0  0  0
    1.9976   -0.0070    0.0000 C   0  0  0  0  0  0  0  0  0
    0.5686   -1.6570    0.0000 C   0  0  0  0  0  0  0  0  0
   -0.1459   -1.2445    0.0000 C   0  0  0  0  0  0  0  0  0
   -0.8603   -1.6570    0.0000 C   0  0  0  0  0  0  0  0  0
   -1.5748   -1.2445    0.0000 C   0  0  0  0  0  0  0  0  0
   -2.2893   -1.6570    0.0000 N   0  3  0  0  0  0  0  0  0
   -3.0037   -1.2445    0.0000 O   0  5  0  0  0  0  0  0  0
   -2.2893   -2.4820    0.0000 O   0  5  0  0  0  0  0  0  0
   -1.5748   -0.4195    0.0000 C   0  0  0  0  0  0  0  0  0
   -0.8603   -0.0070    0.0000 C   0  0  0  0  0  0  0  0  0
   -0.1459   -0.4195    0.0000 C   0  0  0  0  0  0  0  0  0
   -2.2893   -0.0070    0.0000 C   0  0  0  0  0  0  0  0  0
    4.1410    2.0555    0.0000 C   0  0  0  0  0  0  0  0  0
    4.8554    2.4680    0.0000 C   0  0  0  0  0  0  0  0  0
    4.8554    3.2930    0.0000 C   0  0  0  0  0  0  0  0  0
    5.5699    3.7055    0.0000 N   0  0  0  0  0  0  0  0  0
    6.2844    3.2930    0.0000 C   0  0  0  0  0  0  0  0  0
    6.2844    2.4680    0.0000 C   0  0  0  0  0  0  0  0  0
    5.5699    2.0555    0.0000 C   0  0  0  0  0  0  0  0  0
    6.9989    3.7055    0.0000 C   0  0  0  0  0  0  0  0  0
    4.1410    3.7055    0.0000 C   0  0  0  0  0  0  0  0  0
    3.4265    3.2930    0.0000 C   0  0  0  0  0  0  0  0  0
    3.4265    2.4680    0.0000 C   0  0  0  0  0  0  0  0  0
  1  2  1  0  0  0  0
  1 21  1  0  0  0  0
  2  3  1  0  0  0  0
  3  4  1  0  0  0  0
  4  5  1  0  0  0  0
  4  9  1  0  0  0  0
  5  6  1  0  0  0  0
  6  7  1  0  0  0  0
  7  8  1  0  0  0  0
  7 10  1  0  0  0  0
  8  9  1  0  0  0  0
 10 11  1  0  0  0  0
 11 12  4  0  0  0  0
 11 19  4  0  0  0  0
 12 13  4  0  0  0  0
 13 14  1  0  0  0  0
 13 17  4  0  0  0  0
 14 15  1  0  0  0  0
 14 16  1  0  0  0  0
 17 18  4  0  0  0  0
 17 20  1  0  0  0  0
 18 19  4  0  0  0  0
 21 22  4  0  0  0  0
 21 31  4  0  0  0  0
 22 23  4  0  0  0  0
 22 27  4  0  0  0  0
 23 24  4  0  0  0  0
 23 29  4  0  0  0  0
 24 25  4  0  0  0  0
 25 26  4  0  0  0  0
 25 28  1  0  0  0  0
 26 27  4  0  0  0  0
 29 30  4  0  0  0  0
 30 31  4  0  0  0  0
M  CHG  3  14   1  15  -1  16  -1
M  END
>  <Name_Molregno>
321947

>  <5-HT1A>
7.4

>  <5-HT1B>
7.1

>  <5-HT1D>
8.7

$$$$
321977
  Marvin  02231216192D 0   1.00000     0.00000     0

 31 34  0  0  0  0  0  0  0  0999 V2000
    4.1410    1.2305    0.0000 O   0  0  0  0  0  0  0  0  0
    3.4265    0.8180    0.0000 C   0  0  0  0  0  0  0  0  0
    3.4265   -0.0070    0.0000 C   0  0  0  0  0  0  0  0  0
    2.7120   -0.4195    0.0000 N   0  0  0  0  0  0  0  0  0
    2.7120   -1.2445    0.0000 C   0  0  0  0  0  0  0  0  0
    1.9976   -1.6570    0.0000 C   0  0  0  0  0  0  0  0  0
    1.2831   -1.2445    0.0000 N   0  0  0  0  0  0  0  0  0
    1.2831   -0.4195    0.0000 C   0  0  0  0  0  0  0  0  0
    1.9976   -0.0070    0.0000 C   0  0  0  0  0  0  0  0  0
    0.5686   -1.6570    0.0000 C   0  0  0  0  0  0  0  0  0
   -0.1459   -1.2445    0.0000 C   0  0  0  0  0  0  0  0  0
   -0.8603   -1.6570    0.0000 C   0  0  0  0  0  0  0  0  0
   -1.5748   -1.2445    0.0000 C   0  0  0  0  0  0  0  0  0
   -2.2893   -1.6570    0.0000 N   0  3  0  0  0  0  0  0  0
   -3.0037   -1.2445    0.0000 O   0  5  0  0  0  0  0  0  0
   -2.2893   -2.4820    0.0000 O   0  5  0  0  0  0  0  0  0
   -1.5748   -0.4195    0.0000 C   0  0  0  0  0  0  0  0  0
   -2.2893   -0.0070    0.0000 O   0  0  0  0  0  0  0  0  0
   -0.8603   -0.0070    0.0000 C   0  0  0  0  0  0  0  0  0
   -0.1459   -0.4195    0.0000 C   0  0  0  0  0  0  0  0  0
    4.1410    2.0555    0.0000 C   0  0  0  0  0  0  0  0  0
    4.8554    2.4680    0.0000 C   0  0  0  0  0  0  0  0  0
    4.8554    3.2930    0.0000 C   0  0  0  0  0  0  0  0  0
    5.5699    3.7055    0.0000 N   0  0  0  0  0  0  0  0  0
    6.2844    3.2930    0.0000 C   0  0  0  0  0  0  0  0  0
    6.2844    2.4680    0.0000 C   0  0  0  0  0  0  0  0  0
    5.5699    2.0555    0.0000 C   0  0  0  0  0  0  0  0  0
    6.9989    3.7055    0.0000 C   0  0  0  0  0  0  0  0  0
    4.1410    3.7055    0.0000 C   0  0  0  0  0  0  0  0  0
    3.4265    3.2930    0.0000 C   0  0  0  0  0  0  0  0  0
    3.4265    2.4680    0.0000 C   0  0  0  0  0  0  0  0  0
  1  2  1  0  0  0  0
  1 21  1  0  0  0  0
  2  3  1  0  0  0  0
  3  4  1  0  0  0  0
  4  5  1  0  0  0  0
  4  9  1  0  0  0  0
  5  6  1  0  0  0  0
  6  7  1  0  0  0  0
  7  8  1  0  0  0  0
  7 10  1  0  0  0  0
  8  9  1  0  0  0  0
 10 11  1  0  0  0  0
 11 12  4  0  0  0  0
 11 20  4  0  0  0  0
 12 13  4  0  0  0  0
 13 14  1  0  0  0  0
 13 17  4  0  0  0  0
 14 15  1  0  0  0  0
 14 16  1  0  0  0  0
 17 18  1  0  0  0  0
 17 19  4  0  0  0  0
 19 20  4  0  0  0  0
 21 22  4  0  0  0  0
 21 31  4  0  0  0  0
 22 23  4  0  0  0  0
 22 27  4  0  0  0  0
 23 24  4  0  0  0  0
 23 29  4  0  0  0  0
 24 25  4  0  0  0  0
 25 26  4  0  0  0  0
 25 28  1  0  0  0  0
 26 27  4  0  0  0  0
 29 30  4  0  0  0  0
 30 31  4  0  0  0  0
M  CHG  3  14   1  15  -1  16  -1
M  END
>  <Name_Molregno>
321977

>  <5-HT1A>
6.1

>  <5-HT1B>
6.4

>  <5-HT1D>
8

$$$$
321985
  Marvin  02231216192D 0   1.00000     0.00000     0

 31 35  0  0  0  0  0  0  0  0999 V2000
    4.0403    1.1934    0.0000 O   0  0  0  0  0  0  0  0  0
    3.3258    0.7809    0.0000 C   0  0  0  0  0  0  0  0  0
    3.3258   -0.0441    0.0000 C   0  0  0  0  0  0  0  0  0
    2.6114   -0.4566    0.0000 N   0  0  0  0  0  0  0  0  0
    2.6114   -1.2816    0.0000 C   0  0  0  0  0  0  0  0  0
    1.8969   -1.6941    0.0000 C   0  0  0  0  0  0  0  0  0
    1.1824   -1.2816    0.0000 N   0  0  0  0  0  0  0  0  0
    1.1824   -0.4566    0.0000 C   0  0  0  0  0  0  0  0  0
    1.8969   -0.0441    0.0000 C   0  0  0  0  0  0  0  0  0
    0.4679   -1.6941    0.0000 C   0  0  0  0  0  0  0  0  0
   -0.2465   -1.2816    0.0000 C   0  0  0  0  0  0  0  0  0
   -0.9610   -1.6941    0.0000 C   0  0  0  0  0  0  0  0  0
   -0.9610   -2.5191    0.0000 N   0  0  0  0  0  0  0  0  0
   -1.6755   -2.9316    0.0000 C   0  0  0  0  0  0  0  0  0
   -2.3899   -2.5191    0.0000 C   0  0  0  0  0  0  0  0  0
   -2.3899   -1.6941    0.0000 C   0  0  0  0  0  0  0  0  0
   -1.6755   -1.2816    0.0000 C   0  0  0  0  0  0  0  0  0
   -1.6755   -0.4566    0.0000 C   0  0  0  0  0  0  0  0  0
   -0.9610   -0.0441    0.0000 C   0  0  0  0  0  0  0  0  0
   -0.2465   -0.4566    0.0000 C   0  0  0  0  0  0  0  0  0
    4.0403    2.0184    0.0000 C   0  0  0  0  0  0  0  0  0
    4.7548    2.4309    0.0000 C   0  0  0  0  0  0  0  0  0
    4.7548    3.2559    0.0000 C   0  0  0  0  0  0  0  0  0
    5.4692    3.6684    0.0000 N   0  0  0  0  0  0  0  0  0
    6.1837    3.2559    0.0000 C   0  0  0  0  0  0  0  0  0
    6.1837    2.4309    0.0000 C   0  0  0  0  0  0  0  0  0
    5.4692    2.0184    0.0000 C   0  0  0  0  0  0  0  0  0
    6.8982    3.6684    0.0000 C   0  0  0  0  0  0  0  0  0
    4.0403    3.6684    0.0000 C   0  0  0  0  0  0  0  0  0
    3.3258    3.2559    0.0000 C   0  0  0  0  0  0  0  0  0
    3.3258    2.4309    0.0000 C   0  0  0  0  0  0  0  0  0
  1  2  1  0  0  0  0
  1 21  1  0  0  0  0
  2  3  1  0  0  0  0
  3  4  1  0  0  0  0
  4  5  1  0  0  0  0
  4  9  1  0  0  0  0
  5  6  1  0  0  0  0
  6  7  1  0  0  0  0
  7  8  1  0  0  0  0
  7 10  1  0  0  0  0
  8  9  1  0  0  0  0
 10 11  1  0  0  0  0
 11 12  4  0  0  0  0
 11 20  4  0  0  0  0
 12 13  4  0  0  0  0
 12 17  4  0  0  0  0
 13 14  4  0  0  0  0
 14 15  4  0  0  0  0
 15 16  4  0  0  0  0
 16 17  4  0  0  0  0
 17 18  4  0  0  0  0
 18 19  4  0  0  0  0
 19 20  4  0  0  0  0
 21 22  4  0  0  0  0
 21 31  4  0  0  0  0
 22 23  4  0  0  0  0
 22 27  4  0  0  0  0
 23 24  4  0  0  0  0
 23 29  4  0  0  0  0
 24 25  4  0  0  0  0
 25 26  4  0  0  0  0
 25 28  1  0  0  0  0
 26 27  4  0  0  0  0
 29 30  4  0  0  0  0
 30 31  4  0  0  0  0
M  END
>  <Name_Molregno>
321985

>  <5-HT1A>
6.5

>  <5-HT1B>
6.7

>  <5-HT1D>
9.1

>  <5-HT1E>
5

>  <5-HT2A>
5.6

>  <5-HT2C>
5.5

>  <5-HT5>
5.5

>  <5-HT6>
5

>  <5-HT7>
6.3

>  <Alpha-1B>
6

>  <Beta-2>
5.7

>  <DOPAMINE D2>
5.5

>  <DOPAMINE D3>
6

>  <DOPAMINE D4>
5

$$$$
322070
  Marvin  02231216192D 0   1.00000     0.00000     0

 29 32  0  0  0  0  0  0  0  0999 V2000
    3.5342   -2.2479    0.0000 Cl  0  0  0  0  0  0  0  0  0
    2.8197   -2.6604    0.0000 C   0  0  0  0  0  0  0  0  0
    2.8197   -3.4854    0.0000 C   0  0  0  0  0  0  0  0  0
    2.1052   -3.8979    0.0000 C   0  0  0  0  0  0  0  0  0
    1.3908   -3.4854    0.0000 C   0  0  0  0  0  0  0  0  0
    1.3908   -2.6604    0.0000 C   0  0  0  0  0  0  0  0  0
    0.6763   -2.2479    0.0000 Cl  0  0  0  0  0  0  0  0  0
    2.1052   -2.2479    0.0000 C   0  0  0  0  0  0  0  0  0
    2.1052   -1.4229    0.0000 C   0  0  0  0  0  0  0  0  0
    2.8197   -1.0104    0.0000 N   0  0  0  0  0  0  0  0  0
    2.8197   -0.1854    0.0000 C   0  0  0  0  0  0  0  0  0
    3.5342    0.2271    0.0000 C   0  0  0  0  0  0  0  0  0
    4.2487   -0.1854    0.0000 N   0  0  0  0  0  0  0  0  0
    4.2487   -1.0104    0.0000 C   0  0  0  0  0  0  0  0  0
    3.5342   -1.4229    0.0000 C   0  0  0  0  0  0  0  0  0
    4.9631    0.2271    0.0000 C   0  0  0  0  0  0  0  0  0
    4.9631    1.0521    0.0000 C   0  0  0  0  0  0  0  0  0
    5.6776    1.4646    0.0000 O   0  0  0  0  0  0  0  0  0
    5.6776    2.2896    0.0000 C   0  0  0  0  0  0  0  0  0
    6.3921    2.7021    0.0000 C   0  0  0  0  0  0  0  0  0
    6.3921    3.5271    0.0000 C   0  0  0  0  0  0  0  0  0
    7.1065    3.9396    0.0000 N   0  0  0  0  0  0  0  0  0
    7.8210    3.5271    0.0000 C   0  0  0  0  0  0  0  0  0
    7.8210    2.7021    0.0000 C   0  0  0  0  0  0  0  0  0
    7.1065    2.2896    0.0000 C   0  0  0  0  0  0  0  0  0
    8.5355    3.9396    0.0000 C   0  0  0  0  0  0  0  0  0
    5.6776    3.9396    0.0000 C   0  0  0  0  0  0  0  0  0
    4.9631    3.5271    0.0000 C   0  0  0  0  0  0  0  0  0
    4.9631    2.7021    0.0000 C   0  0  0  0  0  0  0  0  0
  1  2  1  0  0  0  0
  2  3  4  0  0  0  0
  2  8  4  0  0  0  0
  3  4  4  0  0  0  0
  4  5  4  0  0  0  0
  5  6  4  0  0  0  0
  6  7  1  0  0  0  0
  6  8  4  0  0  0  0
  8  9  1  0  0  0  0
  9 10  1  0  0  0  0
 10 11  1  0  0  0  0
 10 15  1  0  0  0  0
 11 12  1  0  0  0  0
 12 13  1  0  0  0  0
 13 14  1  0  0  0  0
 13 16  1  0  0  0  0
 14 15  1  0  0  0  0
 16 17  1  0  0  0  0
 17 18  1  0  0  0  0
 18 19  1  0  0  0  0
 19 20  4  0  0  0  0
 19 29  4  0  0  0  0
 20 21  4  0  0  0  0
 20 25  4  0  0  0  0
 21 22  4  0  0  0  0
 21 27  4  0  0  0  0
 22 23  4  0  0  0  0
 23 24  4  0  0  0  0
 23 26  1  0  0  0  0
 24 25  4  0  0  0  0
 27 28  4  0  0  0  0
 28 29  4  0  0  0  0
M  END
>  <Name_Molregno>
322070

>  <5-HT1A>
5

>  <5-HT1B>
5

>  <5-HT1D>
5

$$$$
322111
  Marvin  02231216192D 0   1.00000     0.00000     0

 29 32  0  0  0  0  0  0  0  0999 V2000
    3.5063   -2.2395    0.0000 Cl  0  0  0  0  0  0  0  0  0
    2.7919   -2.6520    0.0000 C   0  0  0  0  0  0  0  0  0
    2.7919   -3.4770    0.0000 C   0  0  0  0  0  0  0  0  0
    2.0774   -3.8895    0.0000 C   0  0  0  0  0  0  0  0  0
    1.3629   -3.4770    0.0000 C   0  0  0  0  0  0  0  0  0
    0.6485   -3.8895    0.0000 Cl  0  0  0  0  0  0  0  0  0
    1.3629   -2.6520    0.0000 C   0  0  0  0  0  0  0  0  0
    2.0774   -2.2395    0.0000 C   0  0  0  0  0  0  0  0  0
    2.0774   -1.4145    0.0000 C   0  0  0  0  0  0  0  0  0
    2.7919   -1.0020    0.0000 N   0  0  0  0  0  0  0  0  0
    2.7919   -0.1770    0.0000 C   0  0  0  0  0  0  0  0  0
    3.5063    0.2355    0.0000 C   0  0  0  0  0  0  0  0  0
    4.2208   -0.1770    0.0000 N   0  0  0  0  0  0  0  0  0
    4.2208   -1.0020    0.0000 C   0  0  0  0  0  0  0  0  0
    3.5063   -1.4145    0.0000 C   0  0  0  0  0  0  0  0  0
    4.9353    0.2355    0.0000 C   0  0  0  0  0  0  0  0  0
    4.9353    1.0605    0.0000 C   0  0  0  0  0  0  0  0  0
    5.6497    1.4730    0.0000 O   0  0  0  0  0  0  0  0  0
    5.6497    2.2980    0.0000 C   0  0  0  0  0  0  0  0  0
    6.3642    2.7105    0.0000 C   0  0  0  0  0  0  0  0  0
    6.3642    3.5355    0.0000 C   0  0  0  0  0  0  0  0  0
    7.0787    3.9480    0.0000 N   0  0  0  0  0  0  0  0  0
    7.7932    3.5355    0.0000 C   0  0  0  0  0  0  0  0  0
    7.7932    2.7105    0.0000 C   0  0  0  0  0  0  0  0  0
    7.0787    2.2980    0.0000 C   0  0  0  0  0  0  0  0  0
    8.5076    3.9480    0.0000 C   0  0  0  0  0  0  0  0  0
    5.6497    3.9480    0.0000 C   0  0  0  0  0  0  0  0  0
    4.9353    3.5355    0.0000 C   0  0  0  0  0  0  0  0  0
    4.9353    2.7105    0.0000 C   0  0  0  0  0  0  0  0  0
  1  2  1  0  0  0  0
  2  3  4  0  0  0  0
  2  8  4  0  0  0  0
  3  4  4  0  0  0  0
  4  5  4  0  0  0  0
  5  6  1  0  0  0  0
  5  7  4  0  0  0  0
  7  8  4  0  0  0  0
  8  9  1  0  0  0  0
  9 10  1  0  0  0  0
 10 11  1  0  0  0  0
 10 15  1  0  0  0  0
 11 12  1  0  0  0  0
 12 13  1  0  0  0  0
 13 14  1  0  0  0  0
 13 16  1  0  0  0  0
 14 15  1  0  0  0  0
 16 17  1  0  0  0  0
 17 18  1  0  0  0  0
 18 19  1  0  0  0  0
 19 20  4  0  0  0  0
 19 29  4  0  0  0  0
 20 21  4  0  0  0  0
 20 25  4  0  0  0  0
 21 22  4  0  0  0  0
 21 27  4  0  0  0  0
 22 23  4  0  0  0  0
 23 24  4  0  0  0  0
 23 26  1  0  0  0  0
 24 25  4  0  0  0  0
 27 28  4  0  0  0  0
 28 29  4  0  0  0  0
M  END
>  <Name_Molregno>
322111

>  <5-HT1A>
7.1

>  <5-HT1B>
6.2

>  <5-HT1D>
8.4

$$$$
322122
  Marvin  02231216192D 0   1.00000     0.00000     0

 36 41  0  0  0  0  0  0  0  0999 V2000
    4.7007   -2.6022    0.0000 Cl  0  0  0  0  0  0  0  0  0
    4.1486   -1.9891    0.0000 C   0  0  0  0  0  0  0  0  0
    3.3417   -2.1607    0.0000 C   0  0  0  0  0  0  0  0  0
    2.7896   -1.5476    0.0000 C   0  0  0  0  0  0  0  0  0
    1.9646   -1.5476    0.0000 C   0  0  0  0  0  0  0  0  0
    1.7097   -0.7629    0.0000 C   0  0  0  0  0  0  0  0  0
    2.3771   -0.2780    0.0000 N   0  0  0  0  0  0  0  0  0
    3.0446   -0.7629    0.0000 C   0  0  0  0  0  0  0  0  0
    3.8515   -0.5914    0.0000 C   0  0  0  0  0  0  0  0  0
    4.4036   -1.2045    0.0000 C   0  0  0  0  0  0  0  0  0
    5.2105   -1.0330    0.0000 N   0  0  0  0  0  0  0  0  0
    5.4655   -0.2484    0.0000 C   0  0  0  0  0  0  0  0  0
    6.2724   -0.0768    0.0000 C   0  0  0  0  0  0  0  0  0
    6.8245   -0.6899    0.0000 N   0  0  0  0  0  0  0  0  0
    6.5695   -1.4745    0.0000 C   0  0  0  0  0  0  0  0  0
    5.7626   -1.6461    0.0000 C   0  0  0  0  0  0  0  0  0
    7.6315   -0.5184    0.0000 C   0  0  0  0  0  0  0  0  0
    2.3771    0.5470    0.0000 C   0  0  0  0  0  0  0  0  0
    1.6626    0.9595    0.0000 O   0  0  0  0  0  0  0  0  0
    3.0916    0.9595    0.0000 N   0  0  0  0  0  0  0  0  0
    3.0916    1.7845    0.0000 C   0  0  0  0  0  0  0  0  0
    3.8061    2.1970    0.0000 C   0  0  0  0  0  0  0  0  0
    3.8061    3.0220    0.0000 C   0  0  0  0  0  0  0  0  0
    4.5205    3.4345    0.0000 C   0  0  0  0  0  0  0  0  0
    5.2350    3.0220    0.0000 C   0  0  0  0  0  0  0  0  0
    5.2350    2.1970    0.0000 C   0  0  0  0  0  0  0  0  0
    4.5205    1.7845    0.0000 C   0  0  0  0  0  0  0  0  0
    3.0916    3.4345    0.0000 C   0  0  0  0  0  0  0  0  0
    2.3771    3.0220    0.0000 C   0  0  0  0  0  0  0  0  0
    2.3771    2.1970    0.0000 C   0  0  0  0  0  0  0  0  0
    3.0916    4.2595    0.0000 C   0  0  0  0  0  0  0  0  0
    2.3771    4.6720    0.0000 C   0  0  0  0  0  0  0  0  0
    2.3771    5.4970    0.0000 C   0  0  0  0  0  0  0  0  0
    3.0916    5.9095    0.0000 N   0  0  0  0  0  0  0  0  0
    3.8061    5.4970    0.0000 C   0  0  0  0  0  0  0  0  0
    3.8061    4.6720    0.0000 C   0  0  0  0  0  0  0  0  0
  1  2  1  0  0  0  0
  2  3  4  0  0  0  0
  2 10  4  0  0  0  0
  3  4  4  0  0  0  0
  4  5  1  0  0  0  0
  4  8  4  0  0  0  0
  5  6  1  0  0  0  0
  6  7  1  0  0  0  0
  7  8  1  0  0  0  0
  7 18  1  0  0  0  0
  8  9  4  0  0  0  0
  9 10  4  0  0  0  0
 10 11  1  0  0  0  0
 11 12  1  0  0  0  0
 11 16  1  0  0  0  0
 12 13  1  0  0  0  0
 13 14  1  0  0  0  0
 14 15  1  0  0  0  0
 14 17  1  0  0  0  0
 15 16  1  0  0  0  0
 18 19  2  0  0  0  0
 18 20  1  0  0  0  0
 20 21  1  0  0  0  0
 21 22  4  0  0  0  0
 21 30  4  0  0  0  0
 22 23  4  0  0  0  0
 22 27  4  0  0  0  0
 23 24  4  0  0  0  0
 23 28  4  0  0  0  0
 24 25  4  0  0  0  0
 25 26  4  0  0  0  0
 26 27  4  0  0  0  0
 28 29  4  0  0  0  0
 28 31  1  0  0  0  0
 29 30  4  0  0  0  0
 31 32  4  0  0  0  0
 31 36  4  0  0  0  0
 32 33  4  0  0  0  0
 33 34  4  0  0  0  0
 34 35  4  0  0  0  0
 35 36  4  0  0  0  0
M  END
>  <Name_Molregno>
322122

>  <5-HT1A>
8.2

>  <5-HT1B>
8.25

>  <5-HT1D>
8.85

$$$$
322148
  Marvin  02231216192D 0   1.00000     0.00000     0

 31 35  0  0  0  0  0  0  0  0999 V2000
    3.8098    0.0042    0.0000 O   0  0  0  0  0  0  0  0  0
    3.0953   -0.4083    0.0000 C   0  0  0  0  0  0  0  0  0
    3.0953   -1.2333    0.0000 C   0  0  0  0  0  0  0  0  0
    2.3809   -1.6458    0.0000 N   0  0  0  0  0  0  0  0  0
    2.3809   -2.4708    0.0000 C   0  0  0  0  0  0  0  0  0
    1.6664   -2.8833    0.0000 C   0  0  0  0  0  0  0  0  0
    0.9519   -2.4708    0.0000 N   0  0  0  0  0  0  0  0  0
    0.9519   -1.6458    0.0000 C   0  0  0  0  0  0  0  0  0
    1.6664   -1.2333    0.0000 C   0  0  0  0  0  0  0  0  0
    0.2375   -2.8833    0.0000 C   0  0  0  0  0  0  0  0  0
   -0.4770   -2.4708    0.0000 C   0  0  0  0  0  0  0  0  0
   -0.4770   -1.6458    0.0000 C   0  0  0  0  0  0  0  0  0
   -1.1915   -1.2333    0.0000 C   0  0  0  0  0  0  0  0  0
   -1.1915   -0.4083    0.0000 N   0  0  0  0  0  0  0  0  0
   -0.4770    0.0042    0.0000 C   0  0  0  0  0  0  0  0  0
    0.2375   -0.4083    0.0000 N   0  0  0  0  0  0  0  0  0
    0.2375   -1.2333    0.0000 C   0  0  0  0  0  0  0  0  0
   -1.9059   -1.6458    0.0000 C   0  0  0  0  0  0  0  0  0
   -1.9059   -2.4708    0.0000 C   0  0  0  0  0  0  0  0  0
   -1.1915   -2.8833    0.0000 C   0  0  0  0  0  0  0  0  0
    3.8098    0.8292    0.0000 C   0  0  0  0  0  0  0  0  0
    4.5243    1.2417    0.0000 C   0  0  0  0  0  0  0  0  0
    4.5243    2.0667    0.0000 C   0  0  0  0  0  0  0  0  0
    5.2388    2.4792    0.0000 N   0  0  0  0  0  0  0  0  0
    5.9532    2.0667    0.0000 C   0  0  0  0  0  0  0  0  0
    5.9532    1.2417    0.0000 C   0  0  0  0  0  0  0  0  0
    5.2388    0.8292    0.0000 C   0  0  0  0  0  0  0  0  0
    6.6677    2.4792    0.0000 C   0  0  0  0  0  0  0  0  0
    3.8098    2.4792    0.0000 C   0  0  0  0  0  0  0  0  0
    3.0953    2.0667    0.0000 C   0  0  0  0  0  0  0  0  0
    3.0953    1.2417    0.0000 C   0  0  0  0  0  0  0  0  0
  1  2  1  0  0  0  0
  1 21  1  0  0  0  0
  2  3  1  0  0  0  0
  3  4  1  0  0  0  0
  4  5  1  0  0  0  0
  4  9  1  0  0  0  0
  5  6  1  0  0  0  0
  6  7  1  0  0  0  0
  7  8  1  0  0  0  0
  7 10  1  0  0  0  0
  8  9  1  0  0  0  0
 10 11  1  0  0  0  0
 11 12  4  0  0  0  0
 11 20  4  0  0  0  0
 12 13  4  0  0  0  0
 12 17  4  0  0  0  0
 13 14  4  0  0  0  0
 13 18  4  0  0  0  0
 14 15  4  0  0  0  0
 15 16  4  0  0  0  0
 16 17  4  0  0  0  0
 18 19  4  0  0  0  0
 19 20  4  0  0  0  0
 21 22  4  0  0  0  0
 21 31  4  0  0  0  0
 22 23  4  0  0  0  0
 22 27  4  0  0  0  0
 23 24  4  0  0  0  0
 23 29  4  0  0  0  0
 24 25  4  0  0  0  0
 25 26  4  0  0  0  0
 25 28  1  0  0  0  0
 26 27  4  0  0  0  0
 29 30  4  0  0  0  0
 30 31  4  0  0  0  0
M  END
>  <Name_Molregno>
322148

>  <5-HT1A>
6.4

>  <5-HT1B>
6.5

>  <5-HT1D>
8.6

$$$$
322170
  Marvin  02231216192D 0   1.00000     0.00000     0

 31 34  0  0  0  0  0  0  0  0999 V2000
    2.5646   -5.2263    0.0000 F   0  0  0  0  0  0  0  0  0
    2.5646   -4.4013    0.0000 C   0  0  0  0  0  0  0  0  0
    1.8501   -3.9888    0.0000 C   0  0  0  0  0  0  0  0  0
    1.8501   -3.1638    0.0000 C   0  0  0  0  0  0  0  0  0
    2.5646   -2.7513    0.0000 C   0  0  0  0  0  0  0  0  0
    3.2791   -3.1638    0.0000 C   0  0  0  0  0  0  0  0  0
    3.2791   -3.9888    0.0000 C   0  0  0  0  0  0  0  0  0
    3.9936   -4.4013    0.0000 N   0  3  0  0  0  0  0  0  0
    4.7080   -3.9888    0.0000 O   0  5  0  0  0  0  0  0  0
    3.9936   -5.2263    0.0000 O   0  5  0  0  0  0  0  0  0
    2.5646   -1.9263    0.0000 C   0  0  0  0  0  0  0  0  0
    3.2791   -1.5138    0.0000 N   0  0  0  0  0  0  0  0  0
    3.2791   -0.6888    0.0000 C   0  0  0  0  0  0  0  0  0
    3.9936   -0.2763    0.0000 C   0  0  0  0  0  0  0  0  0
    4.7080   -0.6888    0.0000 N   0  0  0  0  0  0  0  0  0
    4.7080   -1.5138    0.0000 C   0  0  0  0  0  0  0  0  0
    3.9936   -1.9263    0.0000 C   0  0  0  0  0  0  0  0  0
    5.4225   -0.2763    0.0000 C   0  0  0  0  0  0  0  0  0
    5.4225    0.5487    0.0000 C   0  0  0  0  0  0  0  0  0
    6.1370    0.9612    0.0000 O   0  0  0  0  0  0  0  0  0
    6.1370    1.7862    0.0000 C   0  0  0  0  0  0  0  0  0
    6.8514    2.1987    0.0000 C   0  0  0  0  0  0  0  0  0
    6.8514    3.0237    0.0000 C   0  0  0  0  0  0  0  0  0
    7.5659    3.4362    0.0000 N   0  0  0  0  0  0  0  0  0
    8.2804    3.0237    0.0000 C   0  0  0  0  0  0  0  0  0
    8.2804    2.1987    0.0000 C   0  0  0  0  0  0  0  0  0
    7.5659    1.7862    0.0000 C   0  0  0  0  0  0  0  0  0
    8.9948    3.4362    0.0000 C   0  0  0  0  0  0  0  0  0
    6.1370    3.4362    0.0000 C   0  0  0  0  0  0  0  0  0
    5.4225    3.0237    0.0000 C   0  0  0  0  0  0  0  0  0
    5.4225    2.1987    0.0000 C   0  0  0  0  0  0  0  0  0
  1  2  1  0  0  0  0
  2  3  4  0  0  0  0
  2  7  4  0  0  0  0
  3  4  4  0  0  0  0
  4  5  4  0  0  0  0
  5  6  4  0  0  0  0
  5 11  1  0  0  0  0
  6  7  4  0  0  0  0
  7  8  1  0  0  0  0
  8  9  1  0  0  0  0
  8 10  1  0  0  0  0
 11 12  1  0  0  0  0
 12 13  1  0  0  0  0
 12 17  1  0  0  0  0
 13 14  1  0  0  0  0
 14 15  1  0  0  0  0
 15 16  1  0  0  0  0
 15 18  1  0  0  0  0
 16 17  1  0  0  0  0
 18 19  1  0  0  0  0
 19 20  1  0  0  0  0
 20 21  1  0  0  0  0
 21 22  4  0  0  0  0
 21 31  4  0  0  0  0
 22 23  4  0  0  0  0
 22 27  4  0  0  0  0
 23 24  4  0  0  0  0
 23 29  4  0  0  0  0
 24 25  4  0  0  0  0
 25 26  4  0  0  0  0
 25 28  1  0  0  0  0
 26 27  4  0  0  0  0
 29 30  4  0  0  0  0
 30 31  4  0  0  0  0
M  CHG  3   8   1   9  -1  10  -1
M  END
>  <Name_Molregno>
322170

>  <5-HT1A>
6.3

>  <5-HT1B>
6.6

>  <5-HT1D>
8.1

$$$$
326709
  Marvin  02231216192D 0   1.00000     0.00000     0

 40 45  0  0  1  0  0  0  0  0999 V2000
   -5.0135   -2.6064    0.0000 O   0  0  0  0  0  0  0  0  0
   -4.4614   -3.2195    0.0000 C   0  0  0  0  0  0  0  0  0
   -4.7585   -1.8218    0.0000 C   0  0  0  0  0  0  0  0  0
   -5.3106   -1.2087    0.0000 C   0  0  0  0  0  0  0  0  0
   -5.0556   -0.4241    0.0000 C   0  0  0  0  0  0  0  0  0
   -5.4681    0.2904    0.0000 C   0  0  0  0  0  0  0  0  0
   -4.9161    0.9035    0.0000 C   0  0  0  0  0  0  0  0  0
   -4.1624    0.5679    0.0000 N   0  0  0  0  0  0  0  0  0
   -4.2486   -0.2525    0.0000 C   0  0  0  0  0  0  0  0  0
   -3.6966   -0.8656    0.0000 C   0  0  0  0  0  0  0  0  0
   -3.9515   -1.6503    0.0000 C   0  0  0  0  0  0  0  0  0
   -3.3995   -2.2633    0.0000 N   0  0  0  0  0  0  0  0  0
   -2.5925   -2.0918    0.0000 C   0  0  0  0  0  0  0  0  0
   -2.0405   -2.7049    0.0000 C   0  0  0  0  0  0  0  0  0
   -2.2955   -3.4895    0.0000 N   0  0  0  0  0  0  0  0  0
   -1.7434   -4.1026    0.0000 C   0  0  0  0  0  0  0  0  0
   -1.9984   -4.8872    0.0000 C   0  0  0  0  0  0  0  0  0
   -3.1024   -3.6611    0.0000 C   0  0  0  0  0  0  0  0  0
   -3.6545   -3.0480    0.0000 C   0  0  0  0  0  0  0  0  0
   -3.3574   -4.4457    0.0000 C   0  0  0  0  0  0  0  0  0
   -1.2335   -2.5334    0.0000 C   0  0  0  0  0  0  0  0  0
   -3.4479    0.9804    0.0000 C   0  0  0  0  0  0  0  0  0
   -2.7335    0.5679    0.0000 O   0  0  0  0  0  0  0  0  0
   -3.4479    1.8054    0.0000 C   0  0  0  0  0  0  0  0  0
   -2.7335    2.2179    0.0000 C   0  0  0  0  0  0  0  0  0
   -2.7335    3.0429    0.0000 C   0  0  0  0  0  0  0  0  0
   -2.0190    3.4554    0.0000 C   0  0  0  0  0  0  0  0  0
   -1.3045    3.0429    0.0000 C   0  0  0  0  0  0  0  0  0
   -1.3045    2.2179    0.0000 C   0  0  0  0  0  0  0  0  0
   -2.0190    1.8054    0.0000 C   0  0  0  0  0  0  0  0  0
   -3.4479    3.4554    0.0000 C   0  0  0  0  0  0  0  0  0
   -4.1624    3.0429    0.0000 C   0  0  0  0  0  0  0  0  0
   -4.1624    2.2179    0.0000 C   0  0  0  0  0  0  0  0  0
   -3.4479    4.2804    0.0000 C   0  0  0  0  0  0  0  0  0
   -4.1624    4.6929    0.0000 N   0  0  0  0  0  0  0  0  0
   -4.1624    5.5179    0.0000 C   0  0  0  0  0  0  0  0  0
   -3.4479    5.9304    0.0000 C   0  0  0  0  0  0  0  0  0
   -2.7335    5.5179    0.0000 C   0  0  0  0  0  0  0  0  0
   -2.7335    4.6929    0.0000 C   0  0  0  0  0  0  0  0  0
   -4.8769    5.9304    0.0000 C   0  0  0  0  0  0  0  0  0
  1  2  1  0  0  0  0
  1  3  1  0  0  0  0
  3  4  4  0  0  0  0
  3 11  4  0  0  0  0
  4  5  4  0  0  0  0
  5  6  1  0  0  0  0
  5  9  4  0  0  0  0
  6  7  1  0  0  0  0
  7  8  1  0  0  0  0
  8  9  1  0  0  0  0
  8 22  1  0  0  0  0
  9 10  4  0  0  0  0
 10 11  4  0  0  0  0
 11 12  1  0  0  0  0
 12 13  1  0  0  0  0
 12 19  1  0  0  0  0
 13 14  1  0  0  0  0
 14 15  1  0  0  0  0
 14 21  1  0  0  0  0
 15 16  1  0  0  0  0
 15 18  1  0  0  0  0
 16 17  1  0  0  0  0
 18 19  1  0  0  0  0
 18 20  1  0  0  0  0
 22 23  2  0  0  0  0
 22 24  1  0  0  0  0
 24 25  4  0  0  0  0
 24 33  4  0  0  0  0
 25 26  4  0  0  0  0
 25 30  4  0  0  0  0
 26 27  4  0  0  0  0
 26 31  4  0  0  0  0
 27 28  4  0  0  0  0
 28 29  4  0  0  0  0
 29 30  4  0  0  0  0
 31 32  4  0  0  0  0
 31 34  1  0  0  0  0
 32 33  4  0  0  0  0
 34 35  4  0  0  0  0
 34 39  4  0  0  0  0
 35 36  4  0  0  0  0
 36 37  4  0  0  0  0
 36 40  1  0  0  0  0
 37 38  4  0  0  0  0
 38 39  4  0  0  0  0
M  END
>  <Name_Molregno>
326709

>  <5-HT1A>
6.3

>  <5-HT1B>
8.4

>  <5-HT1D>
6.9

$$$$
326710
  Marvin  02231216192D 0   1.00000     0.00000     0

 41 46  0  0  1  0  0  0  0  0999 V2000
   -4.9423   -2.3873    0.0000 O   0  0  0  0  0  0  0  0  0
   -4.3903   -3.0004    0.0000 C   0  0  0  0  0  0  0  0  0
   -4.6874   -1.6027    0.0000 C   0  0  0  0  0  0  0  0  0
   -5.2394   -0.9896    0.0000 C   0  0  0  0  0  0  0  0  0
   -4.9845   -0.2050    0.0000 C   0  0  0  0  0  0  0  0  0
   -5.3970    0.5095    0.0000 C   0  0  0  0  0  0  0  0  0
   -4.8450    1.1226    0.0000 C   0  0  0  0  0  0  0  0  0
   -4.0913    0.7871    0.0000 N   0  0  0  0  0  0  0  0  0
   -4.1775   -0.0334    0.0000 C   0  0  0  0  0  0  0  0  0
   -3.6255   -0.6465    0.0000 C   0  0  0  0  0  0  0  0  0
   -3.8804   -1.4311    0.0000 C   0  0  0  0  0  0  0  0  0
   -3.3284   -2.0442    0.0000 N   0  0  0  0  0  0  0  0  0
   -2.5214   -1.8727    0.0000 C   0  0  0  0  0  0  0  0  0
   -1.9694   -2.4858    0.0000 C   0  0  0  0  0  0  0  0  0
   -2.2243   -3.2704    0.0000 N   0  0  0  0  0  0  0  0  0
   -1.6723   -3.8835    0.0000 C   0  0  0  0  0  0  0  0  0
   -1.9272   -4.6681    0.0000 C   0  0  0  0  0  0  0  0  0
   -1.3752   -5.2812    0.0000 C   0  0  0  0  0  0  0  0  0
   -3.0313   -3.4419    0.0000 C   0  0  0  0  0  0  0  0  0
   -3.5833   -2.8289    0.0000 C   0  0  0  0  0  0  0  0  0
   -3.2862   -4.2266    0.0000 C   0  0  0  0  0  0  0  0  0
   -1.1624   -2.3143    0.0000 C   0  0  0  0  0  0  0  0  0
   -3.3768    1.1996    0.0000 C   0  0  0  0  0  0  0  0  0
   -2.6623    0.7871    0.0000 O   0  0  0  0  0  0  0  0  0
   -3.3768    2.0246    0.0000 C   0  0  0  0  0  0  0  0  0
   -2.6623    2.4371    0.0000 C   0  0  0  0  0  0  0  0  0
   -2.6623    3.2621    0.0000 C   0  0  0  0  0  0  0  0  0
   -1.9479    3.6746    0.0000 C   0  0  0  0  0  0  0  0  0
   -1.2334    3.2621    0.0000 C   0  0  0  0  0  0  0  0  0
   -1.2334    2.4371    0.0000 C   0  0  0  0  0  0  0  0  0
   -1.9479    2.0246    0.0000 C   0  0  0  0  0  0  0  0  0
   -3.3768    3.6746    0.0000 C   0  0  0  0  0  0  0  0  0
   -4.0913    3.2621    0.0000 C   0  0  0  0  0  0  0  0  0
   -4.0913    2.4371    0.0000 C   0  0  0  0  0  0  0  0  0
   -3.3768    4.4996    0.0000 C   0  0  0  0  0  0  0  0  0
   -4.0913    4.9121    0.0000 N   0  0  0  0  0  0  0  0  0
   -4.0913    5.7371    0.0000 C   0  0  0  0  0  0  0  0  0
   -3.3768    6.1496    0.0000 C   0  0  0  0  0  0  0  0  0
   -2.6623    5.7371    0.0000 C   0  0  0  0  0  0  0  0  0
   -2.6623    4.9121    0.0000 C   0  0  0  0  0  0  0  0  0
   -4.8057    6.1496    0.0000 C   0  0  0  0  0  0  0  0  0
  1  2  1  0  0  0  0
  1  3  1  0  0  0  0
  3  4  4  0  0  0  0
  3 11  4  0  0  0  0
  4  5  4  0  0  0  0
  5  6  1  0  0  0  0
  5  9  4  0  0  0  0
  6  7  1  0  0  0  0
  7  8  1  0  0  0  0
  8  9  1  0  0  0  0
  8 23  1  0  0  0  0
  9 10  4  0  0  0  0
 10 11  4  0  0  0  0
 11 12  1  0  0  0  0
 12 13  1  0  0  0  0
 12 20  1  0  0  0  0
 13 14  1  0  0  0  0
 14 15  1  0  0  0  0
 14 22  1  0  0  0  0
 15 16  1  0  0  0  0
 15 19  1  0  0  0  0
 16 17  1  0  0  0  0
 17 18  1  0  0  0  0
 19 20  1  0  0  0  0
 19 21  1  0  0  0  0
 23 24  2  0  0  0  0
 23 25  1  0  0  0  0
 25 26  4  0  0  0  0
 25 34  4  0  0  0  0
 26 27  4  0  0  0  0
 26 31  4  0  0  0  0
 27 28  4  0  0  0  0
 27 32  4  0  0  0  0
 28 29  4  0  0  0  0
 29 30  4  0  0  0  0
 30 31  4  0  0  0  0
 32 33  4  0  0  0  0
 32 35  1  0  0  0  0
 33 34  4  0  0  0  0
 35 36  4  0  0  0  0
 35 40  4  0  0  0  0
 36 37  4  0  0  0  0
 37 38  4  0  0  0  0
 37 41  1  0  0  0  0
 38 39  4  0  0  0  0
 39 40  4  0  0  0  0
M  END
>  <Name_Molregno>
326710

>  <5-HT1A>
7.1

>  <5-HT1B>
7.5

>  <5-HT1D>
6.8

$$$$
326711
  Marvin  02231216192D 0   1.00000     0.00000     0

 29 32  0  0  0  0  0  0  0  0999 V2000
   -6.0892   -1.0140    0.0000 Cl  0  0  0  0  0  0  0  0  0
   -5.5372   -1.6271    0.0000 C   0  0  0  0  0  0  0  0  0
   -4.7302   -1.4555    0.0000 C   0  0  0  0  0  0  0  0  0
   -4.4753   -0.6709    0.0000 N   0  0  0  0  0  0  0  0  0
   -5.0273   -0.0578    0.0000 C   0  0  0  0  0  0  0  0  0
   -5.8343   -0.2294    0.0000 O   0  0  0  0  0  0  0  0  0
   -4.7724    0.7268    0.0000 N   0  0  0  0  0  0  0  0  0
   -5.2573    1.3942    0.0000 C   0  0  0  0  0  0  0  0  0
   -4.7724    2.0617    0.0000 C   0  0  0  0  0  0  0  0  0
   -3.9878    1.8067    0.0000 C   0  0  0  0  0  0  0  0  0
   -3.2733    2.2192    0.0000 C   0  0  0  0  0  0  0  0  0
   -2.5588    1.8067    0.0000 C   0  0  0  0  0  0  0  0  0
   -1.8443    2.2192    0.0000 O   0  0  0  0  0  0  0  0  0
   -1.1299    1.8067    0.0000 C   0  0  0  0  0  0  0  0  0
   -2.5588    0.9817    0.0000 C   0  0  0  0  0  0  0  0  0
   -1.8443    0.5692    0.0000 N   0  0  0  0  0  0  0  0  0
   -1.1299    0.9817    0.0000 C   0  0  0  0  0  0  0  0  0
   -0.4154    0.5692    0.0000 C   0  0  0  0  0  0  0  0  0
   -0.4154   -0.2558    0.0000 N   0  0  0  0  0  0  0  0  0
   -1.1299   -0.6683    0.0000 C   0  0  0  0  0  0  0  0  0
   -1.8443   -0.2558    0.0000 C   0  0  0  0  0  0  0  0  0
    0.2991   -0.6683    0.0000 C   0  0  0  0  0  0  0  0  0
   -3.2733    0.5692    0.0000 C   0  0  0  0  0  0  0  0  0
   -3.9878    0.9817    0.0000 C   0  0  0  0  0  0  0  0  0
   -4.1782   -2.0686    0.0000 C   0  0  0  0  0  0  0  0  0
   -4.4331   -2.8533    0.0000 C   0  0  0  0  0  0  0  0  0
   -5.2401   -3.0248    0.0000 C   0  0  0  0  0  0  0  0  0
   -5.7921   -2.4117    0.0000 C   0  0  0  0  0  0  0  0  0
   -6.5991   -2.5832    0.0000 Cl  0  0  0  0  0  0  0  0  0
  1  2  1  0  0  0  0
  2  3  4  0  0  0  0
  2 28  4  0  0  0  0
  3  4  1  0  0  0  0
  3 25  4  0  0  0  0
  4  5  1  0  0  0  0
  5  6  2  0  0  0  0
  5  7  1  0  0  0  0
  7  8  1  0  0  0  0
  7 24  1  0  0  0  0
  8  9  1  0  0  0  0
  9 10  1  0  0  0  0
 10 11  4  0  0  0  0
 10 24  4  0  0  0  0
 11 12  4  0  0  0  0
 12 13  1  0  0  0  0
 12 15  4  0  0  0  0
 13 14  1  0  0  0  0
 15 16  1  0  0  0  0
 15 23  4  0  0  0  0
 16 17  1  0  0  0  0
 16 21  1  0  0  0  0
 17 18  1  0  0  0  0
 18 19  1  0  0  0  0
 19 20  1  0  0  0  0
 19 22  1  0  0  0  0
 20 21  1  0  0  0  0
 23 24  4  0  0  0  0
 25 26  4  0  0  0  0
 26 27  4  0  0  0  0
 27 28  4  0  0  0  0
 28 29  1  0  0  0  0
M  END
>  <Name_Molregno>
326711

>  <5-HT1A>
7.3

>  <5-HT1B>
8.4

>  <5-HT1D>
7.9

$$$$
326712
  Marvin  02231216192D 0   1.00000     0.00000     0

 31 34  0  0  1  0  0  0  0  0999 V2000
   -6.4993   -1.0598    0.0000 Cl  0  0  0  0  0  0  0  0  0
   -5.9473   -1.6729    0.0000 C   0  0  0  0  0  0  0  0  0
   -5.1403   -1.5013    0.0000 C   0  0  0  0  0  0  0  0  0
   -4.8854   -0.7167    0.0000 N   0  0  0  0  0  0  0  0  0
   -5.4374   -0.1036    0.0000 C   0  0  0  0  0  0  0  0  0
   -6.2444   -0.2752    0.0000 O   0  0  0  0  0  0  0  0  0
   -5.1825    0.6810    0.0000 N   0  0  0  0  0  0  0  0  0
   -5.6674    1.3484    0.0000 C   0  0  0  0  0  0  0  0  0
   -5.1825    2.0159    0.0000 C   0  0  0  0  0  0  0  0  0
   -4.3978    1.7609    0.0000 C   0  0  0  0  0  0  0  0  0
   -3.6834    2.1734    0.0000 C   0  0  0  0  0  0  0  0  0
   -2.9689    1.7609    0.0000 C   0  0  0  0  0  0  0  0  0
   -2.2544    2.1734    0.0000 O   0  0  0  0  0  0  0  0  0
   -1.5400    1.7609    0.0000 C   0  0  0  0  0  0  0  0  0
   -2.9689    0.9359    0.0000 C   0  0  0  0  0  0  0  0  0
   -2.2544    0.5234    0.0000 N   0  0  0  0  0  0  0  0  0
   -1.5400    0.9359    0.0000 C   0  0  0  0  0  0  0  0  0
   -0.8255    0.5234    0.0000 C   0  0  0  0  0  0  0  0  0
   -0.8255   -0.3016    0.0000 N   0  0  0  0  0  0  0  0  0
   -0.1110   -0.7141    0.0000 C   0  0  0  0  0  0  0  0  0
   -1.5400   -0.7141    0.0000 C   0  0  0  0  0  0  0  0  0
   -2.2544   -0.3016    0.0000 C   0  0  0  0  0  0  0  0  0
   -1.5400   -1.5391    0.0000 C   0  0  0  0  0  0  0  0  0
   -0.1110    0.9359    0.0000 C   0  0  0  0  0  0  0  0  0
   -3.6834    0.5234    0.0000 C   0  0  0  0  0  0  0  0  0
   -4.3978    0.9359    0.0000 C   0  0  0  0  0  0  0  0  0
   -4.5883   -2.1144    0.0000 C   0  0  0  0  0  0  0  0  0
   -4.8432   -2.8991    0.0000 C   0  0  0  0  0  0  0  0  0
   -5.6502   -3.0706    0.0000 C   0  0  0  0  0  0  0  0  0
   -6.2022   -2.4575    0.0000 C   0  0  0  0  0  0  0  0  0
   -7.0092   -2.6290    0.0000 Cl  0  0  0  0  0  0  0  0  0
  1  2  1  0  0  0  0
  2  3  4  0  0  0  0
  2 30  4  0  0  0  0
  3  4  1  0  0  0  0
  3 27  4  0  0  0  0
  4  5  1  0  0  0  0
  5  6  2  0  0  0  0
  5  7  1  0  0  0  0
  7  8  1  0  0  0  0
  7 26  1  0  0  0  0
  8  9  1  0  0  0  0
  9 10  1  0  0  0  0
 10 11  4  0  0  0  0
 10 26  4  0  0  0  0
 11 12  4  0  0  0  0
 12 13  1  0  0  0  0
 12 15  4  0  0  0  0
 13 14  1  0  0  0  0
 15 16  1  0  0  0  0
 15 25  4  0  0  0  0
 16 17  1  0  0  0  0
 16 22  1  0  0  0  0
 17 18  1  0  0  0  0
 18 19  1  0  0  0  0
 18 24  1  0  0  0  0
 19 20  1  0  0  0  0
 19 21  1  0  0  0  0
 21 22  1  0  0  0  0
 21 23  1  0  0  0  0
 25 26  4  0  0  0  0
 27 28  4  0  0  0  0
 28 29  4  0  0  0  0
 29 30  4  0  0  0  0
 30 31  1  0  0  0  0
M  END
>  <Name_Molregno>
326712

>  <5-HT1A>
5.8

>  <5-HT1B>
8.1

>  <5-HT1D>
7.1

$$$$
326713
  Marvin  02231216192D 0   1.00000     0.00000     0

 30 33  0  0  0  0  0  0  0  0999 V2000
   -0.8537   -1.4628    0.0000 O   0  0  0  0  0  0  0  0  0
   -0.1393   -1.0503    0.0000 C   0  0  0  0  0  0  0  0  0
   -1.5682   -1.0503    0.0000 C   0  0  0  0  0  0  0  0  0
   -2.2827   -1.4628    0.0000 C   0  0  0  0  0  0  0  0  0
   -2.9971   -1.0503    0.0000 C   0  0  0  0  0  0  0  0  0
   -3.7818   -1.3052    0.0000 C   0  0  0  0  0  0  0  0  0
   -4.2667   -0.6378    0.0000 C   0  0  0  0  0  0  0  0  0
   -3.7818    0.0297    0.0000 N   0  0  0  0  0  0  0  0  0
   -2.9971   -0.2253    0.0000 C   0  0  0  0  0  0  0  0  0
   -2.2827    0.1872    0.0000 C   0  0  0  0  0  0  0  0  0
   -1.5682   -0.2253    0.0000 C   0  0  0  0  0  0  0  0  0
   -0.8537    0.1872    0.0000 N   0  0  0  0  0  0  0  0  0
   -0.8537    1.0122    0.0000 C   0  0  0  0  0  0  0  0  0
   -0.1393    1.4247    0.0000 C   0  0  0  0  0  0  0  0  0
    0.5752    1.0122    0.0000 N   0  0  0  0  0  0  0  0  0
    0.5752    0.1872    0.0000 C   0  0  0  0  0  0  0  0  0
   -0.1393   -0.2253    0.0000 C   0  0  0  0  0  0  0  0  0
    1.2897    1.4247    0.0000 C   0  0  0  0  0  0  0  0  0
   -4.0367    0.8143    0.0000 C   0  0  0  0  0  0  0  0  0
   -3.4847    1.4274    0.0000 O   0  0  0  0  0  0  0  0  0
   -4.8437    0.9858    0.0000 C   0  0  0  0  0  0  0  0  0
   -5.0986    1.7705    0.0000 C   0  0  0  0  0  0  0  0  0
   -5.9056    1.9420    0.0000 C   0  0  0  0  0  0  0  0  0
   -6.1605    2.7266    0.0000 C   0  0  0  0  0  0  0  0  0
   -5.6085    3.3397    0.0000 C   0  0  0  0  0  0  0  0  0
   -5.8634    4.1243    0.0000 N   0  3  0  0  0  0  0  0  0
   -6.6704    4.2958    0.0000 O   0  5  0  0  0  0  0  0  0
   -5.3114    4.7374    0.0000 O   0  5  0  0  0  0  0  0  0
   -4.8015    3.1682    0.0000 C   0  0  0  0  0  0  0  0  0
   -4.5466    2.3836    0.0000 C   0  0  0  0  0  0  0  0  0
  1  2  1  0  0  0  0
  1  3  1  0  0  0  0
  3  4  4  0  0  0  0
  3 11  4  0  0  0  0
  4  5  4  0  0  0  0
  5  6  1  0  0  0  0
  5  9  4  0  0  0  0
  6  7  1  0  0  0  0
  7  8  1  0  0  0  0
  8  9  1  0  0  0  0
  8 19  1  0  0  0  0
  9 10  4  0  0  0  0
 10 11  4  0  0  0  0
 11 12  1  0  0  0  0
 12 13  1  0  0  0  0
 12 17  1  0  0  0  0
 13 14  1  0  0  0  0
 14 15  1  0  0  0  0
 15 16  1  0  0  0  0
 15 18  1  0  0  0  0
 16 17  1  0  0  0  0
 19 20  2  0  0  0  0
 19 21  1  0  0  0  0
 21 22  1  0  0  0  0
 22 23  4  0  0  0  0
 22 30  4  0  0  0  0
 23 24  4  0  0  0  0
 24 25  4  0  0  0  0
 25 26  1  0  0  0  0
 25 29  4  0  0  0  0
 26 27  1  0  0  0  0
 26 28  1  0  0  0  0
 29 30  4  0  0  0  0
M  CHG  3  26   1  27  -1  28  -1
M  END
>  <Name_Molregno>
326713

>  <5-HT1A>
6.8

>  <5-HT1B>
8.1

>  <5-HT1D>
7.5

$$$$
326714
  Marvin  02231216192D 0   1.00000     0.00000     0

 32 35  0  0  1  0  0  0  0  0999 V2000
   -0.8839   -1.3341    0.0000 O   0  0  0  0  0  0  0  0  0
   -0.1694   -0.9216    0.0000 C   0  0  0  0  0  0  0  0  0
   -1.5984   -0.9216    0.0000 C   0  0  0  0  0  0  0  0  0
   -2.3128   -1.3341    0.0000 C   0  0  0  0  0  0  0  0  0
   -3.0273   -0.9216    0.0000 C   0  0  0  0  0  0  0  0  0
   -3.8119   -1.1765    0.0000 C   0  0  0  0  0  0  0  0  0
   -4.2969   -0.5091    0.0000 C   0  0  0  0  0  0  0  0  0
   -3.8119    0.1584    0.0000 N   0  0  0  0  0  0  0  0  0
   -3.0273   -0.0966    0.0000 C   0  0  0  0  0  0  0  0  0
   -2.3128    0.3159    0.0000 C   0  0  0  0  0  0  0  0  0
   -1.5984   -0.0966    0.0000 C   0  0  0  0  0  0  0  0  0
   -0.8839    0.3159    0.0000 N   0  0  0  0  0  0  0  0  0
   -0.8839    1.1409    0.0000 C   0  0  0  0  0  0  0  0  0
   -0.1694    1.5534    0.0000 C   0  0  0  0  0  0  0  0  0
    0.5450    1.1409    0.0000 N   0  0  0  0  0  0  0  0  0
    1.2595    1.5534    0.0000 C   0  0  0  0  0  0  0  0  0
    0.5450    0.3159    0.0000 C   0  0  0  0  0  0  0  0  0
   -0.1694   -0.0966    0.0000 C   0  0  0  0  0  0  0  0  0
    1.2595   -0.0966    0.0000 C   0  0  0  0  0  0  0  0  0
   -0.1694    2.3784    0.0000 C   0  0  0  0  0  0  0  0  0
   -4.0669    0.9430    0.0000 C   0  0  0  0  0  0  0  0  0
   -3.5148    1.5561    0.0000 O   0  0  0  0  0  0  0  0  0
   -4.8738    1.1145    0.0000 C   0  0  0  0  0  0  0  0  0
   -5.1288    1.8991    0.0000 C   0  0  0  0  0  0  0  0  0
   -5.9358    2.0707    0.0000 C   0  0  0  0  0  0  0  0  0
   -6.1907    2.8553    0.0000 C   0  0  0  0  0  0  0  0  0
   -5.6387    3.4684    0.0000 C   0  0  0  0  0  0  0  0  0
   -5.8936    4.2530    0.0000 N   0  3  0  0  0  0  0  0  0
   -6.7006    4.4245    0.0000 O   0  5  0  0  0  0  0  0  0
   -5.3416    4.8661    0.0000 O   0  5  0  0  0  0  0  0  0
   -4.8317    3.2969    0.0000 C   0  0  0  0  0  0  0  0  0
   -4.5768    2.5122    0.0000 C   0  0  0  0  0  0  0  0  0
  1  2  1  0  0  0  0
  1  3  1  0  0  0  0
  3  4  4  0  0  0  0
  3 11  4  0  0  0  0
  4  5  4  0  0  0  0
  5  6  1  0  0  0  0
  5  9  4  0  0  0  0
  6  7  1  0  0  0  0
  7  8  1  0  0  0  0
  8  9  1  0  0  0  0
  8 21  1  0  0  0  0
  9 10  4  0  0  0  0
 10 11  4  0  0  0  0
 11 12  1  0  0  0  0
 12 13  1  0  0  0  0
 12 18  1  0  0  0  0
 13 14  1  0  0  0  0
 14 15  1  0  0  0  0
 14 20  1  0  0  0  0
 15 16  1  0  0  0  0
 15 17  1  0  0  0  0
 17 18  1  0  0  0  0
 17 19  1  0  0  0  0
 21 22  2  0  0  0  0
 21 23  1  0  0  0  0
 23 24  1  0  0  0  0
 24 25  4  0  0  0  0
 24 32  4  0  0  0  0
 25 26  4  0  0  0  0
 26 27  4  0  0  0  0
 27 28  1  0  0  0  0
 27 31  4  0  0  0  0
 28 29  1  0  0  0  0
 28 30  1  0  0  0  0
 31 32  4  0  0  0  0
M  CHG  3  28   1  29  -1  30  -1
M  END
>  <Name_Molregno>
326714

>  <5-HT1A>
5.7

>  <5-HT1B>
7.8

>  <5-HT1D>
6.6

$$$$
326717
  Marvin  02231216192D 0   1.00000     0.00000     0

 37 42  0  0  0  0  0  0  0  0999 V2000
    2.1676   -3.1774    0.0000 O   0  0  0  0  0  0  0  0  0
    2.7196   -3.7905    0.0000 C   0  0  0  0  0  0  0  0  0
    2.4225   -2.3928    0.0000 C   0  0  0  0  0  0  0  0  0
    1.8705   -1.7797    0.0000 C   0  0  0  0  0  0  0  0  0
    2.1254   -0.9950    0.0000 C   0  0  0  0  0  0  0  0  0
    1.7129   -0.2806    0.0000 C   0  0  0  0  0  0  0  0  0
    2.2649    0.3325    0.0000 C   0  0  0  0  0  0  0  0  0
    3.0186   -0.0030    0.0000 N   0  0  0  0  0  0  0  0  0
    2.9324   -0.8235    0.0000 C   0  0  0  0  0  0  0  0  0
    3.4844   -1.4366    0.0000 C   0  0  0  0  0  0  0  0  0
    3.2295   -2.2212    0.0000 C   0  0  0  0  0  0  0  0  0
    3.7815   -2.8343    0.0000 N   0  0  0  0  0  0  0  0  0
    4.5885   -2.6628    0.0000 C   0  0  0  0  0  0  0  0  0
    5.1405   -3.2759    0.0000 C   0  0  0  0  0  0  0  0  0
    4.8856   -4.0605    0.0000 N   0  0  0  0  0  0  0  0  0
    4.0786   -4.2320    0.0000 C   0  0  0  0  0  0  0  0  0
    3.5266   -3.6189    0.0000 C   0  0  0  0  0  0  0  0  0
    5.4376   -4.6736    0.0000 C   0  0  0  0  0  0  0  0  0
    3.7331    0.4095    0.0000 C   0  0  0  0  0  0  0  0  0
    4.4476   -0.0030    0.0000 O   0  0  0  0  0  0  0  0  0
    3.7331    1.2345    0.0000 C   0  0  0  0  0  0  0  0  0
    4.4476    1.6470    0.0000 C   0  0  0  0  0  0  0  0  0
    4.4476    2.4720    0.0000 C   0  0  0  0  0  0  0  0  0
    5.1620    2.8845    0.0000 C   0  0  0  0  0  0  0  0  0
    5.8765    2.4720    0.0000 C   0  0  0  0  0  0  0  0  0
    5.8765    1.6470    0.0000 C   0  0  0  0  0  0  0  0  0
    5.1620    1.2345    0.0000 C   0  0  0  0  0  0  0  0  0
    3.7331    2.8845    0.0000 C   0  0  0  0  0  0  0  0  0
    3.0186    2.4720    0.0000 C   0  0  0  0  0  0  0  0  0
    3.0186    1.6470    0.0000 C   0  0  0  0  0  0  0  0  0
    3.7331    3.7095    0.0000 C   0  0  0  0  0  0  0  0  0
    3.0186    4.1220    0.0000 N   0  0  0  0  0  0  0  0  0
    3.0186    4.9470    0.0000 C   0  0  0  0  0  0  0  0  0
    3.7331    5.3595    0.0000 C   0  0  0  0  0  0  0  0  0
    4.4476    4.9470    0.0000 C   0  0  0  0  0  0  0  0  0
    4.4476    4.1220    0.0000 C   0  0  0  0  0  0  0  0  0
    2.3041    5.3595    0.0000 C   0  0  0  0  0  0  0  0  0
  1  2  1  0  0  0  0
  1  3  1  0  0  0  0
  3  4  4  0  0  0  0
  3 11  4  0  0  0  0
  4  5  4  0  0  0  0
  5  6  1  0  0  0  0
  5  9  4  0  0  0  0
  6  7  1  0  0  0  0
  7  8  1  0  0  0  0
  8  9  1  0  0  0  0
  8 19  1  0  0  0  0
  9 10  4  0  0  0  0
 10 11  4  0  0  0  0
 11 12  1  0  0  0  0
 12 13  1  0  0  0  0
 12 17  1  0  0  0  0
 13 14  1  0  0  0  0
 14 15  1  0  0  0  0
 15 16  1  0  0  0  0
 15 18  1  0  0  0  0
 16 17  1  0  0  0  0
 19 20  2  0  0  0  0
 19 21  1  0  0  0  0
 21 22  4  0  0  0  0
 21 30  4  0  0  0  0
 22 23  4  0  0  0  0
 22 27  4  0  0  0  0
 23 24  4  0  0  0  0
 23 28  4  0  0  0  0
 24 25  4  0  0  0  0
 25 26  4  0  0  0  0
 26 27  4  0  0  0  0
 28 29  4  0  0  0  0
 28 31  1  0  0  0  0
 29 30  4  0  0  0  0
 31 32  4  0  0  0  0
 31 36  4  0  0  0  0
 32 33  4  0  0  0  0
 33 34  4  0  0  0  0
 33 37  1  0  0  0  0
 34 35  4  0  0  0  0
 35 36  4  0  0  0  0
M  END
>  <Name_Molregno>
326717

>  <5-HT1A>
7.9

>  <5-HT1B>
8.7

>  <5-HT1D>
7.6

$$$$
326718
  Marvin  02231216192D 0   1.00000     0.00000     0

 39 44  0  0  1  0  0  0  0  0999 V2000
    1.9197   -2.8433    0.0000 O   0  0  0  0  0  0  0  0  0
    2.4717   -3.4564    0.0000 C   0  0  0  0  0  0  0  0  0
    2.1746   -2.0587    0.0000 C   0  0  0  0  0  0  0  0  0
    1.6226   -1.4456    0.0000 C   0  0  0  0  0  0  0  0  0
    1.8775   -0.6610    0.0000 C   0  0  0  0  0  0  0  0  0
    1.4650    0.0535    0.0000 C   0  0  0  0  0  0  0  0  0
    2.0171    0.6666    0.0000 C   0  0  0  0  0  0  0  0  0
    2.7707    0.3310    0.0000 N   0  0  0  0  0  0  0  0  0
    2.6845   -0.4895    0.0000 C   0  0  0  0  0  0  0  0  0
    3.2365   -1.1026    0.0000 C   0  0  0  0  0  0  0  0  0
    2.9816   -1.8872    0.0000 C   0  0  0  0  0  0  0  0  0
    3.5336   -2.5003    0.0000 N   0  0  0  0  0  0  0  0  0
    4.3406   -2.3288    0.0000 C   0  0  0  0  0  0  0  0  0
    4.8926   -2.9419    0.0000 C   0  0  0  0  0  0  0  0  0
    4.6377   -3.7265    0.0000 N   0  0  0  0  0  0  0  0  0
    5.1897   -4.3396    0.0000 C   0  0  0  0  0  0  0  0  0
    3.8307   -3.8980    0.0000 C   0  0  0  0  0  0  0  0  0
    3.2787   -3.2849    0.0000 C   0  0  0  0  0  0  0  0  0
    3.5758   -4.6826    0.0000 C   0  0  0  0  0  0  0  0  0
    5.6996   -2.7703    0.0000 C   0  0  0  0  0  0  0  0  0
    3.4852    0.7435    0.0000 C   0  0  0  0  0  0  0  0  0
    4.1997    0.3310    0.0000 O   0  0  0  0  0  0  0  0  0
    3.4852    1.5685    0.0000 C   0  0  0  0  0  0  0  0  0
    4.1997    1.9810    0.0000 C   0  0  0  0  0  0  0  0  0
    4.1997    2.8060    0.0000 C   0  0  0  0  0  0  0  0  0
    4.9141    3.2185    0.0000 C   0  0  0  0  0  0  0  0  0
    5.6286    2.8060    0.0000 C   0  0  0  0  0  0  0  0  0
    5.6286    1.9810    0.0000 C   0  0  0  0  0  0  0  0  0
    4.9141    1.5685    0.0000 C   0  0  0  0  0  0  0  0  0
    3.4852    3.2185    0.0000 C   0  0  0  0  0  0  0  0  0
    2.7707    2.8060    0.0000 C   0  0  0  0  0  0  0  0  0
    2.7707    1.9810    0.0000 C   0  0  0  0  0  0  0  0  0
    3.4852    4.0435    0.0000 C   0  0  0  0  0  0  0  0  0
    2.7707    4.4560    0.0000 N   0  0  0  0  0  0  0  0  0
    2.7707    5.2810    0.0000 C   0  0  0  0  0  0  0  0  0
    3.4852    5.6935    0.0000 C   0  0  0  0  0  0  0  0  0
    4.1997    5.2810    0.0000 C   0  0  0  0  0  0  0  0  0
    4.1997    4.4560    0.0000 C   0  0  0  0  0  0  0  0  0
    2.0563    5.6935    0.0000 C   0  0  0  0  0  0  0  0  0
  1  2  1  0  0  0  0
  1  3  1  0  0  0  0
  3  4  4  0  0  0  0
  3 11  4  0  0  0  0
  4  5  4  0  0  0  0
  5  6  1  0  0  0  0
  5  9  4  0  0  0  0
  6  7  1  0  0  0  0
  7  8  1  0  0  0  0
  8  9  1  0  0  0  0
  8 21  1  0  0  0  0
  9 10  4  0  0  0  0
 10 11  4  0  0  0  0
 11 12  1  0  0  0  0
 12 13  1  0  0  0  0
 12 18  1  0  0  0  0
 13 14  1  0  0  0  0
 14 15  1  0  0  0  0
 14 20  1  0  0  0  0
 15 16  1  0  0  0  0
 15 17  1  0  0  0  0
 17 18  1  0  0  0  0
 17 19  1  0  0  0  0
 21 22  2  0  0  0  0
 21 23  1  0  0  0  0
 23 24  4  0  0  0  0
 23 32  4  0  0  0  0
 24 25  4  0  0  0  0
 24 29  4  0  0  0  0
 25 26  4  0  0  0  0
 25 30  4  0  0  0  0
 26 27  4  0  0  0  0
 27 28  4  0  0  0  0
 28 29  4  0  0  0  0
 30 31  4  0  0  0  0
 30 33  1  0  0  0  0
 31 32  4  0  0  0  0
 33 34  4  0  0  0  0
 33 38  4  0  0  0  0
 34 35  4  0  0  0  0
 35 36  4  0  0  0  0
 35 39  1  0  0  0  0
 36 37  4  0  0  0  0
 37 38  4  0  0  0  0
M  END
>  <Name_Molregno>
326718

>  <5-HT1A>
6.3

>  <5-HT1B>
8.5

>  <5-HT1D>
7

$$$$
326719
  Marvin  02231216192D 0   1.00000     0.00000     0

 38 43  0  0  1  0  0  0  0  0999 V2000
    2.0641   -3.0286    0.0000 O   0  0  0  0  0  0  0  0  0
    2.6161   -3.6417    0.0000 C   0  0  0  0  0  0  0  0  0
    2.3190   -2.2440    0.0000 C   0  0  0  0  0  0  0  0  0
    1.7670   -1.6309    0.0000 C   0  0  0  0  0  0  0  0  0
    2.0219   -0.8462    0.0000 C   0  0  0  0  0  0  0  0  0
    1.6094   -0.1318    0.0000 C   0  0  0  0  0  0  0  0  0
    2.1614    0.4813    0.0000 C   0  0  0  0  0  0  0  0  0
    2.9151    0.1458    0.0000 N   0  0  0  0  0  0  0  0  0
    2.8289   -0.6747    0.0000 C   0  0  0  0  0  0  0  0  0
    3.3809   -1.2878    0.0000 C   0  0  0  0  0  0  0  0  0
    3.1260   -2.0724    0.0000 C   0  0  0  0  0  0  0  0  0
    3.6780   -2.6855    0.0000 N   0  0  0  0  0  0  0  0  0
    4.4850   -2.5140    0.0000 C   0  0  0  0  0  0  0  0  0
    5.0370   -3.1271    0.0000 C   0  0  0  0  0  0  0  0  0
    4.7821   -3.9117    0.0000 N   0  0  0  0  0  0  0  0  0
    3.9751   -4.0832    0.0000 C   0  0  0  0  0  0  0  0  0
    3.4231   -3.4702    0.0000 C   0  0  0  0  0  0  0  0  0
    3.7201   -4.8679    0.0000 C   0  0  0  0  0  0  0  0  0
    5.8440   -2.9556    0.0000 C   0  0  0  0  0  0  0  0  0
    3.6296    0.5583    0.0000 C   0  0  0  0  0  0  0  0  0
    4.3440    0.1458    0.0000 O   0  0  0  0  0  0  0  0  0
    3.6296    1.3833    0.0000 C   0  0  0  0  0  0  0  0  0
    4.3440    1.7958    0.0000 C   0  0  0  0  0  0  0  0  0
    4.3440    2.6208    0.0000 C   0  0  0  0  0  0  0  0  0
    5.0585    3.0333    0.0000 C   0  0  0  0  0  0  0  0  0
    5.7730    2.6208    0.0000 C   0  0  0  0  0  0  0  0  0
    5.7730    1.7958    0.0000 C   0  0  0  0  0  0  0  0  0
    5.0585    1.3833    0.0000 C   0  0  0  0  0  0  0  0  0
    3.6296    3.0333    0.0000 C   0  0  0  0  0  0  0  0  0
    2.9151    2.6208    0.0000 C   0  0  0  0  0  0  0  0  0
    2.9151    1.7958    0.0000 C   0  0  0  0  0  0  0  0  0
    3.6296    3.8583    0.0000 C   0  0  0  0  0  0  0  0  0
    2.9151    4.2708    0.0000 N   0  0  0  0  0  0  0  0  0
    2.9151    5.0958    0.0000 C   0  0  0  0  0  0  0  0  0
    3.6296    5.5083    0.0000 C   0  0  0  0  0  0  0  0  0
    4.3440    5.0958    0.0000 C   0  0  0  0  0  0  0  0  0
    4.3440    4.2708    0.0000 C   0  0  0  0  0  0  0  0  0
    2.2006    5.5083    0.0000 C   0  0  0  0  0  0  0  0  0
  1  2  1  0  0  0  0
  1  3  1  0  0  0  0
  3  4  4  0  0  0  0
  3 11  4  0  0  0  0
  4  5  4  0  0  0  0
  5  6  1  0  0  0  0
  5  9  4  0  0  0  0
  6  7  1  0  0  0  0
  7  8  1  0  0  0  0
  8  9  1  0  0  0  0
  8 20  1  0  0  0  0
  9 10  4  0  0  0  0
 10 11  4  0  0  0  0
 11 12  1  0  0  0  0
 12 13  1  0  0  0  0
 12 17  1  0  0  0  0
 13 14  1  0  0  0  0
 14 15  1  0  0  0  0
 14 19  1  0  0  0  0
 15 16  1  0  0  0  0
 16 17  1  0  0  0  0
 16 18  1  0  0  0  0
 20 21  2  0  0  0  0
 20 22  1  0  0  0  0
 22 23  4  0  0  0  0
 22 31  4  0  0  0  0
 23 24  4  0  0  0  0
 23 28  4  0  0  0  0
 24 25  4  0  0  0  0
 24 29  4  0  0  0  0
 25 26  4  0  0  0  0
 26 27  4  0  0  0  0
 27 28  4  0  0  0  0
 29 30  4  0  0  0  0
 29 32  1  0  0  0  0
 30 31  4  0  0  0  0
 32 33  4  0  0  0  0
 32 37  4  0  0  0  0
 33 34  4  0  0  0  0
 34 35  4  0  0  0  0
 34 38  1  0  0  0  0
 35 36  4  0  0  0  0
 36 37  4  0  0  0  0
M  END
>  <Name_Molregno>
326719

>  <5-HT1A>
6

>  <5-HT1B>
7.3

>  <5-HT1D>
6.9

$$$$
327069
  Marvin  02231216192D 0   1.00000     0.00000     0

 31 34  0  0  0  0  0  0  0  0999 V2000
    4.9165    5.1026    0.0000 Cl  0  0  0  0  0  0  0  0  0
    4.9165    4.2776    0.0000 C   0  0  0  0  0  0  0  0  0
    5.6310    3.8651    0.0000 C   0  0  0  0  0  0  0  0  0
    5.6310    3.0401    0.0000 C   0  0  0  0  0  0  0  0  0
    4.9165    2.6276    0.0000 C   0  0  0  0  0  0  0  0  0
    4.9165    1.8026    0.0000 N   0  0  0  0  0  0  0  0  0
    5.6310    1.3901    0.0000 C   0  0  0  0  0  0  0  0  0
    5.6310    0.5651    0.0000 C   0  0  0  0  0  0  0  0  0
    4.9165    0.1526    0.0000 N   0  0  0  0  0  0  0  0  0
    4.2021    0.5651    0.0000 C   0  0  0  0  0  0  0  0  0
    4.2021    1.3901    0.0000 C   0  0  0  0  0  0  0  0  0
    4.9165   -0.6724    0.0000 C   0  0  0  0  0  0  0  0  0
    4.2021   -1.0849    0.0000 O   0  0  0  0  0  0  0  0  0
    5.6310   -1.0849    0.0000 N   0  0  0  0  0  0  0  0  0
    5.6310   -1.9099    0.0000 C   0  0  0  0  0  0  0  0  0
    6.3455   -2.3224    0.0000 C   0  0  0  0  0  0  0  0  0
    6.3455   -3.1474    0.0000 C   0  0  0  0  0  0  0  0  0
    7.0599   -3.5599    0.0000 N   0  0  0  0  0  0  0  0  0
    7.7744   -3.1474    0.0000 C   0  0  0  0  0  0  0  0  0
    8.4889   -3.5599    0.0000 C   0  0  0  0  0  0  0  0  0
    8.4889   -4.3849    0.0000 N   0  0  0  0  0  0  0  0  0
    7.7744   -4.7974    0.0000 C   0  0  0  0  0  0  0  0  0
    7.0599   -4.3849    0.0000 C   0  0  0  0  0  0  0  0  0
    9.2034   -4.7974    0.0000 C   0  0  0  0  0  0  0  0  0
    5.6310   -3.5599    0.0000 C   0  0  0  0  0  0  0  0  0
    5.6310   -4.3849    0.0000 O   0  0  0  0  0  0  0  0  0
    4.9165   -4.7974    0.0000 C   0  0  0  0  0  0  0  0  0
    4.9165   -3.1474    0.0000 C   0  0  0  0  0  0  0  0  0
    4.9165   -2.3224    0.0000 C   0  0  0  0  0  0  0  0  0
    4.2021    3.0401    0.0000 C   0  0  0  0  0  0  0  0  0
    4.2021    3.8651    0.0000 C   0  0  0  0  0  0  0  0  0
  1  2  1  0  0  0  0
  2  3  4  0  0  0  0
  2 31  4  0  0  0  0
  3  4  4  0  0  0  0
  4  5  4  0  0  0  0
  5  6  1  0  0  0  0
  5 30  4  0  0  0  0
  6  7  1  0  0  0  0
  6 11  1  0  0  0  0
  7  8  1  0  0  0  0
  8  9  1  0  0  0  0
  9 10  1  0  0  0  0
  9 12  1  0  0  0  0
 10 11  1  0  0  0  0
 12 13  2  0  0  0  0
 12 14  1  0  0  0  0
 14 15  1  0  0  0  0
 15 16  4  0  0  0  0
 15 29  4  0  0  0  0
 16 17  4  0  0  0  0
 17 18  1  0  0  0  0
 17 25  4  0  0  0  0
 18 19  1  0  0  0  0
 18 23  1  0  0  0  0
 19 20  1  0  0  0  0
 20 21  1  0  0  0  0
 21 22  1  0  0  0  0
 21 24  1  0  0  0  0
 22 23  1  0  0  0  0
 25 26  1  0  0  0  0
 25 28  4  0  0  0  0
 26 27  1  0  0  0  0
 28 29  4  0  0  0  0
 30 31  4  0  0  0  0
M  END
>  <Name_Molregno>
327069

>  <5-HT1A>
7.28

>  <5-HT1B>
8.74

>  <5-HT1D>
8.19

>  <5-HT2A>
6

>  <5-HT2C>
6.57

>  <5-HT6>
5.29

>  <5-HT7>
5

>  <DOPAMINE D1>
5

>  <DOPAMINE D2>
5

>  <DOPAMINE D3>
5

>  <DOPAMINE D4>
5

>  <DOPAMINE D5>
5

>  <HISTAMINE H1>
5

>  <Muscarinic acetylcholine receptor M1>
5

>  <Muscarinic acetylcholine receptor M2>
5

>  <Muscarinic acetylcholine receptor M3>
5

>  <Muscarinic acetylcholine receptor M4>
5

>  <Muscarinic acetylcholine receptor M5>
5

$$$$
327077
  Marvin  02231216192D 0   1.00000     0.00000     0

 31 34  0  0  0  0  0  0  0  0999 V2000
    4.9165    5.1026    0.0000 F   0  0  0  0  0  0  0  0  0
    4.9165    4.2776    0.0000 C   0  0  0  0  0  0  0  0  0
    5.6310    3.8651    0.0000 C   0  0  0  0  0  0  0  0  0
    5.6310    3.0401    0.0000 C   0  0  0  0  0  0  0  0  0
    4.9165    2.6276    0.0000 C   0  0  0  0  0  0  0  0  0
    4.9165    1.8026    0.0000 N   0  0  0  0  0  0  0  0  0
    5.6310    1.3901    0.0000 C   0  0  0  0  0  0  0  0  0
    5.6310    0.5651    0.0000 C   0  0  0  0  0  0  0  0  0
    4.9165    0.1526    0.0000 N   0  0  0  0  0  0  0  0  0
    4.2021    0.5651    0.0000 C   0  0  0  0  0  0  0  0  0
    4.2021    1.3901    0.0000 C   0  0  0  0  0  0  0  0  0
    4.9165   -0.6724    0.0000 C   0  0  0  0  0  0  0  0  0
    4.2021   -1.0849    0.0000 O   0  0  0  0  0  0  0  0  0
    5.6310   -1.0849    0.0000 N   0  0  0  0  0  0  0  0  0
    5.6310   -1.9099    0.0000 C   0  0  0  0  0  0  0  0  0
    6.3455   -2.3224    0.0000 C   0  0  0  0  0  0  0  0  0
    6.3455   -3.1474    0.0000 C   0  0  0  0  0  0  0  0  0
    7.0599   -3.5599    0.0000 N   0  0  0  0  0  0  0  0  0
    7.7744   -3.1474    0.0000 C   0  0  0  0  0  0  0  0  0
    8.4889   -3.5599    0.0000 C   0  0  0  0  0  0  0  0  0
    8.4889   -4.3849    0.0000 N   0  0  0  0  0  0  0  0  0
    7.7744   -4.7974    0.0000 C   0  0  0  0  0  0  0  0  0
    7.0599   -4.3849    0.0000 C   0  0  0  0  0  0  0  0  0
    9.2034   -4.7974    0.0000 C   0  0  0  0  0  0  0  0  0
    5.6310   -3.5599    0.0000 C   0  0  0  0  0  0  0  0  0
    5.6310   -4.3849    0.0000 O   0  0  0  0  0  0  0  0  0
    4.9165   -4.7974    0.0000 C   0  0  0  0  0  0  0  0  0
    4.9165   -3.1474    0.0000 C   0  0  0  0  0  0  0  0  0
    4.9165   -2.3224    0.0000 C   0  0  0  0  0  0  0  0  0
    4.2021    3.0401    0.0000 C   0  0  0  0  0  0  0  0  0
    4.2021    3.8651    0.0000 C   0  0  0  0  0  0  0  0  0
  1  2  1  0  0  0  0
  2  3  4  0  0  0  0
  2 31  4  0  0  0  0
  3  4  4  0  0  0  0
  4  5  4  0  0  0  0
  5  6  1  0  0  0  0
  5 30  4  0  0  0  0
  6  7  1  0  0  0  0
  6 11  1  0  0  0  0
  7  8  1  0  0  0  0
  8  9  1  0  0  0  0
  9 10  1  0  0  0  0
  9 12  1  0  0  0  0
 10 11  1  0  0  0  0
 12 13  2  0  0  0  0
 12 14  1  0  0  0  0
 14 15  1  0  0  0  0
 15 16  4  0  0  0  0
 15 29  4  0  0  0  0
 16 17  4  0  0  0  0
 17 18  1  0  0  0  0
 17 25  4  0  0  0  0
 18 19  1  0  0  0  0
 18 23  1  0  0  0  0
 19 20  1  0  0  0  0
 20 21  1  0  0  0  0
 21 22  1  0  0  0  0
 21 24  1  0  0  0  0
 22 23  1  0  0  0  0
 25 26  1  0  0  0  0
 25 28  4  0  0  0  0
 26 27  1  0  0  0  0
 28 29  4  0  0  0  0
 30 31  4  0  0  0  0
M  END
>  <Name_Molregno>
327077

>  <5-HT1A>
5.97

>  <5-HT1B>
7.42

>  <5-HT1D>
6.77

>  <5-HT2A>
5.35

>  <5-HT2C>
5

>  <5-HT6>
5

>  <5-HT7>
5

>  <DOPAMINE D1>
5

>  <DOPAMINE D2>
5

>  <DOPAMINE D3>
5

>  <DOPAMINE D4>
5

>  <DOPAMINE D5>
5

>  <HISTAMINE H1>
5

>  <Muscarinic acetylcholine receptor M1>
5

>  <Muscarinic acetylcholine receptor M2>
5

>  <Muscarinic acetylcholine receptor M3>
5

>  <Muscarinic acetylcholine receptor M4>
5

>  <Muscarinic acetylcholine receptor M5>
5

$$$$
327082
  Marvin  02231216192D 0   1.00000     0.00000     0

 36 40  0  0  0  0  0  0  0  0999 V2000
   -4.3490    4.5404    0.0000 O   0  0  0  0  0  0  0  0  0
   -5.0635    4.9529    0.0000 C   0  0  0  0  0  0  0  0  0
   -4.3490    3.7154    0.0000 C   0  0  0  0  0  0  0  0  0
   -3.6345    3.3029    0.0000 C   0  0  0  0  0  0  0  0  0
   -3.6345    2.4779    0.0000 C   0  0  0  0  0  0  0  0  0
   -4.3490    2.0654    0.0000 C   0  0  0  0  0  0  0  0  0
   -4.3490    1.2404    0.0000 N   0  0  0  0  0  0  0  0  0
   -3.6345    0.8279    0.0000 C   0  0  0  0  0  0  0  0  0
   -2.9201    1.2404    0.0000 O   0  0  0  0  0  0  0  0  0
   -3.6345    0.0029    0.0000 N   0  0  0  0  0  0  0  0  0
   -2.9201   -0.4096    0.0000 C   0  0  0  0  0  0  0  0  0
   -2.9201   -1.2346    0.0000 C   0  0  0  0  0  0  0  0  0
   -3.6345   -1.6471    0.0000 N   0  0  0  0  0  0  0  0  0
   -4.3490   -1.2346    0.0000 C   0  0  0  0  0  0  0  0  0
   -4.3490   -0.4096    0.0000 C   0  0  0  0  0  0  0  0  0
   -3.6345   -2.4721    0.0000 C   0  0  0  0  0  0  0  0  0
   -2.9201   -2.8846    0.0000 C   0  0  0  0  0  0  0  0  0
   -2.9201   -3.7096    0.0000 C   0  0  0  0  0  0  0  0  0
   -3.6345   -4.1221    0.0000 C   0  0  0  0  0  0  0  0  0
   -4.3490   -3.7096    0.0000 C   0  0  0  0  0  0  0  0  0
   -4.3490   -2.8846    0.0000 C   0  0  0  0  0  0  0  0  0
   -3.6345   -4.9471    0.0000 C   0  0  0  0  0  0  0  0  0
   -2.9201   -5.3596    0.0000 C   0  0  0  0  0  0  0  0  0
   -2.9201   -6.1846    0.0000 C   0  0  0  0  0  0  0  0  0
   -3.6345   -6.5971    0.0000 C   0  0  0  0  0  0  0  0  0
   -4.3490   -6.1846    0.0000 C   0  0  0  0  0  0  0  0  0
   -4.3490   -5.3596    0.0000 C   0  0  0  0  0  0  0  0  0
   -5.0635    2.4779    0.0000 C   0  0  0  0  0  0  0  0  0
   -5.0635    3.3029    0.0000 C   0  0  0  0  0  0  0  0  0
   -5.7779    3.7154    0.0000 N   0  0  0  0  0  0  0  0  0
   -6.4924    3.3029    0.0000 C   0  0  0  0  0  0  0  0  0
   -7.2069    3.7154    0.0000 C   0  0  0  0  0  0  0  0  0
   -7.2069    4.5404    0.0000 N   0  0  0  0  0  0  0  0  0
   -6.4924    4.9529    0.0000 C   0  0  0  0  0  0  0  0  0
   -5.7779    4.5404    0.0000 C   0  0  0  0  0  0  0  0  0
   -7.9214    4.9529    0.0000 C   0  0  0  0  0  0  0  0  0
  1  2  1  0  0  0  0
  1  3  1  0  0  0  0
  3  4  4  0  0  0  0
  3 29  4  0  0  0  0
  4  5  4  0  0  0  0
  5  6  4  0  0  0  0
  6  7  1  0  0  0  0
  6 28  4  0  0  0  0
  7  8  1  0  0  0  0
  8  9  2  0  0  0  0
  8 10  1  0  0  0  0
 10 11  1  0  0  0  0
 10 15  1  0  0  0  0
 11 12  1  0  0  0  0
 12 13  1  0  0  0  0
 13 14  1  0  0  0  0
 13 16  1  0  0  0  0
 14 15  1  0  0  0  0
 16 17  4  0  0  0  0
 16 21  4  0  0  0  0
 17 18  4  0  0  0  0
 18 19  4  0  0  0  0
 19 20  4  0  0  0  0
 19 22  1  0  0  0  0
 20 21  4  0  0  0  0
 22 23  4  0  0  0  0
 22 27  4  0  0  0  0
 23 24  4  0  0  0  0
 24 25  4  0  0  0  0
 25 26  4  0  0  0  0
 26 27  4  0  0  0  0
 28 29  4  0  0  0  0
 29 30  1  0  0  0  0
 30 31  1  0  0  0  0
 30 35  1  0  0  0  0
 31 32  1  0  0  0  0
 32 33  1  0  0  0  0
 33 34  1  0  0  0  0
 33 36  1  0  0  0  0
 34 35  1  0  0  0  0
M  END
>  <Name_Molregno>
327082

>  <5-HT1A>
6.39

>  <5-HT1B>
7.86

>  <5-HT1D>
6.68

>  <5-HT2A>
6.77

>  <5-HT2C>
8.19

>  <5-HT6>
5.84

>  <5-HT7>
5

>  <DOPAMINE D1>
5

>  <DOPAMINE D2>
5

>  <DOPAMINE D3>
5

>  <DOPAMINE D4>
5

>  <DOPAMINE D5>
5

>  <HISTAMINE H1>
5

>  <Muscarinic acetylcholine receptor M1>
5

>  <Muscarinic acetylcholine receptor M2>
5

>  <Muscarinic acetylcholine receptor M3>
5

>  <Muscarinic acetylcholine receptor M4>
5

>  <Muscarinic acetylcholine receptor M5>
5

$$$$
327083
  Marvin  02231216192D 0   1.00000     0.00000     0

 34 37  0  0  0  0  0  0  0  0999 V2000
    5.2566    5.4075    0.0000 F   0  0  0  0  0  0  0  0  0
    5.2566    4.5825    0.0000 C   0  0  0  0  0  0  0  0  0
    4.4316    4.5825    0.0000 F   0  0  0  0  0  0  0  0  0
    6.0816    4.5825    0.0000 F   0  0  0  0  0  0  0  0  0
    5.2566    3.7575    0.0000 C   0  0  0  0  0  0  0  0  0
    5.9711    3.3450    0.0000 C   0  0  0  0  0  0  0  0  0
    5.9711    2.5200    0.0000 C   0  0  0  0  0  0  0  0  0
    5.2566    2.1075    0.0000 C   0  0  0  0  0  0  0  0  0
    5.2566    1.2825    0.0000 N   0  0  0  0  0  0  0  0  0
    5.9711    0.8700    0.0000 C   0  0  0  0  0  0  0  0  0
    5.9711    0.0450    0.0000 C   0  0  0  0  0  0  0  0  0
    5.2566   -0.3675    0.0000 N   0  0  0  0  0  0  0  0  0
    4.5421    0.0450    0.0000 C   0  0  0  0  0  0  0  0  0
    4.5421    0.8700    0.0000 C   0  0  0  0  0  0  0  0  0
    5.2566   -1.1925    0.0000 C   0  0  0  0  0  0  0  0  0
    4.5421   -1.6050    0.0000 O   0  0  0  0  0  0  0  0  0
    5.9711   -1.6050    0.0000 N   0  0  0  0  0  0  0  0  0
    5.9711   -2.4300    0.0000 C   0  0  0  0  0  0  0  0  0
    6.6855   -2.8425    0.0000 C   0  0  0  0  0  0  0  0  0
    6.6855   -3.6675    0.0000 C   0  0  0  0  0  0  0  0  0
    7.4000   -4.0800    0.0000 N   0  0  0  0  0  0  0  0  0
    8.1145   -3.6675    0.0000 C   0  0  0  0  0  0  0  0  0
    8.8289   -4.0800    0.0000 C   0  0  0  0  0  0  0  0  0
    8.8289   -4.9050    0.0000 N   0  0  0  0  0  0  0  0  0
    8.1145   -5.3175    0.0000 C   0  0  0  0  0  0  0  0  0
    7.4000   -4.9050    0.0000 C   0  0  0  0  0  0  0  0  0
    9.5434   -5.3175    0.0000 C   0  0  0  0  0  0  0  0  0
    5.9711   -4.0800    0.0000 C   0  0  0  0  0  0  0  0  0
    5.9711   -4.9050    0.0000 O   0  0  0  0  0  0  0  0  0
    5.2566   -5.3175    0.0000 C   0  0  0  0  0  0  0  0  0
    5.2566   -3.6675    0.0000 C   0  0  0  0  0  0  0  0  0
    5.2566   -2.8425    0.0000 C   0  0  0  0  0  0  0  0  0
    4.5421    2.5200    0.0000 C   0  0  0  0  0  0  0  0  0
    4.5421    3.3450    0.0000 C   0  0  0  0  0  0  0  0  0
  1  2  1  0  0  0  0
  2  3  1  0  0  0  0
  2  4  1  0  0  0  0
  2  5  1  0  0  0  0
  5  6  4  0  0  0  0
  5 34  4  0  0  0  0
  6  7  4  0  0  0  0
  7  8  4  0  0  0  0
  8  9  1  0  0  0  0
  8 33  4  0  0  0  0
  9 10  1  0  0  0  0
  9 14  1  0  0  0  0
 10 11  1  0  0  0  0
 11 12  1  0  0  0  0
 12 13  1  0  0  0  0
 12 15  1  0  0  0  0
 13 14  1  0  0  0  0
 15 16  2  0  0  0  0
 15 17  1  0  0  0  0
 17 18  1  0  0  0  0
 18 19  4  0  0  0  0
 18 32  4  0  0  0  0
 19 20  4  0  0  0  0
 20 21  1  0  0  0  0
 20 28  4  0  0  0  0
 21 22  1  0  0  0  0
 21 26  1  0  0  0  0
 22 23  1  0  0  0  0
 23 24  1  0  0  0  0
 24 25  1  0  0  0  0
 24 27  1  0  0  0  0
 25 26  1  0  0  0  0
 28 29  1  0  0  0  0
 28 31  4  0  0  0  0
 29 30  1  0  0  0  0
 31 32  4  0  0  0  0
 33 34  4  0  0  0  0
M  END
>  <Name_Molregno>
327083

>  <5-HT1A>
6.42

>  <5-HT1B>
7.55

>  <5-HT1D>
6.46

>  <5-HT2A>
6.21

>  <5-HT2C>
5.55

>  <5-HT6>
5.54

>  <5-HT7>
5

>  <DOPAMINE D1>
5

>  <DOPAMINE D2>
5

>  <DOPAMINE D3>
5

>  <DOPAMINE D4>
5

>  <DOPAMINE D5>
5

>  <HISTAMINE H1>
5

>  <Muscarinic acetylcholine receptor M1>
5

>  <Muscarinic acetylcholine receptor M2>
5

>  <Muscarinic acetylcholine receptor M3>
5

>  <Muscarinic acetylcholine receptor M4>
5

>  <Muscarinic acetylcholine receptor M5>
5

$$$$
327090
  Marvin  02231216192D 0   1.00000     0.00000     0

 32 35  0  0  0  0  0  0  0  0999 V2000
   -6.3746    6.5338    0.0000 S   0  0  0  0  0  0  0  0  0
   -7.0891    6.9463    0.0000 C   0  0  0  0  0  0  0  0  0
   -6.3746    5.7088    0.0000 C   0  0  0  0  0  0  0  0  0
   -5.6602    5.2963    0.0000 C   0  0  0  0  0  0  0  0  0
   -5.6602    4.4713    0.0000 C   0  0  0  0  0  0  0  0  0
   -6.3746    4.0588    0.0000 C   0  0  0  0  0  0  0  0  0
   -6.3746    3.2338    0.0000 N   0  0  0  0  0  0  0  0  0
   -5.6602    2.8213    0.0000 C   0  0  0  0  0  0  0  0  0
   -5.6602    1.9963    0.0000 C   0  0  0  0  0  0  0  0  0
   -6.3746    1.5838    0.0000 N   0  0  0  0  0  0  0  0  0
   -7.0891    1.9963    0.0000 C   0  0  0  0  0  0  0  0  0
   -7.0891    2.8213    0.0000 C   0  0  0  0  0  0  0  0  0
   -6.3746    0.7588    0.0000 C   0  0  0  0  0  0  0  0  0
   -7.0891    0.3463    0.0000 O   0  0  0  0  0  0  0  0  0
   -5.6602    0.3463    0.0000 N   0  0  0  0  0  0  0  0  0
   -5.6602   -0.4787    0.0000 C   0  0  0  0  0  0  0  0  0
   -4.9457   -0.8912    0.0000 C   0  0  0  0  0  0  0  0  0
   -4.9457   -1.7162    0.0000 C   0  0  0  0  0  0  0  0  0
   -4.2312   -2.1287    0.0000 N   0  0  0  0  0  0  0  0  0
   -3.5167   -1.7162    0.0000 C   0  0  0  0  0  0  0  0  0
   -2.8023   -2.1287    0.0000 C   0  0  0  0  0  0  0  0  0
   -2.8023   -2.9537    0.0000 N   0  0  0  0  0  0  0  0  0
   -3.5167   -3.3662    0.0000 C   0  0  0  0  0  0  0  0  0
   -4.2312   -2.9537    0.0000 C   0  0  0  0  0  0  0  0  0
   -2.0878   -3.3662    0.0000 C   0  0  0  0  0  0  0  0  0
   -5.6602   -2.1287    0.0000 C   0  0  0  0  0  0  0  0  0
   -5.6602   -2.9537    0.0000 O   0  0  0  0  0  0  0  0  0
   -6.3746   -3.3662    0.0000 C   0  0  0  0  0  0  0  0  0
   -6.3746   -1.7162    0.0000 C   0  0  0  0  0  0  0  0  0
   -6.3746   -0.8912    0.0000 C   0  0  0  0  0  0  0  0  0
   -7.0891    4.4713    0.0000 C   0  0  0  0  0  0  0  0  0
   -7.0891    5.2963    0.0000 C   0  0  0  0  0  0  0  0  0
  1  2  1  0  0  0  0
  1  3  1  0  0  0  0
  3  4  4  0  0  0  0
  3 32  4  0  0  0  0
  4  5  4  0  0  0  0
  5  6  4  0  0  0  0
  6  7  1  0  0  0  0
  6 31  4  0  0  0  0
  7  8  1  0  0  0  0
  7 12  1  0  0  0  0
  8  9  1  0  0  0  0
  9 10  1  0  0  0  0
 10 11  1  0  0  0  0
 10 13  1  0  0  0  0
 11 12  1  0  0  0  0
 13 14  2  0  0  0  0
 13 15  1  0  0  0  0
 15 16  1  0  0  0  0
 16 17  4  0  0  0  0
 16 30  4  0  0  0  0
 17 18  4  0  0  0  0
 18 19  1  0  0  0  0
 18 26  4  0  0  0  0
 19 20  1  0  0  0  0
 19 24  1  0  0  0  0
 20 21  1  0  0  0  0
 21 22  1  0  0  0  0
 22 23  1  0  0  0  0
 22 25  1  0  0  0  0
 23 24  1  0  0  0  0
 26 27  1  0  0  0  0
 26 29  4  0  0  0  0
 27 28  1  0  0  0  0
 29 30  4  0  0  0  0
 31 32  4  0  0  0  0
M  END
>  <Name_Molregno>
327090

>  <5-HT1A>
6.05

>  <5-HT1B>
7.78

>  <5-HT1D>
6.48

>  <5-HT2A>
5.87

>  <5-HT2C>
5.94

>  <5-HT6>
5

>  <5-HT7>
5

>  <DOPAMINE D1>
5

>  <DOPAMINE D2>
5

>  <DOPAMINE D3>
5

>  <DOPAMINE D4>
5

>  <DOPAMINE D5>
5

>  <HISTAMINE H1>
5

>  <Muscarinic acetylcholine receptor M1>
5

>  <Muscarinic acetylcholine receptor M2>
5

>  <Muscarinic acetylcholine receptor M3>
5

>  <Muscarinic acetylcholine receptor M4>
5

>  <Muscarinic acetylcholine receptor M5>
5

$$$$
327091
  Marvin  02231216192D 0   1.00000     0.00000     0

 32 35  0  0  0  0  0  0  0  0999 V2000
    3.7835    3.5848    0.0000 O   0  0  0  0  0  0  0  0  0
    3.0690    3.9973    0.0000 C   0  0  0  0  0  0  0  0  0
    3.7835    2.7598    0.0000 C   0  0  0  0  0  0  0  0  0
    4.4980    2.3473    0.0000 C   0  0  0  0  0  0  0  0  0
    4.4980    1.5223    0.0000 C   0  0  0  0  0  0  0  0  0
    3.7835    1.1098    0.0000 C   0  0  0  0  0  0  0  0  0
    3.7835    0.2848    0.0000 N   0  0  0  0  0  0  0  0  0
    4.4980   -0.1277    0.0000 C   0  0  0  0  0  0  0  0  0
    5.2124    0.2848    0.0000 O   0  0  0  0  0  0  0  0  0
    4.4980   -0.9527    0.0000 C   0  0  0  0  0  0  0  0  0
    5.2124   -1.3652    0.0000 C   0  0  0  0  0  0  0  0  0
    5.2124   -2.1902    0.0000 C   0  0  0  0  0  0  0  0  0
    4.4980   -2.6027    0.0000 N   0  0  0  0  0  0  0  0  0
    3.7835   -2.1902    0.0000 C   0  0  0  0  0  0  0  0  0
    3.7835   -1.3652    0.0000 C   0  0  0  0  0  0  0  0  0
    4.4980   -3.4277    0.0000 C   0  0  0  0  0  0  0  0  0
    5.2124   -3.8402    0.0000 C   0  0  0  0  0  0  0  0  0
    5.2124   -4.6652    0.0000 C   0  0  0  0  0  0  0  0  0
    4.4980   -5.0777    0.0000 C   0  0  0  0  0  0  0  0  0
    3.7835   -4.6652    0.0000 C   0  0  0  0  0  0  0  0  0
    3.7835   -3.8402    0.0000 C   0  0  0  0  0  0  0  0  0
    3.0690   -3.4277    0.0000 O   0  0  0  0  0  0  0  0  0
    2.3546   -3.8402    0.0000 C   0  0  0  0  0  0  0  0  0
    3.0690    1.5223    0.0000 C   0  0  0  0  0  0  0  0  0
    3.0690    2.3473    0.0000 C   0  0  0  0  0  0  0  0  0
    2.3546    2.7598    0.0000 N   0  0  0  0  0  0  0  0  0
    1.6401    2.3473    0.0000 C   0  0  0  0  0  0  0  0  0
    0.9256    2.7598    0.0000 C   0  0  0  0  0  0  0  0  0
    0.9256    3.5848    0.0000 N   0  0  0  0  0  0  0  0  0
    1.6401    3.9973    0.0000 C   0  0  0  0  0  0  0  0  0
    2.3546    3.5848    0.0000 C   0  0  0  0  0  0  0  0  0
    0.2111    3.9973    0.0000 C   0  0  0  0  0  0  0  0  0
  1  2  1  0  0  0  0
  1  3  1  0  0  0  0
  3  4  4  0  0  0  0
  3 25  4  0  0  0  0
  4  5  4  0  0  0  0
  5  6  4  0  0  0  0
  6  7  1  0  0  0  0
  6 24  4  0  0  0  0
  7  8  1  0  0  0  0
  8  9  2  0  0  0  0
  8 10  1  0  0  0  0
 10 11  1  0  0  0  0
 10 15  1  0  0  0  0
 11 12  1  0  0  0  0
 12 13  1  0  0  0  0
 13 14  1  0  0  0  0
 13 16  1  0  0  0  0
 14 15  1  0  0  0  0
 16 17  4  0  0  0  0
 16 21  4  0  0  0  0
 17 18  4  0  0  0  0
 18 19  4  0  0  0  0
 19 20  4  0  0  0  0
 20 21  4  0  0  0  0
 21 22  1  0  0  0  0
 22 23  1  0  0  0  0
 24 25  4  0  0  0  0
 25 26  1  0  0  0  0
 26 27  1  0  0  0  0
 26 31  1  0  0  0  0
 27 28  1  0  0  0  0
 28 29  1  0  0  0  0
 29 30  1  0  0  0  0
 29 32  1  0  0  0  0
 30 31  1  0  0  0  0
M  END
>  <Name_Molregno>
327091

>  <5-HT1A>
7.81

>  <5-HT1B>
8.01

>  <5-HT1D>
7.81

>  <5-HT2A>
5

>  <5-HT2C>
5

>  <DOPAMINE D1>
5

>  <DOPAMINE D2>
5

>  <DOPAMINE D3>
5

>  <DOPAMINE D4>
5

>  <DOPAMINE D5>
5

>  <HISTAMINE H1>
5

>  <Muscarinic acetylcholine receptor M1>
5

>  <Muscarinic acetylcholine receptor M2>
5

>  <Muscarinic acetylcholine receptor M3>
5

>  <Muscarinic acetylcholine receptor M4>
5

>  <Muscarinic acetylcholine receptor M5>
5

$$$$
329265
  Marvin  02231216192D 0   1.00000     0.00000     0

 31 35  0  0  1  0  0  0  0  0999 V2000
   -5.7354    5.8865    0.0000 F   0  0  0  0  0  0  0  0  0
   -6.2875    5.2734    0.0000 C   0  0  0  0  0  0  0  0  0
   -6.0325    4.4888    0.0000 C   0  0  0  0  0  0  0  0  0
   -6.5846    3.8757    0.0000 C   0  0  0  0  0  0  0  0  0
   -7.3915    4.0473    0.0000 C   0  0  0  0  0  0  0  0  0
   -7.8040    3.3328    0.0000 N   0  0  0  0  0  0  0  0  0
   -7.2520    2.7197    0.0000 C   0  0  0  0  0  0  0  0  0
   -6.4983    3.0552    0.0000 C   0  0  0  0  0  0  0  0  0
   -5.7838    2.6427    0.0000 C   0  0  0  0  0  0  0  0  0
   -5.7838    1.8177    0.0000 C   0  0  0  0  0  0  0  0  0
   -5.0694    1.4052    0.0000 C   0  0  0  0  0  0  0  0  0
   -5.0694    0.5802    0.0000 N   0  0  0  0  0  0  0  0  0
   -4.3549    0.1677    0.0000 C   0  0  0  0  0  0  0  0  0
   -4.3549   -0.6573    0.0000 C   0  0  0  0  0  0  0  0  0
   -5.0694   -1.0698    0.0000 N   0  0  0  0  0  0  0  0  0
   -5.7838   -0.6573    0.0000 C   0  0  0  0  0  0  0  0  0
   -5.7838    0.1677    0.0000 C   0  0  0  0  0  0  0  0  0
   -5.0694   -1.8948    0.0000 C   0  0  0  0  0  0  0  0  0
   -4.3549   -2.3073    0.0000 C   0  0  0  0  0  0  0  0  0
   -3.6404   -1.8948    0.0000 O   0  0  0  0  0  0  0  0  0
   -2.9260   -2.3073    0.0000 C   0  0  0  0  0  0  0  0  0
   -2.2115   -1.8948    0.0000 C   0  0  0  0  0  0  0  0  0
   -2.9260   -3.1323    0.0000 C   0  0  0  0  0  0  0  0  0
   -2.2115   -3.5448    0.0000 O   0  0  0  0  0  0  0  0  0
   -3.6404   -3.5448    0.0000 N   0  0  0  0  0  0  0  0  0
   -4.3549   -3.1323    0.0000 C   0  0  0  0  0  0  0  0  0
   -5.0694   -3.5448    0.0000 C   0  0  0  0  0  0  0  0  0
   -5.7838   -3.1323    0.0000 C   0  0  0  0  0  0  0  0  0
   -5.7838   -2.3073    0.0000 C   0  0  0  0  0  0  0  0  0
   -7.6465    4.8319    0.0000 C   0  0  0  0  0  0  0  0  0
   -7.0944    5.4450    0.0000 C   0  0  0  0  0  0  0  0  0
  1  2  1  0  0  0  0
  2  3  4  0  0  0  0
  2 31  4  0  0  0  0
  3  4  4  0  0  0  0
  4  5  4  0  0  0  0
  4  8  4  0  0  0  0
  5  6  4  0  0  0  0
  5 30  4  0  0  0  0
  6  7  4  0  0  0  0
  7  8  4  0  0  0  0
  8  9  1  0  0  0  0
  9 10  1  0  0  0  0
 10 11  1  0  0  0  0
 11 12  1  0  0  0  0
 12 13  1  0  0  0  0
 12 17  1  0  0  0  0
 13 14  1  0  0  0  0
 14 15  1  0  0  0  0
 15 16  1  0  0  0  0
 15 18  1  0  0  0  0
 16 17  1  0  0  0  0
 18 19  4  0  0  0  0
 18 29  4  0  0  0  0
 19 20  1  0  0  0  0
 19 26  4  0  0  0  0
 20 21  1  0  0  0  0
 21 22  1  0  0  0  0
 21 23  1  0  0  0  0
 23 24  2  0  0  0  0
 23 25  1  0  0  0  0
 25 26  1  0  0  0  0
 26 27  4  0  0  0  0
 27 28  4  0  0  0  0
 28 29  4  0  0  0  0
 30 31  4  0  0  0  0
M  STY  1   1 DAT
M  SAL   1  1   6
M  SDT   1 MRV_IMPLICIT_H                                        
M  SDD   1     0.0000    0.0000    DR    ALL  0       0  
M  SED   1 IMPL_H1
M  END
>  <Name_Molregno>
329265

>  <5-HT1A>
8.3

>  <5-HT2A>
7.7

>  <5-HT2C>
6.7

>  <5-HT7>
8.1

>  <DOPAMINE D2>
8.24

>  <DOPAMINE D3>
9.3

>  <Serotonin transporter>
9.6

$$$$
330011
  Marvin  02231216192D 0   1.00000     0.00000     0

 29 33  0  0  0  0  0  0  0  0999 V2000
    8.8382    0.9139    0.0000 Cl  0  0  0  0  0  0  0  0  0
    8.0312    0.7424    0.0000 C   0  0  0  0  0  0  0  0  0
    7.7763   -0.0422    0.0000 C   0  0  0  0  0  0  0  0  0
    6.9693   -0.2138    0.0000 C   0  0  0  0  0  0  0  0  0
    6.4173    0.3993    0.0000 C   0  0  0  0  0  0  0  0  0
    6.6722    1.1840    0.0000 C   0  0  0  0  0  0  0  0  0
    7.4792    1.3555    0.0000 C   0  0  0  0  0  0  0  0  0
    5.6103    0.2278    0.0000 C   0  0  0  0  0  0  0  0  0
    5.0583    0.8409    0.0000 O   0  0  0  0  0  0  0  0  0
    5.3554   -0.5568    0.0000 N   0  0  0  0  0  0  0  0  0
    5.8403   -1.2243    0.0000 C   0  0  0  0  0  0  0  0  0
    5.3554   -1.8917    0.0000 C   0  0  0  0  0  0  0  0  0
    4.5708   -1.6368    0.0000 C   0  0  0  0  0  0  0  0  0
    4.5708   -0.8118    0.0000 C   0  0  0  0  0  0  0  0  0
    3.8563   -0.3993    0.0000 C   0  0  0  0  0  0  0  0  0
    3.1418   -0.8118    0.0000 C   0  0  0  0  0  0  0  0  0
    3.1418   -1.6368    0.0000 C   0  0  0  0  0  0  0  0  0
    3.8563   -2.0493    0.0000 C   0  0  0  0  0  0  0  0  0
    2.4273   -2.0493    0.0000 C   0  0  0  0  0  0  0  0  0
    1.7129   -1.6368    0.0000 C   0  0  0  0  0  0  0  0  0
    1.7129   -0.8118    0.0000 N   0  0  0  0  0  0  0  0  0
    2.4273   -0.3993    0.0000 C   0  0  0  0  0  0  0  0  0
    2.4273    0.4257    0.0000 N   0  0  0  0  0  0  0  0  0
    1.7129    0.8382    0.0000 C   0  0  0  0  0  0  0  0  0
    1.7129    1.6632    0.0000 C   0  0  0  0  0  0  0  0  0
    2.4273    2.0757    0.0000 N   0  0  0  0  0  0  0  0  0
    3.1418    1.6632    0.0000 C   0  0  0  0  0  0  0  0  0
    3.1418    0.8382    0.0000 C   0  0  0  0  0  0  0  0  0
    2.4273    2.9007    0.0000 C   0  0  0  0  0  0  0  0  0
  1  2  1  0  0  0  0
  2  3  4  0  0  0  0
  2  7  4  0  0  0  0
  3  4  4  0  0  0  0
  4  5  4  0  0  0  0
  5  6  4  0  0  0  0
  5  8  1  0  0  0  0
  6  7  4  0  0  0  0
  8  9  2  0  0  0  0
  8 10  1  0  0  0  0
 10 11  1  0  0  0  0
 10 14  1  0  0  0  0
 11 12  1  0  0  0  0
 12 13  1  0  0  0  0
 13 14  4  0  0  0  0
 13 18  4  0  0  0  0
 14 15  4  0  0  0  0
 15 16  4  0  0  0  0
 16 17  4  0  0  0  0
 16 22  4  0  0  0  0
 17 18  4  0  0  0  0
 17 19  4  0  0  0  0
 19 20  4  0  0  0  0
 20 21  4  0  0  0  0
 21 22  4  0  0  0  0
 22 23  1  0  0  0  0
 23 24  1  0  0  0  0
 23 28  1  0  0  0  0
 24 25  1  0  0  0  0
 25 26  1  0  0  0  0
 26 27  1  0  0  0  0
 26 29  1  0  0  0  0
 27 28  1  0  0  0  0
M  END
>  <Name_Molregno>
330011

>  <5-HT1A>
9.1

>  <5-HT1B>
9.5

>  <5-HT1D>
9.3

$$$$
330016
  Marvin  02231216192D 0   1.00000     0.00000     0

 30 34  0  0  0  0  0  0  0  0999 V2000
    1.0910    0.1321    0.0000 O   0  0  0  0  0  0  0  0  0
    1.6430   -0.4810    0.0000 C   0  0  0  0  0  0  0  0  0
    1.3881   -1.2657    0.0000 N   0  0  0  0  0  0  0  0  0
    1.8730   -1.9331    0.0000 C   0  0  0  0  0  0  0  0  0
    1.3881   -2.6005    0.0000 C   0  0  0  0  0  0  0  0  0
    0.6034   -2.3456    0.0000 C   0  0  0  0  0  0  0  0  0
    0.6034   -1.5206    0.0000 C   0  0  0  0  0  0  0  0  0
   -0.1110   -1.1081    0.0000 C   0  0  0  0  0  0  0  0  0
   -0.8255   -1.5206    0.0000 C   0  0  0  0  0  0  0  0  0
   -0.8255   -2.3456    0.0000 C   0  0  0  0  0  0  0  0  0
   -0.1110   -2.7581    0.0000 C   0  0  0  0  0  0  0  0  0
   -1.5400   -2.7581    0.0000 C   0  0  0  0  0  0  0  0  0
   -2.2544   -2.3456    0.0000 C   0  0  0  0  0  0  0  0  0
   -2.2544   -1.5206    0.0000 N   0  0  0  0  0  0  0  0  0
   -1.5400   -1.1081    0.0000 C   0  0  0  0  0  0  0  0  0
   -1.5400   -0.2831    0.0000 N   0  0  0  0  0  0  0  0  0
   -2.2544    0.1294    0.0000 C   0  0  0  0  0  0  0  0  0
   -2.2544    0.9544    0.0000 C   0  0  0  0  0  0  0  0  0
   -1.5400    1.3669    0.0000 N   0  0  0  0  0  0  0  0  0
   -0.8255    0.9544    0.0000 C   0  0  0  0  0  0  0  0  0
   -0.8255    0.1294    0.0000 C   0  0  0  0  0  0  0  0  0
   -1.5400    2.1919    0.0000 C   0  0  0  0  0  0  0  0  0
    2.4500   -0.3095    0.0000 C   0  0  0  0  0  0  0  0  0
    2.7049    0.4751    0.0000 C   0  0  0  0  0  0  0  0  0
    3.5119    0.6466    0.0000 C   0  0  0  0  0  0  0  0  0
    4.0639    0.0335    0.0000 C   0  0  0  0  0  0  0  0  0
    3.8090   -0.7511    0.0000 C   0  0  0  0  0  0  0  0  0
    3.0020   -0.9226    0.0000 C   0  0  0  0  0  0  0  0  0
    4.8709    0.2051    0.0000 C   0  0  0  0  0  0  0  0  0
    5.6779    0.3766    0.0000 N   0  0  0  0  0  0  0  0  0
  1  2  2  0  0  0  0
  2  3  1  0  0  0  0
  2 23  1  0  0  0  0
  3  4  1  0  0  0  0
  3  7  1  0  0  0  0
  4  5  1  0  0  0  0
  5  6  1  0  0  0  0
  6  7  4  0  0  0  0
  6 11  4  0  0  0  0
  7  8  4  0  0  0  0
  8  9  4  0  0  0  0
  9 10  4  0  0  0  0
  9 15  4  0  0  0  0
 10 11  4  0  0  0  0
 10 12  4  0  0  0  0
 12 13  4  0  0  0  0
 13 14  4  0  0  0  0
 14 15  4  0  0  0  0
 15 16  1  0  0  0  0
 16 17  1  0  0  0  0
 16 21  1  0  0  0  0
 17 18  1  0  0  0  0
 18 19  1  0  0  0  0
 19 20  1  0  0  0  0
 19 22  1  0  0  0  0
 20 21  1  0  0  0  0
 23 24  4  0  0  0  0
 23 28  4  0  0  0  0
 24 25  4  0  0  0  0
 25 26  4  0  0  0  0
 26 27  4  0  0  0  0
 26 29  1  0  0  0  0
 27 28  4  0  0  0  0
 29 30  3  0  0  0  0
M  END
>  <Name_Molregno>
330016

>  <5-HT1A>
9

>  <5-HT1B>
9.3

>  <5-HT1D>
9.1

$$$$
330017
  Marvin  02231216192D 0   1.00000     0.00000     0

 32 36  0  0  0  0  0  0  0  0999 V2000
    3.7084    0.6425    0.0000 F   0  0  0  0  0  0  0  0  0
    4.2604    0.0294    0.0000 C   0  0  0  0  0  0  0  0  0
    3.6473   -0.5226    0.0000 F   0  0  0  0  0  0  0  0  0
    4.8735    0.5815    0.0000 F   0  0  0  0  0  0  0  0  0
    4.8125   -0.5837    0.0000 C   0  0  0  0  0  0  0  0  0
    5.6194   -0.4121    0.0000 C   0  0  0  0  0  0  0  0  0
    6.1715   -1.0252    0.0000 C   0  0  0  0  0  0  0  0  0
    5.9165   -1.8098    0.0000 C   0  0  0  0  0  0  0  0  0
    5.1096   -1.9814    0.0000 C   0  0  0  0  0  0  0  0  0
    4.5575   -1.3683    0.0000 C   0  0  0  0  0  0  0  0  0
    3.7505   -1.5398    0.0000 C   0  0  0  0  0  0  0  0  0
    3.1985   -0.9267    0.0000 O   0  0  0  0  0  0  0  0  0
    3.4956   -2.3244    0.0000 N   0  0  0  0  0  0  0  0  0
    3.9805   -2.9919    0.0000 C   0  0  0  0  0  0  0  0  0
    3.4956   -3.6593    0.0000 C   0  0  0  0  0  0  0  0  0
    2.7110   -3.4044    0.0000 C   0  0  0  0  0  0  0  0  0
    2.7110   -2.5794    0.0000 C   0  0  0  0  0  0  0  0  0
    1.9965   -2.1669    0.0000 C   0  0  0  0  0  0  0  0  0
    1.2820   -2.5794    0.0000 C   0  0  0  0  0  0  0  0  0
    1.2820   -3.4044    0.0000 C   0  0  0  0  0  0  0  0  0
    1.9965   -3.8169    0.0000 C   0  0  0  0  0  0  0  0  0
    0.5676   -3.8169    0.0000 C   0  0  0  0  0  0  0  0  0
   -0.1469   -3.4044    0.0000 C   0  0  0  0  0  0  0  0  0
   -0.1469   -2.5794    0.0000 N   0  0  0  0  0  0  0  0  0
    0.5676   -2.1669    0.0000 C   0  0  0  0  0  0  0  0  0
    0.5676   -1.3419    0.0000 N   0  0  0  0  0  0  0  0  0
   -0.1469   -0.9294    0.0000 C   0  0  0  0  0  0  0  0  0
   -0.1469   -0.1044    0.0000 C   0  0  0  0  0  0  0  0  0
    0.5676    0.3081    0.0000 N   0  0  0  0  0  0  0  0  0
    1.2820   -0.1044    0.0000 C   0  0  0  0  0  0  0  0  0
    1.2820   -0.9294    0.0000 C   0  0  0  0  0  0  0  0  0
    0.5676    1.1331    0.0000 C   0  0  0  0  0  0  0  0  0
  1  2  1  0  0  0  0
  2  3  1  0  0  0  0
  2  4  1  0  0  0  0
  2  5  1  0  0  0  0
  5  6  4  0  0  0  0
  5 10  4  0  0  0  0
  6  7  4  0  0  0  0
  7  8  4  0  0  0  0
  8  9  4  0  0  0  0
  9 10  4  0  0  0  0
 10 11  1  0  0  0  0
 11 12  2  0  0  0  0
 11 13  1  0  0  0  0
 13 14  1  0  0  0  0
 13 17  1  0  0  0  0
 14 15  1  0  0  0  0
 15 16  1  0  0  0  0
 16 17  4  0  0  0  0
 16 21  4  0  0  0  0
 17 18  4  0  0  0  0
 18 19  4  0  0  0  0
 19 20  4  0  0  0  0
 19 25  4  0  0  0  0
 20 21  4  0  0  0  0
 20 22  4  0  0  0  0
 22 23  4  0  0  0  0
 23 24  4  0  0  0  0
 24 25  4  0  0  0  0
 25 26  1  0  0  0  0
 26 27  1  0  0  0  0
 26 31  1  0  0  0  0
 27 28  1  0  0  0  0
 28 29  1  0  0  0  0
 29 30  1  0  0  0  0
 29 32  1  0  0  0  0
 30 31  1  0  0  0  0
M  END
>  <Name_Molregno>
330017

>  <5-HT1A>
8

>  <5-HT1B>
7.8

>  <5-HT1D>
7.8

$$$$
330024
  Marvin  02231216192D 0   1.00000     0.00000     0

 29 33  0  0  0  0  0  0  0  0999 V2000
   -0.2750    0.4525    0.0000 Cl  0  0  0  0  0  0  0  0  0
    0.2770   -0.1606    0.0000 C   0  0  0  0  0  0  0  0  0
    1.0840    0.0110    0.0000 C   0  0  0  0  0  0  0  0  0
    1.6360   -0.6021    0.0000 C   0  0  0  0  0  0  0  0  0
    1.3811   -1.3867    0.0000 C   0  0  0  0  0  0  0  0  0
    0.5741   -1.5583    0.0000 C   0  0  0  0  0  0  0  0  0
    0.0220   -0.9452    0.0000 C   0  0  0  0  0  0  0  0  0
   -0.7849   -1.1167    0.0000 C   0  0  0  0  0  0  0  0  0
   -1.3370   -0.5036    0.0000 O   0  0  0  0  0  0  0  0  0
   -1.0399   -1.9013    0.0000 N   0  0  0  0  0  0  0  0  0
   -0.5549   -2.5688    0.0000 C   0  0  0  0  0  0  0  0  0
   -1.0399   -3.2362    0.0000 C   0  0  0  0  0  0  0  0  0
   -1.8245   -2.9813    0.0000 C   0  0  0  0  0  0  0  0  0
   -1.8245   -2.1563    0.0000 C   0  0  0  0  0  0  0  0  0
   -2.5390   -1.7438    0.0000 C   0  0  0  0  0  0  0  0  0
   -3.2534   -2.1563    0.0000 C   0  0  0  0  0  0  0  0  0
   -3.2534   -2.9813    0.0000 C   0  0  0  0  0  0  0  0  0
   -2.5390   -3.3938    0.0000 C   0  0  0  0  0  0  0  0  0
   -3.9679   -3.3938    0.0000 C   0  0  0  0  0  0  0  0  0
   -4.6824   -2.9813    0.0000 C   0  0  0  0  0  0  0  0  0
   -4.6824   -2.1563    0.0000 N   0  0  0  0  0  0  0  0  0
   -3.9679   -1.7438    0.0000 C   0  0  0  0  0  0  0  0  0
   -3.9679   -0.9188    0.0000 N   0  0  0  0  0  0  0  0  0
   -4.6824   -0.5063    0.0000 C   0  0  0  0  0  0  0  0  0
   -4.6824    0.3187    0.0000 C   0  0  0  0  0  0  0  0  0
   -3.9679    0.7312    0.0000 N   0  0  0  0  0  0  0  0  0
   -3.2534    0.3187    0.0000 C   0  0  0  0  0  0  0  0  0
   -3.2534   -0.5063    0.0000 C   0  0  0  0  0  0  0  0  0
   -3.9679    1.5562    0.0000 C   0  0  0  0  0  0  0  0  0
  1  2  1  0  0  0  0
  2  3  4  0  0  0  0
  2  7  4  0  0  0  0
  3  4  4  0  0  0  0
  4  5  4  0  0  0  0
  5  6  4  0  0  0  0
  6  7  4  0  0  0  0
  7  8  1  0  0  0  0
  8  9  2  0  0  0  0
  8 10  1  0  0  0  0
 10 11  1  0  0  0  0
 10 14  1  0  0  0  0
 11 12  1  0  0  0  0
 12 13  1  0  0  0  0
 13 14  4  0  0  0  0
 13 18  4  0  0  0  0
 14 15  4  0  0  0  0
 15 16  4  0  0  0  0
 16 17  4  0  0  0  0
 16 22  4  0  0  0  0
 17 18  4  0  0  0  0
 17 19  4  0  0  0  0
 19 20  4  0  0  0  0
 20 21  4  0  0  0  0
 21 22  4  0  0  0  0
 22 23  1  0  0  0  0
 23 24  1  0  0  0  0
 23 28  1  0  0  0  0
 24 25  1  0  0  0  0
 25 26  1  0  0  0  0
 26 27  1  0  0  0  0
 26 29  1  0  0  0  0
 27 28  1  0  0  0  0
M  END
>  <Name_Molregno>
330024

>  <5-HT1A>
8.3

>  <5-HT1B>
8.9

>  <5-HT1D>
8.6

$$$$
330032
  Marvin  02231216192D 0   1.00000     0.00000     0

 32 36  0  0  0  0  0  0  0  0999 V2000
    9.5697    1.0324    0.0000 F   0  0  0  0  0  0  0  0  0
    8.7627    0.8609    0.0000 C   0  0  0  0  0  0  0  0  0
    8.5912    1.6679    0.0000 F   0  0  0  0  0  0  0  0  0
    8.9342    0.0539    0.0000 F   0  0  0  0  0  0  0  0  0
    7.9557    0.6894    0.0000 C   0  0  0  0  0  0  0  0  0
    7.7008   -0.0952    0.0000 N   0  0  0  0  0  0  0  0  0
    6.8938   -0.2668    0.0000 C   0  0  0  0  0  0  0  0  0
    6.3418    0.3463    0.0000 C   0  0  0  0  0  0  0  0  0
    6.5967    1.1310    0.0000 C   0  0  0  0  0  0  0  0  0
    7.4037    1.3025    0.0000 C   0  0  0  0  0  0  0  0  0
    5.5348    0.1748    0.0000 C   0  0  0  0  0  0  0  0  0
    4.9828    0.7879    0.0000 O   0  0  0  0  0  0  0  0  0
    5.2799   -0.6098    0.0000 N   0  0  0  0  0  0  0  0  0
    5.7648   -1.2773    0.0000 C   0  0  0  0  0  0  0  0  0
    5.2799   -1.9447    0.0000 C   0  0  0  0  0  0  0  0  0
    4.4952   -1.6898    0.0000 C   0  0  0  0  0  0  0  0  0
    4.4952   -0.8648    0.0000 C   0  0  0  0  0  0  0  0  0
    3.7808   -0.4523    0.0000 C   0  0  0  0  0  0  0  0  0
    3.0663   -0.8648    0.0000 C   0  0  0  0  0  0  0  0  0
    3.0663   -1.6898    0.0000 C   0  0  0  0  0  0  0  0  0
    3.7808   -2.1023    0.0000 C   0  0  0  0  0  0  0  0  0
    2.3518   -2.1023    0.0000 C   0  0  0  0  0  0  0  0  0
    1.6374   -1.6898    0.0000 C   0  0  0  0  0  0  0  0  0
    1.6374   -0.8648    0.0000 N   0  0  0  0  0  0  0  0  0
    2.3518   -0.4523    0.0000 C   0  0  0  0  0  0  0  0  0
    2.3518    0.3727    0.0000 N   0  0  0  0  0  0  0  0  0
    1.6374    0.7852    0.0000 C   0  0  0  0  0  0  0  0  0
    1.6374    1.6102    0.0000 C   0  0  0  0  0  0  0  0  0
    2.3518    2.0227    0.0000 N   0  0  0  0  0  0  0  0  0
    3.0663    1.6102    0.0000 C   0  0  0  0  0  0  0  0  0
    3.0663    0.7852    0.0000 C   0  0  0  0  0  0  0  0  0
    2.3518    2.8477    0.0000 C   0  0  0  0  0  0  0  0  0
  1  2  1  0  0  0  0
  2  3  1  0  0  0  0
  2  4  1  0  0  0  0
  2  5  1  0  0  0  0
  5  6  4  0  0  0  0
  5 10  4  0  0  0  0
  6  7  4  0  0  0  0
  7  8  4  0  0  0  0
  8  9  4  0  0  0  0
  8 11  1  0  0  0  0
  9 10  4  0  0  0  0
 11 12  2  0  0  0  0
 11 13  1  0  0  0  0
 13 14  1  0  0  0  0
 13 17  1  0  0  0  0
 14 15  1  0  0  0  0
 15 16  1  0  0  0  0
 16 17  4  0  0  0  0
 16 21  4  0  0  0  0
 17 18  4  0  0  0  0
 18 19  4  0  0  0  0
 19 20  4  0  0  0  0
 19 25  4  0  0  0  0
 20 21  4  0  0  0  0
 20 22  4  0  0  0  0
 22 23  4  0  0  0  0
 23 24  4  0  0  0  0
 24 25  4  0  0  0  0
 25 26  1  0  0  0  0
 26 27  1  0  0  0  0
 26 31  1  0  0  0  0
 27 28  1  0  0  0  0
 28 29  1  0  0  0  0
 29 30  1  0  0  0  0
 29 32  1  0  0  0  0
 30 31  1  0  0  0  0
M  END
>  <Name_Molregno>
330032

>  <5-HT1A>
8.5

>  <5-HT1B>
9.6

>  <5-HT1D>
9.3

$$$$
330033
  Marvin  02231216192D 0   1.00000     0.00000     0

 32 37  0  0  0  0  0  0  0  0999 V2000
    2.5068   -1.7747    0.0000 O   0  0  0  0  0  0  0  0  0
    1.7923   -1.3622    0.0000 C   0  0  0  0  0  0  0  0  0
    1.0778   -1.7747    0.0000 N   0  0  0  0  0  0  0  0  0
    0.9916   -2.5951    0.0000 C   0  0  0  0  0  0  0  0  0
    0.1846   -2.7667    0.0000 C   0  0  0  0  0  0  0  0  0
   -0.2279   -2.0522    0.0000 C   0  0  0  0  0  0  0  0  0
    0.3241   -1.4391    0.0000 C   0  0  0  0  0  0  0  0  0
    0.0692   -0.6545    0.0000 C   0  0  0  0  0  0  0  0  0
   -0.7378   -0.4829    0.0000 C   0  0  0  0  0  0  0  0  0
   -1.2898   -1.0960    0.0000 C   0  0  0  0  0  0  0  0  0
   -1.0349   -1.8807    0.0000 C   0  0  0  0  0  0  0  0  0
   -2.0968   -0.9245    0.0000 C   0  0  0  0  0  0  0  0  0
   -2.3517   -0.1399    0.0000 C   0  0  0  0  0  0  0  0  0
   -1.7997    0.4732    0.0000 N   0  0  0  0  0  0  0  0  0
   -0.9927    0.3017    0.0000 C   0  0  0  0  0  0  0  0  0
   -0.4407    0.9148    0.0000 N   0  0  0  0  0  0  0  0  0
   -0.6956    1.6994    0.0000 C   0  0  0  0  0  0  0  0  0
   -0.1436    2.3125    0.0000 C   0  0  0  0  0  0  0  0  0
    0.6634    2.1410    0.0000 N   0  0  0  0  0  0  0  0  0
    0.9183    1.3563    0.0000 C   0  0  0  0  0  0  0  0  0
    0.3663    0.7432    0.0000 C   0  0  0  0  0  0  0  0  0
    1.2154    2.7541    0.0000 C   0  0  0  0  0  0  0  0  0
    1.7923   -0.5372    0.0000 C   0  0  0  0  0  0  0  0  0
    2.5068   -0.1247    0.0000 C   0  0  0  0  0  0  0  0  0
    2.5068    0.7003    0.0000 C   0  0  0  0  0  0  0  0  0
    3.2212    1.1128    0.0000 N   0  0  0  0  0  0  0  0  0
    3.9357    0.7003    0.0000 C   0  0  0  0  0  0  0  0  0
    3.9357   -0.1247    0.0000 C   0  0  0  0  0  0  0  0  0
    3.2212   -0.5372    0.0000 C   0  0  0  0  0  0  0  0  0
    1.7923    1.1128    0.0000 C   0  0  0  0  0  0  0  0  0
    1.0778    0.7003    0.0000 C   0  0  0  0  0  0  0  0  0
    1.0778   -0.1247    0.0000 C   0  0  0  0  0  0  0  0  0
  1  2  2  0  0  0  0
  2  3  1  0  0  0  0
  2 23  1  0  0  0  0
  3  4  1  0  0  0  0
  3  7  1  0  0  0  0
  4  5  1  0  0  0  0
  5  6  1  0  0  0  0
  6  7  4  0  0  0  0
  6 11  4  0  0  0  0
  7  8  4  0  0  0  0
  8  9  4  0  0  0  0
  9 10  4  0  0  0  0
  9 15  4  0  0  0  0
 10 11  4  0  0  0  0
 10 12  4  0  0  0  0
 12 13  4  0  0  0  0
 13 14  4  0  0  0  0
 14 15  4  0  0  0  0
 15 16  1  0  0  0  0
 16 17  1  0  0  0  0
 16 21  1  0  0  0  0
 17 18  1  0  0  0  0
 18 19  1  0  0  0  0
 19 20  1  0  0  0  0
 19 22  1  0  0  0  0
 20 21  1  0  0  0  0
 23 24  4  0  0  0  0
 23 32  4  0  0  0  0
 24 25  4  0  0  0  0
 24 29  4  0  0  0  0
 25 26  4  0  0  0  0
 25 30  4  0  0  0  0
 26 27  4  0  0  0  0
 27 28  4  0  0  0  0
 28 29  4  0  0  0  0
 30 31  4  0  0  0  0
 31 32  4  0  0  0  0
M  END
>  <Name_Molregno>
330033

>  <5-HT1A>
8.4

>  <5-HT1B>
9.1

>  <5-HT1D>
8.4

$$$$
330054
  Marvin  02231216192D 0   1.00000     0.00000     0

 32 36  0  0  0  0  0  0  0  0999 V2000
   -0.2709    0.2739    0.0000 F   0  0  0  0  0  0  0  0  0
    0.1416   -0.4406    0.0000 C   0  0  0  0  0  0  0  0  0
   -0.5729   -0.8531    0.0000 F   0  0  0  0  0  0  0  0  0
    0.8560   -0.0281    0.0000 F   0  0  0  0  0  0  0  0  0
    0.5541   -1.1551    0.0000 C   0  0  0  0  0  0  0  0  0
    1.3746   -1.2413    0.0000 O   0  0  0  0  0  0  0  0  0
    1.5461   -2.0483    0.0000 C   0  0  0  0  0  0  0  0  0
    0.8316   -2.4608    0.0000 C   0  0  0  0  0  0  0  0  0
    0.2185   -1.9087    0.0000 C   0  0  0  0  0  0  0  0  0
   -0.5885   -2.0803    0.0000 C   0  0  0  0  0  0  0  0  0
   -1.1405   -1.4672    0.0000 O   0  0  0  0  0  0  0  0  0
   -0.8434   -2.8649    0.0000 N   0  0  0  0  0  0  0  0  0
   -0.3585   -3.5323    0.0000 C   0  0  0  0  0  0  0  0  0
   -0.8434   -4.1998    0.0000 C   0  0  0  0  0  0  0  0  0
   -1.6280   -3.9448    0.0000 C   0  0  0  0  0  0  0  0  0
   -1.6280   -3.1198    0.0000 C   0  0  0  0  0  0  0  0  0
   -2.3425   -2.7073    0.0000 C   0  0  0  0  0  0  0  0  0
   -3.0570   -3.1198    0.0000 C   0  0  0  0  0  0  0  0  0
   -3.0570   -3.9448    0.0000 C   0  0  0  0  0  0  0  0  0
   -2.3425   -4.3573    0.0000 C   0  0  0  0  0  0  0  0  0
   -3.7714   -4.3573    0.0000 C   0  0  0  0  0  0  0  0  0
   -4.4859   -3.9448    0.0000 C   0  0  0  0  0  0  0  0  0
   -4.4859   -3.1198    0.0000 N   0  0  0  0  0  0  0  0  0
   -3.7714   -2.7073    0.0000 C   0  0  0  0  0  0  0  0  0
   -3.7714   -1.8823    0.0000 N   0  0  0  0  0  0  0  0  0
   -4.4859   -1.4698    0.0000 C   0  0  0  0  0  0  0  0  0
   -4.4859   -0.6448    0.0000 C   0  0  0  0  0  0  0  0  0
   -3.7714   -0.2323    0.0000 N   0  0  0  0  0  0  0  0  0
   -3.0570   -0.6448    0.0000 C   0  0  0  0  0  0  0  0  0
   -3.0570   -1.4698    0.0000 C   0  0  0  0  0  0  0  0  0
   -3.7714    0.5927    0.0000 C   0  0  0  0  0  0  0  0  0
    2.2998   -2.3838    0.0000 C   0  0  0  0  0  0  0  0  0
  1  2  1  0  0  0  0
  2  3  1  0  0  0  0
  2  4  1  0  0  0  0
  2  5  1  0  0  0  0
  5  6  4  0  0  0  0
  5  9  4  0  0  0  0
  6  7  4  0  0  0  0
  7  8  4  0  0  0  0
  7 32  1  0  0  0  0
  8  9  4  0  0  0  0
  9 10  1  0  0  0  0
 10 11  2  0  0  0  0
 10 12  1  0  0  0  0
 12 13  1  0  0  0  0
 12 16  1  0  0  0  0
 13 14  1  0  0  0  0
 14 15  1  0  0  0  0
 15 16  4  0  0  0  0
 15 20  4  0  0  0  0
 16 17  4  0  0  0  0
 17 18  4  0  0  0  0
 18 19  4  0  0  0  0
 18 24  4  0  0  0  0
 19 20  4  0  0  0  0
 19 21  4  0  0  0  0
 21 22  4  0  0  0  0
 22 23  4  0  0  0  0
 23 24  4  0  0  0  0
 24 25  1  0  0  0  0
 25 26  1  0  0  0  0
 25 30  1  0  0  0  0
 26 27  1  0  0  0  0
 27 28  1  0  0  0  0
 28 29  1  0  0  0  0
 28 31  1  0  0  0  0
 29 30  1  0  0  0  0
M  END
>  <Name_Molregno>
330054

>  <5-HT1A>
8.3

>  <5-HT1B>
8.7

>  <5-HT1D>
8.1

$$$$
330055
  Marvin  02231216192D 0   1.00000     0.00000     0

 29 33  0  0  0  0  0  0  0  0999 V2000
   -1.1059    1.7648    0.0000 O   0  0  0  0  0  0  0  0  0
   -1.2774    0.9578    0.0000 C   0  0  0  0  0  0  0  0  0
   -0.7254    0.3447    0.0000 C   0  0  0  0  0  0  0  0  0
    0.0816    0.5163    0.0000 O   0  0  0  0  0  0  0  0  0
   -0.9803   -0.4399    0.0000 N   0  0  0  0  0  0  0  0  0
   -0.4954   -1.1073    0.0000 C   0  0  0  0  0  0  0  0  0
   -0.9803   -1.7748    0.0000 C   0  0  0  0  0  0  0  0  0
   -1.7649   -1.5198    0.0000 C   0  0  0  0  0  0  0  0  0
   -1.7649   -0.6948    0.0000 C   0  0  0  0  0  0  0  0  0
   -2.4794   -0.2823    0.0000 C   0  0  0  0  0  0  0  0  0
   -3.1939   -0.6948    0.0000 C   0  0  0  0  0  0  0  0  0
   -3.1939   -1.5198    0.0000 C   0  0  0  0  0  0  0  0  0
   -2.4794   -1.9323    0.0000 C   0  0  0  0  0  0  0  0  0
   -3.9083   -1.9323    0.0000 C   0  0  0  0  0  0  0  0  0
   -4.6228   -1.5198    0.0000 C   0  0  0  0  0  0  0  0  0
   -4.6228   -0.6948    0.0000 N   0  0  0  0  0  0  0  0  0
   -3.9083   -0.2823    0.0000 C   0  0  0  0  0  0  0  0  0
   -3.9083    0.5427    0.0000 N   0  0  0  0  0  0  0  0  0
   -4.6228    0.9552    0.0000 C   0  0  0  0  0  0  0  0  0
   -4.6228    1.7802    0.0000 C   0  0  0  0  0  0  0  0  0
   -3.9083    2.1927    0.0000 N   0  0  0  0  0  0  0  0  0
   -3.1939    1.7802    0.0000 C   0  0  0  0  0  0  0  0  0
   -3.1939    0.9552    0.0000 C   0  0  0  0  0  0  0  0  0
   -3.9083    3.0177    0.0000 C   0  0  0  0  0  0  0  0  0
   -2.0979    0.8716    0.0000 C   0  0  0  0  0  0  0  0  0
   -2.4334    1.6253    0.0000 N   0  0  0  0  0  0  0  0  0
   -1.8203    2.1773    0.0000 C   0  0  0  0  0  0  0  0  0
   -1.9066    2.9978    0.0000 C   0  0  0  0  0  0  0  0  0
   -2.5104    0.1571    0.0000 C   0  0  0  0  0  0  0  0  0
  1  2  4  0  0  0  0
  1 27  4  0  0  0  0
  2  3  1  0  0  0  0
  2 25  4  0  0  0  0
  3  4  2  0  0  0  0
  3  5  1  0  0  0  0
  5  6  1  0  0  0  0
  5  9  1  0  0  0  0
  6  7  1  0  0  0  0
  7  8  1  0  0  0  0
  8  9  4  0  0  0  0
  8 13  4  0  0  0  0
  9 10  4  0  0  0  0
 10 11  4  0  0  0  0
 11 12  4  0  0  0  0
 11 17  4  0  0  0  0
 12 13  4  0  0  0  0
 12 14  4  0  0  0  0
 14 15  4  0  0  0  0
 15 16  4  0  0  0  0
 16 17  4  0  0  0  0
 17 18  1  0  0  0  0
 18 19  1  0  0  0  0
 18 23  1  0  0  0  0
 19 20  1  0  0  0  0
 20 21  1  0  0  0  0
 21 22  1  0  0  0  0
 21 24  1  0  0  0  0
 22 23  1  0  0  0  0
 25 26  4  0  0  0  0
 25 29  1  0  0  0  0
 26 27  4  0  0  0  0
 27 28  1  0  0  0  0
M  END
>  <Name_Molregno>
330055

>  <5-HT1A>
8.2

>  <5-HT1B>
7.8

>  <5-HT1D>
8.6

$$$$
330060
  Marvin  02231216192D 0   1.00000     0.00000     0

 32 36  0  0  0  0  0  0  0  0999 V2000
    3.5639    0.7584    0.0000 F   0  0  0  0  0  0  0  0  0
    3.9764    0.0439    0.0000 C   0  0  0  0  0  0  0  0  0
    3.2619   -0.3686    0.0000 F   0  0  0  0  0  0  0  0  0
    4.6908    0.4564    0.0000 F   0  0  0  0  0  0  0  0  0
    4.3889   -0.6706    0.0000 C   0  0  0  0  0  0  0  0  0
    5.2093   -0.7568    0.0000 N   0  0  0  0  0  0  0  0  0
    5.3809   -1.5638    0.0000 N   0  0  0  0  0  0  0  0  0
    4.6664   -1.9763    0.0000 C   0  0  0  0  0  0  0  0  0
    4.0533   -1.4243    0.0000 C   0  0  0  0  0  0  0  0  0
    3.2463   -1.5958    0.0000 C   0  0  0  0  0  0  0  0  0
    2.6943   -0.9827    0.0000 O   0  0  0  0  0  0  0  0  0
    2.9914   -2.3804    0.0000 N   0  0  0  0  0  0  0  0  0
    3.4763   -3.0479    0.0000 C   0  0  0  0  0  0  0  0  0
    2.9914   -3.7153    0.0000 C   0  0  0  0  0  0  0  0  0
    2.2068   -3.4604    0.0000 C   0  0  0  0  0  0  0  0  0
    2.2068   -2.6354    0.0000 C   0  0  0  0  0  0  0  0  0
    1.4923   -2.2229    0.0000 C   0  0  0  0  0  0  0  0  0
    0.7778   -2.6354    0.0000 C   0  0  0  0  0  0  0  0  0
    0.7778   -3.4604    0.0000 C   0  0  0  0  0  0  0  0  0
    1.4923   -3.8729    0.0000 C   0  0  0  0  0  0  0  0  0
    0.0634   -3.8729    0.0000 C   0  0  0  0  0  0  0  0  0
   -0.6511   -3.4604    0.0000 C   0  0  0  0  0  0  0  0  0
   -0.6511   -2.6354    0.0000 N   0  0  0  0  0  0  0  0  0
    0.0634   -2.2229    0.0000 C   0  0  0  0  0  0  0  0  0
    0.0634   -1.3979    0.0000 N   0  0  0  0  0  0  0  0  0
   -0.6511   -0.9854    0.0000 C   0  0  0  0  0  0  0  0  0
   -0.6511   -0.1604    0.0000 C   0  0  0  0  0  0  0  0  0
    0.0634    0.2521    0.0000 N   0  0  0  0  0  0  0  0  0
    0.7778   -0.1604    0.0000 C   0  0  0  0  0  0  0  0  0
    0.7778   -0.9854    0.0000 C   0  0  0  0  0  0  0  0  0
    0.0634    1.0771    0.0000 C   0  0  0  0  0  0  0  0  0
    5.7614   -0.1437    0.0000 C   0  0  0  0  0  0  0  0  0
  1  2  1  0  0  0  0
  2  3  1  0  0  0  0
  2  4  1  0  0  0  0
  2  5  1  0  0  0  0
  5  6  4  0  0  0  0
  5  9  4  0  0  0  0
  6  7  4  0  0  0  0
  6 32  1  0  0  0  0
  7  8  4  0  0  0  0
  8  9  4  0  0  0  0
  9 10  1  0  0  0  0
 10 11  2  0  0  0  0
 10 12  1  0  0  0  0
 12 13  1  0  0  0  0
 12 16  1  0  0  0  0
 13 14  1  0  0  0  0
 14 15  1  0  0  0  0
 15 16  4  0  0  0  0
 15 20  4  0  0  0  0
 16 17  4  0  0  0  0
 17 18  4  0  0  0  0
 18 19  4  0  0  0  0
 18 24  4  0  0  0  0
 19 20  4  0  0  0  0
 19 21  4  0  0  0  0
 21 22  4  0  0  0  0
 22 23  4  0  0  0  0
 23 24  4  0  0  0  0
 24 25  1  0  0  0  0
 25 26  1  0  0  0  0
 25 30  1  0  0  0  0
 26 27  1  0  0  0  0
 27 28  1  0  0  0  0
 28 29  1  0  0  0  0
 28 31  1  0  0  0  0
 29 30  1  0  0  0  0
M  END
>  <Name_Molregno>
330060

>  <5-HT1A>
8.2

>  <5-HT1B>
8.3

>  <5-HT1D>
8

$$$$
330061
  Marvin  02231216192D 0   1.00000     0.00000     0

 31 36  0  0  0  0  0  0  0  0999 V2000
    1.9023   -2.5928    0.0000 O   0  0  0  0  0  0  0  0  0
    1.3503   -1.9797    0.0000 C   0  0  0  0  0  0  0  0  0
    0.5433   -2.1512    0.0000 N   0  0  0  0  0  0  0  0  0
    0.2077   -2.9049    0.0000 C   0  0  0  0  0  0  0  0  0
   -0.6128   -2.8186    0.0000 C   0  0  0  0  0  0  0  0  0
   -0.7843   -2.0117    0.0000 C   0  0  0  0  0  0  0  0  0
   -0.0698   -1.5992    0.0000 C   0  0  0  0  0  0  0  0  0
   -0.0698   -0.7742    0.0000 C   0  0  0  0  0  0  0  0  0
   -0.7843   -0.3617    0.0000 C   0  0  0  0  0  0  0  0  0
   -1.4988   -0.7742    0.0000 C   0  0  0  0  0  0  0  0  0
   -1.4988   -1.5992    0.0000 C   0  0  0  0  0  0  0  0  0
   -2.2132   -0.3617    0.0000 C   0  0  0  0  0  0  0  0  0
   -2.2132    0.4633    0.0000 C   0  0  0  0  0  0  0  0  0
   -1.4988    0.8758    0.0000 N   0  0  0  0  0  0  0  0  0
   -0.7843    0.4633    0.0000 C   0  0  0  0  0  0  0  0  0
   -0.0698    0.8758    0.0000 N   0  0  0  0  0  0  0  0  0
   -0.0698    1.7008    0.0000 C   0  0  0  0  0  0  0  0  0
    0.6447    2.1133    0.0000 C   0  0  0  0  0  0  0  0  0
    1.3591    1.7008    0.0000 N   0  0  0  0  0  0  0  0  0
    1.3591    0.8758    0.0000 C   0  0  0  0  0  0  0  0  0
    0.6447    0.4633    0.0000 C   0  0  0  0  0  0  0  0  0
    2.0736    2.1133    0.0000 C   0  0  0  0  0  0  0  0  0
    1.6052   -1.1951    0.0000 C   0  0  0  0  0  0  0  0  0
    2.3898   -0.9401    0.0000 C   0  0  0  0  0  0  0  0  0
    2.3898   -0.1151    0.0000 N   0  0  0  0  0  0  0  0  0
    1.6052    0.1398    0.0000 N   0  0  0  0  0  0  0  0  0
    1.1203   -0.5276    0.0000 C   0  0  0  0  0  0  0  0  0
    3.1043    0.2974    0.0000 C   0  0  0  0  0  0  0  0  0
    3.8188   -0.1151    0.0000 C   0  0  0  0  0  0  0  0  0
    3.8188   -0.9401    0.0000 C   0  0  0  0  0  0  0  0  0
    3.1043   -1.3526    0.0000 C   0  0  0  0  0  0  0  0  0
  1  2  2  0  0  0  0
  2  3  1  0  0  0  0
  2 23  1  0  0  0  0
  3  4  1  0  0  0  0
  3  7  1  0  0  0  0
  4  5  1  0  0  0  0
  5  6  1  0  0  0  0
  6  7  4  0  0  0  0
  6 11  4  0  0  0  0
  7  8  4  0  0  0  0
  8  9  4  0  0  0  0
  9 10  4  0  0  0  0
  9 15  4  0  0  0  0
 10 11  4  0  0  0  0
 10 12  4  0  0  0  0
 12 13  4  0  0  0  0
 13 14  4  0  0  0  0
 14 15  4  0  0  0  0
 15 16  1  0  0  0  0
 16 17  1  0  0  0  0
 16 21  1  0  0  0  0
 17 18  1  0  0  0  0
 18 19  1  0  0  0  0
 19 20  1  0  0  0  0
 19 22  1  0  0  0  0
 20 21  1  0  0  0  0
 23 24  4  0  0  0  0
 23 27  4  0  0  0  0
 24 25  4  0  0  0  0
 24 31  4  0  0  0  0
 25 26  4  0  0  0  0
 25 28  4  0  0  0  0
 26 27  4  0  0  0  0
 28 29  4  0  0  0  0
 29 30  4  0  0  0  0
 30 31  4  0  0  0  0
M  END
>  <Name_Molregno>
330061

>  <5-HT1A>
9.5

>  <5-HT1B>
9

>  <5-HT1D>
8.9

$$$$
330066
  Marvin  02231216192D 0   1.00000     0.00000     0

 34 39  0  0  0  0  0  0  0  0999 V2000
    2.8410   -0.6665    0.0000 O   0  0  0  0  0  0  0  0  0
    2.0340   -0.8380    0.0000 C   0  0  0  0  0  0  0  0  0
    1.7791   -1.6226    0.0000 N   0  0  0  0  0  0  0  0  0
    2.2640   -2.2901    0.0000 C   0  0  0  0  0  0  0  0  0
    1.7791   -2.9575    0.0000 C   0  0  0  0  0  0  0  0  0
    0.9945   -2.7026    0.0000 C   0  0  0  0  0  0  0  0  0
    0.9945   -1.8776    0.0000 C   0  0  0  0  0  0  0  0  0
    0.2800   -1.4651    0.0000 C   0  0  0  0  0  0  0  0  0
   -0.4345   -1.8776    0.0000 C   0  0  0  0  0  0  0  0  0
   -0.4345   -2.7026    0.0000 C   0  0  0  0  0  0  0  0  0
    0.2800   -3.1151    0.0000 C   0  0  0  0  0  0  0  0  0
   -1.1489   -3.1151    0.0000 C   0  0  0  0  0  0  0  0  0
   -1.8634   -2.7026    0.0000 C   0  0  0  0  0  0  0  0  0
   -1.8634   -1.8776    0.0000 N   0  0  0  0  0  0  0  0  0
   -1.1489   -1.4651    0.0000 C   0  0  0  0  0  0  0  0  0
   -1.1489   -0.6401    0.0000 N   0  0  0  0  0  0  0  0  0
   -1.8634   -0.2276    0.0000 C   0  0  0  0  0  0  0  0  0
   -1.8634    0.5974    0.0000 C   0  0  0  0  0  0  0  0  0
   -1.1489    1.0099    0.0000 N   0  0  0  0  0  0  0  0  0
   -0.4345    0.5974    0.0000 C   0  0  0  0  0  0  0  0  0
   -0.4345   -0.2276    0.0000 C   0  0  0  0  0  0  0  0  0
   -1.1489    1.8349    0.0000 C   0  0  0  0  0  0  0  0  0
    1.4820   -0.2249    0.0000 C   0  0  0  0  0  0  0  0  0
    0.6615   -0.3111    0.0000 C   0  0  0  0  0  0  0  0  0
    0.3260    0.4425    0.0000 N   0  0  0  0  0  0  0  0  0
    0.9391    0.9946    0.0000 N   0  0  0  0  0  0  0  0  0
    1.6535    0.5821    0.0000 C   0  0  0  0  0  0  0  0  0
    2.4072    0.9176    0.0000 C   0  0  0  0  0  0  0  0  0
    0.8528    1.8151    0.0000 C   0  0  0  0  0  0  0  0  0
    0.0992    2.1506    0.0000 C   0  0  0  0  0  0  0  0  0
    0.0129    2.9711    0.0000 C   0  0  0  0  0  0  0  0  0
    0.6804    3.4560    0.0000 C   0  0  0  0  0  0  0  0  0
    1.4340    3.1205    0.0000 C   0  0  0  0  0  0  0  0  0
    1.5203    2.3000    0.0000 C   0  0  0  0  0  0  0  0  0
  1  2  2  0  0  0  0
  2  3  1  0  0  0  0
  2 23  1  0  0  0  0
  3  4  1  0  0  0  0
  3  7  1  0  0  0  0
  4  5  1  0  0  0  0
  5  6  1  0  0  0  0
  6  7  4  0  0  0  0
  6 11  4  0  0  0  0
  7  8  4  0  0  0  0
  8  9  4  0  0  0  0
  9 10  4  0  0  0  0
  9 15  4  0  0  0  0
 10 11  4  0  0  0  0
 10 12  4  0  0  0  0
 12 13  4  0  0  0  0
 13 14  4  0  0  0  0
 14 15  4  0  0  0  0
 15 16  1  0  0  0  0
 16 17  1  0  0  0  0
 16 21  1  0  0  0  0
 17 18  1  0  0  0  0
 18 19  1  0  0  0  0
 19 20  1  0  0  0  0
 19 22  1  0  0  0  0
 20 21  1  0  0  0  0
 23 24  4  0  0  0  0
 23 27  4  0  0  0  0
 24 25  4  0  0  0  0
 25 26  4  0  0  0  0
 26 27  4  0  0  0  0
 26 29  1  0  0  0  0
 27 28  1  0  0  0  0
 29 30  4  0  0  0  0
 29 34  4  0  0  0  0
 30 31  4  0  0  0  0
 31 32  4  0  0  0  0
 32 33  4  0  0  0  0
 33 34  4  0  0  0  0
M  END
>  <Name_Molregno>
330066

>  <5-HT1A>
9.2

>  <5-HT1B>
9.2

>  <5-HT1D>
9.2

$$$$
330067
  Marvin  02231216192D 0   1.00000     0.00000     0

 37 42  0  0  0  0  0  0  0  0999 V2000
    2.4263   -0.9963    0.0000 O   0  0  0  0  0  0  0  0  0
    1.6193   -1.1678    0.0000 C   0  0  0  0  0  0  0  0  0
    1.3643   -1.9524    0.0000 N   0  0  0  0  0  0  0  0  0
    1.8493   -2.6199    0.0000 C   0  0  0  0  0  0  0  0  0
    1.3643   -3.2873    0.0000 C   0  0  0  0  0  0  0  0  0
    0.5797   -3.0324    0.0000 C   0  0  0  0  0  0  0  0  0
    0.5797   -2.2074    0.0000 C   0  0  0  0  0  0  0  0  0
   -0.1347   -1.7949    0.0000 C   0  0  0  0  0  0  0  0  0
   -0.8492   -2.2074    0.0000 C   0  0  0  0  0  0  0  0  0
   -0.8492   -3.0324    0.0000 C   0  0  0  0  0  0  0  0  0
   -0.1347   -3.4449    0.0000 C   0  0  0  0  0  0  0  0  0
   -1.5637   -3.4449    0.0000 C   0  0  0  0  0  0  0  0  0
   -2.2782   -3.0324    0.0000 C   0  0  0  0  0  0  0  0  0
   -2.2782   -2.2074    0.0000 N   0  0  0  0  0  0  0  0  0
   -1.5637   -1.7949    0.0000 C   0  0  0  0  0  0  0  0  0
   -1.5637   -0.9699    0.0000 N   0  0  0  0  0  0  0  0  0
   -2.2782   -0.5574    0.0000 C   0  0  0  0  0  0  0  0  0
   -2.2782    0.2676    0.0000 C   0  0  0  0  0  0  0  0  0
   -1.5637    0.6801    0.0000 N   0  0  0  0  0  0  0  0  0
   -0.8492    0.2676    0.0000 C   0  0  0  0  0  0  0  0  0
   -0.8492   -0.5574    0.0000 C   0  0  0  0  0  0  0  0  0
   -1.5637    1.5051    0.0000 C   0  0  0  0  0  0  0  0  0
    1.0673   -0.5547    0.0000 C   0  0  0  0  0  0  0  0  0
    0.2468   -0.6409    0.0000 C   0  0  0  0  0  0  0  0  0
   -0.0888    0.1127    0.0000 N   0  0  0  0  0  0  0  0  0
    0.5243    0.6648    0.0000 N   0  0  0  0  0  0  0  0  0
    1.2388    0.2523    0.0000 C   0  0  0  0  0  0  0  0  0
    1.9925    0.5878    0.0000 C   0  0  0  0  0  0  0  0  0
    2.0787    1.4083    0.0000 C   0  0  0  0  0  0  0  0  0
    0.4381    1.4853    0.0000 C   0  0  0  0  0  0  0  0  0
   -0.3156    1.8208    0.0000 C   0  0  0  0  0  0  0  0  0
   -0.4018    2.6413    0.0000 C   0  0  0  0  0  0  0  0  0
    0.2656    3.1262    0.0000 C   0  0  0  0  0  0  0  0  0
    1.0193    2.7907    0.0000 C   0  0  0  0  0  0  0  0  0
    1.1055    1.9702    0.0000 C   0  0  0  0  0  0  0  0  0
    0.1794    3.9467    0.0000 C   0  0  0  0  0  0  0  0  0
    0.0931    4.7672    0.0000 N   0  0  0  0  0  0  0  0  0
  1  2  2  0  0  0  0
  2  3  1  0  0  0  0
  2 23  1  0  0  0  0
  3  4  1  0  0  0  0
  3  7  1  0  0  0  0
  4  5  1  0  0  0  0
  5  6  1  0  0  0  0
  6  7  4  0  0  0  0
  6 11  4  0  0  0  0
  7  8  4  0  0  0  0
  8  9  4  0  0  0  0
  9 10  4  0  0  0  0
  9 15  4  0  0  0  0
 10 11  4  0  0  0  0
 10 12  4  0  0  0  0
 12 13  4  0  0  0  0
 13 14  4  0  0  0  0
 14 15  4  0  0  0  0
 15 16  1  0  0  0  0
 16 17  1  0  0  0  0
 16 21  1  0  0  0  0
 17 18  1  0  0  0  0
 18 19  1  0  0  0  0
 19 20  1  0  0  0  0
 19 22  1  0  0  0  0
 20 21  1  0  0  0  0
 23 24  4  0  0  0  0
 23 27  4  0  0  0  0
 24 25  4  0  0  0  0
 25 26  4  0  0  0  0
 26 27  4  0  0  0  0
 26 30  1  0  0  0  0
 27 28  1  0  0  0  0
 28 29  1  0  0  0  0
 30 31  4  0  0  0  0
 30 35  4  0  0  0  0
 31 32  4  0  0  0  0
 32 33  4  0  0  0  0
 33 34  4  0  0  0  0
 33 36  1  0  0  0  0
 34 35  4  0  0  0  0
 36 37  3  0  0  0  0
M  END
>  <Name_Molregno>
330067

>  <5-HT1A>
8.9

>  <5-HT1B>
9

>  <5-HT1D>
9.2

$$$$
330073
  Marvin  02231216192D 0   1.00000     0.00000     0

 36 41  0  0  0  0  0  0  0  0999 V2000
    2.2412   -1.0050    0.0000 O   0  0  0  0  0  0  0  0  0
    1.4342   -1.1766    0.0000 C   0  0  0  0  0  0  0  0  0
    1.1793   -1.9612    0.0000 N   0  0  0  0  0  0  0  0  0
    1.6642   -2.6286    0.0000 C   0  0  0  0  0  0  0  0  0
    1.1793   -3.2961    0.0000 C   0  0  0  0  0  0  0  0  0
    0.3947   -3.0411    0.0000 C   0  0  0  0  0  0  0  0  0
    0.3947   -2.2161    0.0000 C   0  0  0  0  0  0  0  0  0
   -0.3198   -1.8036    0.0000 C   0  0  0  0  0  0  0  0  0
   -1.0343   -2.2161    0.0000 C   0  0  0  0  0  0  0  0  0
   -1.0343   -3.0411    0.0000 C   0  0  0  0  0  0  0  0  0
   -0.3198   -3.4536    0.0000 C   0  0  0  0  0  0  0  0  0
   -1.7488   -3.4536    0.0000 C   0  0  0  0  0  0  0  0  0
   -2.4632   -3.0411    0.0000 C   0  0  0  0  0  0  0  0  0
   -2.4632   -2.2161    0.0000 N   0  0  0  0  0  0  0  0  0
   -1.7488   -1.8036    0.0000 C   0  0  0  0  0  0  0  0  0
   -1.7488   -0.9786    0.0000 N   0  0  0  0  0  0  0  0  0
   -2.4632   -0.5661    0.0000 C   0  0  0  0  0  0  0  0  0
   -2.4632    0.2589    0.0000 C   0  0  0  0  0  0  0  0  0
   -1.7488    0.6714    0.0000 N   0  0  0  0  0  0  0  0  0
   -1.0343    0.2589    0.0000 C   0  0  0  0  0  0  0  0  0
   -1.0343   -0.5661    0.0000 C   0  0  0  0  0  0  0  0  0
    0.8822   -0.5635    0.0000 C   0  0  0  0  0  0  0  0  0
    0.0617   -0.6497    0.0000 C   0  0  0  0  0  0  0  0  0
   -0.2739    0.1040    0.0000 N   0  0  0  0  0  0  0  0  0
    0.3392    0.6560    0.0000 N   0  0  0  0  0  0  0  0  0
    1.0537    0.2435    0.0000 C   0  0  0  0  0  0  0  0  0
    1.8074    0.5791    0.0000 C   0  0  0  0  0  0  0  0  0
    1.8936    1.3996    0.0000 C   0  0  0  0  0  0  0  0  0
    0.2530    1.4765    0.0000 C   0  0  0  0  0  0  0  0  0
   -0.5007    1.8121    0.0000 C   0  0  0  0  0  0  0  0  0
   -0.5869    2.6325    0.0000 C   0  0  0  0  0  0  0  0  0
    0.0805    3.1175    0.0000 C   0  0  0  0  0  0  0  0  0
    0.8342    2.7819    0.0000 C   0  0  0  0  0  0  0  0  0
    0.9204    1.9614    0.0000 C   0  0  0  0  0  0  0  0  0
   -0.0057    3.9379    0.0000 C   0  0  0  0  0  0  0  0  0
   -0.0919    4.7584    0.0000 N   0  0  0  0  0  0  0  0  0
  1  2  2  0  0  0  0
  2  3  1  0  0  0  0
  2 22  1  0  0  0  0
  3  4  1  0  0  0  0
  3  7  1  0  0  0  0
  4  5  1  0  0  0  0
  5  6  1  0  0  0  0
  6  7  4  0  0  0  0
  6 11  4  0  0  0  0
  7  8  4  0  0  0  0
  8  9  4  0  0  0  0
  9 10  4  0  0  0  0
  9 15  4  0  0  0  0
 10 11  4  0  0  0  0
 10 12  4  0  0  0  0
 12 13  4  0  0  0  0
 13 14  4  0  0  0  0
 14 15  4  0  0  0  0
 15 16  1  0  0  0  0
 16 17  1  0  0  0  0
 16 21  1  0  0  0  0
 17 18  1  0  0  0  0
 18 19  1  0  0  0  0
 19 20  1  0  0  0  0
 20 21  1  0  0  0  0
 22 23  4  0  0  0  0
 22 26  4  0  0  0  0
 23 24  4  0  0  0  0
 24 25  4  0  0  0  0
 25 26  4  0  0  0  0
 25 29  1  0  0  0  0
 26 27  1  0  0  0  0
 27 28  1  0  0  0  0
 29 30  4  0  0  0  0
 29 34  4  0  0  0  0
 30 31  4  0  0  0  0
 31 32  4  0  0  0  0
 32 33  4  0  0  0  0
 32 35  1  0  0  0  0
 33 34  4  0  0  0  0
 35 36  3  0  0  0  0
M  END
>  <Name_Molregno>
330073

>  <5-HT1A>
8.9

>  <5-HT1B>
8.6

>  <5-HT1D>
8.6

$$$$
330080
  Marvin  02231216192D 0   1.00000     0.00000     0

 38 43  0  0  0  0  0  0  0  0999 V2000
    2.4621   -0.9410    0.0000 O   0  0  0  0  0  0  0  0  0
    1.6552   -1.1125    0.0000 C   0  0  0  0  0  0  0  0  0
    1.4002   -1.8971    0.0000 N   0  0  0  0  0  0  0  0  0
    1.8852   -2.5646    0.0000 C   0  0  0  0  0  0  0  0  0
    1.4002   -3.2320    0.0000 C   0  0  0  0  0  0  0  0  0
    0.6156   -2.9771    0.0000 C   0  0  0  0  0  0  0  0  0
    0.6156   -2.1521    0.0000 C   0  0  0  0  0  0  0  0  0
   -0.0989   -1.7396    0.0000 C   0  0  0  0  0  0  0  0  0
   -0.8133   -2.1521    0.0000 C   0  0  0  0  0  0  0  0  0
   -0.8133   -2.9771    0.0000 C   0  0  0  0  0  0  0  0  0
   -0.0989   -3.3896    0.0000 C   0  0  0  0  0  0  0  0  0
   -1.5278   -3.3896    0.0000 C   0  0  0  0  0  0  0  0  0
   -2.2423   -2.9771    0.0000 C   0  0  0  0  0  0  0  0  0
   -2.2423   -2.1521    0.0000 N   0  0  0  0  0  0  0  0  0
   -1.5278   -1.7396    0.0000 C   0  0  0  0  0  0  0  0  0
   -1.5278   -0.9146    0.0000 N   0  0  0  0  0  0  0  0  0
   -2.2423   -0.5021    0.0000 C   0  0  0  0  0  0  0  0  0
   -2.2423    0.3229    0.0000 C   0  0  0  0  0  0  0  0  0
   -1.5278    0.7354    0.0000 N   0  0  0  0  0  0  0  0  0
   -0.8133    0.3229    0.0000 C   0  0  0  0  0  0  0  0  0
   -0.8133   -0.5021    0.0000 C   0  0  0  0  0  0  0  0  0
   -1.5278    1.5604    0.0000 C   0  0  0  0  0  0  0  0  0
   -0.8133    1.9729    0.0000 C   0  0  0  0  0  0  0  0  0
    1.1031   -0.4994    0.0000 C   0  0  0  0  0  0  0  0  0
    0.2827   -0.5856    0.0000 C   0  0  0  0  0  0  0  0  0
   -0.0529    0.1680    0.0000 N   0  0  0  0  0  0  0  0  0
    0.5602    0.7201    0.0000 N   0  0  0  0  0  0  0  0  0
    1.2747    0.3076    0.0000 C   0  0  0  0  0  0  0  0  0
    2.0283    0.6431    0.0000 C   0  0  0  0  0  0  0  0  0
    2.1146    1.4636    0.0000 C   0  0  0  0  0  0  0  0  0
    0.4740    1.5405    0.0000 C   0  0  0  0  0  0  0  0  0
   -0.2797    1.8761    0.0000 C   0  0  0  0  0  0  0  0  0
   -0.3660    2.6966    0.0000 C   0  0  0  0  0  0  0  0  0
    0.3015    3.1815    0.0000 C   0  0  0  0  0  0  0  0  0
    1.0552    2.8460    0.0000 C   0  0  0  0  0  0  0  0  0
    1.1414    2.0255    0.0000 C   0  0  0  0  0  0  0  0  0
    0.2152    4.0020    0.0000 C   0  0  0  0  0  0  0  0  0
    0.1290    4.8225    0.0000 N   0  0  0  0  0  0  0  0  0
  1  2  2  0  0  0  0
  2  3  1  0  0  0  0
  2 24  1  0  0  0  0
  3  4  1  0  0  0  0
  3  7  1  0  0  0  0
  4  5  1  0  0  0  0
  5  6  1  0  0  0  0
  6  7  4  0  0  0  0
  6 11  4  0  0  0  0
  7  8  4  0  0  0  0
  8  9  4  0  0  0  0
  9 10  4  0  0  0  0
  9 15  4  0  0  0  0
 10 11  4  0  0  0  0
 10 12  4  0  0  0  0
 12 13  4  0  0  0  0
 13 14  4  0  0  0  0
 14 15  4  0  0  0  0
 15 16  1  0  0  0  0
 16 17  1  0  0  0  0
 16 21  1  0  0  0  0
 17 18  1  0  0  0  0
 18 19  1  0  0  0  0
 19 20  1  0  0  0  0
 19 22  1  0  0  0  0
 20 21  1  0  0  0  0
 22 23  1  0  0  0  0
 24 25  4  0  0  0  0
 24 28  4  0  0  0  0
 25 26  4  0  0  0  0
 26 27  4  0  0  0  0
 27 28  4  0  0  0  0
 27 31  1  0  0  0  0
 28 29  1  0  0  0  0
 29 30  1  0  0  0  0
 31 32  4  0  0  0  0
 31 36  4  0  0  0  0
 32 33  4  0  0  0  0
 33 34  4  0  0  0  0
 34 35  4  0  0  0  0
 34 37  1  0  0  0  0
 35 36  4  0  0  0  0
 37 38  3  0  0  0  0
M  END
>  <Name_Molregno>
330080

>  <5-HT1A>
8.5

>  <5-HT1B>
8.8

>  <5-HT1D>
8.6

$$$$
330087
  Marvin  02231216192D 0   1.00000     0.00000     0

 39 44  0  0  0  0  0  0  0  0999 V2000
    2.5089   -0.9143    0.0000 O   0  0  0  0  0  0  0  0  0
    1.7019   -1.0859    0.0000 C   0  0  0  0  0  0  0  0  0
    1.4470   -1.8705    0.0000 N   0  0  0  0  0  0  0  0  0
    1.9319   -2.5379    0.0000 C   0  0  0  0  0  0  0  0  0
    1.4470   -3.2054    0.0000 C   0  0  0  0  0  0  0  0  0
    0.6624   -2.9504    0.0000 C   0  0  0  0  0  0  0  0  0
    0.6624   -2.1254    0.0000 C   0  0  0  0  0  0  0  0  0
   -0.0521   -1.7129    0.0000 C   0  0  0  0  0  0  0  0  0
   -0.7666   -2.1254    0.0000 C   0  0  0  0  0  0  0  0  0
   -0.7666   -2.9504    0.0000 C   0  0  0  0  0  0  0  0  0
   -0.0521   -3.3629    0.0000 C   0  0  0  0  0  0  0  0  0
   -1.4810   -3.3629    0.0000 C   0  0  0  0  0  0  0  0  0
   -2.1955   -2.9504    0.0000 C   0  0  0  0  0  0  0  0  0
   -2.1955   -2.1254    0.0000 N   0  0  0  0  0  0  0  0  0
   -1.4810   -1.7129    0.0000 C   0  0  0  0  0  0  0  0  0
   -1.4810   -0.8879    0.0000 N   0  0  0  0  0  0  0  0  0
   -2.1955   -0.4754    0.0000 C   0  0  0  0  0  0  0  0  0
   -2.1955    0.3496    0.0000 C   0  0  0  0  0  0  0  0  0
   -1.4810    0.7621    0.0000 N   0  0  0  0  0  0  0  0  0
   -0.7666    0.3496    0.0000 C   0  0  0  0  0  0  0  0  0
   -0.7666   -0.4754    0.0000 C   0  0  0  0  0  0  0  0  0
   -1.4810    1.5871    0.0000 C   0  0  0  0  0  0  0  0  0
   -0.7666    1.9996    0.0000 C   0  0  0  0  0  0  0  0  0
   -2.1955    1.9996    0.0000 C   0  0  0  0  0  0  0  0  0
    1.1499   -0.4728    0.0000 C   0  0  0  0  0  0  0  0  0
    0.3294   -0.5590    0.0000 C   0  0  0  0  0  0  0  0  0
   -0.0061    0.1947    0.0000 N   0  0  0  0  0  0  0  0  0
    0.6070    0.7467    0.0000 N   0  0  0  0  0  0  0  0  0
    1.3214    0.3342    0.0000 C   0  0  0  0  0  0  0  0  0
    2.0751    0.6698    0.0000 C   0  0  0  0  0  0  0  0  0
    2.1613    1.4902    0.0000 C   0  0  0  0  0  0  0  0  0
    0.5207    1.5672    0.0000 C   0  0  0  0  0  0  0  0  0
   -0.2330    1.9027    0.0000 C   0  0  0  0  0  0  0  0  0
   -0.3192    2.7232    0.0000 C   0  0  0  0  0  0  0  0  0
    0.3483    3.2081    0.0000 C   0  0  0  0  0  0  0  0  0
    1.1019    2.8726    0.0000 C   0  0  0  0  0  0  0  0  0
    1.1882    2.0521    0.0000 C   0  0  0  0  0  0  0  0  0
    0.2620    4.0286    0.0000 C   0  0  0  0  0  0  0  0  0
    0.1758    4.8491    0.0000 N   0  0  0  0  0  0  0  0  0
  1  2  2  0  0  0  0
  2  3  1  0  0  0  0
  2 25  1  0  0  0  0
  3  4  1  0  0  0  0
  3  7  1  0  0  0  0
  4  5  1  0  0  0  0
  5  6  1  0  0  0  0
  6  7  4  0  0  0  0
  6 11  4  0  0  0  0
  7  8  4  0  0  0  0
  8  9  4  0  0  0  0
  9 10  4  0  0  0  0
  9 15  4  0  0  0  0
 10 11  4  0  0  0  0
 10 12  4  0  0  0  0
 12 13  4  0  0  0  0
 13 14  4  0  0  0  0
 14 15  4  0  0  0  0
 15 16  1  0  0  0  0
 16 17  1  0  0  0  0
 16 21  1  0  0  0  0
 17 18  1  0  0  0  0
 18 19  1  0  0  0  0
 19 20  1  0  0  0  0
 19 22  1  0  0  0  0
 20 21  1  0  0  0  0
 22 23  1  0  0  0  0
 22 24  1  0  0  0  0
 25 26  4  0  0  0  0
 25 29  4  0  0  0  0
 26 27  4  0  0  0  0
 27 28  4  0  0  0  0
 28 29  4  0  0  0  0
 28 32  1  0  0  0  0
 29 30  1  0  0  0  0
 30 31  1  0  0  0  0
 32 33  4  0  0  0  0
 32 37  4  0  0  0  0
 33 34  4  0  0  0  0
 34 35  4  0  0  0  0
 35 36  4  0  0  0  0
 35 38  1  0  0  0  0
 36 37  4  0  0  0  0
 38 39  3  0  0  0  0
M  END
>  <Name_Molregno>
330087

>  <5-HT1A>
8.2

>  <5-HT1B>
8.4

>  <5-HT1D>
8.1

$$$$
330093
  Marvin  02231216192D 0   1.00000     0.00000     0

 38 43  0  0  1  0  0  0  0  0999 V2000
    2.4673   -0.9339    0.0000 O   0  0  0  0  0  0  0  0  0
    1.6603   -1.1054    0.0000 C   0  0  0  0  0  0  0  0  0
    1.4054   -1.8900    0.0000 N   0  0  0  0  0  0  0  0  0
    1.8903   -2.5575    0.0000 C   0  0  0  0  0  0  0  0  0
    1.4054   -3.2249    0.0000 C   0  0  0  0  0  0  0  0  0
    0.6207   -2.9700    0.0000 C   0  0  0  0  0  0  0  0  0
    0.6207   -2.1450    0.0000 C   0  0  0  0  0  0  0  0  0
   -0.0937   -1.7325    0.0000 C   0  0  0  0  0  0  0  0  0
   -0.8082   -2.1450    0.0000 C   0  0  0  0  0  0  0  0  0
   -0.8082   -2.9700    0.0000 C   0  0  0  0  0  0  0  0  0
   -0.0937   -3.3825    0.0000 C   0  0  0  0  0  0  0  0  0
   -1.5227   -3.3825    0.0000 C   0  0  0  0  0  0  0  0  0
   -2.2371   -2.9700    0.0000 C   0  0  0  0  0  0  0  0  0
   -2.2371   -2.1450    0.0000 N   0  0  0  0  0  0  0  0  0
   -1.5227   -1.7325    0.0000 C   0  0  0  0  0  0  0  0  0
   -1.5227   -0.9075    0.0000 N   0  0  0  0  0  0  0  0  0
   -2.2371   -0.4950    0.0000 C   0  0  0  0  0  0  0  0  0
   -2.2371    0.3300    0.0000 C   0  0  0  0  0  0  0  0  0
   -1.5227    0.7425    0.0000 N   0  0  0  0  0  0  0  0  0
   -0.8082    0.3300    0.0000 C   0  0  0  0  0  0  0  0  0
   -0.8082   -0.4950    0.0000 C   0  0  0  0  0  0  0  0  0
   -0.0937    0.7425    0.0000 C   0  0  0  0  0  0  0  0  0
   -2.9516    0.7425    0.0000 C   0  0  0  0  0  0  0  0  0
    1.1083   -0.4923    0.0000 C   0  0  0  0  0  0  0  0  0
    0.2878   -0.5785    0.0000 C   0  0  0  0  0  0  0  0  0
   -0.0478    0.1751    0.0000 N   0  0  0  0  0  0  0  0  0
    0.5653    0.7272    0.0000 N   0  0  0  0  0  0  0  0  0
    1.2798    0.3147    0.0000 C   0  0  0  0  0  0  0  0  0
    2.0335    0.6502    0.0000 C   0  0  0  0  0  0  0  0  0
    2.1197    1.4707    0.0000 C   0  0  0  0  0  0  0  0  0
    0.4791    1.5476    0.0000 C   0  0  0  0  0  0  0  0  0
   -0.2746    1.8832    0.0000 C   0  0  0  0  0  0  0  0  0
   -0.3608    2.7037    0.0000 C   0  0  0  0  0  0  0  0  0
    0.3066    3.1886    0.0000 C   0  0  0  0  0  0  0  0  0
    1.0603    2.8530    0.0000 C   0  0  0  0  0  0  0  0  0
    1.1465    2.0326    0.0000 C   0  0  0  0  0  0  0  0  0
    0.2204    4.0091    0.0000 C   0  0  0  0  0  0  0  0  0
    0.1342    4.8296    0.0000 N   0  0  0  0  0  0  0  0  0
  1  2  2  0  0  0  0
  2  3  1  0  0  0  0
  2 24  1  0  0  0  0
  3  4  1  0  0  0  0
  3  7  1  0  0  0  0
  4  5  1  0  0  0  0
  5  6  1  0  0  0  0
  6  7  4  0  0  0  0
  6 11  4  0  0  0  0
  7  8  4  0  0  0  0
  8  9  4  0  0  0  0
  9 10  4  0  0  0  0
  9 15  4  0  0  0  0
 10 11  4  0  0  0  0
 10 12  4  0  0  0  0
 12 13  4  0  0  0  0
 13 14  4  0  0  0  0
 14 15  4  0  0  0  0
 15 16  1  0  0  0  0
 16 17  1  0  0  0  0
 16 21  1  0  0  0  0
 17 18  1  0  0  0  0
 18 19  1  0  0  0  0
 18 23  1  0  0  0  0
 19 20  1  0  0  0  0
 20 21  1  0  0  0  0
 20 22  1  0  0  0  0
 24 25  4  0  0  0  0
 24 28  4  0  0  0  0
 25 26  4  0  0  0  0
 26 27  4  0  0  0  0
 27 28  4  0  0  0  0
 27 31  1  0  0  0  0
 28 29  1  0  0  0  0
 29 30  1  0  0  0  0
 31 32  4  0  0  0  0
 31 36  4  0  0  0  0
 32 33  4  0  0  0  0
 33 34  4  0  0  0  0
 34 35  4  0  0  0  0
 34 37  1  0  0  0  0
 35 36  4  0  0  0  0
 37 38  3  0  0  0  0
M  END
>  <Name_Molregno>
330093

>  <5-HT1A>
7.5

>  <5-HT1B>
8.1

>  <5-HT1D>
8.1

$$$$
330100
  Marvin  02231216192D 0   1.00000     0.00000     0

 39 45  0  0  1  0  0  0  0  0999 V2000
    2.0062    1.7841    0.0000 O   0  0  0  0  0  0  0  0  0
    1.7513    0.9994    0.0000 C   0  0  0  0  0  0  0  0  0
    2.3033    0.3863    0.0000 N   0  0  0  0  0  0  0  0  0
    3.1238    0.4726    0.0000 C   0  0  0  0  0  0  0  0  0
    3.4593   -0.2811    0.0000 C   0  0  0  0  0  0  0  0  0
    2.8462   -0.8331    0.0000 C   0  0  0  0  0  0  0  0  0
    2.1318   -0.4206    0.0000 C   0  0  0  0  0  0  0  0  0
    1.4173   -0.8331    0.0000 C   0  0  0  0  0  0  0  0  0
    1.4173   -1.6581    0.0000 C   0  0  0  0  0  0  0  0  0
    2.1318   -2.0706    0.0000 C   0  0  0  0  0  0  0  0  0
    2.8462   -1.6581    0.0000 C   0  0  0  0  0  0  0  0  0
    2.1318   -2.8956    0.0000 C   0  0  0  0  0  0  0  0  0
    1.4173   -3.3081    0.0000 C   0  0  0  0  0  0  0  0  0
    0.7028   -2.8956    0.0000 N   0  0  0  0  0  0  0  0  0
    0.7028   -2.0706    0.0000 C   0  0  0  0  0  0  0  0  0
   -0.0116   -1.6581    0.0000 N   0  0  0  0  0  0  0  0  0
   -0.7261   -2.0706    0.0000 C   0  0  0  0  0  0  0  0  0
   -1.4406   -1.6581    0.0000 C   0  0  0  0  0  0  0  0  0
   -1.4406   -0.8331    0.0000 N   0  0  0  0  0  0  0  0  0
   -2.2252   -0.5782    0.0000 C   0  0  0  0  0  0  0  0  0
   -2.7101   -1.2456    0.0000 C   0  0  0  0  0  0  0  0  0
   -2.2252   -1.9131    0.0000 C   0  0  0  0  0  0  0  0  0
   -0.7261   -0.4206    0.0000 C   0  0  0  0  0  0  0  0  0
   -0.0116   -0.8331    0.0000 C   0  0  0  0  0  0  0  0  0
    0.9443    0.8279    0.0000 C   0  0  0  0  0  0  0  0  0
    0.6087    0.0742    0.0000 C   0  0  0  0  0  0  0  0  0
   -0.2117    0.1605    0.0000 N   0  0  0  0  0  0  0  0  0
   -0.3833    0.9674    0.0000 N   0  0  0  0  0  0  0  0  0
    0.3312    1.3799    0.0000 C   0  0  0  0  0  0  0  0  0
    0.4174    2.2004    0.0000 C   0  0  0  0  0  0  0  0  0
   -0.2500    2.6853    0.0000 C   0  0  0  0  0  0  0  0  0
   -1.1370    1.3030    0.0000 C   0  0  0  0  0  0  0  0  0
   -1.8044    0.8181    0.0000 C   0  0  0  0  0  0  0  0  0
   -2.5581    1.1536    0.0000 C   0  0  0  0  0  0  0  0  0
   -2.6443    1.9741    0.0000 C   0  0  0  0  0  0  0  0  0
   -1.9769    2.4590    0.0000 C   0  0  0  0  0  0  0  0  0
   -1.2232    2.1235    0.0000 C   0  0  0  0  0  0  0  0  0
   -3.3980    2.3097    0.0000 C   0  0  0  0  0  0  0  0  0
   -4.1517    2.6452    0.0000 N   0  0  0  0  0  0  0  0  0
  1  2  2  0  0  0  0
  2  3  1  0  0  0  0
  2 25  1  0  0  0  0
  3  4  1  0  0  0  0
  3  7  1  0  0  0  0
  4  5  1  0  0  0  0
  5  6  1  0  0  0  0
  6  7  4  0  0  0  0
  6 11  4  0  0  0  0
  7  8  4  0  0  0  0
  8  9  4  0  0  0  0
  9 10  4  0  0  0  0
  9 15  4  0  0  0  0
 10 11  4  0  0  0  0
 10 12  4  0  0  0  0
 12 13  4  0  0  0  0
 13 14  4  0  0  0  0
 14 15  4  0  0  0  0
 15 16  1  0  0  0  0
 16 17  1  0  0  0  0
 16 24  1  0  0  0  0
 17 18  1  0  0  0  0
 18 19  1  0  0  0  0
 18 22  1  0  0  0  0
 19 20  1  0  0  0  0
 19 23  1  0  0  0  0
 20 21  1  0  0  0  0
 21 22  1  0  0  0  0
 23 24  1  0  0  0  0
 25 26  4  0  0  0  0
 25 29  4  0  0  0  0
 26 27  4  0  0  0  0
 27 28  4  0  0  0  0
 28 29  4  0  0  0  0
 28 32  1  0  0  0  0
 29 30  1  0  0  0  0
 30 31  1  0  0  0  0
 32 33  4  0  0  0  0
 32 37  4  0  0  0  0
 33 34  4  0  0  0  0
 34 35  4  0  0  0  0
 35 36  4  0  0  0  0
 35 38  1  0  0  0  0
 36 37  4  0  0  0  0
 38 39  3  0  0  0  0
M  END
>  <Name_Molregno>
330100

>  <5-HT1A>
8.85

>  <5-HT1B>
8.85

>  <5-HT1D>
8.75

$$$$
330283
  Marvin  02231216192D 0   1.00000     0.00000     0

 31 34  0  0  0  0  0  0  0  0999 V2000
    0.1076    0.0239    0.0000 Cl  0  0  0  0  0  0  0  0  0
    0.1076   -0.8011    0.0000 C   0  0  0  0  0  0  0  0  0
    0.8221   -1.2136    0.0000 C   0  0  0  0  0  0  0  0  0
    0.8221   -2.0386    0.0000 C   0  0  0  0  0  0  0  0  0
    0.1076   -2.4511    0.0000 C   0  0  0  0  0  0  0  0  0
   -0.6069   -2.0386    0.0000 C   0  0  0  0  0  0  0  0  0
   -0.6069   -1.2136    0.0000 C   0  0  0  0  0  0  0  0  0
   -1.3213   -0.8011    0.0000 N   0  0  0  0  0  0  0  0  0
   -2.0358   -1.2136    0.0000 C   0  0  0  0  0  0  0  0  0
   -2.7503   -0.8011    0.0000 C   0  0  0  0  0  0  0  0  0
   -2.7503    0.0239    0.0000 N   0  0  0  0  0  0  0  0  0
   -2.0358    0.4364    0.0000 C   0  0  0  0  0  0  0  0  0
   -1.3213    0.0239    0.0000 C   0  0  0  0  0  0  0  0  0
   -3.4647    0.4364    0.0000 C   0  0  0  0  0  0  0  0  0
   -3.4647    1.2614    0.0000 O   0  0  0  0  0  0  0  0  0
   -4.1792    0.0239    0.0000 N   0  0  0  0  0  0  0  0  0
   -4.8937    0.4364    0.0000 C   0  0  0  0  0  0  0  0  0
   -5.6082    0.0239    0.0000 C   0  0  0  0  0  0  0  0  0
   -6.3226    0.4364    0.0000 C   0  0  0  0  0  0  0  0  0
   -7.0371    0.0239    0.0000 N   0  0  0  0  0  0  0  0  0
   -7.0371   -0.8011    0.0000 C   0  0  0  0  0  0  0  0  0
   -7.7516   -1.2136    0.0000 C   0  0  0  0  0  0  0  0  0
   -8.4660   -0.8011    0.0000 N   0  0  0  0  0  0  0  0  0
   -8.4660    0.0239    0.0000 C   0  0  0  0  0  0  0  0  0
   -7.7516    0.4364    0.0000 C   0  0  0  0  0  0  0  0  0
   -9.1805   -1.2136    0.0000 C   0  0  0  0  0  0  0  0  0
   -6.3226    1.2614    0.0000 C   0  0  0  0  0  0  0  0  0
   -7.0371    1.6739    0.0000 O   0  0  0  0  0  0  0  0  0
   -7.0371    2.4989    0.0000 C   0  0  0  0  0  0  0  0  0
   -5.6082    1.6739    0.0000 C   0  0  0  0  0  0  0  0  0
   -4.8937    1.2614    0.0000 C   0  0  0  0  0  0  0  0  0
  1  2  1  0  0  0  0
  2  3  4  0  0  0  0
  2  7  4  0  0  0  0
  3  4  4  0  0  0  0
  4  5  4  0  0  0  0
  5  6  4  0  0  0  0
  6  7  4  0  0  0  0
  7  8  1  0  0  0  0
  8  9  1  0  0  0  0
  8 13  1  0  0  0  0
  9 10  1  0  0  0  0
 10 11  1  0  0  0  0
 11 12  1  0  0  0  0
 11 14  1  0  0  0  0
 12 13  1  0  0  0  0
 14 15  2  0  0  0  0
 14 16  1  0  0  0  0
 16 17  1  0  0  0  0
 17 18  4  0  0  0  0
 17 31  4  0  0  0  0
 18 19  4  0  0  0  0
 19 20  1  0  0  0  0
 19 27  4  0  0  0  0
 20 21  1  0  0  0  0
 20 25  1  0  0  0  0
 21 22  1  0  0  0  0
 22 23  1  0  0  0  0
 23 24  1  0  0  0  0
 23 26  1  0  0  0  0
 24 25  1  0  0  0  0
 27 28  1  0  0  0  0
 27 30  4  0  0  0  0
 28 29  1  0  0  0  0
 30 31  4  0  0  0  0
M  END
>  <Name_Molregno>
330283

>  <5-HT1A>
6.47

>  <5-HT1B>
7.95

>  <5-HT1D>
7.46

>  <5-HT2A>
5.22

>  <5-HT2C>
5.91

>  <5-HT6>
6.33

>  <5-HT7>
6.47

>  <DOPAMINE D1>
5

>  <DOPAMINE D2>
5

>  <DOPAMINE D3>
5

>  <DOPAMINE D4>
5

>  <DOPAMINE D5>
5

>  <HISTAMINE H1>
5

>  <Muscarinic acetylcholine receptor M1>
5

>  <Muscarinic acetylcholine receptor M2>
5

>  <Muscarinic acetylcholine receptor M3>
5

>  <Muscarinic acetylcholine receptor M4>
5

>  <Muscarinic acetylcholine receptor M5>
5

$$$$
330287
  Marvin  02231216192D 0   1.00000     0.00000     0

 31 34  0  0  0  0  0  0  0  0999 V2000
    0.1076    0.0239    0.0000 F   0  0  0  0  0  0  0  0  0
    0.1076   -0.8011    0.0000 C   0  0  0  0  0  0  0  0  0
    0.8221   -1.2136    0.0000 C   0  0  0  0  0  0  0  0  0
    0.8221   -2.0386    0.0000 C   0  0  0  0  0  0  0  0  0
    0.1076   -2.4511    0.0000 C   0  0  0  0  0  0  0  0  0
   -0.6069   -2.0386    0.0000 C   0  0  0  0  0  0  0  0  0
   -0.6069   -1.2136    0.0000 C   0  0  0  0  0  0  0  0  0
   -1.3213   -0.8011    0.0000 N   0  0  0  0  0  0  0  0  0
   -2.0358   -1.2136    0.0000 C   0  0  0  0  0  0  0  0  0
   -2.7503   -0.8011    0.0000 C   0  0  0  0  0  0  0  0  0
   -2.7503    0.0239    0.0000 N   0  0  0  0  0  0  0  0  0
   -2.0358    0.4364    0.0000 C   0  0  0  0  0  0  0  0  0
   -1.3213    0.0239    0.0000 C   0  0  0  0  0  0  0  0  0
   -3.4647    0.4364    0.0000 C   0  0  0  0  0  0  0  0  0
   -3.4647    1.2614    0.0000 O   0  0  0  0  0  0  0  0  0
   -4.1792    0.0239    0.0000 N   0  0  0  0  0  0  0  0  0
   -4.8937    0.4364    0.0000 C   0  0  0  0  0  0  0  0  0
   -5.6082    0.0239    0.0000 C   0  0  0  0  0  0  0  0  0
   -6.3226    0.4364    0.0000 C   0  0  0  0  0  0  0  0  0
   -7.0371    0.0239    0.0000 N   0  0  0  0  0  0  0  0  0
   -7.0371   -0.8011    0.0000 C   0  0  0  0  0  0  0  0  0
   -7.7516   -1.2136    0.0000 C   0  0  0  0  0  0  0  0  0
   -8.4660   -0.8011    0.0000 N   0  0  0  0  0  0  0  0  0
   -8.4660    0.0239    0.0000 C   0  0  0  0  0  0  0  0  0
   -7.7516    0.4364    0.0000 C   0  0  0  0  0  0  0  0  0
   -9.1805   -1.2136    0.0000 C   0  0  0  0  0  0  0  0  0
   -6.3226    1.2614    0.0000 C   0  0  0  0  0  0  0  0  0
   -7.0371    1.6739    0.0000 O   0  0  0  0  0  0  0  0  0
   -7.0371    2.4989    0.0000 C   0  0  0  0  0  0  0  0  0
   -5.6082    1.6739    0.0000 C   0  0  0  0  0  0  0  0  0
   -4.8937    1.2614    0.0000 C   0  0  0  0  0  0  0  0  0
  1  2  1  0  0  0  0
  2  3  4  0  0  0  0
  2  7  4  0  0  0  0
  3  4  4  0  0  0  0
  4  5  4  0  0  0  0
  5  6  4  0  0  0  0
  6  7  4  0  0  0  0
  7  8  1  0  0  0  0
  8  9  1  0  0  0  0
  8 13  1  0  0  0  0
  9 10  1  0  0  0  0
 10 11  1  0  0  0  0
 11 12  1  0  0  0  0
 11 14  1  0  0  0  0
 12 13  1  0  0  0  0
 14 15  2  0  0  0  0
 14 16  1  0  0  0  0
 16 17  1  0  0  0  0
 17 18  4  0  0  0  0
 17 31  4  0  0  0  0
 18 19  4  0  0  0  0
 19 20  1  0  0  0  0
 19 27  4  0  0  0  0
 20 21  1  0  0  0  0
 20 25  1  0  0  0  0
 21 22  1  0  0  0  0
 22 23  1  0  0  0  0
 23 24  1  0  0  0  0
 23 26  1  0  0  0  0
 24 25  1  0  0  0  0
 27 28  1  0  0  0  0
 27 30  4  0  0  0  0
 28 29  1  0  0  0  0
 30 31  4  0  0  0  0
M  END
>  <Name_Molregno>
330287

>  <5-HT1A>
6.5

>  <5-HT1B>
7.74

>  <5-HT1D>
6.99

>  <5-HT2A>
5

>  <5-HT2C>
5.97

>  <5-HT6>
6.08

>  <5-HT7>
5

>  <DOPAMINE D1>
5

>  <DOPAMINE D2>
5

>  <DOPAMINE D3>
5

>  <DOPAMINE D4>
5

>  <DOPAMINE D5>
5

>  <HISTAMINE H1>
5

>  <Muscarinic acetylcholine receptor M1>
5

>  <Muscarinic acetylcholine receptor M2>
5

>  <Muscarinic acetylcholine receptor M3>
5

>  <Muscarinic acetylcholine receptor M4>
5

>  <Muscarinic acetylcholine receptor M5>
5

$$$$
331072
  Marvin  02231216192D 0   1.00000     0.00000     0

 24 26  0  0  1  0  0  0  0  0999 V2000
    1.2473    1.7883    0.0000 F   0  0  0  0  0  0  0  0  0
    1.2473    0.9633    0.0000 C   0  0  0  0  0  0  0  0  0
    1.9618    0.5508    0.0000 C   0  0  0  0  0  0  0  0  0
    1.9618   -0.2742    0.0000 C   0  0  0  0  0  0  0  0  0
    1.2473   -0.6867    0.0000 C   0  0  0  0  0  0  0  0  0
    0.5329   -0.2742    0.0000 C   0  0  0  0  0  0  0  0  0
    0.5329    0.5508    0.0000 C   0  0  0  0  0  0  0  0  0
    2.6763   -0.6867    0.0000 C   0  0  0  0  0  0  0  0  0
    3.3907   -0.2742    0.0000 C   0  0  0  0  0  0  0  0  0
    4.1052   -0.6867    0.0000 N   0  0  0  0  0  0  0  0  0
    4.8197   -0.2742    0.0000 C   0  0  0  0  0  0  0  0  0
    5.5342   -0.6867    0.0000 C   0  0  0  0  0  0  0  0  0
    5.5342   -1.5117    0.0000 C   0  0  0  0  0  0  0  0  0
    6.2486   -1.9242    0.0000 C   0  0  0  0  0  0  0  0  0
    6.9631   -1.5117    0.0000 C   0  0  0  0  0  0  0  0  0
    6.9631   -0.6867    0.0000 C   0  0  0  0  0  0  0  0  0
    6.2486   -0.2742    0.0000 C   0  0  0  0  0  0  0  0  0
    6.2486    0.5508    0.0000 C   0  0  0  0  0  0  0  0  0
    6.9631    0.9633    0.0000 C   0  0  0  0  0  0  0  0  0
    7.6776    0.5508    0.0000 C   0  0  0  0  0  0  0  0  0
    7.6776   -0.2742    0.0000 C   0  0  0  0  0  0  0  0  0
    8.3920   -0.6867    0.0000 O   0  0  0  0  0  0  0  0  0
    9.1065   -0.2742    0.0000 C   0  0  0  0  0  0  0  0  0
    4.1052   -1.5117    0.0000 C   0  0  0  0  0  0  0  0  0
  1  2  1  0  0  0  0
  2  3  4  0  0  0  0
  2  7  4  0  0  0  0
  3  4  4  0  0  0  0
  4  5  4  0  0  0  0
  4  8  1  0  0  0  0
  5  6  4  0  0  0  0
  6  7  4  0  0  0  0
  8  9  1  0  0  0  0
  9 10  1  0  0  0  0
 10 11  1  0  0  0  0
 10 24  1  0  0  0  0
 11 12  1  0  0  0  0
 12 13  1  0  0  0  0
 12 17  1  0  0  0  0
 13 14  1  0  0  0  0
 14 15  1  0  0  0  0
 15 16  1  0  0  0  0
 16 17  4  0  0  0  0
 16 21  4  0  0  0  0
 17 18  4  0  0  0  0
 18 19  4  0  0  0  0
 19 20  4  0  0  0  0
 20 21  4  0  0  0  0
 21 22  1  0  0  0  0
 22 23  1  0  0  0  0
M  END
>  <Name_Molregno>
331072

>  <5-HT1A>
8.49

$$$$
331559
  Marvin  02231216192D 0   1.00000     0.00000     0

 34 38  0  0  0  0  0  0  0  0999 V2000
   -9.0296   -2.3369    0.0000 O   0  0  0  0  0  0  0  0  0
   -9.0296   -3.1619    0.0000 C   0  0  0  0  0  0  0  0  0
   -9.7441   -1.9244    0.0000 C   0  0  0  0  0  0  0  0  0
  -10.4586   -2.3369    0.0000 C   0  0  0  0  0  0  0  0  0
  -11.1730   -1.9244    0.0000 C   0  0  0  0  0  0  0  0  0
  -11.1730   -1.0994    0.0000 C   0  0  0  0  0  0  0  0  0
  -10.4586   -0.6869    0.0000 C   0  0  0  0  0  0  0  0  0
   -9.7441   -1.0994    0.0000 C   0  0  0  0  0  0  0  0  0
   -9.0296   -0.6869    0.0000 N   0  0  0  0  0  0  0  0  0
   -9.0296    0.1381    0.0000 C   0  0  0  0  0  0  0  0  0
   -8.3151    0.5506    0.0000 C   0  0  0  0  0  0  0  0  0
   -7.6007    0.1381    0.0000 N   0  0  0  0  0  0  0  0  0
   -7.6007   -0.6869    0.0000 C   0  0  0  0  0  0  0  0  0
   -8.3151   -1.0994    0.0000 C   0  0  0  0  0  0  0  0  0
   -6.8862    0.5506    0.0000 C   0  0  0  0  0  0  0  0  0
   -6.1717    0.1381    0.0000 C   0  0  0  0  0  0  0  0  0
   -5.4573    0.5506    0.0000 C   0  0  0  0  0  0  0  0  0
   -4.7428    0.1381    0.0000 C   0  0  0  0  0  0  0  0  0
   -4.0283    0.5506    0.0000 N   0  0  0  0  0  0  0  0  0
   -3.3138    0.1381    0.0000 C   0  0  0  0  0  0  0  0  0
   -3.3138   -0.6869    0.0000 O   0  0  0  0  0  0  0  0  0
   -2.5994    0.5506    0.0000 C   0  0  0  0  0  0  0  0  0
   -1.8849    0.1381    0.0000 C   0  0  0  0  0  0  0  0  0
   -1.1704    0.5506    0.0000 C   0  0  0  0  0  0  0  0  0
   -0.3858    0.2956    0.0000 C   0  0  0  0  0  0  0  0  0
    0.0991    0.9631    0.0000 C   0  0  0  0  0  0  0  0  0
   -0.3858    1.6305    0.0000 C   0  0  0  0  0  0  0  0  0
   -1.1704    1.3756    0.0000 C   0  0  0  0  0  0  0  0  0
   -1.8849    1.7881    0.0000 C   0  0  0  0  0  0  0  0  0
   -2.5994    1.3756    0.0000 C   0  0  0  0  0  0  0  0  0
   -0.0503    2.3842    0.0000 C   0  0  0  0  0  0  0  0  0
    0.7702    2.4704    0.0000 C   0  0  0  0  0  0  0  0  0
    1.2551    1.8030    0.0000 C   0  0  0  0  0  0  0  0  0
    0.9196    1.0493    0.0000 C   0  0  0  0  0  0  0  0  0
  1  2  1  0  0  0  0
  1  3  1  0  0  0  0
  3  4  4  0  0  0  0
  3  8  4  0  0  0  0
  4  5  4  0  0  0  0
  5  6  4  0  0  0  0
  6  7  4  0  0  0  0
  7  8  4  0  0  0  0
  8  9  1  0  0  0  0
  9 10  1  0  0  0  0
  9 14  1  0  0  0  0
 10 11  1  0  0  0  0
 11 12  1  0  0  0  0
 12 13  1  0  0  0  0
 12 15  1  0  0  0  0
 13 14  1  0  0  0  0
 15 16  1  0  0  0  0
 16 17  1  0  0  0  0
 17 18  1  0  0  0  0
 18 19  1  0  0  0  0
 19 20  1  0  0  0  0
 20 21  2  0  0  0  0
 20 22  1  0  0  0  0
 22 23  4  0  0  0  0
 22 30  4  0  0  0  0
 23 24  4  0  0  0  0
 24 25  1  0  0  0  0
 24 28  4  0  0  0  0
 25 26  1  0  0  0  0
 26 27  4  0  0  0  0
 26 34  4  0  0  0  0
 27 28  1  0  0  0  0
 27 31  4  0  0  0  0
 28 29  4  0  0  0  0
 29 30  4  0  0  0  0
 31 32  4  0  0  0  0
 32 33  4  0  0  0  0
 33 34  4  0  0  0  0
M  END
>  <Name_Molregno>
331559

>  <5-HT1A>
7.47

>  <5-HT2A>
6.81

>  <5-HT2C>
6.49

>  <DOPAMINE D2>
7.26

>  <DOPAMINE D3>
9.4

>  <DOPAMINE D4>
6.37

$$$$
332172
  Marvin  02231216192D 0   1.00000     0.00000     0

 32 34  0  0  0  0  0  0  0  0999 V2000
    2.8857   -2.0628    0.0000 Cl  0  0  0  0  0  0  0  0  0
    2.0607   -2.0628    0.0000 C   0  0  0  0  0  0  0  0  0
    1.6482   -2.7773    0.0000 C   0  0  0  0  0  0  0  0  0
    0.8232   -2.7773    0.0000 C   0  0  0  0  0  0  0  0  0
    0.4107   -2.0628    0.0000 C   0  0  0  0  0  0  0  0  0
    0.8232   -1.3484    0.0000 C   0  0  0  0  0  0  0  0  0
    1.6482   -1.3484    0.0000 C   0  0  0  0  0  0  0  0  0
    2.0607   -0.6339    0.0000 C   0  0  0  0  0  0  0  0  0
    2.8857   -0.6339    0.0000 O   0  0  0  0  0  0  0  0  0
    3.2982    0.0806    0.0000 C   0  0  0  0  0  0  0  0  0
    2.8857    0.7951    0.0000 C   0  0  0  0  0  0  0  0  0
    3.2982    1.5095    0.0000 C   0  0  0  0  0  0  0  0  0
    4.1232    1.5095    0.0000 C   0  0  0  0  0  0  0  0  0
    4.5357    0.7951    0.0000 C   0  0  0  0  0  0  0  0  0
    4.1232    0.0806    0.0000 C   0  0  0  0  0  0  0  0  0
    4.5357   -0.6339    0.0000 O   0  0  0  0  0  0  0  0  0
    4.1232   -1.3484    0.0000 C   0  0  0  0  0  0  0  0  0
    4.5357   -2.0628    0.0000 C   0  0  0  0  0  0  0  0  0
    5.3607   -2.0628    0.0000 N   0  0  0  0  0  0  0  0  0
    5.7732   -1.3484    0.0000 C   0  0  0  0  0  0  0  0  0
    6.5982   -1.3484    0.0000 C   0  0  0  0  0  0  0  0  0
    7.0107   -0.6339    0.0000 O   0  0  0  0  0  0  0  0  0
    7.8357   -0.6339    0.0000 C   0  0  0  0  0  0  0  0  0
    8.2482    0.0806    0.0000 C   0  0  0  0  0  0  0  0  0
    7.8357    0.7951    0.0000 O   0  0  0  0  0  0  0  0  0
    8.2482    1.5095    0.0000 C   0  0  0  0  0  0  0  0  0
    9.0732    0.0806    0.0000 C   0  0  0  0  0  0  0  0  0
    9.4857   -0.6339    0.0000 C   0  0  0  0  0  0  0  0  0
    9.0732   -1.3484    0.0000 C   0  0  0  0  0  0  0  0  0
    8.2482   -1.3484    0.0000 C   0  0  0  0  0  0  0  0  0
    7.8357   -2.0628    0.0000 O   0  0  0  0  0  0  0  0  0
    8.2482   -2.7773    0.0000 C   0  0  0  0  0  0  0  0  0
  1  2  1  0  0  0  0
  2  3  4  0  0  0  0
  2  7  4  0  0  0  0
  3  4  4  0  0  0  0
  4  5  4  0  0  0  0
  5  6  4  0  0  0  0
  6  7  4  0  0  0  0
  7  8  1  0  0  0  0
  8  9  1  0  0  0  0
  9 10  1  0  0  0  0
 10 11  4  0  0  0  0
 10 15  4  0  0  0  0
 11 12  4  0  0  0  0
 12 13  4  0  0  0  0
 13 14  4  0  0  0  0
 14 15  4  0  0  0  0
 15 16  1  0  0  0  0
 16 17  1  0  0  0  0
 17 18  1  0  0  0  0
 18 19  1  0  0  0  0
 19 20  1  0  0  0  0
 20 21  1  0  0  0  0
 21 22  1  0  0  0  0
 22 23  1  0  0  0  0
 23 24  4  0  0  0  0
 23 30  4  0  0  0  0
 24 25  1  0  0  0  0
 24 27  4  0  0  0  0
 25 26  1  0  0  0  0
 27 28  4  0  0  0  0
 28 29  4  0  0  0  0
 29 30  4  0  0  0  0
 30 31  1  0  0  0  0
 31 32  1  0  0  0  0
M  END
>  <Name_Molregno>
332172

>  <5-HT1A>
8.32

>  <Alpha-1A>
8.85

>  <Alpha-1B>
9.25

$$$$
332191
  Marvin  02231216192D 0   1.00000     0.00000     0

 32 34  0  0  0  0  0  0  0  0999 V2000
    0.4685   -1.6882    0.0000 Cl  0  0  0  0  0  0  0  0  0
    1.2935   -1.6882    0.0000 C   0  0  0  0  0  0  0  0  0
    1.7060   -0.9737    0.0000 C   0  0  0  0  0  0  0  0  0
    2.5310   -0.9737    0.0000 C   0  0  0  0  0  0  0  0  0
    2.9435   -1.6882    0.0000 C   0  0  0  0  0  0  0  0  0
    2.5310   -2.4026    0.0000 C   0  0  0  0  0  0  0  0  0
    1.7060   -2.4026    0.0000 C   0  0  0  0  0  0  0  0  0
    2.9435   -0.2592    0.0000 C   0  0  0  0  0  0  0  0  0
    3.7685   -0.2592    0.0000 O   0  0  0  0  0  0  0  0  0
    4.1810    0.4553    0.0000 C   0  0  0  0  0  0  0  0  0
    3.7685    1.1697    0.0000 C   0  0  0  0  0  0  0  0  0
    4.1810    1.8842    0.0000 C   0  0  0  0  0  0  0  0  0
    5.0060    1.8842    0.0000 C   0  0  0  0  0  0  0  0  0
    5.4185    1.1697    0.0000 C   0  0  0  0  0  0  0  0  0
    5.0060    0.4553    0.0000 C   0  0  0  0  0  0  0  0  0
    5.4185   -0.2592    0.0000 O   0  0  0  0  0  0  0  0  0
    5.0060   -0.9737    0.0000 C   0  0  0  0  0  0  0  0  0
    5.4185   -1.6882    0.0000 C   0  0  0  0  0  0  0  0  0
    6.2435   -1.6882    0.0000 N   0  0  0  0  0  0  0  0  0
    6.6560   -0.9737    0.0000 C   0  0  0  0  0  0  0  0  0
    7.4810   -0.9737    0.0000 C   0  0  0  0  0  0  0  0  0
    7.8935   -0.2592    0.0000 O   0  0  0  0  0  0  0  0  0
    8.7185   -0.2592    0.0000 C   0  0  0  0  0  0  0  0  0
    9.1310    0.4553    0.0000 C   0  0  0  0  0  0  0  0  0
    8.7185    1.1697    0.0000 O   0  0  0  0  0  0  0  0  0
    9.1310    1.8842    0.0000 C   0  0  0  0  0  0  0  0  0
    9.9560    0.4553    0.0000 C   0  0  0  0  0  0  0  0  0
   10.3685   -0.2592    0.0000 C   0  0  0  0  0  0  0  0  0
    9.9560   -0.9737    0.0000 C   0  0  0  0  0  0  0  0  0
    9.1310   -0.9737    0.0000 C   0  0  0  0  0  0  0  0  0
    8.7185   -1.6882    0.0000 O   0  0  0  0  0  0  0  0  0
    9.1310   -2.4026    0.0000 C   0  0  0  0  0  0  0  0  0
  1  2  1  0  0  0  0
  2  3  4  0  0  0  0
  2  7  4  0  0  0  0
  3  4  4  0  0  0  0
  4  5  4  0  0  0  0
  4  8  1  0  0  0  0
  5  6  4  0  0  0  0
  6  7  4  0  0  0  0
  8  9  1  0  0  0  0
  9 10  1  0  0  0  0
 10 11  4  0  0  0  0
 10 15  4  0  0  0  0
 11 12  4  0  0  0  0
 12 13  4  0  0  0  0
 13 14  4  0  0  0  0
 14 15  4  0  0  0  0
 15 16  1  0  0  0  0
 16 17  1  0  0  0  0
 17 18  1  0  0  0  0
 18 19  1  0  0  0  0
 19 20  1  0  0  0  0
 20 21  1  0  0  0  0
 21 22  1  0  0  0  0
 22 23  1  0  0  0  0
 23 24  4  0  0  0  0
 23 30  4  0  0  0  0
 24 25  1  0  0  0  0
 24 27  4  0  0  0  0
 25 26  1  0  0  0  0
 27 28  4  0  0  0  0
 28 29  4  0  0  0  0
 29 30  4  0  0  0  0
 30 31  1  0  0  0  0
 31 32  1  0  0  0  0
M  END
>  <Name_Molregno>
332191

>  <5-HT1A>
8.18

>  <Alpha-1A>
9.6

>  <Alpha-1B>
9.8

$$$$
332270
  Marvin  02231216192D 0   1.00000     0.00000     0

 32 34  0  0  0  0  0  0  0  0999 V2000
   -9.4847   -4.4576    0.0000 Cl  0  0  0  0  0  0  0  0  0
   -9.0722   -3.7431    0.0000 C   0  0  0  0  0  0  0  0  0
   -9.4847   -3.0286    0.0000 C   0  0  0  0  0  0  0  0  0
   -9.0722   -2.3141    0.0000 C   0  0  0  0  0  0  0  0  0
   -8.2472   -2.3141    0.0000 C   0  0  0  0  0  0  0  0  0
   -7.8347   -3.0286    0.0000 C   0  0  0  0  0  0  0  0  0
   -8.2472   -3.7431    0.0000 C   0  0  0  0  0  0  0  0  0
   -7.8347   -1.5997    0.0000 C   0  0  0  0  0  0  0  0  0
   -7.0097   -1.5997    0.0000 O   0  0  0  0  0  0  0  0  0
   -6.5972   -0.8852    0.0000 C   0  0  0  0  0  0  0  0  0
   -7.0097   -0.1707    0.0000 C   0  0  0  0  0  0  0  0  0
   -6.5972    0.5437    0.0000 C   0  0  0  0  0  0  0  0  0
   -5.7722    0.5437    0.0000 C   0  0  0  0  0  0  0  0  0
   -5.3597   -0.1707    0.0000 C   0  0  0  0  0  0  0  0  0
   -5.7722   -0.8852    0.0000 C   0  0  0  0  0  0  0  0  0
   -5.3597   -1.5997    0.0000 O   0  0  0  0  0  0  0  0  0
   -5.7722   -2.3141    0.0000 C   0  0  0  0  0  0  0  0  0
   -5.3597   -3.0286    0.0000 C   0  0  0  0  0  0  0  0  0
   -4.5347   -3.0286    0.0000 N   0  0  0  0  0  0  0  0  0
   -4.1222   -2.3141    0.0000 C   0  0  0  0  0  0  0  0  0
   -3.2972   -2.3141    0.0000 C   0  0  0  0  0  0  0  0  0
   -2.8847   -1.5997    0.0000 O   0  0  0  0  0  0  0  0  0
   -2.0597   -1.5997    0.0000 C   0  0  0  0  0  0  0  0  0
   -1.6472   -0.8852    0.0000 C   0  0  0  0  0  0  0  0  0
   -2.0597   -0.1707    0.0000 O   0  0  0  0  0  0  0  0  0
   -1.6472    0.5437    0.0000 C   0  0  0  0  0  0  0  0  0
   -0.8222   -0.8852    0.0000 C   0  0  0  0  0  0  0  0  0
   -0.4097   -1.5997    0.0000 C   0  0  0  0  0  0  0  0  0
   -0.8222   -2.3141    0.0000 C   0  0  0  0  0  0  0  0  0
   -1.6472   -2.3141    0.0000 C   0  0  0  0  0  0  0  0  0
   -2.0597   -3.0286    0.0000 O   0  0  0  0  0  0  0  0  0
   -1.6472   -3.7431    0.0000 C   0  0  0  0  0  0  0  0  0
  1  2  1  0  0  0  0
  2  3  4  0  0  0  0
  2  7  4  0  0  0  0
  3  4  4  0  0  0  0
  4  5  4  0  0  0  0
  5  6  4  0  0  0  0
  5  8  1  0  0  0  0
  6  7  4  0  0  0  0
  8  9  1  0  0  0  0
  9 10  1  0  0  0  0
 10 11  4  0  0  0  0
 10 15  4  0  0  0  0
 11 12  4  0  0  0  0
 12 13  4  0  0  0  0
 13 14  4  0  0  0  0
 14 15  4  0  0  0  0
 15 16  1  0  0  0  0
 16 17  1  0  0  0  0
 17 18  1  0  0  0  0
 18 19  1  0  0  0  0
 19 20  1  0  0  0  0
 20 21  1  0  0  0  0
 21 22  1  0  0  0  0
 22 23  1  0  0  0  0
 23 24  4  0  0  0  0
 23 30  4  0  0  0  0
 24 25  1  0  0  0  0
 24 27  4  0  0  0  0
 25 26  1  0  0  0  0
 27 28  4  0  0  0  0
 28 29  4  0  0  0  0
 29 30  4  0  0  0  0
 30 31  1  0  0  0  0
 31 32  1  0  0  0  0
M  END
>  <Name_Molregno>
332270

>  <5-HT1A>
7.81

>  <Alpha-1A>
9.6

>  <Alpha-1B>
9

$$$$
332651
  Marvin  02231216192D 0   1.00000     0.00000     0

 33 35  0  0  0  0  0  0  0  0999 V2000
   -6.3363   -1.3606    0.0000 O   0  0  0  0  0  0  0  0  0
   -5.6218   -0.9481    0.0000 C   0  0  0  0  0  0  0  0  0
   -4.9074   -1.3606    0.0000 C   0  0  0  0  0  0  0  0  0
   -4.1929   -0.9481    0.0000 N   0  0  0  0  0  0  0  0  0
   -3.4784   -1.3606    0.0000 C   0  0  0  0  0  0  0  0  0
   -2.7639   -0.9481    0.0000 C   0  0  0  0  0  0  0  0  0
   -2.0495   -1.3606    0.0000 O   0  0  0  0  0  0  0  0  0
   -1.3350   -0.9481    0.0000 C   0  0  0  0  0  0  0  0  0
   -1.3350   -0.1231    0.0000 C   0  0  0  0  0  0  0  0  0
   -0.6205    0.2894    0.0000 C   0  0  0  0  0  0  0  0  0
    0.0939   -0.1231    0.0000 C   0  0  0  0  0  0  0  0  0
    0.0939   -0.9481    0.0000 C   0  0  0  0  0  0  0  0  0
   -0.6205   -1.3606    0.0000 C   0  0  0  0  0  0  0  0  0
   -0.6205   -2.1856    0.0000 O   0  0  0  0  0  0  0  0  0
    0.0939   -2.5981    0.0000 C   0  0  0  0  0  0  0  0  0
    0.8084   -2.1856    0.0000 C   0  0  0  0  0  0  0  0  0
    0.8084   -1.3606    0.0000 C   0  0  0  0  0  0  0  0  0
    1.5229   -0.9481    0.0000 C   0  0  0  0  0  0  0  0  0
    2.2374   -1.3606    0.0000 C   0  0  0  0  0  0  0  0  0
    2.9518   -0.9481    0.0000 O   0  0  0  0  0  0  0  0  0
    3.6663   -1.3606    0.0000 C   0  0  0  0  0  0  0  0  0
    2.2374   -2.1856    0.0000 C   0  0  0  0  0  0  0  0  0
    1.5229   -2.5981    0.0000 C   0  0  0  0  0  0  0  0  0
   -7.0508   -0.9481    0.0000 C   0  0  0  0  0  0  0  0  0
   -7.7652   -1.3606    0.0000 C   0  0  0  0  0  0  0  0  0
   -7.7652   -2.1856    0.0000 O   0  0  0  0  0  0  0  0  0
   -8.4797   -2.5981    0.0000 C   0  0  0  0  0  0  0  0  0
   -8.4797   -0.9481    0.0000 C   0  0  0  0  0  0  0  0  0
   -8.4797   -0.1231    0.0000 C   0  0  0  0  0  0  0  0  0
   -7.7652    0.2894    0.0000 C   0  0  0  0  0  0  0  0  0
   -7.0508   -0.1231    0.0000 C   0  0  0  0  0  0  0  0  0
   -6.3363    0.2894    0.0000 O   0  0  0  0  0  0  0  0  0
   -6.3363    1.1144    0.0000 C   0  0  0  0  0  0  0  0  0
  1  2  1  0  0  0  0
  1 24  1  0  0  0  0
  2  3  1  0  0  0  0
  3  4  1  0  0  0  0
  4  5  1  0  0  0  0
  5  6  1  0  0  0  0
  6  7  1  0  0  0  0
  7  8  1  0  0  0  0
  8  9  4  0  0  0  0
  8 13  4  0  0  0  0
  9 10  4  0  0  0  0
 10 11  4  0  0  0  0
 11 12  4  0  0  0  0
 12 13  4  0  0  0  0
 13 14  1  0  0  0  0
 14 15  1  0  0  0  0
 15 16  1  0  0  0  0
 16 17  4  0  0  0  0
 16 23  4  0  0  0  0
 17 18  4  0  0  0  0
 18 19  4  0  0  0  0
 19 20  1  0  0  0  0
 19 22  4  0  0  0  0
 20 21  1  0  0  0  0
 22 23  4  0  0  0  0
 24 25  4  0  0  0  0
 24 31  4  0  0  0  0
 25 26  1  0  0  0  0
 25 28  4  0  0  0  0
 26 27  1  0  0  0  0
 28 29  4  0  0  0  0
 29 30  4  0  0  0  0
 30 31  4  0  0  0  0
 31 32  1  0  0  0  0
 32 33  1  0  0  0  0
M  END
>  <Name_Molregno>
332651

>  <5-HT1A>
7.76

>  <Alpha-1A>
8.7

>  <Alpha-1B>
9.4

$$$$
332714
  Marvin  02231216192D 0   1.00000     0.00000     0

 32 34  0  0  0  0  0  0  0  0999 V2000
   -5.9259   -1.5240    0.0000 O   0  0  0  0  0  0  0  0  0
   -5.2114   -1.1115    0.0000 C   0  0  0  0  0  0  0  0  0
   -4.4969   -1.5240    0.0000 C   0  0  0  0  0  0  0  0  0
   -3.7825   -1.1115    0.0000 N   0  0  0  0  0  0  0  0  0
   -3.0680   -1.5240    0.0000 C   0  0  0  0  0  0  0  0  0
   -2.3535   -1.1115    0.0000 C   0  0  0  0  0  0  0  0  0
   -1.6390   -1.5240    0.0000 O   0  0  0  0  0  0  0  0  0
   -0.9246   -1.1115    0.0000 C   0  0  0  0  0  0  0  0  0
   -0.9246   -0.2865    0.0000 C   0  0  0  0  0  0  0  0  0
   -0.2101    0.1260    0.0000 C   0  0  0  0  0  0  0  0  0
    0.5044   -0.2865    0.0000 C   0  0  0  0  0  0  0  0  0
    0.5044   -1.1115    0.0000 C   0  0  0  0  0  0  0  0  0
   -0.2101   -1.5240    0.0000 C   0  0  0  0  0  0  0  0  0
   -0.2101   -2.3490    0.0000 O   0  0  0  0  0  0  0  0  0
    0.5044   -2.7615    0.0000 C   0  0  0  0  0  0  0  0  0
    1.2188   -2.3490    0.0000 C   0  0  0  0  0  0  0  0  0
    1.2188   -1.5240    0.0000 C   0  0  0  0  0  0  0  0  0
    1.9333   -1.1115    0.0000 C   0  0  0  0  0  0  0  0  0
    2.6478   -1.5240    0.0000 C   0  0  0  0  0  0  0  0  0
    2.6478   -2.3490    0.0000 C   0  0  0  0  0  0  0  0  0
    1.9333   -2.7615    0.0000 C   0  0  0  0  0  0  0  0  0
    1.9333   -0.2865    0.0000 C   0  0  0  0  0  0  0  0  0
   -6.6403   -1.1115    0.0000 C   0  0  0  0  0  0  0  0  0
   -7.3548   -1.5240    0.0000 C   0  0  0  0  0  0  0  0  0
   -7.3548   -2.3490    0.0000 O   0  0  0  0  0  0  0  0  0
   -8.0693   -2.7615    0.0000 C   0  0  0  0  0  0  0  0  0
   -8.0693   -1.1115    0.0000 C   0  0  0  0  0  0  0  0  0
   -8.0693   -0.2865    0.0000 C   0  0  0  0  0  0  0  0  0
   -7.3548    0.1260    0.0000 C   0  0  0  0  0  0  0  0  0
   -6.6403   -0.2865    0.0000 C   0  0  0  0  0  0  0  0  0
   -5.9259    0.1260    0.0000 O   0  0  0  0  0  0  0  0  0
   -5.9259    0.9510    0.0000 C   0  0  0  0  0  0  0  0  0
  1  2  1  0  0  0  0
  1 23  1  0  0  0  0
  2  3  1  0  0  0  0
  3  4  1  0  0  0  0
  4  5  1  0  0  0  0
  5  6  1  0  0  0  0
  6  7  1  0  0  0  0
  7  8  1  0  0  0  0
  8  9  4  0  0  0  0
  8 13  4  0  0  0  0
  9 10  4  0  0  0  0
 10 11  4  0  0  0  0
 11 12  4  0  0  0  0
 12 13  4  0  0  0  0
 13 14  1  0  0  0  0
 14 15  1  0  0  0  0
 15 16  1  0  0  0  0
 16 17  4  0  0  0  0
 16 21  4  0  0  0  0
 17 18  4  0  0  0  0
 18 19  4  0  0  0  0
 18 22  1  0  0  0  0
 19 20  4  0  0  0  0
 20 21  4  0  0  0  0
 23 24  4  0  0  0  0
 23 30  4  0  0  0  0
 24 25  1  0  0  0  0
 24 27  4  0  0  0  0
 25 26  1  0  0  0  0
 27 28  4  0  0  0  0
 28 29  4  0  0  0  0
 29 30  4  0  0  0  0
 30 31  1  0  0  0  0
 31 32  1  0  0  0  0
M  END
>  <Name_Molregno>
332714

>  <5-HT1A>
7.74

>  <Alpha-1A>
9.4

>  <Alpha-1B>
9.6

$$$$
332722
  Marvin  02231216192D 0   1.00000     0.00000     0

 33 35  0  0  0  0  0  0  0  0999 V2000
   -0.6049   -1.4098    0.0000 O   0  0  0  0  0  0  0  0  0
    0.1096   -0.9973    0.0000 C   0  0  0  0  0  0  0  0  0
    0.8241   -1.4098    0.0000 C   0  0  0  0  0  0  0  0  0
    1.5385   -0.9973    0.0000 N   0  0  0  0  0  0  0  0  0
    2.2530   -1.4098    0.0000 C   0  0  0  0  0  0  0  0  0
    2.9675   -0.9973    0.0000 C   0  0  0  0  0  0  0  0  0
    3.6819   -1.4098    0.0000 O   0  0  0  0  0  0  0  0  0
    4.3964   -0.9973    0.0000 C   0  0  0  0  0  0  0  0  0
    4.3964   -0.1723    0.0000 C   0  0  0  0  0  0  0  0  0
    5.1109    0.2402    0.0000 C   0  0  0  0  0  0  0  0  0
    5.8253   -0.1723    0.0000 C   0  0  0  0  0  0  0  0  0
    5.8253   -0.9973    0.0000 C   0  0  0  0  0  0  0  0  0
    5.1109   -1.4098    0.0000 C   0  0  0  0  0  0  0  0  0
    5.1109   -2.2348    0.0000 O   0  0  0  0  0  0  0  0  0
    5.8253   -2.6473    0.0000 C   0  0  0  0  0  0  0  0  0
    6.5398   -2.2348    0.0000 C   0  0  0  0  0  0  0  0  0
    6.5398   -1.4098    0.0000 C   0  0  0  0  0  0  0  0  0
    7.2543   -0.9973    0.0000 C   0  0  0  0  0  0  0  0  0
    7.9688   -1.4098    0.0000 C   0  0  0  0  0  0  0  0  0
    7.9688   -2.2348    0.0000 C   0  0  0  0  0  0  0  0  0
    7.2543   -2.6473    0.0000 C   0  0  0  0  0  0  0  0  0
    7.2543   -3.4723    0.0000 O   0  0  0  0  0  0  0  0  0
    7.9688   -3.8848    0.0000 C   0  0  0  0  0  0  0  0  0
   -1.3194   -0.9973    0.0000 C   0  0  0  0  0  0  0  0  0
   -2.0338   -1.4098    0.0000 C   0  0  0  0  0  0  0  0  0
   -2.0338   -2.2348    0.0000 O   0  0  0  0  0  0  0  0  0
   -2.7483   -2.6473    0.0000 C   0  0  0  0  0  0  0  0  0
   -2.7483   -0.9973    0.0000 C   0  0  0  0  0  0  0  0  0
   -2.7483   -0.1723    0.0000 C   0  0  0  0  0  0  0  0  0
   -2.0338    0.2402    0.0000 C   0  0  0  0  0  0  0  0  0
   -1.3194   -0.1723    0.0000 C   0  0  0  0  0  0  0  0  0
   -0.6049    0.2402    0.0000 O   0  0  0  0  0  0  0  0  0
   -0.6049    1.0652    0.0000 C   0  0  0  0  0  0  0  0  0
  1  2  1  0  0  0  0
  1 24  1  0  0  0  0
  2  3  1  0  0  0  0
  3  4  1  0  0  0  0
  4  5  1  0  0  0  0
  5  6  1  0  0  0  0
  6  7  1  0  0  0  0
  7  8  1  0  0  0  0
  8  9  4  0  0  0  0
  8 13  4  0  0  0  0
  9 10  4  0  0  0  0
 10 11  4  0  0  0  0
 11 12  4  0  0  0  0
 12 13  4  0  0  0  0
 13 14  1  0  0  0  0
 14 15  1  0  0  0  0
 15 16  1  0  0  0  0
 16 17  4  0  0  0  0
 16 21  4  0  0  0  0
 17 18  4  0  0  0  0
 18 19  4  0  0  0  0
 19 20  4  0  0  0  0
 20 21  4  0  0  0  0
 21 22  1  0  0  0  0
 22 23  1  0  0  0  0
 24 25  4  0  0  0  0
 24 31  4  0  0  0  0
 25 26  1  0  0  0  0
 25 28  4  0  0  0  0
 26 27  1  0  0  0  0
 28 29  4  0  0  0  0
 29 30  4  0  0  0  0
 30 31  4  0  0  0  0
 31 32  1  0  0  0  0
 32 33  1  0  0  0  0
M  END
>  <Name_Molregno>
332722

>  <5-HT1A>
7.63

>  <Alpha-1A>
8.7

>  <Alpha-1B>
8.2

$$$$
332729
  Marvin  02231216192D 0   1.00000     0.00000     0

 33 35  0  0  0  0  0  0  0  0999 V2000
   -0.5540   -1.4959    0.0000 O   0  0  0  0  0  0  0  0  0
    0.1605   -1.0834    0.0000 C   0  0  0  0  0  0  0  0  0
    0.8749   -1.4959    0.0000 C   0  0  0  0  0  0  0  0  0
    1.5894   -1.0834    0.0000 N   0  0  0  0  0  0  0  0  0
    2.3039   -1.4959    0.0000 C   0  0  0  0  0  0  0  0  0
    3.0184   -1.0834    0.0000 C   0  0  0  0  0  0  0  0  0
    3.7328   -1.4959    0.0000 O   0  0  0  0  0  0  0  0  0
    4.4473   -1.0834    0.0000 C   0  0  0  0  0  0  0  0  0
    4.4473   -0.2584    0.0000 C   0  0  0  0  0  0  0  0  0
    5.1618    0.1541    0.0000 C   0  0  0  0  0  0  0  0  0
    5.8762   -0.2584    0.0000 C   0  0  0  0  0  0  0  0  0
    5.8762   -1.0834    0.0000 C   0  0  0  0  0  0  0  0  0
    5.1618   -1.4959    0.0000 C   0  0  0  0  0  0  0  0  0
    5.1618   -2.3209    0.0000 O   0  0  0  0  0  0  0  0  0
    5.8762   -2.7334    0.0000 C   0  0  0  0  0  0  0  0  0
    6.5907   -2.3209    0.0000 C   0  0  0  0  0  0  0  0  0
    6.5907   -1.4959    0.0000 C   0  0  0  0  0  0  0  0  0
    7.3052   -1.0834    0.0000 C   0  0  0  0  0  0  0  0  0
    7.3052   -0.2584    0.0000 O   0  0  0  0  0  0  0  0  0
    8.0197    0.1541    0.0000 C   0  0  0  0  0  0  0  0  0
    8.0197   -1.4959    0.0000 C   0  0  0  0  0  0  0  0  0
    8.0197   -2.3209    0.0000 C   0  0  0  0  0  0  0  0  0
    7.3052   -2.7334    0.0000 C   0  0  0  0  0  0  0  0  0
   -1.2685   -1.0834    0.0000 C   0  0  0  0  0  0  0  0  0
   -1.9829   -1.4959    0.0000 C   0  0  0  0  0  0  0  0  0
   -1.9829   -2.3209    0.0000 O   0  0  0  0  0  0  0  0  0
   -2.6974   -2.7334    0.0000 C   0  0  0  0  0  0  0  0  0
   -2.6974   -1.0834    0.0000 C   0  0  0  0  0  0  0  0  0
   -2.6974   -0.2584    0.0000 C   0  0  0  0  0  0  0  0  0
   -1.9829    0.1541    0.0000 C   0  0  0  0  0  0  0  0  0
   -1.2685   -0.2584    0.0000 C   0  0  0  0  0  0  0  0  0
   -0.5540    0.1541    0.0000 O   0  0  0  0  0  0  0  0  0
   -0.5540    0.9791    0.0000 C   0  0  0  0  0  0  0  0  0
  1  2  1  0  0  0  0
  1 24  1  0  0  0  0
  2  3  1  0  0  0  0
  3  4  1  0  0  0  0
  4  5  1  0  0  0  0
  5  6  1  0  0  0  0
  6  7  1  0  0  0  0
  7  8  1  0  0  0  0
  8  9  4  0  0  0  0
  8 13  4  0  0  0  0
  9 10  4  0  0  0  0
 10 11  4  0  0  0  0
 11 12  4  0  0  0  0
 12 13  4  0  0  0  0
 13 14  1  0  0  0  0
 14 15  1  0  0  0  0
 15 16  1  0  0  0  0
 16 17  4  0  0  0  0
 16 23  4  0  0  0  0
 17 18  4  0  0  0  0
 18 19  1  0  0  0  0
 18 21  4  0  0  0  0
 19 20  1  0  0  0  0
 21 22  4  0  0  0  0
 22 23  4  0  0  0  0
 24 25  4  0  0  0  0
 24 31  4  0  0  0  0
 25 26  1  0  0  0  0
 25 28  4  0  0  0  0
 26 27  1  0  0  0  0
 28 29  4  0  0  0  0
 29 30  4  0  0  0  0
 30 31  4  0  0  0  0
 31 32  1  0  0  0  0
 32 33  1  0  0  0  0
M  END
>  <Name_Molregno>
332729

>  <5-HT1A>
7.51

>  <Alpha-1A>
8.7

>  <Alpha-1B>
8.7

$$$$
332754
  Marvin  02231216192D 0   1.00000     0.00000     0

 32 34  0  0  0  0  0  0  0  0999 V2000
   -5.9123   -1.4387    0.0000 O   0  0  0  0  0  0  0  0  0
   -5.1978   -1.0262    0.0000 C   0  0  0  0  0  0  0  0  0
   -4.4834   -1.4387    0.0000 C   0  0  0  0  0  0  0  0  0
   -3.7689   -1.0262    0.0000 N   0  0  0  0  0  0  0  0  0
   -3.0544   -1.4387    0.0000 C   0  0  0  0  0  0  0  0  0
   -2.3399   -1.0262    0.0000 C   0  0  0  0  0  0  0  0  0
   -1.6255   -1.4387    0.0000 O   0  0  0  0  0  0  0  0  0
   -0.9110   -1.0262    0.0000 C   0  0  0  0  0  0  0  0  0
   -0.9110   -0.2012    0.0000 C   0  0  0  0  0  0  0  0  0
   -0.1965    0.2113    0.0000 C   0  0  0  0  0  0  0  0  0
    0.5179   -0.2012    0.0000 C   0  0  0  0  0  0  0  0  0
    0.5179   -1.0262    0.0000 C   0  0  0  0  0  0  0  0  0
   -0.1965   -1.4387    0.0000 C   0  0  0  0  0  0  0  0  0
   -0.1965   -2.2637    0.0000 O   0  0  0  0  0  0  0  0  0
    0.5179   -2.6762    0.0000 C   0  0  0  0  0  0  0  0  0
    1.2324   -2.2637    0.0000 C   0  0  0  0  0  0  0  0  0
    1.2324   -1.4387    0.0000 C   0  0  0  0  0  0  0  0  0
    1.9469   -1.0262    0.0000 C   0  0  0  0  0  0  0  0  0
    2.6614   -1.4387    0.0000 C   0  0  0  0  0  0  0  0  0
    2.6614   -2.2637    0.0000 C   0  0  0  0  0  0  0  0  0
    1.9469   -2.6762    0.0000 C   0  0  0  0  0  0  0  0  0
    1.9469   -3.5012    0.0000 C   0  0  0  0  0  0  0  0  0
   -6.6268   -1.0262    0.0000 C   0  0  0  0  0  0  0  0  0
   -7.3412   -1.4387    0.0000 C   0  0  0  0  0  0  0  0  0
   -7.3412   -2.2637    0.0000 O   0  0  0  0  0  0  0  0  0
   -8.0557   -2.6762    0.0000 C   0  0  0  0  0  0  0  0  0
   -8.0557   -1.0262    0.0000 C   0  0  0  0  0  0  0  0  0
   -8.0557   -0.2012    0.0000 C   0  0  0  0  0  0  0  0  0
   -7.3412    0.2113    0.0000 C   0  0  0  0  0  0  0  0  0
   -6.6268   -0.2012    0.0000 C   0  0  0  0  0  0  0  0  0
   -5.9123    0.2113    0.0000 O   0  0  0  0  0  0  0  0  0
   -5.9123    1.0363    0.0000 C   0  0  0  0  0  0  0  0  0
  1  2  1  0  0  0  0
  1 23  1  0  0  0  0
  2  3  1  0  0  0  0
  3  4  1  0  0  0  0
  4  5  1  0  0  0  0
  5  6  1  0  0  0  0
  6  7  1  0  0  0  0
  7  8  1  0  0  0  0
  8  9  4  0  0  0  0
  8 13  4  0  0  0  0
  9 10  4  0  0  0  0
 10 11  4  0  0  0  0
 11 12  4  0  0  0  0
 12 13  4  0  0  0  0
 13 14  1  0  0  0  0
 14 15  1  0  0  0  0
 15 16  1  0  0  0  0
 16 17  4  0  0  0  0
 16 21  4  0  0  0  0
 17 18  4  0  0  0  0
 18 19  4  0  0  0  0
 19 20  4  0  0  0  0
 20 21  4  0  0  0  0
 21 22  1  0  0  0  0
 23 24  4  0  0  0  0
 23 30  4  0  0  0  0
 24 25  1  0  0  0  0
 24 27  4  0  0  0  0
 25 26  1  0  0  0  0
 27 28  4  0  0  0  0
 28 29  4  0  0  0  0
 29 30  4  0  0  0  0
 30 31  1  0  0  0  0
 31 32  1  0  0  0  0
M  END
>  <Name_Molregno>
332754

>  <5-HT1A>
7.95

>  <Alpha-1A>
8.8

>  <Alpha-1B>
9.1

$$$$
332825
  Marvin  02231216192D 0   1.00000     0.00000     0

 34 36  0  0  0  0  0  0  0  0999 V2000
   -0.5025   -1.5787    0.0000 O   0  0  0  0  0  0  0  0  0
    0.2119   -1.1662    0.0000 C   0  0  0  0  0  0  0  0  0
    0.9264   -1.5787    0.0000 C   0  0  0  0  0  0  0  0  0
    1.6409   -1.1662    0.0000 N   0  0  0  0  0  0  0  0  0
    2.3554   -1.5787    0.0000 C   0  0  0  0  0  0  0  0  0
    3.0698   -1.1662    0.0000 C   0  0  0  0  0  0  0  0  0
    3.7843   -1.5787    0.0000 O   0  0  0  0  0  0  0  0  0
    4.4988   -1.1662    0.0000 C   0  0  0  0  0  0  0  0  0
    4.4988   -0.3412    0.0000 C   0  0  0  0  0  0  0  0  0
    5.2132    0.0713    0.0000 C   0  0  0  0  0  0  0  0  0
    5.9277   -0.3412    0.0000 C   0  0  0  0  0  0  0  0  0
    5.9277   -1.1662    0.0000 C   0  0  0  0  0  0  0  0  0
    5.2132   -1.5787    0.0000 C   0  0  0  0  0  0  0  0  0
    5.2132   -2.4037    0.0000 O   0  0  0  0  0  0  0  0  0
    5.9277   -2.8162    0.0000 C   0  0  0  0  0  0  0  0  0
    6.6422   -2.4037    0.0000 C   0  0  0  0  0  0  0  0  0
    6.6422   -1.5787    0.0000 C   0  0  0  0  0  0  0  0  0
    7.3566   -1.1662    0.0000 C   0  0  0  0  0  0  0  0  0
    7.3566   -0.3412    0.0000 N   0  3  0  0  0  0  0  0  0
    8.0711    0.0713    0.0000 O   0  5  0  0  0  0  0  0  0
    6.6422    0.0713    0.0000 O   0  5  0  0  0  0  0  0  0
    8.0711   -1.5787    0.0000 C   0  0  0  0  0  0  0  0  0
    8.0711   -2.4037    0.0000 C   0  0  0  0  0  0  0  0  0
    7.3566   -2.8162    0.0000 C   0  0  0  0  0  0  0  0  0
   -1.2170   -1.1662    0.0000 C   0  0  0  0  0  0  0  0  0
   -1.9315   -1.5787    0.0000 C   0  0  0  0  0  0  0  0  0
   -1.9315   -2.4037    0.0000 O   0  0  0  0  0  0  0  0  0
   -2.6459   -2.8162    0.0000 C   0  0  0  0  0  0  0  0  0
   -2.6459   -1.1662    0.0000 C   0  0  0  0  0  0  0  0  0
   -2.6459   -0.3412    0.0000 C   0  0  0  0  0  0  0  0  0
   -1.9315    0.0713    0.0000 C   0  0  0  0  0  0  0  0  0
   -1.2170   -0.3412    0.0000 C   0  0  0  0  0  0  0  0  0
   -0.5025    0.0713    0.0000 O   0  0  0  0  0  0  0  0  0
   -0.5025    0.8963    0.0000 C   0  0  0  0  0  0  0  0  0
  1  2  1  0  0  0  0
  1 25  1  0  0  0  0
  2  3  1  0  0  0  0
  3  4  1  0  0  0  0
  4  5  1  0  0  0  0
  5  6  1  0  0  0  0
  6  7  1  0  0  0  0
  7  8  1  0  0  0  0
  8  9  4  0  0  0  0
  8 13  4  0  0  0  0
  9 10  4  0  0  0  0
 10 11  4  0  0  0  0
 11 12  4  0  0  0  0
 12 13  4  0  0  0  0
 13 14  1  0  0  0  0
 14 15  1  0  0  0  0
 15 16  1  0  0  0  0
 16 17  4  0  0  0  0
 16 24  4  0  0  0  0
 17 18  4  0  0  0  0
 18 19  1  0  0  0  0
 18 22  4  0  0  0  0
 19 20  1  0  0  0  0
 19 21  1  0  0  0  0
 22 23  4  0  0  0  0
 23 24  4  0  0  0  0
 25 26  4  0  0  0  0
 25 32  4  0  0  0  0
 26 27  1  0  0  0  0
 26 29  4  0  0  0  0
 27 28  1  0  0  0  0
 29 30  4  0  0  0  0
 30 31  4  0  0  0  0
 31 32  4  0  0  0  0
 32 33  1  0  0  0  0
 33 34  1  0  0  0  0
M  CHG  3  19   1  20  -1  21  -1
M  END
>  <Name_Molregno>
332825

>  <5-HT1A>
7.68

>  <Alpha-1A>
9.5

>  <Alpha-1B>
9.1

$$$$
332833
  Marvin  02231216192D 0   1.00000     0.00000     0

 34 36  0  0  0  0  0  0  0  0999 V2000
   -6.6336   -1.3213    0.0000 O   0  0  0  0  0  0  0  0  0
   -5.9191   -0.9088    0.0000 C   0  0  0  0  0  0  0  0  0
   -5.2047   -1.3213    0.0000 C   0  0  0  0  0  0  0  0  0
   -4.4902   -0.9088    0.0000 N   0  0  0  0  0  0  0  0  0
   -3.7757   -1.3213    0.0000 C   0  0  0  0  0  0  0  0  0
   -3.0613   -0.9088    0.0000 C   0  0  0  0  0  0  0  0  0
   -2.3468   -1.3213    0.0000 O   0  0  0  0  0  0  0  0  0
   -1.6323   -0.9088    0.0000 C   0  0  0  0  0  0  0  0  0
   -1.6323   -0.0838    0.0000 C   0  0  0  0  0  0  0  0  0
   -0.9178    0.3287    0.0000 C   0  0  0  0  0  0  0  0  0
   -0.2034   -0.0838    0.0000 C   0  0  0  0  0  0  0  0  0
   -0.2034   -0.9088    0.0000 C   0  0  0  0  0  0  0  0  0
   -0.9178   -1.3213    0.0000 C   0  0  0  0  0  0  0  0  0
   -0.9178   -2.1463    0.0000 O   0  0  0  0  0  0  0  0  0
   -0.2034   -2.5588    0.0000 C   0  0  0  0  0  0  0  0  0
    0.5111   -2.1463    0.0000 C   0  0  0  0  0  0  0  0  0
    0.5111   -1.3213    0.0000 C   0  0  0  0  0  0  0  0  0
    1.2256   -0.9088    0.0000 C   0  0  0  0  0  0  0  0  0
    1.9400   -1.3213    0.0000 C   0  0  0  0  0  0  0  0  0
    2.6545   -0.9088    0.0000 N   0  3  0  0  0  0  0  0  0
    3.3690   -1.3213    0.0000 O   0  5  0  0  0  0  0  0  0
    2.6545   -0.0838    0.0000 O   0  5  0  0  0  0  0  0  0
    1.9400   -2.1463    0.0000 C   0  0  0  0  0  0  0  0  0
    1.2256   -2.5588    0.0000 C   0  0  0  0  0  0  0  0  0
   -7.3481   -0.9088    0.0000 C   0  0  0  0  0  0  0  0  0
   -8.0625   -1.3213    0.0000 C   0  0  0  0  0  0  0  0  0
   -8.0625   -2.1463    0.0000 O   0  0  0  0  0  0  0  0  0
   -8.7770   -2.5588    0.0000 C   0  0  0  0  0  0  0  0  0
   -8.7770   -0.9088    0.0000 C   0  0  0  0  0  0  0  0  0
   -8.7770   -0.0838    0.0000 C   0  0  0  0  0  0  0  0  0
   -8.0625    0.3287    0.0000 C   0  0  0  0  0  0  0  0  0
   -7.3481   -0.0838    0.0000 C   0  0  0  0  0  0  0  0  0
   -6.6336    0.3287    0.0000 O   0  0  0  0  0  0  0  0  0
   -6.6336    1.1537    0.0000 C   0  0  0  0  0  0  0  0  0
  1  2  1  0  0  0  0
  1 25  1  0  0  0  0
  2  3  1  0  0  0  0
  3  4  1  0  0  0  0
  4  5  1  0  0  0  0
  5  6  1  0  0  0  0
  6  7  1  0  0  0  0
  7  8  1  0  0  0  0
  8  9  4  0  0  0  0
  8 13  4  0  0  0  0
  9 10  4  0  0  0  0
 10 11  4  0  0  0  0
 11 12  4  0  0  0  0
 12 13  4  0  0  0  0
 13 14  1  0  0  0  0
 14 15  1  0  0  0  0
 15 16  1  0  0  0  0
 16 17  4  0  0  0  0
 16 24  4  0  0  0  0
 17 18  4  0  0  0  0
 18 19  4  0  0  0  0
 19 20  1  0  0  0  0
 19 23  4  0  0  0  0
 20 21  1  0  0  0  0
 20 22  1  0  0  0  0
 23 24  4  0  0  0  0
 25 26  4  0  0  0  0
 25 32  4  0  0  0  0
 26 27  1  0  0  0  0
 26 29  4  0  0  0  0
 27 28  1  0  0  0  0
 29 30  4  0  0  0  0
 30 31  4  0  0  0  0
 31 32  4  0  0  0  0
 32 33  1  0  0  0  0
 33 34  1  0  0  0  0
M  CHG  3  20   1  21  -1  22  -1
M  END
>  <Name_Molregno>
332833

>  <5-HT1A>
7.93

>  <Alpha-1A>
8.9

>  <Alpha-1B>
9.4

$$$$
332905
  Marvin  02231216192D 0   1.00000     0.00000     0

 32 34  0  0  0  0  0  0  0  0999 V2000
   -5.9529   -1.4380    0.0000 O   0  0  0  0  0  0  0  0  0
   -5.2384   -1.0255    0.0000 C   0  0  0  0  0  0  0  0  0
   -4.5240   -1.4380    0.0000 C   0  0  0  0  0  0  0  0  0
   -3.8095   -1.0255    0.0000 N   0  0  0  0  0  0  0  0  0
   -3.0950   -1.4380    0.0000 C   0  0  0  0  0  0  0  0  0
   -2.3806   -1.0255    0.0000 C   0  0  0  0  0  0  0  0  0
   -1.6661   -1.4380    0.0000 O   0  0  0  0  0  0  0  0  0
   -0.9516   -1.0255    0.0000 C   0  0  0  0  0  0  0  0  0
   -0.9516   -0.2005    0.0000 C   0  0  0  0  0  0  0  0  0
   -0.2371    0.2120    0.0000 C   0  0  0  0  0  0  0  0  0
    0.4773   -0.2005    0.0000 C   0  0  0  0  0  0  0  0  0
    0.4773   -1.0255    0.0000 C   0  0  0  0  0  0  0  0  0
   -0.2371   -1.4380    0.0000 C   0  0  0  0  0  0  0  0  0
   -0.2371   -2.2630    0.0000 O   0  0  0  0  0  0  0  0  0
    0.4773   -2.6755    0.0000 C   0  0  0  0  0  0  0  0  0
    1.1918   -2.2630    0.0000 C   0  0  0  0  0  0  0  0  0
    1.1918   -1.4380    0.0000 C   0  0  0  0  0  0  0  0  0
    1.9063   -1.0255    0.0000 C   0  0  0  0  0  0  0  0  0
    2.6207   -1.4380    0.0000 C   0  0  0  0  0  0  0  0  0
    2.6207   -2.2630    0.0000 C   0  0  0  0  0  0  0  0  0
    1.9063   -2.6755    0.0000 C   0  0  0  0  0  0  0  0  0
    3.3352   -1.0255    0.0000 C   0  0  0  0  0  0  0  0  0
   -6.6674   -1.0255    0.0000 C   0  0  0  0  0  0  0  0  0
   -7.3819   -1.4380    0.0000 C   0  0  0  0  0  0  0  0  0
   -7.3819   -2.2630    0.0000 O   0  0  0  0  0  0  0  0  0
   -8.0963   -2.6755    0.0000 C   0  0  0  0  0  0  0  0  0
   -8.0963   -1.0255    0.0000 C   0  0  0  0  0  0  0  0  0
   -8.0963   -0.2005    0.0000 C   0  0  0  0  0  0  0  0  0
   -7.3819    0.2120    0.0000 C   0  0  0  0  0  0  0  0  0
   -6.6674   -0.2005    0.0000 C   0  0  0  0  0  0  0  0  0
   -5.9529    0.2120    0.0000 O   0  0  0  0  0  0  0  0  0
   -5.9529    1.0370    0.0000 C   0  0  0  0  0  0  0  0  0
  1  2  1  0  0  0  0
  1 23  1  0  0  0  0
  2  3  1  0  0  0  0
  3  4  1  0  0  0  0
  4  5  1  0  0  0  0
  5  6  1  0  0  0  0
  6  7  1  0  0  0  0
  7  8  1  0  0  0  0
  8  9  4  0  0  0  0
  8 13  4  0  0  0  0
  9 10  4  0  0  0  0
 10 11  4  0  0  0  0
 11 12  4  0  0  0  0
 12 13  4  0  0  0  0
 13 14  1  0  0  0  0
 14 15  1  0  0  0  0
 15 16  1  0  0  0  0
 16 17  4  0  0  0  0
 16 21  4  0  0  0  0
 17 18  4  0  0  0  0
 18 19  4  0  0  0  0
 19 20  4  0  0  0  0
 19 22  1  0  0  0  0
 20 21  4  0  0  0  0
 23 24  4  0  0  0  0
 23 30  4  0  0  0  0
 24 25  1  0  0  0  0
 24 27  4  0  0  0  0
 25 26  1  0  0  0  0
 27 28  4  0  0  0  0
 28 29  4  0  0  0  0
 29 30  4  0  0  0  0
 30 31  1  0  0  0  0
 31 32  1  0  0  0  0
M  END
>  <Name_Molregno>
332905

>  <5-HT1A>
7.65

>  <Alpha-1A>
8.7

>  <Alpha-1B>
9.6

$$$$
332906
  Marvin  02231216192D 0   1.00000     0.00000     0

 34 36  0  0  0  0  0  0  0  0999 V2000
   -6.4826   -1.3631    0.0000 O   0  0  0  0  0  0  0  0  0
   -5.7681   -0.9506    0.0000 C   0  0  0  0  0  0  0  0  0
   -5.0537   -1.3631    0.0000 C   0  0  0  0  0  0  0  0  0
   -4.3392   -0.9506    0.0000 N   0  0  0  0  0  0  0  0  0
   -3.6247   -1.3631    0.0000 C   0  0  0  0  0  0  0  0  0
   -2.9103   -0.9506    0.0000 C   0  0  0  0  0  0  0  0  0
   -2.1958   -1.3631    0.0000 O   0  0  0  0  0  0  0  0  0
   -1.4813   -0.9506    0.0000 C   0  0  0  0  0  0  0  0  0
   -1.4813   -0.1256    0.0000 C   0  0  0  0  0  0  0  0  0
   -0.7668    0.2869    0.0000 C   0  0  0  0  0  0  0  0  0
   -0.0524   -0.1256    0.0000 C   0  0  0  0  0  0  0  0  0
   -0.0524   -0.9506    0.0000 C   0  0  0  0  0  0  0  0  0
   -0.7668   -1.3631    0.0000 C   0  0  0  0  0  0  0  0  0
   -0.7668   -2.1881    0.0000 O   0  0  0  0  0  0  0  0  0
   -0.0524   -2.6006    0.0000 C   0  0  0  0  0  0  0  0  0
    0.6621   -2.1881    0.0000 C   0  0  0  0  0  0  0  0  0
    0.6621   -1.3631    0.0000 C   0  0  0  0  0  0  0  0  0
    1.3766   -0.9506    0.0000 C   0  0  0  0  0  0  0  0  0
    2.0910   -1.3631    0.0000 C   0  0  0  0  0  0  0  0  0
    2.0910   -2.1881    0.0000 C   0  0  0  0  0  0  0  0  0
    1.3766   -2.6006    0.0000 C   0  0  0  0  0  0  0  0  0
    1.3766   -3.4256    0.0000 N   0  3  0  0  0  0  0  0  0
    2.0910   -3.8381    0.0000 O   0  5  0  0  0  0  0  0  0
    0.6621   -3.8381    0.0000 O   0  5  0  0  0  0  0  0  0
   -7.1971   -0.9506    0.0000 C   0  0  0  0  0  0  0  0  0
   -7.9116   -1.3631    0.0000 C   0  0  0  0  0  0  0  0  0
   -7.9116   -2.1881    0.0000 O   0  0  0  0  0  0  0  0  0
   -8.6260   -2.6006    0.0000 C   0  0  0  0  0  0  0  0  0
   -8.6260   -0.9506    0.0000 C   0  0  0  0  0  0  0  0  0
   -8.6260   -0.1256    0.0000 C   0  0  0  0  0  0  0  0  0
   -7.9116    0.2869    0.0000 C   0  0  0  0  0  0  0  0  0
   -7.1971   -0.1256    0.0000 C   0  0  0  0  0  0  0  0  0
   -6.4826    0.2869    0.0000 O   0  0  0  0  0  0  0  0  0
   -6.4826    1.1119    0.0000 C   0  0  0  0  0  0  0  0  0
  1  2  1  0  0  0  0
  1 25  1  0  0  0  0
  2  3  1  0  0  0  0
  3  4  1  0  0  0  0
  4  5  1  0  0  0  0
  5  6  1  0  0  0  0
  6  7  1  0  0  0  0
  7  8  1  0  0  0  0
  8  9  4  0  0  0  0
  8 13  4  0  0  0  0
  9 10  4  0  0  0  0
 10 11  4  0  0  0  0
 11 12  4  0  0  0  0
 12 13  4  0  0  0  0
 13 14  1  0  0  0  0
 14 15  1  0  0  0  0
 15 16  1  0  0  0  0
 16 17  4  0  0  0  0
 16 21  4  0  0  0  0
 17 18  4  0  0  0  0
 18 19  4  0  0  0  0
 19 20  4  0  0  0  0
 20 21  4  0  0  0  0
 21 22  1  0  0  0  0
 22 23  1  0  0  0  0
 22 24  1  0  0  0  0
 25 26  4  0  0  0  0
 25 32  4  0  0  0  0
 26 27  1  0  0  0  0
 26 29  4  0  0  0  0
 27 28  1  0  0  0  0
 29 30  4  0  0  0  0
 30 31  4  0  0  0  0
 31 32  4  0  0  0  0
 32 33  1  0  0  0  0
 33 34  1  0  0  0  0
M  CHG  3  22   1  23  -1  24  -1
M  END
>  <Name_Molregno>
332906

>  <5-HT1A>
7.62

>  <Alpha-1A>
8.1

>  <Alpha-1B>
8.6

$$$$
333385
  Marvin  02231216192D 0   1.00000     0.00000     0

 33 38  0  0  0  0  0  0  0  0999 V2000
    3.3947    2.9977    0.0000 S   0  0  0  0  0  0  0  0  0
    2.5743    3.0839    0.0000 C   0  0  0  0  0  0  0  0  0
    2.2387    2.3302    0.0000 C   0  0  0  0  0  0  0  0  0
    2.8518    1.7782    0.0000 C   0  0  0  0  0  0  0  0  0
    3.5663    2.1907    0.0000 C   0  0  0  0  0  0  0  0  0
    4.2807    1.7782    0.0000 N   0  0  0  0  0  0  0  0  0
    4.2807    0.9532    0.0000 C   0  0  0  0  0  0  0  0  0
    3.5663    0.5407    0.0000 N   0  0  0  0  0  0  0  0  0
    3.5663   -0.2843    0.0000 C   0  0  0  0  0  0  0  0  0
    4.2807   -0.6968    0.0000 C   0  0  0  0  0  0  0  0  0
    4.2807   -1.5218    0.0000 N   0  0  0  0  0  0  0  0  0
    4.9952   -1.9343    0.0000 C   0  0  0  0  0  0  0  0  0
    4.9952   -2.7593    0.0000 C   0  0  0  0  0  0  0  0  0
    4.2807   -3.1718    0.0000 N   0  0  0  0  0  0  0  0  0
    3.5663   -2.7593    0.0000 C   0  0  0  0  0  0  0  0  0
    3.5663   -1.9343    0.0000 C   0  0  0  0  0  0  0  0  0
    4.2807   -3.9968    0.0000 C   0  0  0  0  0  0  0  0  0
    3.5663   -4.4093    0.0000 N   0  0  0  0  0  0  0  0  0
    3.5663   -5.2343    0.0000 C   0  0  0  0  0  0  0  0  0
    4.2807   -5.6468    0.0000 C   0  0  0  0  0  0  0  0  0
    4.9952   -5.2343    0.0000 C   0  0  0  0  0  0  0  0  0
    4.9952   -4.4093    0.0000 C   0  0  0  0  0  0  0  0  0
    5.7097   -3.9968    0.0000 C   0  0  0  0  0  0  0  0  0
    6.4241   -4.4093    0.0000 C   0  0  0  0  0  0  0  0  0
    6.4241   -5.2343    0.0000 C   0  0  0  0  0  0  0  0  0
    5.7097   -5.6468    0.0000 C   0  0  0  0  0  0  0  0  0
    2.8518    0.9532    0.0000 C   0  0  0  0  0  0  0  0  0
    2.1373    0.5407    0.0000 O   0  0  0  0  0  0  0  0  0
    1.4182    2.2440    0.0000 C   0  0  0  0  0  0  0  0  0
    0.9333    2.9114    0.0000 C   0  0  0  0  0  0  0  0  0
    1.2689    3.6651    0.0000 N   0  0  0  0  0  0  0  0  0
    2.0893    3.7513    0.0000 C   0  0  0  0  0  0  0  0  0
    0.7839    4.3325    0.0000 C   0  0  0  0  0  0  0  0  0
  1  2  4  0  0  0  0
  1  5  4  0  0  0  0
  2  3  4  0  0  0  0
  2 32  1  0  0  0  0
  3  4  4  0  0  0  0
  3 29  1  0  0  0  0
  4  5  4  0  0  0  0
  4 27  1  0  0  0  0
  5  6  1  0  0  0  0
  6  7  2  0  0  0  0
  7  8  1  0  0  0  0
  8  9  1  0  0  0  0
  8 27  1  0  0  0  0
  9 10  1  0  0  0  0
 10 11  1  0  0  0  0
 11 12  1  0  0  0  0
 11 16  1  0  0  0  0
 12 13  1  0  0  0  0
 13 14  1  0  0  0  0
 14 15  1  0  0  0  0
 14 17  1  0  0  0  0
 15 16  1  0  0  0  0
 17 18  4  0  0  0  0
 17 22  4  0  0  0  0
 18 19  4  0  0  0  0
 19 20  4  0  0  0  0
 20 21  4  0  0  0  0
 21 22  4  0  0  0  0
 21 26  4  0  0  0  0
 22 23  4  0  0  0  0
 23 24  4  0  0  0  0
 24 25  4  0  0  0  0
 25 26  4  0  0  0  0
 27 28  2  0  0  0  0
 29 30  1  0  0  0  0
 30 31  1  0  0  0  0
 31 32  1  0  0  0  0
 31 33  1  0  0  0  0
M  END
>  <Name_Molregno>
333385

>  <5-HT1A>
9.15

>  <5-HT1B>
9.3

$$$$
333386
  Marvin  02231216192D 0   1.00000     0.00000     0

 31 35  0  0  0  0  0  0  0  0999 V2000
    5.8336   -2.6911    0.0000 S   0  0  0  0  0  0  0  0  0
    6.5011   -2.2062    0.0000 C   0  0  0  0  0  0  0  0  0
    6.2461   -1.4216    0.0000 C   0  0  0  0  0  0  0  0  0
    5.4211   -1.4216    0.0000 C   0  0  0  0  0  0  0  0  0
    5.1662   -2.2062    0.0000 C   0  0  0  0  0  0  0  0  0
    4.3592   -2.3778    0.0000 N   0  0  0  0  0  0  0  0  0
    3.8072   -1.7647    0.0000 C   0  0  0  0  0  0  0  0  0
    4.0621   -0.9800    0.0000 N   0  0  0  0  0  0  0  0  0
    3.5101   -0.3669    0.0000 C   0  0  0  0  0  0  0  0  0
    2.7031   -0.5385    0.0000 C   0  0  0  0  0  0  0  0  0
    2.1511    0.0746    0.0000 N   0  0  0  0  0  0  0  0  0
    1.3441   -0.0969    0.0000 C   0  0  0  0  0  0  0  0  0
    0.7921    0.5162    0.0000 C   0  0  0  0  0  0  0  0  0
    1.0470    1.3008    0.0000 N   0  0  0  0  0  0  0  0  0
    1.8540    1.4723    0.0000 C   0  0  0  0  0  0  0  0  0
    2.4060    0.8592    0.0000 C   0  0  0  0  0  0  0  0  0
    0.4950    1.9139    0.0000 C   0  0  0  0  0  0  0  0  0
   -0.3120    1.7424    0.0000 C   0  0  0  0  0  0  0  0  0
   -0.8640    2.3555    0.0000 C   0  0  0  0  0  0  0  0  0
   -0.6091    3.1401    0.0000 C   0  0  0  0  0  0  0  0  0
    0.1979    3.3116    0.0000 C   0  0  0  0  0  0  0  0  0
    0.7499    2.6985    0.0000 C   0  0  0  0  0  0  0  0  0
    1.5569    2.8701    0.0000 O   0  0  0  0  0  0  0  0  0
    1.8118    3.6547    0.0000 C   0  0  0  0  0  0  0  0  0
    4.8691   -0.8085    0.0000 C   0  0  0  0  0  0  0  0  0
    5.1240   -0.0239    0.0000 O   0  0  0  0  0  0  0  0  0
    6.7982   -0.8085    0.0000 C   0  0  0  0  0  0  0  0  0
    7.6051   -0.9800    0.0000 C   0  0  0  0  0  0  0  0  0
    7.8601   -1.7647    0.0000 N   0  0  0  0  0  0  0  0  0
    7.3080   -2.3778    0.0000 C   0  0  0  0  0  0  0  0  0
    8.6670   -1.9362    0.0000 C   0  0  0  0  0  0  0  0  0
  1  2  4  0  0  0  0
  1  5  4  0  0  0  0
  2  3  4  0  0  0  0
  2 30  1  0  0  0  0
  3  4  4  0  0  0  0
  3 27  1  0  0  0  0
  4  5  4  0  0  0  0
  4 25  1  0  0  0  0
  5  6  1  0  0  0  0
  6  7  2  0  0  0  0
  7  8  1  0  0  0  0
  8  9  1  0  0  0  0
  8 25  1  0  0  0  0
  9 10  1  0  0  0  0
 10 11  1  0  0  0  0
 11 12  1  0  0  0  0
 11 16  1  0  0  0  0
 12 13  1  0  0  0  0
 13 14  1  0  0  0  0
 14 15  1  0  0  0  0
 14 17  1  0  0  0  0
 15 16  1  0  0  0  0
 17 18  4  0  0  0  0
 17 22  4  0  0  0  0
 18 19  4  0  0  0  0
 19 20  4  0  0  0  0
 20 21  4  0  0  0  0
 21 22  4  0  0  0  0
 22 23  1  0  0  0  0
 23 24  1  0  0  0  0
 25 26  2  0  0  0  0
 27 28  1  0  0  0  0
 28 29  1  0  0  0  0
 29 30  1  0  0  0  0
 29 31  1  0  0  0  0
M  END
>  <Name_Molregno>
333386

>  <5-HT1A>
9.15

>  <5-HT1B>
8.85

$$$$
333395
  Marvin  02231216192D 0   1.00000     0.00000     0

 31 35  0  0  0  0  0  0  0  0999 V2000
    5.7899   -2.6699    0.0000 S   0  0  0  0  0  0  0  0  0
    6.4573   -2.1850    0.0000 C   0  0  0  0  0  0  0  0  0
    6.2024   -1.4003    0.0000 C   0  0  0  0  0  0  0  0  0
    5.3774   -1.4003    0.0000 C   0  0  0  0  0  0  0  0  0
    5.1224   -2.1850    0.0000 C   0  0  0  0  0  0  0  0  0
    4.3155   -2.3565    0.0000 N   0  0  0  0  0  0  0  0  0
    3.7634   -1.7434    0.0000 C   0  0  0  0  0  0  0  0  0
    4.0184   -0.9588    0.0000 N   0  0  0  0  0  0  0  0  0
    3.4663   -0.3457    0.0000 C   0  0  0  0  0  0  0  0  0
    2.6594   -0.5172    0.0000 C   0  0  0  0  0  0  0  0  0
    2.1073    0.0959    0.0000 N   0  0  0  0  0  0  0  0  0
    1.3004   -0.0756    0.0000 C   0  0  0  0  0  0  0  0  0
    0.7483    0.5375    0.0000 C   0  0  0  0  0  0  0  0  0
    1.0033    1.3221    0.0000 N   0  0  0  0  0  0  0  0  0
    1.8102    1.4936    0.0000 C   0  0  0  0  0  0  0  0  0
    2.3623    0.8805    0.0000 C   0  0  0  0  0  0  0  0  0
    0.4512    1.9352    0.0000 C   0  0  0  0  0  0  0  0  0
   -0.3557    1.7636    0.0000 C   0  0  0  0  0  0  0  0  0
   -0.9078    2.3767    0.0000 C   0  0  0  0  0  0  0  0  0
   -0.6528    3.1614    0.0000 C   0  0  0  0  0  0  0  0  0
    0.1542    3.3329    0.0000 C   0  0  0  0  0  0  0  0  0
    0.7062    2.7198    0.0000 C   0  0  0  0  0  0  0  0  0
    1.5132    2.8913    0.0000 C   0  0  0  0  0  0  0  0  0
    2.3201    3.0628    0.0000 N   0  0  0  0  0  0  0  0  0
    4.8254   -0.7872    0.0000 C   0  0  0  0  0  0  0  0  0
    5.0803   -0.0026    0.0000 O   0  0  0  0  0  0  0  0  0
    6.7544   -0.7872    0.0000 C   0  0  0  0  0  0  0  0  0
    7.5614   -0.9588    0.0000 C   0  0  0  0  0  0  0  0  0
    7.8163   -1.7434    0.0000 N   0  0  0  0  0  0  0  0  0
    7.2643   -2.3565    0.0000 C   0  0  0  0  0  0  0  0  0
    8.6233   -1.9149    0.0000 C   0  0  0  0  0  0  0  0  0
  1  2  4  0  0  0  0
  1  5  4  0  0  0  0
  2  3  4  0  0  0  0
  2 30  1  0  0  0  0
  3  4  4  0  0  0  0
  3 27  1  0  0  0  0
  4  5  4  0  0  0  0
  4 25  1  0  0  0  0
  5  6  1  0  0  0  0
  6  7  2  0  0  0  0
  7  8  1  0  0  0  0
  8  9  1  0  0  0  0
  8 25  1  0  0  0  0
  9 10  1  0  0  0  0
 10 11  1  0  0  0  0
 11 12  1  0  0  0  0
 11 16  1  0  0  0  0
 12 13  1  0  0  0  0
 13 14  1  0  0  0  0
 14 15  1  0  0  0  0
 14 17  1  0  0  0  0
 15 16  1  0  0  0  0
 17 18  4  0  0  0  0
 17 22  4  0  0  0  0
 18 19  4  0  0  0  0
 19 20  4  0  0  0  0
 20 21  4  0  0  0  0
 21 22  4  0  0  0  0
 22 23  1  0  0  0  0
 23 24  3  0  0  0  0
 25 26  2  0  0  0  0
 27 28  1  0  0  0  0
 28 29  1  0  0  0  0
 29 30  1  0  0  0  0
 29 31  1  0  0  0  0
M  END
>  <Name_Molregno>
333395

>  <5-HT1A>
8.6

>  <5-HT1B>
8.85

$$$$
333396
  Marvin  02231216192D 0   1.00000     0.00000     0

 30 34  0  0  0  0  0  0  0  0999 V2000
    5.4937   -3.6261    0.0000 S   0  0  0  0  0  0  0  0  0
    6.1611   -3.1412    0.0000 C   0  0  0  0  0  0  0  0  0
    5.9062   -2.3565    0.0000 C   0  0  0  0  0  0  0  0  0
    5.0812   -2.3565    0.0000 C   0  0  0  0  0  0  0  0  0
    4.8262   -3.1412    0.0000 C   0  0  0  0  0  0  0  0  0
    4.0193   -3.3127    0.0000 N   0  0  0  0  0  0  0  0  0
    3.4672   -2.6996    0.0000 C   0  0  0  0  0  0  0  0  0
    3.7222   -1.9150    0.0000 N   0  0  0  0  0  0  0  0  0
    3.1701   -1.3019    0.0000 C   0  0  0  0  0  0  0  0  0
    2.3632   -1.4734    0.0000 C   0  0  0  0  0  0  0  0  0
    1.8111   -0.8603    0.0000 N   0  0  0  0  0  0  0  0  0
    1.0042   -1.0318    0.0000 C   0  0  0  0  0  0  0  0  0
    0.4521   -0.4187    0.0000 C   0  0  0  0  0  0  0  0  0
    0.7071    0.3659    0.0000 N   0  0  0  0  0  0  0  0  0
    1.5140    0.5374    0.0000 C   0  0  0  0  0  0  0  0  0
    2.0661   -0.0757    0.0000 C   0  0  0  0  0  0  0  0  0
    0.1550    0.9790    0.0000 C   0  0  0  0  0  0  0  0  0
   -0.6519    0.8075    0.0000 C   0  0  0  0  0  0  0  0  0
   -1.2040    1.4206    0.0000 C   0  0  0  0  0  0  0  0  0
   -0.9490    2.2052    0.0000 C   0  0  0  0  0  0  0  0  0
   -0.1421    2.3767    0.0000 C   0  0  0  0  0  0  0  0  0
    0.4100    1.7636    0.0000 C   0  0  0  0  0  0  0  0  0
    1.2169    1.9351    0.0000 C   0  0  0  0  0  0  0  0  0
    4.5291   -1.7434    0.0000 C   0  0  0  0  0  0  0  0  0
    4.7841   -0.9588    0.0000 O   0  0  0  0  0  0  0  0  0
    6.4582   -1.7434    0.0000 C   0  0  0  0  0  0  0  0  0
    7.2652   -1.9150    0.0000 C   0  0  0  0  0  0  0  0  0
    7.5201   -2.6996    0.0000 N   0  0  0  0  0  0  0  0  0
    6.9681   -3.3127    0.0000 C   0  0  0  0  0  0  0  0  0
    8.3271   -2.8711    0.0000 C   0  0  0  0  0  0  0  0  0
  1  2  4  0  0  0  0
  1  5  4  0  0  0  0
  2  3  4  0  0  0  0
  2 29  1  0  0  0  0
  3  4  4  0  0  0  0
  3 26  1  0  0  0  0
  4  5  4  0  0  0  0
  4 24  1  0  0  0  0
  5  6  1  0  0  0  0
  6  7  2  0  0  0  0
  7  8  1  0  0  0  0
  8  9  1  0  0  0  0
  8 24  1  0  0  0  0
  9 10  1  0  0  0  0
 10 11  1  0  0  0  0
 11 12  1  0  0  0  0
 11 16  1  0  0  0  0
 12 13  1  0  0  0  0
 13 14  1  0  0  0  0
 14 15  1  0  0  0  0
 14 17  1  0  0  0  0
 15 16  1  0  0  0  0
 17 18  4  0  0  0  0
 17 22  4  0  0  0  0
 18 19  4  0  0  0  0
 19 20  4  0  0  0  0
 20 21  4  0  0  0  0
 21 22  4  0  0  0  0
 22 23  1  0  0  0  0
 24 25  2  0  0  0  0
 26 27  1  0  0  0  0
 27 28  1  0  0  0  0
 28 29  1  0  0  0  0
 28 30  1  0  0  0  0
M  END
>  <Name_Molregno>
333396

>  <5-HT1A>
8.54

>  <5-HT1B>
8.46

$$$$
333413
  Marvin  02231216192D 0   1.00000     0.00000     0

 35 40  0  0  0  0  0  0  0  0999 V2000
    6.0894   -4.1578    0.0000 S   0  0  0  0  0  0  0  0  0
    6.7568   -3.6729    0.0000 C   0  0  0  0  0  0  0  0  0
    6.5019   -2.8883    0.0000 C   0  0  0  0  0  0  0  0  0
    5.6769   -2.8883    0.0000 C   0  0  0  0  0  0  0  0  0
    5.4220   -3.6729    0.0000 C   0  0  0  0  0  0  0  0  0
    4.6150   -3.8444    0.0000 N   0  0  0  0  0  0  0  0  0
    4.0630   -3.2314    0.0000 C   0  0  0  0  0  0  0  0  0
    4.3179   -2.4467    0.0000 N   0  0  0  0  0  0  0  0  0
    3.7659   -1.8336    0.0000 C   0  0  0  0  0  0  0  0  0
    2.9589   -2.0052    0.0000 C   0  0  0  0  0  0  0  0  0
    2.4069   -1.3921    0.0000 N   0  0  0  0  0  0  0  0  0
    1.5999   -1.5636    0.0000 C   0  0  0  0  0  0  0  0  0
    1.0478   -0.9505    0.0000 C   0  0  0  0  0  0  0  0  0
    1.3028   -0.1659    0.0000 N   0  0  0  0  0  0  0  0  0
    2.1098    0.0056    0.0000 C   0  0  0  0  0  0  0  0  0
    2.6618   -0.6074    0.0000 C   0  0  0  0  0  0  0  0  0
    0.7508    0.4472    0.0000 C   0  0  0  0  0  0  0  0  0
   -0.0562    0.2757    0.0000 C   0  0  0  0  0  0  0  0  0
   -0.6082    0.8888    0.0000 C   0  0  0  0  0  0  0  0  0
   -0.3533    1.6734    0.0000 C   0  0  0  0  0  0  0  0  0
    0.4537    1.8449    0.0000 C   0  0  0  0  0  0  0  0  0
    1.0057    1.2318    0.0000 C   0  0  0  0  0  0  0  0  0
    1.8127    1.4034    0.0000 C   0  0  0  0  0  0  0  0  0
    2.0676    2.1880    0.0000 C   0  0  0  0  0  0  0  0  0
    2.8746    2.3595    0.0000 C   0  0  0  0  0  0  0  0  0
    3.4266    1.7464    0.0000 C   0  0  0  0  0  0  0  0  0
    3.1717    0.9618    0.0000 C   0  0  0  0  0  0  0  0  0
    2.3647    0.7903    0.0000 C   0  0  0  0  0  0  0  0  0
    5.1249   -2.2752    0.0000 C   0  0  0  0  0  0  0  0  0
    5.3798   -1.4906    0.0000 O   0  0  0  0  0  0  0  0  0
    7.0539   -2.2752    0.0000 C   0  0  0  0  0  0  0  0  0
    7.8609   -2.4467    0.0000 C   0  0  0  0  0  0  0  0  0
    8.1158   -3.2314    0.0000 N   0  0  0  0  0  0  0  0  0
    7.5638   -3.8444    0.0000 C   0  0  0  0  0  0  0  0  0
    8.9228   -3.4029    0.0000 C   0  0  0  0  0  0  0  0  0
  1  2  4  0  0  0  0
  1  5  4  0  0  0  0
  2  3  4  0  0  0  0
  2 34  1  0  0  0  0
  3  4  4  0  0  0  0
  3 31  1  0  0  0  0
  4  5  4  0  0  0  0
  4 29  1  0  0  0  0
  5  6  1  0  0  0  0
  6  7  2  0  0  0  0
  7  8  1  0  0  0  0
  8  9  1  0  0  0  0
  8 29  1  0  0  0  0
  9 10  1  0  0  0  0
 10 11  1  0  0  0  0
 11 12  1  0  0  0  0
 11 16  1  0  0  0  0
 12 13  1  0  0  0  0
 13 14  1  0  0  0  0
 14 15  1  0  0  0  0
 14 17  1  0  0  0  0
 15 16  1  0  0  0  0
 17 18  4  0  0  0  0
 17 22  4  0  0  0  0
 18 19  4  0  0  0  0
 19 20  4  0  0  0  0
 20 21  4  0  0  0  0
 21 22  4  0  0  0  0
 22 23  1  0  0  0  0
 23 24  4  0  0  0  0
 23 28  4  0  0  0  0
 24 25  4  0  0  0  0
 25 26  4  0  0  0  0
 26 27  4  0  0  0  0
 27 28  4  0  0  0  0
 29 30  2  0  0  0  0
 31 32  1  0  0  0  0
 32 33  1  0  0  0  0
 33 34  1  0  0  0  0
 33 35  1  0  0  0  0
M  END
>  <Name_Molregno>
333413

>  <5-HT1A>
8.39

>  <5-HT1B>
8.96

$$$$
333416
  Marvin  02231216192D 0   1.00000     0.00000     0

 36 41  0  0  0  0  0  0  0  0999 V2000
    6.4300   -4.7109    0.0000 S   0  0  0  0  0  0  0  0  0
    7.0974   -4.2260    0.0000 C   0  0  0  0  0  0  0  0  0
    6.8425   -3.4414    0.0000 C   0  0  0  0  0  0  0  0  0
    6.0175   -3.4414    0.0000 C   0  0  0  0  0  0  0  0  0
    5.7625   -4.2260    0.0000 C   0  0  0  0  0  0  0  0  0
    4.9556   -4.3975    0.0000 N   0  0  0  0  0  0  0  0  0
    4.4035   -3.7844    0.0000 C   0  0  0  0  0  0  0  0  0
    4.6585   -2.9998    0.0000 N   0  0  0  0  0  0  0  0  0
    4.1064   -2.3867    0.0000 C   0  0  0  0  0  0  0  0  0
    3.2995   -2.5583    0.0000 C   0  0  0  0  0  0  0  0  0
    2.7474   -1.9452    0.0000 N   0  0  0  0  0  0  0  0  0
    1.9405   -2.1167    0.0000 C   0  0  0  0  0  0  0  0  0
    1.3884   -1.5036    0.0000 C   0  0  0  0  0  0  0  0  0
    1.6434   -0.7190    0.0000 N   0  0  0  0  0  0  0  0  0
    2.4503   -0.5475    0.0000 C   0  0  0  0  0  0  0  0  0
    3.0024   -1.1605    0.0000 C   0  0  0  0  0  0  0  0  0
    1.0913   -0.1059    0.0000 C   0  0  0  0  0  0  0  0  0
    0.2844   -0.2774    0.0000 C   0  0  0  0  0  0  0  0  0
   -0.2677    0.3357    0.0000 C   0  0  0  0  0  0  0  0  0
   -0.0127    1.1203    0.0000 C   0  0  0  0  0  0  0  0  0
    0.7942    1.2918    0.0000 C   0  0  0  0  0  0  0  0  0
    1.3463    0.6787    0.0000 C   0  0  0  0  0  0  0  0  0
    2.1532    0.8503    0.0000 O   0  0  0  0  0  0  0  0  0
    2.4082    1.6349    0.0000 C   0  0  0  0  0  0  0  0  0
    1.8561    2.2480    0.0000 C   0  0  0  0  0  0  0  0  0
    2.1111    3.0326    0.0000 C   0  0  0  0  0  0  0  0  0
    2.9181    3.2041    0.0000 C   0  0  0  0  0  0  0  0  0
    3.4701    2.5910    0.0000 C   0  0  0  0  0  0  0  0  0
    3.2152    1.8064    0.0000 C   0  0  0  0  0  0  0  0  0
    5.4654   -2.8283    0.0000 C   0  0  0  0  0  0  0  0  0
    5.7204   -2.0437    0.0000 O   0  0  0  0  0  0  0  0  0
    7.3945   -2.8283    0.0000 C   0  0  0  0  0  0  0  0  0
    8.2015   -2.9998    0.0000 C   0  0  0  0  0  0  0  0  0
    8.4564   -3.7844    0.0000 N   0  0  0  0  0  0  0  0  0
    7.9044   -4.3975    0.0000 C   0  0  0  0  0  0  0  0  0
    9.2634   -3.9560    0.0000 C   0  0  0  0  0  0  0  0  0
  1  2  4  0  0  0  0
  1  5  4  0  0  0  0
  2  3  4  0  0  0  0
  2 35  1  0  0  0  0
  3  4  4  0  0  0  0
  3 32  1  0  0  0  0
  4  5  4  0  0  0  0
  4 30  1  0  0  0  0
  5  6  1  0  0  0  0
  6  7  2  0  0  0  0
  7  8  1  0  0  0  0
  8  9  1  0  0  0  0
  8 30  1  0  0  0  0
  9 10  1  0  0  0  0
 10 11  1  0  0  0  0
 11 12  1  0  0  0  0
 11 16  1  0  0  0  0
 12 13  1  0  0  0  0
 13 14  1  0  0  0  0
 14 15  1  0  0  0  0
 14 17  1  0  0  0  0
 15 16  1  0  0  0  0
 17 18  4  0  0  0  0
 17 22  4  0  0  0  0
 18 19  4  0  0  0  0
 19 20  4  0  0  0  0
 20 21  4  0  0  0  0
 21 22  4  0  0  0  0
 22 23  1  0  0  0  0
 23 24  1  0  0  0  0
 24 25  4  0  0  0  0
 24 29  4  0  0  0  0
 25 26  4  0  0  0  0
 26 27  4  0  0  0  0
 27 28  4  0  0  0  0
 28 29  4  0  0  0  0
 30 31  2  0  0  0  0
 32 33  1  0  0  0  0
 33 34  1  0  0  0  0
 34 35  1  0  0  0  0
 34 36  1  0  0  0  0
M  END
>  <Name_Molregno>
333416

>  <5-HT1A>
9.05

>  <5-HT1B>
8.96

$$$$
333417
  Marvin  02231216192D 0   1.00000     0.00000     0

 37 42  0  0  0  0  0  0  0  0999 V2000
    6.3387   -2.6724    0.0000 S   0  0  0  0  0  0  0  0  0
    7.0061   -2.1875    0.0000 C   0  0  0  0  0  0  0  0  0
    6.7512   -1.4028    0.0000 C   0  0  0  0  0  0  0  0  0
    5.9262   -1.4028    0.0000 C   0  0  0  0  0  0  0  0  0
    5.6712   -2.1875    0.0000 C   0  0  0  0  0  0  0  0  0
    4.8643   -2.3590    0.0000 N   0  0  0  0  0  0  0  0  0
    4.3122   -1.7459    0.0000 C   0  0  0  0  0  0  0  0  0
    4.5672   -0.9613    0.0000 N   0  0  0  0  0  0  0  0  0
    4.0151   -0.3482    0.0000 C   0  0  0  0  0  0  0  0  0
    3.2082   -0.5197    0.0000 C   0  0  0  0  0  0  0  0  0
    2.6561    0.0934    0.0000 N   0  0  0  0  0  0  0  0  0
    1.8492   -0.0781    0.0000 C   0  0  0  0  0  0  0  0  0
    1.2971    0.5349    0.0000 C   0  0  0  0  0  0  0  0  0
    1.5521    1.3196    0.0000 N   0  0  0  0  0  0  0  0  0
    2.3590    1.4911    0.0000 C   0  0  0  0  0  0  0  0  0
    2.9111    0.8780    0.0000 C   0  0  0  0  0  0  0  0  0
    1.0000    1.9327    0.0000 C   0  0  0  0  0  0  0  0  0
    0.1931    1.7611    0.0000 C   0  0  0  0  0  0  0  0  0
   -0.3590    2.3742    0.0000 C   0  0  0  0  0  0  0  0  0
   -0.1040    3.1589    0.0000 C   0  0  0  0  0  0  0  0  0
    0.7029    3.3304    0.0000 C   0  0  0  0  0  0  0  0  0
    1.2550    2.7173    0.0000 C   0  0  0  0  0  0  0  0  0
    2.0619    2.8888    0.0000 O   0  0  0  0  0  0  0  0  0
    2.3169    3.6734    0.0000 C   0  0  0  0  0  0  0  0  0
    3.1238    3.8450    0.0000 C   0  0  0  0  0  0  0  0  0
    3.3788    4.6296    0.0000 C   0  0  0  0  0  0  0  0  0
    4.1858    4.8011    0.0000 C   0  0  0  0  0  0  0  0  0
    4.7378    4.1880    0.0000 C   0  0  0  0  0  0  0  0  0
    4.4829    3.4034    0.0000 C   0  0  0  0  0  0  0  0  0
    3.6759    3.2319    0.0000 C   0  0  0  0  0  0  0  0  0
    5.3741   -0.7898    0.0000 C   0  0  0  0  0  0  0  0  0
    5.6291   -0.0051    0.0000 O   0  0  0  0  0  0  0  0  0
    7.3032   -0.7898    0.0000 C   0  0  0  0  0  0  0  0  0
    8.1102   -0.9613    0.0000 C   0  0  0  0  0  0  0  0  0
    8.3651   -1.7459    0.0000 N   0  0  0  0  0  0  0  0  0
    7.8131   -2.3590    0.0000 C   0  0  0  0  0  0  0  0  0
    9.1721   -1.9174    0.0000 C   0  0  0  0  0  0  0  0  0
  1  2  4  0  0  0  0
  1  5  4  0  0  0  0
  2  3  4  0  0  0  0
  2 36  1  0  0  0  0
  3  4  4  0  0  0  0
  3 33  1  0  0  0  0
  4  5  4  0  0  0  0
  4 31  1  0  0  0  0
  5  6  1  0  0  0  0
  6  7  2  0  0  0  0
  7  8  1  0  0  0  0
  8  9  1  0  0  0  0
  8 31  1  0  0  0  0
  9 10  1  0  0  0  0
 10 11  1  0  0  0  0
 11 12  1  0  0  0  0
 11 16  1  0  0  0  0
 12 13  1  0  0  0  0
 13 14  1  0  0  0  0
 14 15  1  0  0  0  0
 14 17  1  0  0  0  0
 15 16  1  0  0  0  0
 17 18  4  0  0  0  0
 17 22  4  0  0  0  0
 18 19  4  0  0  0  0
 19 20  4  0  0  0  0
 20 21  4  0  0  0  0
 21 22  4  0  0  0  0
 22 23  1  0  0  0  0
 23 24  1  0  0  0  0
 24 25  1  0  0  0  0
 25 26  4  0  0  0  0
 25 30  4  0  0  0  0
 26 27  4  0  0  0  0
 27 28  4  0  0  0  0
 28 29  4  0  0  0  0
 29 30  4  0  0  0  0
 31 32  2  0  0  0  0
 33 34  1  0  0  0  0
 34 35  1  0  0  0  0
 35 36  1  0  0  0  0
 35 37  1  0  0  0  0
M  END
>  <Name_Molregno>
333417

>  <5-HT1A>
8.72

>  <5-HT1B>
8.92

$$$$
333420
  Marvin  02231216192D 0   1.00000     0.00000     0

 30 34  0  0  0  0  0  0  0  0999 V2000
   -8.1376    0.9320    0.0000 Cl  0  0  0  0  0  0  0  0  0
   -7.8826    1.7167    0.0000 C   0  0  0  0  0  0  0  0  0
   -8.4347    2.3298    0.0000 C   0  0  0  0  0  0  0  0  0
   -8.1797    3.1144    0.0000 C   0  0  0  0  0  0  0  0  0
   -7.3728    3.2859    0.0000 C   0  0  0  0  0  0  0  0  0
   -6.8207    2.6728    0.0000 C   0  0  0  0  0  0  0  0  0
   -7.0757    1.8882    0.0000 C   0  0  0  0  0  0  0  0  0
   -6.5236    1.2751    0.0000 N   0  0  0  0  0  0  0  0  0
   -5.7167    1.4466    0.0000 C   0  0  0  0  0  0  0  0  0
   -5.1646    0.8335    0.0000 C   0  0  0  0  0  0  0  0  0
   -5.4196    0.0489    0.0000 N   0  0  0  0  0  0  0  0  0
   -6.2265   -0.1226    0.0000 C   0  0  0  0  0  0  0  0  0
   -6.7786    0.4905    0.0000 C   0  0  0  0  0  0  0  0  0
   -4.8675   -0.5642    0.0000 C   0  0  0  0  0  0  0  0  0
   -4.0606   -0.3927    0.0000 C   0  0  0  0  0  0  0  0  0
   -3.5085   -1.0058    0.0000 N   0  0  0  0  0  0  0  0  0
   -3.7635   -1.7904    0.0000 C   0  0  0  0  0  0  0  0  0
   -3.2114   -2.4035    0.0000 N   0  0  0  0  0  0  0  0  0
   -2.4045   -2.2319    0.0000 C   0  0  0  0  0  0  0  0  0
   -1.7370   -2.7169    0.0000 S   0  0  0  0  0  0  0  0  0
   -1.0696   -2.2319    0.0000 C   0  0  0  0  0  0  0  0  0
   -1.3245   -1.4473    0.0000 C   0  0  0  0  0  0  0  0  0
   -2.1495   -1.4473    0.0000 C   0  0  0  0  0  0  0  0  0
   -2.7016   -0.8342    0.0000 C   0  0  0  0  0  0  0  0  0
   -2.4466   -0.0496    0.0000 O   0  0  0  0  0  0  0  0  0
   -0.7725   -0.8342    0.0000 C   0  0  0  0  0  0  0  0  0
    0.0345   -1.0058    0.0000 C   0  0  0  0  0  0  0  0  0
    0.2894   -1.7904    0.0000 N   0  0  0  0  0  0  0  0  0
   -0.2626   -2.4035    0.0000 C   0  0  0  0  0  0  0  0  0
    1.0964   -1.9619    0.0000 C   0  0  0  0  0  0  0  0  0
  1  2  1  0  0  0  0
  2  3  4  0  0  0  0
  2  7  4  0  0  0  0
  3  4  4  0  0  0  0
  4  5  4  0  0  0  0
  5  6  4  0  0  0  0
  6  7  4  0  0  0  0
  7  8  1  0  0  0  0
  8  9  1  0  0  0  0
  8 13  1  0  0  0  0
  9 10  1  0  0  0  0
 10 11  1  0  0  0  0
 11 12  1  0  0  0  0
 11 14  1  0  0  0  0
 12 13  1  0  0  0  0
 14 15  1  0  0  0  0
 15 16  1  0  0  0  0
 16 17  1  0  0  0  0
 16 24  1  0  0  0  0
 17 18  2  0  0  0  0
 18 19  1  0  0  0  0
 19 20  4  0  0  0  0
 19 23  4  0  0  0  0
 20 21  4  0  0  0  0
 21 22  4  0  0  0  0
 21 29  1  0  0  0  0
 22 23  4  0  0  0  0
 22 26  1  0  0  0  0
 23 24  1  0  0  0  0
 24 25  2  0  0  0  0
 26 27  1  0  0  0  0
 27 28  1  0  0  0  0
 28 29  1  0  0  0  0
 28 30  1  0  0  0  0
M  END
>  <Name_Molregno>
333420

>  <5-HT1A>
8.55

>  <5-HT1B>
8.77

$$$$
333435
  Marvin  02231216192D 0   1.00000     0.00000     0

 32 36  0  0  0  0  0  0  0  0999 V2000
    1.9868    3.4508    0.0000 Cl  0  0  0  0  0  0  0  0  0
    1.7318    2.6662    0.0000 C   0  0  0  0  0  0  0  0  0
    2.2838    2.0531    0.0000 C   0  0  0  0  0  0  0  0  0
    2.0289    1.2685    0.0000 C   0  0  0  0  0  0  0  0  0
    2.5809    0.6554    0.0000 N   0  0  0  0  0  0  0  0  0
    3.3879    0.8269    0.0000 C   0  0  0  0  0  0  0  0  0
    3.9399    0.2138    0.0000 C   0  0  0  0  0  0  0  0  0
    3.6850   -0.5708    0.0000 N   0  0  0  0  0  0  0  0  0
    2.8780   -0.7423    0.0000 C   0  0  0  0  0  0  0  0  0
    2.3260   -0.1292    0.0000 C   0  0  0  0  0  0  0  0  0
    4.2370   -1.1839    0.0000 C   0  0  0  0  0  0  0  0  0
    5.0440   -1.0123    0.0000 C   0  0  0  0  0  0  0  0  0
    5.5960   -1.6254    0.0000 N   0  0  0  0  0  0  0  0  0
    5.3411   -2.4101    0.0000 C   0  0  0  0  0  0  0  0  0
    5.8931   -3.0232    0.0000 N   0  0  0  0  0  0  0  0  0
    6.7001   -2.8516    0.0000 C   0  0  0  0  0  0  0  0  0
    7.3675   -3.3366    0.0000 S   0  0  0  0  0  0  0  0  0
    8.0350   -2.8516    0.0000 C   0  0  0  0  0  0  0  0  0
    7.7800   -2.0670    0.0000 C   0  0  0  0  0  0  0  0  0
    6.9550   -2.0670    0.0000 C   0  0  0  0  0  0  0  0  0
    6.4030   -1.4539    0.0000 C   0  0  0  0  0  0  0  0  0
    6.6580   -0.6693    0.0000 O   0  0  0  0  0  0  0  0  0
    8.3321   -1.4539    0.0000 C   0  0  0  0  0  0  0  0  0
    9.1391   -1.6254    0.0000 C   0  0  0  0  0  0  0  0  0
    9.3940   -2.4101    0.0000 N   0  0  0  0  0  0  0  0  0
    8.8420   -3.0232    0.0000 C   0  0  0  0  0  0  0  0  0
   10.2010   -2.5816    0.0000 C   0  0  0  0  0  0  0  0  0
    1.2219    1.0970    0.0000 C   0  0  0  0  0  0  0  0  0
    0.9670    0.3124    0.0000 O   0  0  0  0  0  0  0  0  0
    0.1600    0.1408    0.0000 C   0  0  0  0  0  0  0  0  0
    0.6699    1.7101    0.0000 C   0  0  0  0  0  0  0  0  0
    0.9248    2.4947    0.0000 C   0  0  0  0  0  0  0  0  0
  1  2  1  0  0  0  0
  2  3  4  0  0  0  0
  2 32  4  0  0  0  0
  3  4  4  0  0  0  0
  4  5  1  0  0  0  0
  4 28  4  0  0  0  0
  5  6  1  0  0  0  0
  5 10  1  0  0  0  0
  6  7  1  0  0  0  0
  7  8  1  0  0  0  0
  8  9  1  0  0  0  0
  8 11  1  0  0  0  0
  9 10  1  0  0  0  0
 11 12  1  0  0  0  0
 12 13  1  0  0  0  0
 13 14  1  0  0  0  0
 13 21  1  0  0  0  0
 14 15  2  0  0  0  0
 15 16  1  0  0  0  0
 16 17  4  0  0  0  0
 16 20  4  0  0  0  0
 17 18  4  0  0  0  0
 18 19  4  0  0  0  0
 18 26  1  0  0  0  0
 19 20  4  0  0  0  0
 19 23  1  0  0  0  0
 20 21  1  0  0  0  0
 21 22  2  0  0  0  0
 23 24  1  0  0  0  0
 24 25  1  0  0  0  0
 25 26  1  0  0  0  0
 25 27  1  0  0  0  0
 28 29  1  0  0  0  0
 28 31  4  0  0  0  0
 29 30  1  0  0  0  0
 31 32  4  0  0  0  0
M  END
>  <Name_Molregno>
333435

>  <5-HT1A>
8.52

>  <5-HT1B>
7.15

$$$$
333436
  Marvin  02231216192D 0   1.00000     0.00000     0

 33 38  0  0  0  0  0  0  0  0999 V2000
   -3.7150   -5.1498    0.0000 S   0  0  0  0  0  0  0  0  0
   -2.8945   -5.2360    0.0000 C   0  0  0  0  0  0  0  0  0
   -2.5589   -4.4823    0.0000 C   0  0  0  0  0  0  0  0  0
   -3.1720   -3.9303    0.0000 C   0  0  0  0  0  0  0  0  0
   -3.8865   -4.3428    0.0000 C   0  0  0  0  0  0  0  0  0
   -4.6010   -3.9303    0.0000 N   0  0  0  0  0  0  0  0  0
   -4.6010   -3.1053    0.0000 C   0  0  0  0  0  0  0  0  0
   -3.8865   -2.6928    0.0000 N   0  0  0  0  0  0  0  0  0
   -3.8865   -1.8678    0.0000 C   0  0  0  0  0  0  0  0  0
   -4.6010   -1.4553    0.0000 C   0  0  0  0  0  0  0  0  0
   -4.6010   -0.6303    0.0000 N   0  0  0  0  0  0  0  0  0
   -5.3154   -0.2178    0.0000 C   0  0  0  0  0  0  0  0  0
   -5.3154    0.6072    0.0000 C   0  0  0  0  0  0  0  0  0
   -4.6010    1.0197    0.0000 N   0  0  0  0  0  0  0  0  0
   -3.8865    0.6072    0.0000 C   0  0  0  0  0  0  0  0  0
   -3.8865   -0.2178    0.0000 C   0  0  0  0  0  0  0  0  0
   -4.6010    1.8447    0.0000 C   0  0  0  0  0  0  0  0  0
   -3.8865    2.2572    0.0000 C   0  0  0  0  0  0  0  0  0
   -3.8865    3.0822    0.0000 C   0  0  0  0  0  0  0  0  0
   -4.6010    3.4947    0.0000 N   0  0  0  0  0  0  0  0  0
   -5.3154    3.0822    0.0000 C   0  0  0  0  0  0  0  0  0
   -5.3154    2.2572    0.0000 C   0  0  0  0  0  0  0  0  0
   -3.1720    3.4947    0.0000 C   0  0  0  0  0  0  0  0  0
   -2.4576    3.0822    0.0000 C   0  0  0  0  0  0  0  0  0
   -2.4576    2.2572    0.0000 C   0  0  0  0  0  0  0  0  0
   -3.1720    1.8447    0.0000 C   0  0  0  0  0  0  0  0  0
   -3.1720   -3.1053    0.0000 C   0  0  0  0  0  0  0  0  0
   -2.4576   -2.6928    0.0000 O   0  0  0  0  0  0  0  0  0
   -1.7385   -4.3961    0.0000 C   0  0  0  0  0  0  0  0  0
   -1.2535   -5.0635    0.0000 C   0  0  0  0  0  0  0  0  0
   -1.5891   -5.8172    0.0000 N   0  0  0  0  0  0  0  0  0
   -2.4096   -5.9034    0.0000 C   0  0  0  0  0  0  0  0  0
   -1.1042   -6.4846    0.0000 C   0  0  0  0  0  0  0  0  0
  1  2  4  0  0  0  0
  1  5  4  0  0  0  0
  2  3  4  0  0  0  0
  2 32  1  0  0  0  0
  3  4  4  0  0  0  0
  3 29  1  0  0  0  0
  4  5  4  0  0  0  0
  4 27  1  0  0  0  0
  5  6  1  0  0  0  0
  6  7  2  0  0  0  0
  7  8  1  0  0  0  0
  8  9  1  0  0  0  0
  8 27  1  0  0  0  0
  9 10  1  0  0  0  0
 10 11  1  0  0  0  0
 11 12  1  0  0  0  0
 11 16  1  0  0  0  0
 12 13  1  0  0  0  0
 13 14  1  0  0  0  0
 14 15  1  0  0  0  0
 14 17  1  0  0  0  0
 15 16  1  0  0  0  0
 17 18  4  0  0  0  0
 17 22  4  0  0  0  0
 18 19  4  0  0  0  0
 18 26  4  0  0  0  0
 19 20  4  0  0  0  0
 19 23  4  0  0  0  0
 20 21  4  0  0  0  0
 21 22  4  0  0  0  0
 23 24  4  0  0  0  0
 24 25  4  0  0  0  0
 25 26  4  0  0  0  0
 27 28  2  0  0  0  0
 29 30  1  0  0  0  0
 30 31  1  0  0  0  0
 31 32  1  0  0  0  0
 31 33  1  0  0  0  0
M  STY  1   1 DAT
M  SAL   1  1  20
M  SDT   1 MRV_IMPLICIT_H                                        
M  SDD   1     0.0000    0.0000    DR    ALL  0       0  
M  SED   1 IMPL_H1
M  END
>  <Name_Molregno>
333436

>  <5-HT1A>
8.19

>  <5-HT1B>
8.01

>  <5-HT2A>
8.92

>  <5-HT2C>
8.26

>  <5-HT5>
9

>  <DOPAMINE D3>
8.89

$$$$
333439
  Marvin  02231216192D 0   1.00000     0.00000     0

 33 37  0  0  0  0  0  0  0  0999 V2000
    6.1491   -3.4323    0.0000 S   0  0  0  0  0  0  0  0  0
    6.8165   -2.9474    0.0000 C   0  0  0  0  0  0  0  0  0
    6.5616   -2.1628    0.0000 C   0  0  0  0  0  0  0  0  0
    5.7366   -2.1628    0.0000 C   0  0  0  0  0  0  0  0  0
    5.4816   -2.9474    0.0000 C   0  0  0  0  0  0  0  0  0
    4.6747   -3.1189    0.0000 N   0  0  0  0  0  0  0  0  0
    4.1226   -2.5059    0.0000 C   0  0  0  0  0  0  0  0  0
    4.3776   -1.7212    0.0000 N   0  0  0  0  0  0  0  0  0
    3.8255   -1.1081    0.0000 C   0  0  0  0  0  0  0  0  0
    3.0186   -1.2797    0.0000 C   0  0  0  0  0  0  0  0  0
    2.4665   -0.6666    0.0000 N   0  0  0  0  0  0  0  0  0
    1.6596   -0.8381    0.0000 C   0  0  0  0  0  0  0  0  0
    1.1075   -0.2250    0.0000 C   0  0  0  0  0  0  0  0  0
    1.3625    0.5596    0.0000 N   0  0  0  0  0  0  0  0  0
    2.1694    0.7311    0.0000 C   0  0  0  0  0  0  0  0  0
    2.7215    0.1181    0.0000 C   0  0  0  0  0  0  0  0  0
    0.8104    1.1727    0.0000 C   0  0  0  0  0  0  0  0  0
    0.0035    1.0012    0.0000 C   0  0  0  0  0  0  0  0  0
   -0.5486    1.6143    0.0000 C   0  0  0  0  0  0  0  0  0
   -0.2936    2.3989    0.0000 C   0  0  0  0  0  0  0  0  0
    0.5133    2.5704    0.0000 C   0  0  0  0  0  0  0  0  0
    1.0654    1.9573    0.0000 C   0  0  0  0  0  0  0  0  0
    1.8723    2.1289    0.0000 O   0  0  0  0  0  0  0  0  0
    2.1273    2.9135    0.0000 C   0  0  0  0  0  0  0  0  0
    2.9342    3.0850    0.0000 C   0  0  0  0  0  0  0  0  0
    1.5752    3.5266    0.0000 C   0  0  0  0  0  0  0  0  0
    5.1845   -1.5497    0.0000 C   0  0  0  0  0  0  0  0  0
    5.4395   -0.7651    0.0000 O   0  0  0  0  0  0  0  0  0
    7.1136   -1.5497    0.0000 C   0  0  0  0  0  0  0  0  0
    7.9206   -1.7212    0.0000 C   0  0  0  0  0  0  0  0  0
    8.1755   -2.5059    0.0000 N   0  0  0  0  0  0  0  0  0
    7.6235   -3.1189    0.0000 C   0  0  0  0  0  0  0  0  0
    8.9825   -2.6774    0.0000 C   0  0  0  0  0  0  0  0  0
  1  2  4  0  0  0  0
  1  5  4  0  0  0  0
  2  3  4  0  0  0  0
  2 32  1  0  0  0  0
  3  4  4  0  0  0  0
  3 29  1  0  0  0  0
  4  5  4  0  0  0  0
  4 27  1  0  0  0  0
  5  6  1  0  0  0  0
  6  7  2  0  0  0  0
  7  8  1  0  0  0  0
  8  9  1  0  0  0  0
  8 27  1  0  0  0  0
  9 10  1  0  0  0  0
 10 11  1  0  0  0  0
 11 12  1  0  0  0  0
 11 16  1  0  0  0  0
 12 13  1  0  0  0  0
 13 14  1  0  0  0  0
 14 15  1  0  0  0  0
 14 17  1  0  0  0  0
 15 16  1  0  0  0  0
 17 18  4  0  0  0  0
 17 22  4  0  0  0  0
 18 19  4  0  0  0  0
 19 20  4  0  0  0  0
 20 21  4  0  0  0  0
 21 22  4  0  0  0  0
 22 23  1  0  0  0  0
 23 24  1  0  0  0  0
 24 25  1  0  0  0  0
 24 26  1  0  0  0  0
 27 28  2  0  0  0  0
 29 30  1  0  0  0  0
 30 31  1  0  0  0  0
 31 32  1  0  0  0  0
 31 33  1  0  0  0  0
M  END
>  <Name_Molregno>
333439

>  <5-HT1A>
9.15

>  <5-HT1B>
8.6

$$$$
333440
  Marvin  02231216192D 0   1.00000     0.00000     0

 35 39  0  0  0  0  0  0  0  0999 V2000
    6.2905   -2.7183    0.0000 S   0  0  0  0  0  0  0  0  0
    6.9580   -2.2334    0.0000 C   0  0  0  0  0  0  0  0  0
    6.7030   -1.4487    0.0000 C   0  0  0  0  0  0  0  0  0
    5.8780   -1.4487    0.0000 C   0  0  0  0  0  0  0  0  0
    5.6231   -2.2334    0.0000 C   0  0  0  0  0  0  0  0  0
    4.8161   -2.4049    0.0000 N   0  0  0  0  0  0  0  0  0
    4.2641   -1.7918    0.0000 C   0  0  0  0  0  0  0  0  0
    4.5190   -1.0072    0.0000 N   0  0  0  0  0  0  0  0  0
    3.9670   -0.3941    0.0000 C   0  0  0  0  0  0  0  0  0
    3.1600   -0.5656    0.0000 C   0  0  0  0  0  0  0  0  0
    2.6080    0.0475    0.0000 N   0  0  0  0  0  0  0  0  0
    1.8010   -0.1240    0.0000 C   0  0  0  0  0  0  0  0  0
    1.2490    0.4891    0.0000 C   0  0  0  0  0  0  0  0  0
    1.5039    1.2737    0.0000 N   0  0  0  0  0  0  0  0  0
    2.3109    1.4452    0.0000 C   0  0  0  0  0  0  0  0  0
    2.8629    0.8321    0.0000 C   0  0  0  0  0  0  0  0  0
    0.9519    1.8868    0.0000 C   0  0  0  0  0  0  0  0  0
    0.1449    1.7152    0.0000 C   0  0  0  0  0  0  0  0  0
   -0.4071    2.3283    0.0000 C   0  0  0  0  0  0  0  0  0
   -0.1522    3.1130    0.0000 C   0  0  0  0  0  0  0  0  0
    0.6548    3.2845    0.0000 C   0  0  0  0  0  0  0  0  0
    1.2068    2.6714    0.0000 C   0  0  0  0  0  0  0  0  0
    2.0138    2.8429    0.0000 O   0  0  0  0  0  0  0  0  0
    2.2687    3.6275    0.0000 C   0  0  0  0  0  0  0  0  0
    3.0757    3.7991    0.0000 C   0  0  0  0  0  0  0  0  0
    3.8827    3.9706    0.0000 C   0  0  0  0  0  0  0  0  0
    2.9042    4.6060    0.0000 C   0  0  0  0  0  0  0  0  0
    3.2472    2.9921    0.0000 C   0  0  0  0  0  0  0  0  0
    5.3260   -0.8356    0.0000 C   0  0  0  0  0  0  0  0  0
    5.5809   -0.0510    0.0000 O   0  0  0  0  0  0  0  0  0
    7.2550   -0.8356    0.0000 C   0  0  0  0  0  0  0  0  0
    8.0620   -1.0072    0.0000 C   0  0  0  0  0  0  0  0  0
    8.3170   -1.7918    0.0000 N   0  0  0  0  0  0  0  0  0
    7.7649   -2.4049    0.0000 C   0  0  0  0  0  0  0  0  0
    9.1239   -1.9633    0.0000 C   0  0  0  0  0  0  0  0  0
  1  2  4  0  0  0  0
  1  5  4  0  0  0  0
  2  3  4  0  0  0  0
  2 34  1  0  0  0  0
  3  4  4  0  0  0  0
  3 31  1  0  0  0  0
  4  5  4  0  0  0  0
  4 29  1  0  0  0  0
  5  6  1  0  0  0  0
  6  7  2  0  0  0  0
  7  8  1  0  0  0  0
  8  9  1  0  0  0  0
  8 29  1  0  0  0  0
  9 10  1  0  0  0  0
 10 11  1  0  0  0  0
 11 12  1  0  0  0  0
 11 16  1  0  0  0  0
 12 13  1  0  0  0  0
 13 14  1  0  0  0  0
 14 15  1  0  0  0  0
 14 17  1  0  0  0  0
 15 16  1  0  0  0  0
 17 18  4  0  0  0  0
 17 22  4  0  0  0  0
 18 19  4  0  0  0  0
 19 20  4  0  0  0  0
 20 21  4  0  0  0  0
 21 22  4  0  0  0  0
 22 23  1  0  0  0  0
 23 24  1  0  0  0  0
 24 25  1  0  0  0  0
 25 26  1  0  0  0  0
 25 27  1  0  0  0  0
 25 28  1  0  0  0  0
 29 30  2  0  0  0  0
 31 32  1  0  0  0  0
 32 33  1  0  0  0  0
 33 34  1  0  0  0  0
 33 35  1  0  0  0  0
M  END
>  <Name_Molregno>
333440

>  <5-HT1A>
8.6

>  <5-HT1B>
8.27

$$$$
333537
  Marvin  02231216192D 0   1.00000     0.00000     0

 33 38  0  0  0  0  0  0  0  0999 V2000
   -3.7150   -5.1498    0.0000 S   0  0  0  0  0  0  0  0  0
   -2.8945   -5.2360    0.0000 C   0  0  0  0  0  0  0  0  0
   -2.5589   -4.4823    0.0000 C   0  0  0  0  0  0  0  0  0
   -3.1720   -3.9303    0.0000 C   0  0  0  0  0  0  0  0  0
   -3.8865   -4.3428    0.0000 C   0  0  0  0  0  0  0  0  0
   -4.6010   -3.9303    0.0000 N   0  0  0  0  0  0  0  0  0
   -4.6010   -3.1053    0.0000 C   0  0  0  0  0  0  0  0  0
   -3.8865   -2.6928    0.0000 N   0  0  0  0  0  0  0  0  0
   -3.8865   -1.8678    0.0000 C   0  0  0  0  0  0  0  0  0
   -4.6010   -1.4553    0.0000 C   0  0  0  0  0  0  0  0  0
   -4.6010   -0.6303    0.0000 N   0  0  0  0  0  0  0  0  0
   -5.3154   -0.2178    0.0000 C   0  0  0  0  0  0  0  0  0
   -5.3154    0.6072    0.0000 C   0  0  0  0  0  0  0  0  0
   -4.6010    1.0197    0.0000 N   0  0  0  0  0  0  0  0  0
   -3.8865    0.6072    0.0000 C   0  0  0  0  0  0  0  0  0
   -3.8865   -0.2178    0.0000 C   0  0  0  0  0  0  0  0  0
   -4.6010    1.8447    0.0000 C   0  0  0  0  0  0  0  0  0
   -3.8865    2.2572    0.0000 C   0  0  0  0  0  0  0  0  0
   -3.8865    3.0822    0.0000 C   0  0  0  0  0  0  0  0  0
   -4.6010    3.4947    0.0000 C   0  0  0  0  0  0  0  0  0
   -5.3154    3.0822    0.0000 C   0  0  0  0  0  0  0  0  0
   -5.3154    2.2572    0.0000 C   0  0  0  0  0  0  0  0  0
   -3.1720    3.4947    0.0000 C   0  0  0  0  0  0  0  0  0
   -2.4576    3.0822    0.0000 C   0  0  0  0  0  0  0  0  0
   -2.4576    2.2572    0.0000 C   0  0  0  0  0  0  0  0  0
   -3.1720    1.8447    0.0000 C   0  0  0  0  0  0  0  0  0
   -3.1720   -3.1053    0.0000 C   0  0  0  0  0  0  0  0  0
   -2.4576   -2.6928    0.0000 O   0  0  0  0  0  0  0  0  0
   -1.7385   -4.3961    0.0000 C   0  0  0  0  0  0  0  0  0
   -1.2535   -5.0635    0.0000 C   0  0  0  0  0  0  0  0  0
   -1.5891   -5.8172    0.0000 N   0  0  0  0  0  0  0  0  0
   -2.4096   -5.9034    0.0000 C   0  0  0  0  0  0  0  0  0
   -1.1042   -6.4846    0.0000 C   0  0  0  0  0  0  0  0  0
  1  2  4  0  0  0  0
  1  5  4  0  0  0  0
  2  3  4  0  0  0  0
  2 32  1  0  0  0  0
  3  4  4  0  0  0  0
  3 29  1  0  0  0  0
  4  5  4  0  0  0  0
  4 27  1  0  0  0  0
  5  6  1  0  0  0  0
  6  7  2  0  0  0  0
  7  8  1  0  0  0  0
  8  9  1  0  0  0  0
  8 27  1  0  0  0  0
  9 10  1  0  0  0  0
 10 11  1  0  0  0  0
 11 12  1  0  0  0  0
 11 16  1  0  0  0  0
 12 13  1  0  0  0  0
 13 14  1  0  0  0  0
 14 15  1  0  0  0  0
 14 17  1  0  0  0  0
 15 16  1  0  0  0  0
 17 18  4  0  0  0  0
 17 22  4  0  0  0  0
 18 19  4  0  0  0  0
 18 26  4  0  0  0  0
 19 20  4  0  0  0  0
 19 23  4  0  0  0  0
 20 21  4  0  0  0  0
 21 22  4  0  0  0  0
 23 24  4  0  0  0  0
 24 25  4  0  0  0  0
 25 26  4  0  0  0  0
 27 28  2  0  0  0  0
 29 30  1  0  0  0  0
 30 31  1  0  0  0  0
 31 32  1  0  0  0  0
 31 33  1  0  0  0  0
M  END
>  <Name_Molregno>
333537

>  <5-HT1A>
9.15

>  <5-HT1B>
9.3

$$$$
333547
  Marvin  02231216192D 0   1.00000     0.00000     0

 33 37  0  0  0  0  0  0  0  0999 V2000
   -1.0353   -3.8271    0.0000 S   0  0  0  0  0  0  0  0  0
   -0.3678   -3.3421    0.0000 C   0  0  0  0  0  0  0  0  0
   -0.6228   -2.5575    0.0000 C   0  0  0  0  0  0  0  0  0
   -1.4478   -2.5575    0.0000 C   0  0  0  0  0  0  0  0  0
   -1.7027   -3.3421    0.0000 C   0  0  0  0  0  0  0  0  0
   -2.5097   -3.5137    0.0000 N   0  0  0  0  0  0  0  0  0
   -3.0617   -2.9006    0.0000 C   0  0  0  0  0  0  0  0  0
   -2.8068   -2.1159    0.0000 N   0  0  0  0  0  0  0  0  0
   -3.3588   -1.5028    0.0000 C   0  0  0  0  0  0  0  0  0
   -4.1658   -1.6744    0.0000 C   0  0  0  0  0  0  0  0  0
   -4.7178   -1.0613    0.0000 N   0  0  0  0  0  0  0  0  0
   -5.5248   -1.2328    0.0000 C   0  0  0  0  0  0  0  0  0
   -6.0768   -0.6197    0.0000 C   0  0  0  0  0  0  0  0  0
   -5.8219    0.1649    0.0000 N   0  0  0  0  0  0  0  0  0
   -5.0149    0.3364    0.0000 C   0  0  0  0  0  0  0  0  0
   -4.4629   -0.2767    0.0000 C   0  0  0  0  0  0  0  0  0
   -6.3739    0.7780    0.0000 C   0  0  0  0  0  0  0  0  0
   -7.1809    0.6065    0.0000 C   0  0  0  0  0  0  0  0  0
   -7.7329    1.2196    0.0000 C   0  0  0  0  0  0  0  0  0
   -8.5399    1.0480    0.0000 O   0  0  0  0  0  0  0  0  0
   -9.0919    1.6611    0.0000 C   0  0  0  0  0  0  0  0  0
   -7.4780    2.0042    0.0000 C   0  0  0  0  0  0  0  0  0
   -6.6710    2.1757    0.0000 C   0  0  0  0  0  0  0  0  0
   -6.1190    1.5626    0.0000 C   0  0  0  0  0  0  0  0  0
   -5.3120    1.7342    0.0000 O   0  0  0  0  0  0  0  0  0
   -5.0571    2.5188    0.0000 C   0  0  0  0  0  0  0  0  0
   -1.9998   -1.9444    0.0000 C   0  0  0  0  0  0  0  0  0
   -1.7449   -1.1598    0.0000 O   0  0  0  0  0  0  0  0  0
   -0.0708   -1.9444    0.0000 C   0  0  0  0  0  0  0  0  0
    0.7362   -2.1159    0.0000 C   0  0  0  0  0  0  0  0  0
    0.9912   -2.9006    0.0000 N   0  0  0  0  0  0  0  0  0
    0.4391   -3.5137    0.0000 C   0  0  0  0  0  0  0  0  0
    1.7981   -3.0721    0.0000 C   0  0  0  0  0  0  0  0  0
  1  2  4  0  0  0  0
  1  5  4  0  0  0  0
  2  3  4  0  0  0  0
  2 32  1  0  0  0  0
  3  4  4  0  0  0  0
  3 29  1  0  0  0  0
  4  5  4  0  0  0  0
  4 27  1  0  0  0  0
  5  6  1  0  0  0  0
  6  7  2  0  0  0  0
  7  8  1  0  0  0  0
  8  9  1  0  0  0  0
  8 27  1  0  0  0  0
  9 10  1  0  0  0  0
 10 11  1  0  0  0  0
 11 12  1  0  0  0  0
 11 16  1  0  0  0  0
 12 13  1  0  0  0  0
 13 14  1  0  0  0  0
 14 15  1  0  0  0  0
 14 17  1  0  0  0  0
 15 16  1  0  0  0  0
 17 18  4  0  0  0  0
 17 24  4  0  0  0  0
 18 19  4  0  0  0  0
 19 20  1  0  0  0  0
 19 22  4  0  0  0  0
 20 21  1  0  0  0  0
 22 23  4  0  0  0  0
 23 24  4  0  0  0  0
 24 25  1  0  0  0  0
 25 26  1  0  0  0  0
 27 28  2  0  0  0  0
 29 30  1  0  0  0  0
 30 31  1  0  0  0  0
 31 32  1  0  0  0  0
 31 33  1  0  0  0  0
M  END
>  <Name_Molregno>
333547

>  <5-HT1A>
7.62

>  <5-HT1B>
7.3

$$$$
333548
  Marvin  02231216192D 0   1.00000     0.00000     0

 32 36  0  0  0  0  0  0  0  0999 V2000
    6.0066   -3.8028    0.0000 S   0  0  0  0  0  0  0  0  0
    6.6740   -3.3179    0.0000 C   0  0  0  0  0  0  0  0  0
    6.4191   -2.5333    0.0000 C   0  0  0  0  0  0  0  0  0
    5.5941   -2.5333    0.0000 C   0  0  0  0  0  0  0  0  0
    5.3391   -3.3179    0.0000 C   0  0  0  0  0  0  0  0  0
    4.5322   -3.4894    0.0000 N   0  0  0  0  0  0  0  0  0
    3.9801   -2.8763    0.0000 C   0  0  0  0  0  0  0  0  0
    4.2351   -2.0917    0.0000 N   0  0  0  0  0  0  0  0  0
    3.6830   -1.4786    0.0000 C   0  0  0  0  0  0  0  0  0
    2.8761   -1.6502    0.0000 C   0  0  0  0  0  0  0  0  0
    2.3240   -1.0371    0.0000 N   0  0  0  0  0  0  0  0  0
    1.5171   -1.2086    0.0000 C   0  0  0  0  0  0  0  0  0
    0.9650   -0.5955    0.0000 C   0  0  0  0  0  0  0  0  0
    1.2200    0.1891    0.0000 N   0  0  0  0  0  0  0  0  0
    2.0269    0.3607    0.0000 C   0  0  0  0  0  0  0  0  0
    2.5790   -0.2524    0.0000 C   0  0  0  0  0  0  0  0  0
    0.6679    0.8022    0.0000 C   0  0  0  0  0  0  0  0  0
   -0.1390    0.6307    0.0000 C   0  0  0  0  0  0  0  0  0
   -0.6911    1.2438    0.0000 C   0  0  0  0  0  0  0  0  0
   -0.4361    2.0284    0.0000 C   0  0  0  0  0  0  0  0  0
    0.3708    2.1999    0.0000 C   0  0  0  0  0  0  0  0  0
    0.9229    1.5868    0.0000 C   0  0  0  0  0  0  0  0  0
    1.7298    1.7584    0.0000 O   0  0  0  0  0  0  0  0  0
    1.9848    2.5430    0.0000 C   0  0  0  0  0  0  0  0  0
   -1.4980    1.0723    0.0000 C   0  0  0  0  0  0  0  0  0
    5.0420   -1.9202    0.0000 C   0  0  0  0  0  0  0  0  0
    5.2970   -1.1356    0.0000 O   0  0  0  0  0  0  0  0  0
    6.9711   -1.9202    0.0000 C   0  0  0  0  0  0  0  0  0
    7.7781   -2.0917    0.0000 C   0  0  0  0  0  0  0  0  0
    8.0330   -2.8763    0.0000 N   0  0  0  0  0  0  0  0  0
    7.4810   -3.4894    0.0000 C   0  0  0  0  0  0  0  0  0
    8.8400   -3.0479    0.0000 C   0  0  0  0  0  0  0  0  0
  1  2  4  0  0  0  0
  1  5  4  0  0  0  0
  2  3  4  0  0  0  0
  2 31  1  0  0  0  0
  3  4  4  0  0  0  0
  3 28  1  0  0  0  0
  4  5  4  0  0  0  0
  4 26  1  0  0  0  0
  5  6  1  0  0  0  0
  6  7  2  0  0  0  0
  7  8  1  0  0  0  0
  8  9  1  0  0  0  0
  8 26  1  0  0  0  0
  9 10  1  0  0  0  0
 10 11  1  0  0  0  0
 11 12  1  0  0  0  0
 11 16  1  0  0  0  0
 12 13  1  0  0  0  0
 13 14  1  0  0  0  0
 14 15  1  0  0  0  0
 14 17  1  0  0  0  0
 15 16  1  0  0  0  0
 17 18  4  0  0  0  0
 17 22  4  0  0  0  0
 18 19  4  0  0  0  0
 19 20  4  0  0  0  0
 19 25  1  0  0  0  0
 20 21  4  0  0  0  0
 21 22  4  0  0  0  0
 22 23  1  0  0  0  0
 23 24  1  0  0  0  0
 26 27  2  0  0  0  0
 28 29  1  0  0  0  0
 29 30  1  0  0  0  0
 30 31  1  0  0  0  0
 30 32  1  0  0  0  0
M  END
>  <Name_Molregno>
333548

>  <5-HT1A>
8.25

>  <5-HT1B>
7.92

$$$$
333565
  Marvin  02231216192D 0   1.00000     0.00000     0

 35 39  0  0  0  0  0  0  0  0999 V2000
    6.9346   -3.7948    0.0000 S   0  0  0  0  0  0  0  0  0
    7.6021   -3.3099    0.0000 C   0  0  0  0  0  0  0  0  0
    7.3471   -2.5253    0.0000 C   0  0  0  0  0  0  0  0  0
    6.5221   -2.5253    0.0000 C   0  0  0  0  0  0  0  0  0
    6.2672   -3.3099    0.0000 C   0  0  0  0  0  0  0  0  0
    5.4602   -3.4814    0.0000 N   0  0  0  0  0  0  0  0  0
    4.9082   -2.8683    0.0000 C   0  0  0  0  0  0  0  0  0
    5.1631   -2.0837    0.0000 N   0  0  0  0  0  0  0  0  0
    4.6111   -1.4706    0.0000 C   0  0  0  0  0  0  0  0  0
    3.8041   -1.6422    0.0000 C   0  0  0  0  0  0  0  0  0
    3.2521   -1.0291    0.0000 N   0  0  0  0  0  0  0  0  0
    2.4451   -1.2006    0.0000 C   0  0  0  0  0  0  0  0  0
    1.8931   -0.5875    0.0000 C   0  0  0  0  0  0  0  0  0
    2.1480    0.1971    0.0000 N   0  0  0  0  0  0  0  0  0
    2.9550    0.3687    0.0000 C   0  0  0  0  0  0  0  0  0
    3.5070   -0.2444    0.0000 C   0  0  0  0  0  0  0  0  0
    1.5960    0.8102    0.0000 C   0  0  0  0  0  0  0  0  0
    0.7890    0.6387    0.0000 C   0  0  0  0  0  0  0  0  0
    0.2370    1.2518    0.0000 C   0  0  0  0  0  0  0  0  0
    0.4919    2.0364    0.0000 C   0  0  0  0  0  0  0  0  0
    1.2989    2.2079    0.0000 C   0  0  0  0  0  0  0  0  0
    1.8509    1.5948    0.0000 C   0  0  0  0  0  0  0  0  0
    2.6579    1.7664    0.0000 O   0  0  0  0  0  0  0  0  0
    2.9128    2.5510    0.0000 C   0  0  0  0  0  0  0  0  0
   -0.5700    1.0803    0.0000 C   0  0  0  0  0  0  0  0  0
   -1.3770    0.9087    0.0000 F   0  0  0  0  0  0  0  0  0
   -0.3985    0.2733    0.0000 F   0  0  0  0  0  0  0  0  0
   -0.7415    1.8872    0.0000 F   0  0  0  0  0  0  0  0  0
    5.9701   -1.9122    0.0000 C   0  0  0  0  0  0  0  0  0
    6.2250   -1.1276    0.0000 O   0  0  0  0  0  0  0  0  0
    7.8991   -1.9122    0.0000 C   0  0  0  0  0  0  0  0  0
    8.7061   -2.0837    0.0000 C   0  0  0  0  0  0  0  0  0
    8.9611   -2.8683    0.0000 N   0  0  0  0  0  0  0  0  0
    8.4090   -3.4814    0.0000 C   0  0  0  0  0  0  0  0  0
    9.7680   -3.0399    0.0000 C   0  0  0  0  0  0  0  0  0
  1  2  4  0  0  0  0
  1  5  4  0  0  0  0
  2  3  4  0  0  0  0
  2 34  1  0  0  0  0
  3  4  4  0  0  0  0
  3 31  1  0  0  0  0
  4  5  4  0  0  0  0
  4 29  1  0  0  0  0
  5  6  1  0  0  0  0
  6  7  2  0  0  0  0
  7  8  1  0  0  0  0
  8  9  1  0  0  0  0
  8 29  1  0  0  0  0
  9 10  1  0  0  0  0
 10 11  1  0  0  0  0
 11 12  1  0  0  0  0
 11 16  1  0  0  0  0
 12 13  1  0  0  0  0
 13 14  1  0  0  0  0
 14 15  1  0  0  0  0
 14 17  1  0  0  0  0
 15 16  1  0  0  0  0
 17 18  4  0  0  0  0
 17 22  4  0  0  0  0
 18 19  4  0  0  0  0
 19 20  4  0  0  0  0
 19 25  1  0  0  0  0
 20 21  4  0  0  0  0
 21 22  4  0  0  0  0
 22 23  1  0  0  0  0
 23 24  1  0  0  0  0
 25 26  1  0  0  0  0
 25 27  1  0  0  0  0
 25 28  1  0  0  0  0
 29 30  2  0  0  0  0
 31 32  1  0  0  0  0
 32 33  1  0  0  0  0
 33 34  1  0  0  0  0
 33 35  1  0  0  0  0
M  END
>  <Name_Molregno>
333565

>  <5-HT1A>
6.98

>  <5-HT1B>
7.37

$$$$
333566
  Marvin  02231216192D 0   1.00000     0.00000     0

 32 37  0  0  0  0  0  0  0  0999 V2000
    3.7200   -4.8186    0.0000 S   0  0  0  0  0  0  0  0  0
    4.5405   -4.9048    0.0000 C   0  0  0  0  0  0  0  0  0
    4.8760   -4.1512    0.0000 C   0  0  0  0  0  0  0  0  0
    4.2629   -3.5991    0.0000 C   0  0  0  0  0  0  0  0  0
    3.5485   -4.0116    0.0000 C   0  0  0  0  0  0  0  0  0
    2.8340   -3.5991    0.0000 N   0  0  0  0  0  0  0  0  0
    2.8340   -2.7741    0.0000 C   0  0  0  0  0  0  0  0  0
    3.5485   -2.3616    0.0000 N   0  0  0  0  0  0  0  0  0
    3.5485   -1.5366    0.0000 C   0  0  0  0  0  0  0  0  0
    2.8340   -1.1241    0.0000 C   0  0  0  0  0  0  0  0  0
    2.8340   -0.2991    0.0000 N   0  0  0  0  0  0  0  0  0
    2.1195    0.1134    0.0000 C   0  0  0  0  0  0  0  0  0
    2.1195    0.9384    0.0000 C   0  0  0  0  0  0  0  0  0
    2.8340    1.3509    0.0000 N   0  0  0  0  0  0  0  0  0
    3.5485    0.9384    0.0000 C   0  0  0  0  0  0  0  0  0
    3.5485    0.1134    0.0000 C   0  0  0  0  0  0  0  0  0
    2.8340    2.1759    0.0000 C   0  0  0  0  0  0  0  0  0
    2.1195    2.5884    0.0000 C   0  0  0  0  0  0  0  0  0
    1.3349    2.3334    0.0000 O   0  0  0  0  0  0  0  0  0
    0.8500    3.0009    0.0000 C   0  0  0  0  0  0  0  0  0
    1.3349    3.6683    0.0000 C   0  0  0  0  0  0  0  0  0
    2.1195    3.4134    0.0000 C   0  0  0  0  0  0  0  0  0
    2.8340    3.8259    0.0000 C   0  0  0  0  0  0  0  0  0
    3.5485    3.4134    0.0000 C   0  0  0  0  0  0  0  0  0
    3.5485    2.5884    0.0000 C   0  0  0  0  0  0  0  0  0
    4.2629   -2.7741    0.0000 C   0  0  0  0  0  0  0  0  0
    4.9774   -2.3616    0.0000 O   0  0  0  0  0  0  0  0  0
    5.6965   -4.0649    0.0000 C   0  0  0  0  0  0  0  0  0
    6.1814   -4.7324    0.0000 C   0  0  0  0  0  0  0  0  0
    5.8459   -5.4860    0.0000 N   0  0  0  0  0  0  0  0  0
    5.0254   -5.5723    0.0000 C   0  0  0  0  0  0  0  0  0
    6.3308   -6.1535    0.0000 C   0  0  0  0  0  0  0  0  0
  1  2  4  0  0  0  0
  1  5  4  0  0  0  0
  2  3  4  0  0  0  0
  2 31  1  0  0  0  0
  3  4  4  0  0  0  0
  3 28  1  0  0  0  0
  4  5  4  0  0  0  0
  4 26  1  0  0  0  0
  5  6  1  0  0  0  0
  6  7  2  0  0  0  0
  7  8  1  0  0  0  0
  8  9  1  0  0  0  0
  8 26  1  0  0  0  0
  9 10  1  0  0  0  0
 10 11  1  0  0  0  0
 11 12  1  0  0  0  0
 11 16  1  0  0  0  0
 12 13  1  0  0  0  0
 13 14  1  0  0  0  0
 14 15  1  0  0  0  0
 14 17  1  0  0  0  0
 15 16  1  0  0  0  0
 17 18  4  0  0  0  0
 17 25  4  0  0  0  0
 18 19  1  0  0  0  0
 18 22  4  0  0  0  0
 19 20  1  0  0  0  0
 20 21  1  0  0  0  0
 21 22  1  0  0  0  0
 22 23  4  0  0  0  0
 23 24  4  0  0  0  0
 24 25  4  0  0  0  0
 26 27  2  0  0  0  0
 28 29  1  0  0  0  0
 29 30  1  0  0  0  0
 30 31  1  0  0  0  0
 30 32  1  0  0  0  0
M  END
>  <Name_Molregno>
333566

>  <5-HT1A>
9.22

>  <5-HT1B>
9.3

$$$$
333573
  Marvin  02231216192D 0   1.00000     0.00000     0

 32 37  0  0  0  0  0  0  0  0999 V2000
    3.7200   -4.8186    0.0000 S   0  0  0  0  0  0  0  0  0
    4.5405   -4.9048    0.0000 C   0  0  0  0  0  0  0  0  0
    4.8760   -4.1512    0.0000 C   0  0  0  0  0  0  0  0  0
    4.2629   -3.5991    0.0000 C   0  0  0  0  0  0  0  0  0
    3.5485   -4.0116    0.0000 C   0  0  0  0  0  0  0  0  0
    2.8340   -3.5991    0.0000 N   0  0  0  0  0  0  0  0  0
    2.8340   -2.7741    0.0000 C   0  0  0  0  0  0  0  0  0
    3.5485   -2.3616    0.0000 N   0  0  0  0  0  0  0  0  0
    3.5485   -1.5366    0.0000 C   0  0  0  0  0  0  0  0  0
    2.8340   -1.1241    0.0000 C   0  0  0  0  0  0  0  0  0
    2.8340   -0.2991    0.0000 N   0  0  0  0  0  0  0  0  0
    2.1195    0.1134    0.0000 C   0  0  0  0  0  0  0  0  0
    2.1195    0.9384    0.0000 C   0  0  0  0  0  0  0  0  0
    2.8340    1.3509    0.0000 N   0  0  0  0  0  0  0  0  0
    3.5485    0.9384    0.0000 C   0  0  0  0  0  0  0  0  0
    3.5485    0.1134    0.0000 C   0  0  0  0  0  0  0  0  0
    2.8340    2.1759    0.0000 C   0  0  0  0  0  0  0  0  0
    2.1195    2.5884    0.0000 C   0  0  0  0  0  0  0  0  0
    1.3349    2.3334    0.0000 S   0  0  0  0  0  0  0  0  0
    0.8500    3.0009    0.0000 C   0  0  0  0  0  0  0  0  0
    1.3349    3.6683    0.0000 C   0  0  0  0  0  0  0  0  0
    2.1195    3.4134    0.0000 C   0  0  0  0  0  0  0  0  0
    2.8340    3.8259    0.0000 C   0  0  0  0  0  0  0  0  0
    3.5485    3.4134    0.0000 C   0  0  0  0  0  0  0  0  0
    3.5485    2.5884    0.0000 C   0  0  0  0  0  0  0  0  0
    4.2629   -2.7741    0.0000 C   0  0  0  0  0  0  0  0  0
    4.9774   -2.3616    0.0000 O   0  0  0  0  0  0  0  0  0
    5.6965   -4.0649    0.0000 C   0  0  0  0  0  0  0  0  0
    6.1814   -4.7324    0.0000 C   0  0  0  0  0  0  0  0  0
    5.8459   -5.4860    0.0000 N   0  0  0  0  0  0  0  0  0
    5.0254   -5.5723    0.0000 C   0  0  0  0  0  0  0  0  0
    6.3308   -6.1535    0.0000 C   0  0  0  0  0  0  0  0  0
  1  2  4  0  0  0  0
  1  5  4  0  0  0  0
  2  3  4  0  0  0  0
  2 31  1  0  0  0  0
  3  4  4  0  0  0  0
  3 28  1  0  0  0  0
  4  5  4  0  0  0  0
  4 26  1  0  0  0  0
  5  6  1  0  0  0  0
  6  7  2  0  0  0  0
  7  8  1  0  0  0  0
  8  9  1  0  0  0  0
  8 26  1  0  0  0  0
  9 10  1  0  0  0  0
 10 11  1  0  0  0  0
 11 12  1  0  0  0  0
 11 16  1  0  0  0  0
 12 13  1  0  0  0  0
 13 14  1  0  0  0  0
 14 15  1  0  0  0  0
 14 17  1  0  0  0  0
 15 16  1  0  0  0  0
 17 18  4  0  0  0  0
 17 25  4  0  0  0  0
 18 19  4  0  0  0  0
 18 22  4  0  0  0  0
 19 20  4  0  0  0  0
 20 21  4  0  0  0  0
 21 22  4  0  0  0  0
 22 23  4  0  0  0  0
 23 24  4  0  0  0  0
 24 25  4  0  0  0  0
 26 27  2  0  0  0  0
 28 29  1  0  0  0  0
 29 30  1  0  0  0  0
 30 31  1  0  0  0  0
 30 32  1  0  0  0  0
M  END
>  <Name_Molregno>
333573

>  <5-HT1A>
9.4

>  <5-HT1B>
9.4

$$$$
333574
  Marvin  02231216192D 0   1.00000     0.00000     0

 33 38  0  0  0  0  0  0  0  0999 V2000
   -3.7150   -5.1498    0.0000 S   0  0  0  0  0  0  0  0  0
   -2.8945   -5.2360    0.0000 C   0  0  0  0  0  0  0  0  0
   -2.5589   -4.4823    0.0000 C   0  0  0  0  0  0  0  0  0
   -3.1720   -3.9303    0.0000 C   0  0  0  0  0  0  0  0  0
   -3.8865   -4.3428    0.0000 C   0  0  0  0  0  0  0  0  0
   -4.6010   -3.9303    0.0000 N   0  0  0  0  0  0  0  0  0
   -4.6010   -3.1053    0.0000 C   0  0  0  0  0  0  0  0  0
   -3.8865   -2.6928    0.0000 N   0  0  0  0  0  0  0  0  0
   -3.8865   -1.8678    0.0000 C   0  0  0  0  0  0  0  0  0
   -4.6010   -1.4553    0.0000 C   0  0  0  0  0  0  0  0  0
   -4.6010   -0.6303    0.0000 N   0  0  0  0  0  0  0  0  0
   -5.3154   -0.2178    0.0000 C   0  0  0  0  0  0  0  0  0
   -5.3154    0.6072    0.0000 C   0  0  0  0  0  0  0  0  0
   -4.6010    1.0197    0.0000 N   0  0  0  0  0  0  0  0  0
   -3.8865    0.6072    0.0000 C   0  0  0  0  0  0  0  0  0
   -3.8865   -0.2178    0.0000 C   0  0  0  0  0  0  0  0  0
   -4.6010    1.8447    0.0000 C   0  0  0  0  0  0  0  0  0
   -3.8865    2.2572    0.0000 C   0  0  0  0  0  0  0  0  0
   -3.8865    3.0822    0.0000 C   0  0  0  0  0  0  0  0  0
   -3.1720    3.4947    0.0000 C   0  0  0  0  0  0  0  0  0
   -2.4576    3.0822    0.0000 C   0  0  0  0  0  0  0  0  0
   -2.4576    2.2572    0.0000 C   0  0  0  0  0  0  0  0  0
   -3.1720    1.8447    0.0000 C   0  0  0  0  0  0  0  0  0
   -4.6010    3.4947    0.0000 C   0  0  0  0  0  0  0  0  0
   -5.3154    3.0822    0.0000 N   0  0  0  0  0  0  0  0  0
   -5.3154    2.2572    0.0000 C   0  0  0  0  0  0  0  0  0
   -3.1720   -3.1053    0.0000 C   0  0  0  0  0  0  0  0  0
   -2.4576   -2.6928    0.0000 O   0  0  0  0  0  0  0  0  0
   -1.7385   -4.3961    0.0000 C   0  0  0  0  0  0  0  0  0
   -1.2535   -5.0635    0.0000 C   0  0  0  0  0  0  0  0  0
   -1.5891   -5.8172    0.0000 N   0  0  0  0  0  0  0  0  0
   -2.4096   -5.9034    0.0000 C   0  0  0  0  0  0  0  0  0
   -1.1042   -6.4846    0.0000 C   0  0  0  0  0  0  0  0  0
  1  2  4  0  0  0  0
  1  5  4  0  0  0  0
  2  3  4  0  0  0  0
  2 32  1  0  0  0  0
  3  4  4  0  0  0  0
  3 29  1  0  0  0  0
  4  5  4  0  0  0  0
  4 27  1  0  0  0  0
  5  6  1  0  0  0  0
  6  7  2  0  0  0  0
  7  8  1  0  0  0  0
  8  9  1  0  0  0  0
  8 27  1  0  0  0  0
  9 10  1  0  0  0  0
 10 11  1  0  0  0  0
 11 12  1  0  0  0  0
 11 16  1  0  0  0  0
 12 13  1  0  0  0  0
 13 14  1  0  0  0  0
 14 15  1  0  0  0  0
 14 17  1  0  0  0  0
 15 16  1  0  0  0  0
 17 18  4  0  0  0  0
 17 26  4  0  0  0  0
 18 19  4  0  0  0  0
 18 23  4  0  0  0  0
 19 20  4  0  0  0  0
 19 24  4  0  0  0  0
 20 21  4  0  0  0  0
 21 22  4  0  0  0  0
 22 23  4  0  0  0  0
 24 25  4  0  0  0  0
 25 26  4  0  0  0  0
 27 28  2  0  0  0  0
 29 30  1  0  0  0  0
 30 31  1  0  0  0  0
 31 32  1  0  0  0  0
 31 33  1  0  0  0  0
M  END
>  <Name_Molregno>
333574

>  <5-HT1A>
8.33

>  <5-HT1B>
8.6

>  <5-HT2A>
6.74

>  <5-HT2C>
8

>  <5-HT5>
8

>  <DOPAMINE D3>
8.93

$$$$
333592
  Marvin  02231216192D 0   1.00000     0.00000     0

 37 42  0  0  0  0  0  0  0  0999 V2000
    7.4550   -4.4418    0.0000 S   0  0  0  0  0  0  0  0  0
    8.1224   -3.9569    0.0000 C   0  0  0  0  0  0  0  0  0
    7.8675   -3.1723    0.0000 C   0  0  0  0  0  0  0  0  0
    7.0425   -3.1723    0.0000 C   0  0  0  0  0  0  0  0  0
    6.7876   -3.9569    0.0000 C   0  0  0  0  0  0  0  0  0
    5.9806   -4.1284    0.0000 N   0  0  0  0  0  0  0  0  0
    5.4285   -3.5153    0.0000 C   0  0  0  0  0  0  0  0  0
    5.6835   -2.7307    0.0000 N   0  0  0  0  0  0  0  0  0
    5.1315   -2.1176    0.0000 C   0  0  0  0  0  0  0  0  0
    4.3245   -2.2891    0.0000 C   0  0  0  0  0  0  0  0  0
    3.7725   -1.6760    0.0000 N   0  0  0  0  0  0  0  0  0
    2.9655   -1.8476    0.0000 C   0  0  0  0  0  0  0  0  0
    2.4134   -1.2345    0.0000 C   0  0  0  0  0  0  0  0  0
    2.6684   -0.4498    0.0000 N   0  0  0  0  0  0  0  0  0
    3.4754   -0.2783    0.0000 C   0  0  0  0  0  0  0  0  0
    4.0274   -0.8914    0.0000 C   0  0  0  0  0  0  0  0  0
    2.1164    0.1633    0.0000 C   0  0  0  0  0  0  0  0  0
    1.3094   -0.0083    0.0000 C   0  0  0  0  0  0  0  0  0
    0.7573    0.6048    0.0000 C   0  0  0  0  0  0  0  0  0
    1.0123    1.3894    0.0000 C   0  0  0  0  0  0  0  0  0
    1.8193    1.5610    0.0000 C   0  0  0  0  0  0  0  0  0
    2.3713    0.9479    0.0000 C   0  0  0  0  0  0  0  0  0
    3.1783    1.1194    0.0000 O   0  0  0  0  0  0  0  0  0
    3.4332    1.9040    0.0000 C   0  0  0  0  0  0  0  0  0
   -0.0496    0.4333    0.0000 C   0  0  0  0  0  0  0  0  0
   -0.3046   -0.3513    0.0000 C   0  0  0  0  0  0  0  0  0
   -1.1115   -0.5229    0.0000 C   0  0  0  0  0  0  0  0  0
   -1.6636    0.0902    0.0000 C   0  0  0  0  0  0  0  0  0
   -1.4086    0.8749    0.0000 C   0  0  0  0  0  0  0  0  0
   -0.6017    1.0464    0.0000 C   0  0  0  0  0  0  0  0  0
    6.4905   -2.5592    0.0000 C   0  0  0  0  0  0  0  0  0
    6.7454   -1.7745    0.0000 O   0  0  0  0  0  0  0  0  0
    8.4195   -2.5592    0.0000 C   0  0  0  0  0  0  0  0  0
    9.2265   -2.7307    0.0000 C   0  0  0  0  0  0  0  0  0
    9.4814   -3.5153    0.0000 N   0  0  0  0  0  0  0  0  0
    8.9294   -4.1284    0.0000 C   0  0  0  0  0  0  0  0  0
   10.2884   -3.6868    0.0000 C   0  0  0  0  0  0  0  0  0
  1  2  4  0  0  0  0
  1  5  4  0  0  0  0
  2  3  4  0  0  0  0
  2 36  1  0  0  0  0
  3  4  4  0  0  0  0
  3 33  1  0  0  0  0
  4  5  4  0  0  0  0
  4 31  1  0  0  0  0
  5  6  1  0  0  0  0
  6  7  2  0  0  0  0
  7  8  1  0  0  0  0
  8  9  1  0  0  0  0
  8 31  1  0  0  0  0
  9 10  1  0  0  0  0
 10 11  1  0  0  0  0
 11 12  1  0  0  0  0
 11 16  1  0  0  0  0
 12 13  1  0  0  0  0
 13 14  1  0  0  0  0
 14 15  1  0  0  0  0
 14 17  1  0  0  0  0
 15 16  1  0  0  0  0
 17 18  4  0  0  0  0
 17 22  4  0  0  0  0
 18 19  4  0  0  0  0
 19 20  4  0  0  0  0
 19 25  1  0  0  0  0
 20 21  4  0  0  0  0
 21 22  4  0  0  0  0
 22 23  1  0  0  0  0
 23 24  1  0  0  0  0
 25 26  4  0  0  0  0
 25 30  4  0  0  0  0
 26 27  4  0  0  0  0
 27 28  4  0  0  0  0
 28 29  4  0  0  0  0
 29 30  4  0  0  0  0
 31 32  2  0  0  0  0
 33 34  1  0  0  0  0
 34 35  1  0  0  0  0
 35 36  1  0  0  0  0
 35 37  1  0  0  0  0
M  END
>  <Name_Molregno>
333592

>  <5-HT1A>
6.37

>  <5-HT1B>
6.93

$$$$
333593
  Marvin  02231216192D 0   1.00000     0.00000     0

 32 36  0  0  0  0  0  0  0  0999 V2000
    1.0301    4.3045    0.0000 Cl  0  0  0  0  0  0  0  0  0
    1.5821    3.6914    0.0000 C   0  0  0  0  0  0  0  0  0
    2.3891    3.8630    0.0000 C   0  0  0  0  0  0  0  0  0
    2.9411    3.2499    0.0000 C   0  0  0  0  0  0  0  0  0
    3.7481    3.4214    0.0000 O   0  0  0  0  0  0  0  0  0
    4.3001    2.8083    0.0000 C   0  0  0  0  0  0  0  0  0
    2.6862    2.4652    0.0000 C   0  0  0  0  0  0  0  0  0
    3.2382    1.8522    0.0000 N   0  0  0  0  0  0  0  0  0
    4.0452    2.0237    0.0000 C   0  0  0  0  0  0  0  0  0
    4.5972    1.4106    0.0000 C   0  0  0  0  0  0  0  0  0
    4.3423    0.6260    0.0000 N   0  0  0  0  0  0  0  0  0
    3.5353    0.4544    0.0000 C   0  0  0  0  0  0  0  0  0
    2.9833    1.0675    0.0000 C   0  0  0  0  0  0  0  0  0
    4.8943    0.0129    0.0000 C   0  0  0  0  0  0  0  0  0
    5.7013    0.1844    0.0000 C   0  0  0  0  0  0  0  0  0
    6.2533   -0.4287    0.0000 N   0  0  0  0  0  0  0  0  0
    5.9984   -1.2133    0.0000 C   0  0  0  0  0  0  0  0  0
    6.5504   -1.8264    0.0000 N   0  0  0  0  0  0  0  0  0
    7.3574   -1.6549    0.0000 C   0  0  0  0  0  0  0  0  0
    8.0248   -2.1398    0.0000 S   0  0  0  0  0  0  0  0  0
    8.6923   -1.6549    0.0000 C   0  0  0  0  0  0  0  0  0
    8.4373   -0.8703    0.0000 C   0  0  0  0  0  0  0  0  0
    7.6123   -0.8703    0.0000 C   0  0  0  0  0  0  0  0  0
    7.0603   -0.2572    0.0000 C   0  0  0  0  0  0  0  0  0
    7.3152    0.5274    0.0000 O   0  0  0  0  0  0  0  0  0
    8.9893   -0.2572    0.0000 C   0  0  0  0  0  0  0  0  0
    9.7963   -0.4287    0.0000 C   0  0  0  0  0  0  0  0  0
   10.0513   -1.2133    0.0000 N   0  0  0  0  0  0  0  0  0
    9.4992   -1.8264    0.0000 C   0  0  0  0  0  0  0  0  0
   10.8582   -1.3848    0.0000 C   0  0  0  0  0  0  0  0  0
    1.8792    2.2937    0.0000 C   0  0  0  0  0  0  0  0  0
    1.3272    2.9068    0.0000 C   0  0  0  0  0  0  0  0  0
  1  2  1  0  0  0  0
  2  3  4  0  0  0  0
  2 32  4  0  0  0  0
  3  4  4  0  0  0  0
  4  5  1  0  0  0  0
  4  7  4  0  0  0  0
  5  6  1  0  0  0  0
  7  8  1  0  0  0  0
  7 31  4  0  0  0  0
  8  9  1  0  0  0  0
  8 13  1  0  0  0  0
  9 10  1  0  0  0  0
 10 11  1  0  0  0  0
 11 12  1  0  0  0  0
 11 14  1  0  0  0  0
 12 13  1  0  0  0  0
 14 15  1  0  0  0  0
 15 16  1  0  0  0  0
 16 17  1  0  0  0  0
 16 24  1  0  0  0  0
 17 18  2  0  0  0  0
 18 19  1  0  0  0  0
 19 20  4  0  0  0  0
 19 23  4  0  0  0  0
 20 21  4  0  0  0  0
 21 22  4  0  0  0  0
 21 29  1  0  0  0  0
 22 23  4  0  0  0  0
 22 26  1  0  0  0  0
 23 24  1  0  0  0  0
 24 25  2  0  0  0  0
 26 27  1  0  0  0  0
 27 28  1  0  0  0  0
 28 29  1  0  0  0  0
 28 30  1  0  0  0  0
 31 32  4  0  0  0  0
M  END
>  <Name_Molregno>
333593

>  <5-HT1A>
7.73

>  <5-HT1B>
8.48

$$$$
333633
  Marvin  02231216192D 0   1.00000     0.00000     0

 33 38  0  0  0  0  0  0  0  0999 V2000
   -3.7150   -5.1498    0.0000 S   0  0  0  0  0  0  0  0  0
   -2.8945   -5.2360    0.0000 C   0  0  0  0  0  0  0  0  0
   -2.5589   -4.4823    0.0000 C   0  0  0  0  0  0  0  0  0
   -3.1720   -3.9303    0.0000 C   0  0  0  0  0  0  0  0  0
   -3.8865   -4.3428    0.0000 C   0  0  0  0  0  0  0  0  0
   -4.6010   -3.9303    0.0000 N   0  0  0  0  0  0  0  0  0
   -4.6010   -3.1053    0.0000 C   0  0  0  0  0  0  0  0  0
   -3.8865   -2.6928    0.0000 N   0  0  0  0  0  0  0  0  0
   -3.8865   -1.8678    0.0000 C   0  0  0  0  0  0  0  0  0
   -4.6010   -1.4553    0.0000 C   0  0  0  0  0  0  0  0  0
   -4.6010   -0.6303    0.0000 N   0  0  0  0  0  0  0  0  0
   -5.3154   -0.2178    0.0000 C   0  0  0  0  0  0  0  0  0
   -5.3154    0.6072    0.0000 C   0  0  0  0  0  0  0  0  0
   -4.6010    1.0197    0.0000 N   0  0  0  0  0  0  0  0  0
   -3.8865    0.6072    0.0000 C   0  0  0  0  0  0  0  0  0
   -3.8865   -0.2178    0.0000 C   0  0  0  0  0  0  0  0  0
   -4.6010    1.8447    0.0000 C   0  0  0  0  0  0  0  0  0
   -3.8865    2.2572    0.0000 C   0  0  0  0  0  0  0  0  0
   -3.8865    3.0822    0.0000 C   0  0  0  0  0  0  0  0  0
   -3.1720    3.4947    0.0000 N   0  0  0  0  0  0  0  0  0
   -2.4576    3.0822    0.0000 C   0  0  0  0  0  0  0  0  0
   -2.4576    2.2572    0.0000 C   0  0  0  0  0  0  0  0  0
   -3.1720    1.8447    0.0000 C   0  0  0  0  0  0  0  0  0
   -4.6010    3.4947    0.0000 C   0  0  0  0  0  0  0  0  0
   -5.3154    3.0822    0.0000 C   0  0  0  0  0  0  0  0  0
   -5.3154    2.2572    0.0000 C   0  0  0  0  0  0  0  0  0
   -3.1720   -3.1053    0.0000 C   0  0  0  0  0  0  0  0  0
   -2.4576   -2.6928    0.0000 O   0  0  0  0  0  0  0  0  0
   -1.7385   -4.3961    0.0000 C   0  0  0  0  0  0  0  0  0
   -1.2535   -5.0635    0.0000 C   0  0  0  0  0  0  0  0  0
   -1.5891   -5.8172    0.0000 N   0  0  0  0  0  0  0  0  0
   -2.4096   -5.9034    0.0000 C   0  0  0  0  0  0  0  0  0
   -1.1042   -6.4846    0.0000 C   0  0  0  0  0  0  0  0  0
  1  2  4  0  0  0  0
  1  5  4  0  0  0  0
  2  3  4  0  0  0  0
  2 32  1  0  0  0  0
  3  4  4  0  0  0  0
  3 29  1  0  0  0  0
  4  5  4  0  0  0  0
  4 27  1  0  0  0  0
  5  6  1  0  0  0  0
  6  7  2  0  0  0  0
  7  8  1  0  0  0  0
  8  9  1  0  0  0  0
  8 27  1  0  0  0  0
  9 10  1  0  0  0  0
 10 11  1  0  0  0  0
 11 12  1  0  0  0  0
 11 16  1  0  0  0  0
 12 13  1  0  0  0  0
 13 14  1  0  0  0  0
 14 15  1  0  0  0  0
 14 17  1  0  0  0  0
 15 16  1  0  0  0  0
 17 18  4  0  0  0  0
 17 26  4  0  0  0  0
 18 19  4  0  0  0  0
 18 23  4  0  0  0  0
 19 20  4  0  0  0  0
 19 24  4  0  0  0  0
 20 21  4  0  0  0  0
 21 22  4  0  0  0  0
 22 23  4  0  0  0  0
 24 25  4  0  0  0  0
 25 26  4  0  0  0  0
 27 28  2  0  0  0  0
 29 30  1  0  0  0  0
 30 31  1  0  0  0  0
 31 32  1  0  0  0  0
 31 33  1  0  0  0  0
M  END
>  <Name_Molregno>
333633

>  <5-HT1A>
8.82

>  <5-HT1B>
8.77

$$$$
333634
  Marvin  02231216192D 0   1.00000     0.00000     0

 33 38  0  0  0  0  0  0  0  0999 V2000
   -3.7150   -5.1498    0.0000 S   0  0  0  0  0  0  0  0  0
   -2.8945   -5.2360    0.0000 C   0  0  0  0  0  0  0  0  0
   -2.5589   -4.4823    0.0000 C   0  0  0  0  0  0  0  0  0
   -3.1720   -3.9303    0.0000 C   0  0  0  0  0  0  0  0  0
   -3.8865   -4.3428    0.0000 C   0  0  0  0  0  0  0  0  0
   -4.6010   -3.9303    0.0000 N   0  0  0  0  0  0  0  0  0
   -4.6010   -3.1053    0.0000 C   0  0  0  0  0  0  0  0  0
   -3.8865   -2.6928    0.0000 N   0  0  0  0  0  0  0  0  0
   -3.8865   -1.8678    0.0000 C   0  0  0  0  0  0  0  0  0
   -4.6010   -1.4553    0.0000 C   0  0  0  0  0  0  0  0  0
   -4.6010   -0.6303    0.0000 N   0  0  0  0  0  0  0  0  0
   -5.3154   -0.2178    0.0000 C   0  0  0  0  0  0  0  0  0
   -5.3154    0.6072    0.0000 C   0  0  0  0  0  0  0  0  0
   -4.6010    1.0197    0.0000 N   0  0  0  0  0  0  0  0  0
   -3.8865    0.6072    0.0000 C   0  0  0  0  0  0  0  0  0
   -3.8865   -0.2178    0.0000 C   0  0  0  0  0  0  0  0  0
   -4.6010    1.8447    0.0000 C   0  0  0  0  0  0  0  0  0
   -3.8865    2.2572    0.0000 C   0  0  0  0  0  0  0  0  0
   -3.8865    3.0822    0.0000 C   0  0  0  0  0  0  0  0  0
   -4.6010    3.4947    0.0000 C   0  0  0  0  0  0  0  0  0
   -5.3154    3.0822    0.0000 C   0  0  0  0  0  0  0  0  0
   -5.3154    2.2572    0.0000 C   0  0  0  0  0  0  0  0  0
   -3.1720    3.4947    0.0000 C   0  0  0  0  0  0  0  0  0
   -2.4576    3.0822    0.0000 N   0  0  0  0  0  0  0  0  0
   -2.4576    2.2572    0.0000 C   0  0  0  0  0  0  0  0  0
   -3.1720    1.8447    0.0000 C   0  0  0  0  0  0  0  0  0
   -3.1720   -3.1053    0.0000 C   0  0  0  0  0  0  0  0  0
   -2.4576   -2.6928    0.0000 O   0  0  0  0  0  0  0  0  0
   -1.7385   -4.3961    0.0000 C   0  0  0  0  0  0  0  0  0
   -1.2535   -5.0635    0.0000 C   0  0  0  0  0  0  0  0  0
   -1.5891   -5.8172    0.0000 N   0  0  0  0  0  0  0  0  0
   -2.4096   -5.9034    0.0000 C   0  0  0  0  0  0  0  0  0
   -1.1042   -6.4846    0.0000 C   0  0  0  0  0  0  0  0  0
  1  2  4  0  0  0  0
  1  5  4  0  0  0  0
  2  3  4  0  0  0  0
  2 32  1  0  0  0  0
  3  4  4  0  0  0  0
  3 29  1  0  0  0  0
  4  5  4  0  0  0  0
  4 27  1  0  0  0  0
  5  6  1  0  0  0  0
  6  7  2  0  0  0  0
  7  8  1  0  0  0  0
  8  9  1  0  0  0  0
  8 27  1  0  0  0  0
  9 10  1  0  0  0  0
 10 11  1  0  0  0  0
 11 12  1  0  0  0  0
 11 16  1  0  0  0  0
 12 13  1  0  0  0  0
 13 14  1  0  0  0  0
 14 15  1  0  0  0  0
 14 17  1  0  0  0  0
 15 16  1  0  0  0  0
 17 18  4  0  0  0  0
 17 22  4  0  0  0  0
 18 19  4  0  0  0  0
 18 26  4  0  0  0  0
 19 20  4  0  0  0  0
 19 23  4  0  0  0  0
 20 21  4  0  0  0  0
 21 22  4  0  0  0  0
 23 24  4  0  0  0  0
 24 25  4  0  0  0  0
 25 26  4  0  0  0  0
 27 28  2  0  0  0  0
 29 30  1  0  0  0  0
 30 31  1  0  0  0  0
 31 32  1  0  0  0  0
 31 33  1  0  0  0  0
M  END
>  <Name_Molregno>
333634

>  <5-HT1A>
9.05

>  <5-HT1B>
9.05

$$$$
333667
  Marvin  02231216192D 0   1.00000     0.00000     0

 32 36  0  0  0  0  0  0  0  0999 V2000
    0.2725    2.8464    0.0000 Cl  0  0  0  0  0  0  0  0  0
    1.0795    3.0180    0.0000 C   0  0  0  0  0  0  0  0  0
    1.3344    3.8026    0.0000 C   0  0  0  0  0  0  0  0  0
    2.1414    3.9741    0.0000 C   0  0  0  0  0  0  0  0  0
    2.6934    3.3610    0.0000 C   0  0  0  0  0  0  0  0  0
    2.4385    2.5764    0.0000 C   0  0  0  0  0  0  0  0  0
    2.9905    1.9633    0.0000 N   0  0  0  0  0  0  0  0  0
    3.7975    2.1348    0.0000 C   0  0  0  0  0  0  0  0  0
    4.3495    1.5217    0.0000 C   0  0  0  0  0  0  0  0  0
    4.0946    0.7371    0.0000 N   0  0  0  0  0  0  0  0  0
    3.2876    0.5656    0.0000 C   0  0  0  0  0  0  0  0  0
    2.7356    1.1787    0.0000 C   0  0  0  0  0  0  0  0  0
    4.6466    0.1240    0.0000 C   0  0  0  0  0  0  0  0  0
    5.4536    0.2955    0.0000 C   0  0  0  0  0  0  0  0  0
    6.0056   -0.3175    0.0000 N   0  0  0  0  0  0  0  0  0
    5.7507   -1.1022    0.0000 C   0  0  0  0  0  0  0  0  0
    6.3027   -1.7153    0.0000 N   0  0  0  0  0  0  0  0  0
    7.1097   -1.5437    0.0000 C   0  0  0  0  0  0  0  0  0
    7.7771   -2.0287    0.0000 S   0  0  0  0  0  0  0  0  0
    8.4445   -1.5437    0.0000 C   0  0  0  0  0  0  0  0  0
    8.1896   -0.7591    0.0000 C   0  0  0  0  0  0  0  0  0
    7.3646   -0.7591    0.0000 C   0  0  0  0  0  0  0  0  0
    6.8126   -0.1460    0.0000 C   0  0  0  0  0  0  0  0  0
    7.0675    0.6386    0.0000 O   0  0  0  0  0  0  0  0  0
    8.7416   -0.1460    0.0000 C   0  0  0  0  0  0  0  0  0
    9.5486   -0.3175    0.0000 C   0  0  0  0  0  0  0  0  0
    9.8036   -1.1022    0.0000 N   0  0  0  0  0  0  0  0  0
    9.2515   -1.7153    0.0000 C   0  0  0  0  0  0  0  0  0
   10.6105   -1.2737    0.0000 C   0  0  0  0  0  0  0  0  0
    1.6315    2.4049    0.0000 C   0  0  0  0  0  0  0  0  0
    1.3766    1.6202    0.0000 O   0  0  0  0  0  0  0  0  0
    1.9286    1.0072    0.0000 C   0  0  0  0  0  0  0  0  0
  1  2  1  0  0  0  0
  2  3  4  0  0  0  0
  2 30  4  0  0  0  0
  3  4  4  0  0  0  0
  4  5  4  0  0  0  0
  5  6  4  0  0  0  0
  6  7  1  0  0  0  0
  6 30  4  0  0  0  0
  7  8  1  0  0  0  0
  7 12  1  0  0  0  0
  8  9  1  0  0  0  0
  9 10  1  0  0  0  0
 10 11  1  0  0  0  0
 10 13  1  0  0  0  0
 11 12  1  0  0  0  0
 13 14  1  0  0  0  0
 14 15  1  0  0  0  0
 15 16  1  0  0  0  0
 15 23  1  0  0  0  0
 16 17  2  0  0  0  0
 17 18  1  0  0  0  0
 18 19  4  0  0  0  0
 18 22  4  0  0  0  0
 19 20  4  0  0  0  0
 20 21  4  0  0  0  0
 20 28  1  0  0  0  0
 21 22  4  0  0  0  0
 21 25  1  0  0  0  0
 22 23  1  0  0  0  0
 23 24  2  0  0  0  0
 25 26  1  0  0  0  0
 26 27  1  0  0  0  0
 27 28  1  0  0  0  0
 27 29  1  0  0  0  0
 30 31  1  0  0  0  0
 31 32  1  0  0  0  0
M  END
>  <Name_Molregno>
333667

>  <5-HT1A>
8.6

>  <5-HT1B>
9.3

$$$$
333668
  Marvin  02231216192D 0   1.00000     0.00000     0

 33 37  0  0  0  0  0  0  0  0999 V2000
    2.4649    3.7701    0.0000 Cl  0  0  0  0  0  0  0  0  0
    2.2100    2.9855    0.0000 C   0  0  0  0  0  0  0  0  0
    2.7620    2.3724    0.0000 C   0  0  0  0  0  0  0  0  0
    2.5071    1.5878    0.0000 C   0  0  0  0  0  0  0  0  0
    3.0591    0.9747    0.0000 N   0  0  0  0  0  0  0  0  0
    3.8661    1.1462    0.0000 C   0  0  0  0  0  0  0  0  0
    4.4181    0.5331    0.0000 C   0  0  0  0  0  0  0  0  0
    4.1632   -0.2515    0.0000 N   0  0  0  0  0  0  0  0  0
    3.3562   -0.4230    0.0000 C   0  0  0  0  0  0  0  0  0
    2.8041    0.1901    0.0000 C   0  0  0  0  0  0  0  0  0
    4.7152   -0.8646    0.0000 C   0  0  0  0  0  0  0  0  0
    4.4602   -1.6492    0.0000 C   0  0  0  0  0  0  0  0  0
    5.0123   -2.2623    0.0000 N   0  0  0  0  0  0  0  0  0
    4.7573   -3.0469    0.0000 C   0  0  0  0  0  0  0  0  0
    5.3094   -3.6600    0.0000 N   0  0  0  0  0  0  0  0  0
    6.1163   -3.4885    0.0000 C   0  0  0  0  0  0  0  0  0
    6.7838   -3.9734    0.0000 S   0  0  0  0  0  0  0  0  0
    7.4512   -3.4885    0.0000 C   0  0  0  0  0  0  0  0  0
    7.1963   -2.7039    0.0000 C   0  0  0  0  0  0  0  0  0
    6.3713   -2.7039    0.0000 C   0  0  0  0  0  0  0  0  0
    5.8192   -2.0908    0.0000 C   0  0  0  0  0  0  0  0  0
    6.0742   -1.3062    0.0000 O   0  0  0  0  0  0  0  0  0
    7.7483   -2.0908    0.0000 C   0  0  0  0  0  0  0  0  0
    8.5553   -2.2623    0.0000 C   0  0  0  0  0  0  0  0  0
    8.8102   -3.0469    0.0000 N   0  0  0  0  0  0  0  0  0
    8.2582   -3.6600    0.0000 C   0  0  0  0  0  0  0  0  0
    9.6172   -3.2185    0.0000 C   0  0  0  0  0  0  0  0  0
    1.7001    1.4163    0.0000 C   0  0  0  0  0  0  0  0  0
    1.4451    0.6316    0.0000 O   0  0  0  0  0  0  0  0  0
    0.6382    0.4601    0.0000 C   0  0  0  0  0  0  0  0  0
    1.1480    2.0294    0.0000 C   0  0  0  0  0  0  0  0  0
    1.4030    2.8140    0.0000 C   0  0  0  0  0  0  0  0  0
    0.8510    3.4271    0.0000 Cl  0  0  0  0  0  0  0  0  0
  1  2  1  0  0  0  0
  2  3  4  0  0  0  0
  2 32  4  0  0  0  0
  3  4  4  0  0  0  0
  4  5  1  0  0  0  0
  4 28  4  0  0  0  0
  5  6  1  0  0  0  0
  5 10  1  0  0  0  0
  6  7  1  0  0  0  0
  7  8  1  0  0  0  0
  8  9  1  0  0  0  0
  8 11  1  0  0  0  0
  9 10  1  0  0  0  0
 11 12  1  0  0  0  0
 12 13  1  0  0  0  0
 13 14  1  0  0  0  0
 13 21  1  0  0  0  0
 14 15  2  0  0  0  0
 15 16  1  0  0  0  0
 16 17  4  0  0  0  0
 16 20  4  0  0  0  0
 17 18  4  0  0  0  0
 18 19  4  0  0  0  0
 18 26  1  0  0  0  0
 19 20  4  0  0  0  0
 19 23  1  0  0  0  0
 20 21  1  0  0  0  0
 21 22  2  0  0  0  0
 23 24  1  0  0  0  0
 24 25  1  0  0  0  0
 25 26  1  0  0  0  0
 25 27  1  0  0  0  0
 28 29  1  0  0  0  0
 28 31  4  0  0  0  0
 29 30  1  0  0  0  0
 31 32  4  0  0  0  0
 32 33  1  0  0  0  0
M  END
>  <Name_Molregno>
333668

>  <5-HT1A>
8.6

>  <5-HT1B>
8.31

$$$$
333675
  Marvin  02231216192D 0   1.00000     0.00000     0

 33 38  0  0  0  0  0  0  0  0999 V2000
   -3.7150   -5.1498    0.0000 S   0  0  0  0  0  0  0  0  0
   -2.8945   -5.2360    0.0000 C   0  0  0  0  0  0  0  0  0
   -2.5589   -4.4823    0.0000 C   0  0  0  0  0  0  0  0  0
   -3.1720   -3.9303    0.0000 C   0  0  0  0  0  0  0  0  0
   -3.8865   -4.3428    0.0000 C   0  0  0  0  0  0  0  0  0
   -4.6010   -3.9303    0.0000 N   0  0  0  0  0  0  0  0  0
   -4.6010   -3.1053    0.0000 C   0  0  0  0  0  0  0  0  0
   -3.8865   -2.6928    0.0000 N   0  0  0  0  0  0  0  0  0
   -3.8865   -1.8678    0.0000 C   0  0  0  0  0  0  0  0  0
   -4.6010   -1.4553    0.0000 C   0  0  0  0  0  0  0  0  0
   -4.6010   -0.6303    0.0000 N   0  0  0  0  0  0  0  0  0
   -5.3154   -0.2178    0.0000 C   0  0  0  0  0  0  0  0  0
   -5.3154    0.6072    0.0000 C   0  0  0  0  0  0  0  0  0
   -4.6010    1.0197    0.0000 N   0  0  0  0  0  0  0  0  0
   -3.8865    0.6072    0.0000 C   0  0  0  0  0  0  0  0  0
   -3.8865   -0.2178    0.0000 C   0  0  0  0  0  0  0  0  0
   -4.6010    1.8447    0.0000 C   0  0  0  0  0  0  0  0  0
   -3.8865    2.2572    0.0000 C   0  0  0  0  0  0  0  0  0
   -3.8865    3.0822    0.0000 C   0  0  0  0  0  0  0  0  0
   -4.6010    3.4947    0.0000 C   0  0  0  0  0  0  0  0  0
   -5.3154    3.0822    0.0000 C   0  0  0  0  0  0  0  0  0
   -5.3154    2.2572    0.0000 C   0  0  0  0  0  0  0  0  0
   -3.1720    3.4947    0.0000 C   0  0  0  0  0  0  0  0  0
   -2.4576    3.0822    0.0000 C   0  0  0  0  0  0  0  0  0
   -2.4576    2.2572    0.0000 N   0  0  0  0  0  0  0  0  0
   -3.1720    1.8447    0.0000 C   0  0  0  0  0  0  0  0  0
   -3.1720   -3.1053    0.0000 C   0  0  0  0  0  0  0  0  0
   -2.4576   -2.6928    0.0000 O   0  0  0  0  0  0  0  0  0
   -1.7385   -4.3961    0.0000 C   0  0  0  0  0  0  0  0  0
   -1.2535   -5.0635    0.0000 C   0  0  0  0  0  0  0  0  0
   -1.5891   -5.8172    0.0000 N   0  0  0  0  0  0  0  0  0
   -2.4096   -5.9034    0.0000 C   0  0  0  0  0  0  0  0  0
   -1.1042   -6.4846    0.0000 C   0  0  0  0  0  0  0  0  0
  1  2  4  0  0  0  0
  1  5  4  0  0  0  0
  2  3  4  0  0  0  0
  2 32  1  0  0  0  0
  3  4  4  0  0  0  0
  3 29  1  0  0  0  0
  4  5  4  0  0  0  0
  4 27  1  0  0  0  0
  5  6  1  0  0  0  0
  6  7  2  0  0  0  0
  7  8  1  0  0  0  0
  8  9  1  0  0  0  0
  8 27  1  0  0  0  0
  9 10  1  0  0  0  0
 10 11  1  0  0  0  0
 11 12  1  0  0  0  0
 11 16  1  0  0  0  0
 12 13  1  0  0  0  0
 13 14  1  0  0  0  0
 14 15  1  0  0  0  0
 14 17  1  0  0  0  0
 15 16  1  0  0  0  0
 17 18  4  0  0  0  0
 17 22  4  0  0  0  0
 18 19  4  0  0  0  0
 18 26  4  0  0  0  0
 19 20  4  0  0  0  0
 19 23  4  0  0  0  0
 20 21  4  0  0  0  0
 21 22  4  0  0  0  0
 23 24  4  0  0  0  0
 24 25  4  0  0  0  0
 25 26  4  0  0  0  0
 27 28  2  0  0  0  0
 29 30  1  0  0  0  0
 30 31  1  0  0  0  0
 31 32  1  0  0  0  0
 31 33  1  0  0  0  0
M  END
>  <Name_Molregno>
333675

>  <5-HT1A>
9.52

>  <5-HT1B>
10

$$$$
333676
  Marvin  02231216192D 0   1.00000     0.00000     0

 33 38  0  0  0  0  0  0  0  0999 V2000
    3.3947    2.9977    0.0000 S   0  0  0  0  0  0  0  0  0
    2.5743    3.0839    0.0000 C   0  0  0  0  0  0  0  0  0
    2.2387    2.3302    0.0000 C   0  0  0  0  0  0  0  0  0
    2.8518    1.7782    0.0000 C   0  0  0  0  0  0  0  0  0
    3.5663    2.1907    0.0000 C   0  0  0  0  0  0  0  0  0
    4.2807    1.7782    0.0000 N   0  0  0  0  0  0  0  0  0
    4.2807    0.9532    0.0000 C   0  0  0  0  0  0  0  0  0
    3.5663    0.5407    0.0000 N   0  0  0  0  0  0  0  0  0
    3.5663   -0.2843    0.0000 C   0  0  0  0  0  0  0  0  0
    4.2807   -0.6968    0.0000 C   0  0  0  0  0  0  0  0  0
    4.2807   -1.5218    0.0000 N   0  0  0  0  0  0  0  0  0
    4.9952   -1.9343    0.0000 C   0  0  0  0  0  0  0  0  0
    4.9952   -2.7593    0.0000 C   0  0  0  0  0  0  0  0  0
    4.2807   -3.1718    0.0000 N   0  0  0  0  0  0  0  0  0
    3.5663   -2.7593    0.0000 C   0  0  0  0  0  0  0  0  0
    3.5663   -1.9343    0.0000 C   0  0  0  0  0  0  0  0  0
    4.2807   -3.9968    0.0000 C   0  0  0  0  0  0  0  0  0
    4.9952   -4.4093    0.0000 C   0  0  0  0  0  0  0  0  0
    5.7097   -3.9968    0.0000 N   0  0  0  0  0  0  0  0  0
    6.4241   -4.4093    0.0000 C   0  0  0  0  0  0  0  0  0
    6.4241   -5.2343    0.0000 C   0  0  0  0  0  0  0  0  0
    5.7097   -5.6468    0.0000 C   0  0  0  0  0  0  0  0  0
    4.9952   -5.2343    0.0000 C   0  0  0  0  0  0  0  0  0
    4.2807   -5.6468    0.0000 C   0  0  0  0  0  0  0  0  0
    3.5663   -5.2343    0.0000 C   0  0  0  0  0  0  0  0  0
    3.5663   -4.4093    0.0000 C   0  0  0  0  0  0  0  0  0
    2.8518    0.9532    0.0000 C   0  0  0  0  0  0  0  0  0
    2.1373    0.5407    0.0000 O   0  0  0  0  0  0  0  0  0
    1.4182    2.2440    0.0000 C   0  0  0  0  0  0  0  0  0
    0.9333    2.9114    0.0000 C   0  0  0  0  0  0  0  0  0
    1.2689    3.6651    0.0000 N   0  0  0  0  0  0  0  0  0
    2.0893    3.7513    0.0000 C   0  0  0  0  0  0  0  0  0
    0.7839    4.3325    0.0000 C   0  0  0  0  0  0  0  0  0
  1  2  4  0  0  0  0
  1  5  4  0  0  0  0
  2  3  4  0  0  0  0
  2 32  1  0  0  0  0
  3  4  4  0  0  0  0
  3 29  1  0  0  0  0
  4  5  4  0  0  0  0
  4 27  1  0  0  0  0
  5  6  1  0  0  0  0
  6  7  2  0  0  0  0
  7  8  1  0  0  0  0
  8  9  1  0  0  0  0
  8 27  1  0  0  0  0
  9 10  1  0  0  0  0
 10 11  1  0  0  0  0
 11 12  1  0  0  0  0
 11 16  1  0  0  0  0
 12 13  1  0  0  0  0
 13 14  1  0  0  0  0
 14 15  1  0  0  0  0
 14 17  1  0  0  0  0
 15 16  1  0  0  0  0
 17 18  4  0  0  0  0
 17 26  4  0  0  0  0
 18 19  4  0  0  0  0
 18 23  4  0  0  0  0
 19 20  4  0  0  0  0
 20 21  4  0  0  0  0
 21 22  4  0  0  0  0
 22 23  4  0  0  0  0
 23 24  4  0  0  0  0
 24 25  4  0  0  0  0
 25 26  4  0  0  0  0
 27 28  2  0  0  0  0
 29 30  1  0  0  0  0
 30 31  1  0  0  0  0
 31 32  1  0  0  0  0
 31 33  1  0  0  0  0
M  END
>  <Name_Molregno>
333676

>  <5-HT1A>
9.7

>  <5-HT1B>
9.52

$$$$
333682
  Marvin  02231216192D 0   1.00000     0.00000     0

 33 38  0  0  0  0  0  0  0  0999 V2000
    3.3947    2.9977    0.0000 S   0  0  0  0  0  0  0  0  0
    2.5743    3.0839    0.0000 C   0  0  0  0  0  0  0  0  0
    2.2387    2.3302    0.0000 C   0  0  0  0  0  0  0  0  0
    2.8518    1.7782    0.0000 C   0  0  0  0  0  0  0  0  0
    3.5663    2.1907    0.0000 C   0  0  0  0  0  0  0  0  0
    4.2807    1.7782    0.0000 N   0  0  0  0  0  0  0  0  0
    4.2807    0.9532    0.0000 C   0  0  0  0  0  0  0  0  0
    3.5663    0.5407    0.0000 N   0  0  0  0  0  0  0  0  0
    3.5663   -0.2843    0.0000 C   0  0  0  0  0  0  0  0  0
    4.2807   -0.6968    0.0000 C   0  0  0  0  0  0  0  0  0
    4.2807   -1.5218    0.0000 N   0  0  0  0  0  0  0  0  0
    4.9952   -1.9343    0.0000 C   0  0  0  0  0  0  0  0  0
    4.9952   -2.7593    0.0000 C   0  0  0  0  0  0  0  0  0
    4.2807   -3.1718    0.0000 N   0  0  0  0  0  0  0  0  0
    3.5663   -2.7593    0.0000 C   0  0  0  0  0  0  0  0  0
    3.5663   -1.9343    0.0000 C   0  0  0  0  0  0  0  0  0
    4.2807   -3.9968    0.0000 C   0  0  0  0  0  0  0  0  0
    3.5663   -4.4093    0.0000 N   0  0  0  0  0  0  0  0  0
    3.5663   -5.2343    0.0000 C   0  0  0  0  0  0  0  0  0
    4.2807   -5.6468    0.0000 N   0  0  0  0  0  0  0  0  0
    4.9952   -5.2343    0.0000 C   0  0  0  0  0  0  0  0  0
    4.9952   -4.4093    0.0000 C   0  0  0  0  0  0  0  0  0
    5.7097   -3.9968    0.0000 C   0  0  0  0  0  0  0  0  0
    6.4241   -4.4093    0.0000 C   0  0  0  0  0  0  0  0  0
    6.4241   -5.2343    0.0000 C   0  0  0  0  0  0  0  0  0
    5.7097   -5.6468    0.0000 C   0  0  0  0  0  0  0  0  0
    2.8518    0.9532    0.0000 C   0  0  0  0  0  0  0  0  0
    2.1373    0.5407    0.0000 O   0  0  0  0  0  0  0  0  0
    1.4182    2.2440    0.0000 C   0  0  0  0  0  0  0  0  0
    0.9333    2.9114    0.0000 C   0  0  0  0  0  0  0  0  0
    1.2689    3.6651    0.0000 N   0  0  0  0  0  0  0  0  0
    2.0893    3.7513    0.0000 C   0  0  0  0  0  0  0  0  0
    0.7839    4.3325    0.0000 C   0  0  0  0  0  0  0  0  0
  1  2  4  0  0  0  0
  1  5  4  0  0  0  0
  2  3  4  0  0  0  0
  2 32  1  0  0  0  0
  3  4  4  0  0  0  0
  3 29  1  0  0  0  0
  4  5  4  0  0  0  0
  4 27  1  0  0  0  0
  5  6  1  0  0  0  0
  6  7  2  0  0  0  0
  7  8  1  0  0  0  0
  8  9  1  0  0  0  0
  8 27  1  0  0  0  0
  9 10  1  0  0  0  0
 10 11  1  0  0  0  0
 11 12  1  0  0  0  0
 11 16  1  0  0  0  0
 12 13  1  0  0  0  0
 13 14  1  0  0  0  0
 14 15  1  0  0  0  0
 14 17  1  0  0  0  0
 15 16  1  0  0  0  0
 17 18  4  0  0  0  0
 17 22  4  0  0  0  0
 18 19  4  0  0  0  0
 19 20  4  0  0  0  0
 20 21  4  0  0  0  0
 21 22  4  0  0  0  0
 21 26  4  0  0  0  0
 22 23  4  0  0  0  0
 23 24  4  0  0  0  0
 24 25  4  0  0  0  0
 25 26  4  0  0  0  0
 27 28  2  0  0  0  0
 29 30  1  0  0  0  0
 30 31  1  0  0  0  0
 31 32  1  0  0  0  0
 31 33  1  0  0  0  0
M  END
>  <Name_Molregno>
333682

>  <5-HT1A>
7.03

>  <5-HT1B>
6.5

$$$$
333697
  Marvin  02231216192D 0   1.00000     0.00000     0

 33 37  0  0  0  0  0  0  0  0999 V2000
    0.2384    2.6627    0.0000 Cl  0  0  0  0  0  0  0  0  0
    1.0454    2.8343    0.0000 C   0  0  0  0  0  0  0  0  0
    1.3003    3.6189    0.0000 C   0  0  0  0  0  0  0  0  0
    2.1073    3.7904    0.0000 C   0  0  0  0  0  0  0  0  0
    2.3622    4.5750    0.0000 Cl  0  0  0  0  0  0  0  0  0
    2.6593    3.1773    0.0000 C   0  0  0  0  0  0  0  0  0
    2.4044    2.3927    0.0000 C   0  0  0  0  0  0  0  0  0
    2.9564    1.7796    0.0000 N   0  0  0  0  0  0  0  0  0
    3.7634    1.9511    0.0000 C   0  0  0  0  0  0  0  0  0
    4.3154    1.3380    0.0000 C   0  0  0  0  0  0  0  0  0
    4.0605    0.5534    0.0000 N   0  0  0  0  0  0  0  0  0
    3.2535    0.3819    0.0000 C   0  0  0  0  0  0  0  0  0
    2.7015    0.9950    0.0000 C   0  0  0  0  0  0  0  0  0
    4.6125   -0.0597    0.0000 C   0  0  0  0  0  0  0  0  0
    5.4195    0.1118    0.0000 C   0  0  0  0  0  0  0  0  0
    5.9715   -0.5012    0.0000 N   0  0  0  0  0  0  0  0  0
    5.7166   -1.2859    0.0000 C   0  0  0  0  0  0  0  0  0
    6.2686   -1.8990    0.0000 N   0  0  0  0  0  0  0  0  0
    7.0756   -1.7274    0.0000 C   0  0  0  0  0  0  0  0  0
    7.7430   -2.2124    0.0000 S   0  0  0  0  0  0  0  0  0
    8.4105   -1.7274    0.0000 C   0  0  0  0  0  0  0  0  0
    8.1555   -0.9428    0.0000 C   0  0  0  0  0  0  0  0  0
    7.3305   -0.9428    0.0000 C   0  0  0  0  0  0  0  0  0
    6.7785   -0.3297    0.0000 C   0  0  0  0  0  0  0  0  0
    7.0334    0.4549    0.0000 O   0  0  0  0  0  0  0  0  0
    8.7076   -0.3297    0.0000 C   0  0  0  0  0  0  0  0  0
    9.5145   -0.5012    0.0000 C   0  0  0  0  0  0  0  0  0
    9.7695   -1.2859    0.0000 N   0  0  0  0  0  0  0  0  0
    9.2174   -1.8990    0.0000 C   0  0  0  0  0  0  0  0  0
   10.5764   -1.4574    0.0000 C   0  0  0  0  0  0  0  0  0
    1.5974    2.2212    0.0000 C   0  0  0  0  0  0  0  0  0
    1.3425    1.4365    0.0000 O   0  0  0  0  0  0  0  0  0
    1.8945    0.8235    0.0000 C   0  0  0  0  0  0  0  0  0
  1  2  1  0  0  0  0
  2  3  4  0  0  0  0
  2 31  4  0  0  0  0
  3  4  4  0  0  0  0
  4  5  1  0  0  0  0
  4  6  4  0  0  0  0
  6  7  4  0  0  0  0
  7  8  1  0  0  0  0
  7 31  4  0  0  0  0
  8  9  1  0  0  0  0
  8 13  1  0  0  0  0
  9 10  1  0  0  0  0
 10 11  1  0  0  0  0
 11 12  1  0  0  0  0
 11 14  1  0  0  0  0
 12 13  1  0  0  0  0
 14 15  1  0  0  0  0
 15 16  1  0  0  0  0
 16 17  1  0  0  0  0
 16 24  1  0  0  0  0
 17 18  2  0  0  0  0
 18 19  1  0  0  0  0
 19 20  4  0  0  0  0
 19 23  4  0  0  0  0
 20 21  4  0  0  0  0
 21 22  4  0  0  0  0
 21 29  1  0  0  0  0
 22 23  4  0  0  0  0
 22 26  1  0  0  0  0
 23 24  1  0  0  0  0
 24 25  2  0  0  0  0
 26 27  1  0  0  0  0
 27 28  1  0  0  0  0
 28 29  1  0  0  0  0
 28 30  1  0  0  0  0
 31 32  1  0  0  0  0
 32 33  1  0  0  0  0
M  END
>  <Name_Molregno>
333697

>  <5-HT1A>
7.59

>  <5-HT1B>
8.42

$$$$
333709
  Marvin  02231216192D 0   1.00000     0.00000     0

 35 40  0  0  0  0  0  0  0  0999 V2000
    3.8617   -5.0918    0.0000 S   0  0  0  0  0  0  0  0  0
    4.6822   -5.1781    0.0000 C   0  0  0  0  0  0  0  0  0
    5.0178   -4.4244    0.0000 C   0  0  0  0  0  0  0  0  0
    4.4047   -3.8723    0.0000 C   0  0  0  0  0  0  0  0  0
    3.6902   -4.2848    0.0000 C   0  0  0  0  0  0  0  0  0
    2.9757   -3.8723    0.0000 N   0  0  0  0  0  0  0  0  0
    2.9757   -3.0473    0.0000 C   0  0  0  0  0  0  0  0  0
    3.6902   -2.6348    0.0000 N   0  0  0  0  0  0  0  0  0
    3.6902   -1.8098    0.0000 C   0  0  0  0  0  0  0  0  0
    2.9757   -1.3973    0.0000 C   0  0  0  0  0  0  0  0  0
    2.9757   -0.5723    0.0000 N   0  0  0  0  0  0  0  0  0
    2.2613   -0.1598    0.0000 C   0  0  0  0  0  0  0  0  0
    2.2613    0.6652    0.0000 C   0  0  0  0  0  0  0  0  0
    2.9757    1.0777    0.0000 N   0  0  0  0  0  0  0  0  0
    3.6902    0.6652    0.0000 C   0  0  0  0  0  0  0  0  0
    3.6902   -0.1598    0.0000 C   0  0  0  0  0  0  0  0  0
    2.9757    1.9027    0.0000 C   0  0  0  0  0  0  0  0  0
    3.6902    2.3152    0.0000 C   0  0  0  0  0  0  0  0  0
    3.6902    3.1402    0.0000 C   0  0  0  0  0  0  0  0  0
    2.9757    3.5527    0.0000 C   0  0  0  0  0  0  0  0  0
    2.2613    3.1402    0.0000 C   0  0  0  0  0  0  0  0  0
    2.2613    2.3152    0.0000 C   0  0  0  0  0  0  0  0  0
    1.5468    1.9027    0.0000 O   0  0  0  0  0  0  0  0  0
    0.8323    2.3152    0.0000 C   0  0  0  0  0  0  0  0  0
    4.4047    3.5527    0.0000 C   0  0  0  0  0  0  0  0  0
    5.1191    3.1402    0.0000 C   0  0  0  0  0  0  0  0  0
    5.1191    2.3152    0.0000 C   0  0  0  0  0  0  0  0  0
    4.4047    1.9027    0.0000 C   0  0  0  0  0  0  0  0  0
    4.4047   -3.0473    0.0000 C   0  0  0  0  0  0  0  0  0
    5.1191   -2.6348    0.0000 O   0  0  0  0  0  0  0  0  0
    5.8383   -4.3381    0.0000 C   0  0  0  0  0  0  0  0  0
    6.3232   -5.0056    0.0000 C   0  0  0  0  0  0  0  0  0
    5.9876   -5.7593    0.0000 N   0  0  0  0  0  0  0  0  0
    5.1671   -5.8455    0.0000 C   0  0  0  0  0  0  0  0  0
    6.4725   -6.4267    0.0000 C   0  0  0  0  0  0  0  0  0
  1  2  4  0  0  0  0
  1  5  4  0  0  0  0
  2  3  4  0  0  0  0
  2 34  1  0  0  0  0
  3  4  4  0  0  0  0
  3 31  1  0  0  0  0
  4  5  4  0  0  0  0
  4 29  1  0  0  0  0
  5  6  1  0  0  0  0
  6  7  2  0  0  0  0
  7  8  1  0  0  0  0
  8  9  1  0  0  0  0
  8 29  1  0  0  0  0
  9 10  1  0  0  0  0
 10 11  1  0  0  0  0
 11 12  1  0  0  0  0
 11 16  1  0  0  0  0
 12 13  1  0  0  0  0
 13 14  1  0  0  0  0
 14 15  1  0  0  0  0
 14 17  1  0  0  0  0
 15 16  1  0  0  0  0
 17 18  4  0  0  0  0
 17 22  4  0  0  0  0
 18 19  4  0  0  0  0
 18 28  4  0  0  0  0
 19 20  4  0  0  0  0
 19 25  4  0  0  0  0
 20 21  4  0  0  0  0
 21 22  4  0  0  0  0
 22 23  1  0  0  0  0
 23 24  1  0  0  0  0
 25 26  4  0  0  0  0
 26 27  4  0  0  0  0
 27 28  4  0  0  0  0
 29 30  2  0  0  0  0
 31 32  1  0  0  0  0
 32 33  1  0  0  0  0
 33 34  1  0  0  0  0
 33 35  1  0  0  0  0
M  END
>  <Name_Molregno>
333709

>  <5-HT1A>
7.93

>  <5-HT1B>
8.27

$$$$
333710
  Marvin  02231216192D 0   1.00000     0.00000     0

 33 38  0  0  0  0  0  0  0  0999 V2000
    0.3733   -2.6664    0.0000 S   0  0  0  0  0  0  0  0  0
    0.7089   -3.4200    0.0000 C   0  0  0  0  0  0  0  0  0
    1.5294   -3.3338    0.0000 C   0  0  0  0  0  0  0  0  0
    1.7009   -2.5268    0.0000 C   0  0  0  0  0  0  0  0  0
    0.9864   -2.1143    0.0000 C   0  0  0  0  0  0  0  0  0
    0.9864   -1.2893    0.0000 N   0  0  0  0  0  0  0  0  0
    1.7009   -0.8768    0.0000 C   0  0  0  0  0  0  0  0  0
    2.4154   -1.2893    0.0000 N   0  0  0  0  0  0  0  0  0
    3.1299   -0.8768    0.0000 C   0  0  0  0  0  0  0  0  0
    3.1299   -0.0518    0.0000 C   0  0  0  0  0  0  0  0  0
    3.8443    0.3607    0.0000 N   0  0  0  0  0  0  0  0  0
    3.8443    1.1857    0.0000 C   0  0  0  0  0  0  0  0  0
    4.5588    1.5982    0.0000 C   0  0  0  0  0  0  0  0  0
    5.2733    1.1857    0.0000 N   0  0  0  0  0  0  0  0  0
    5.2733    0.3607    0.0000 C   0  0  0  0  0  0  0  0  0
    4.5588   -0.0518    0.0000 C   0  0  0  0  0  0  0  0  0
    5.9877    1.5982    0.0000 C   0  0  0  0  0  0  0  0  0
    6.7022    1.1857    0.0000 N   0  0  0  0  0  0  0  0  0
    7.4167    1.5982    0.0000 C   0  0  0  0  0  0  0  0  0
    7.4167    2.4232    0.0000 C   0  0  0  0  0  0  0  0  0
    6.7022    2.8357    0.0000 C   0  0  0  0  0  0  0  0  0
    5.9877    2.4232    0.0000 C   0  0  0  0  0  0  0  0  0
    8.1311    2.8357    0.0000 C   0  0  0  0  0  0  0  0  0
    8.8456    2.4232    0.0000 C   0  0  0  0  0  0  0  0  0
    8.8456    1.5982    0.0000 C   0  0  0  0  0  0  0  0  0
    8.1311    1.1857    0.0000 C   0  0  0  0  0  0  0  0  0
    2.4154   -2.1143    0.0000 C   0  0  0  0  0  0  0  0  0
    3.1299   -2.5268    0.0000 O   0  0  0  0  0  0  0  0  0
    2.0143   -4.0012    0.0000 C   0  0  0  0  0  0  0  0  0
    1.6787   -4.7549    0.0000 C   0  0  0  0  0  0  0  0  0
    0.8583   -4.8411    0.0000 N   0  0  0  0  0  0  0  0  0
    0.3733   -4.1737    0.0000 C   0  0  0  0  0  0  0  0  0
    0.5227   -5.5948    0.0000 C   0  0  0  0  0  0  0  0  0
  1  2  4  0  0  0  0
  1  5  4  0  0  0  0
  2  3  4  0  0  0  0
  2 32  1  0  0  0  0
  3  4  4  0  0  0  0
  3 29  1  0  0  0  0
  4  5  4  0  0  0  0
  4 27  1  0  0  0  0
  5  6  1  0  0  0  0
  6  7  2  0  0  0  0
  7  8  1  0  0  0  0
  8  9  1  0  0  0  0
  8 27  1  0  0  0  0
  9 10  1  0  0  0  0
 10 11  1  0  0  0  0
 11 12  1  0  0  0  0
 11 16  1  0  0  0  0
 12 13  1  0  0  0  0
 13 14  1  0  0  0  0
 14 15  1  0  0  0  0
 14 17  1  0  0  0  0
 15 16  1  0  0  0  0
 17 18  4  0  0  0  0
 17 22  4  0  0  0  0
 18 19  4  0  0  0  0
 19 20  4  0  0  0  0
 19 26  4  0  0  0  0
 20 21  4  0  0  0  0
 20 23  4  0  0  0  0
 21 22  4  0  0  0  0
 23 24  4  0  0  0  0
 24 25  4  0  0  0  0
 25 26  4  0  0  0  0
 27 28  2  0  0  0  0
 29 30  1  0  0  0  0
 30 31  1  0  0  0  0
 31 32  1  0  0  0  0
 31 33  1  0  0  0  0
M  END
>  <Name_Molregno>
333710

>  <5-HT1A>
8.04

>  <5-HT1B>
7.44

$$$$
334030
  Marvin  02231216192D 0   1.00000     0.00000     0

 35 39  0  0  0  0  0  0  0  0999 V2000
    0.1220   -0.1651    0.0000 O   0  0  0  0  0  0  0  0  0
    0.8365    0.2474    0.0000 C   0  0  0  0  0  0  0  0  0
    0.1220   -0.9901    0.0000 C   0  0  0  0  0  0  0  0  0
    0.8365   -1.4026    0.0000 C   0  0  0  0  0  0  0  0  0
    0.8365   -2.2276    0.0000 C   0  0  0  0  0  0  0  0  0
    0.1220   -2.6401    0.0000 C   0  0  0  0  0  0  0  0  0
   -0.5925   -2.2276    0.0000 C   0  0  0  0  0  0  0  0  0
   -0.5925   -1.4026    0.0000 C   0  0  0  0  0  0  0  0  0
   -1.3070   -0.9901    0.0000 N   0  0  0  0  0  0  0  0  0
   -2.0214   -1.4026    0.0000 C   0  0  0  0  0  0  0  0  0
   -2.7359   -0.9901    0.0000 C   0  0  0  0  0  0  0  0  0
   -2.7359   -0.1651    0.0000 N   0  0  0  0  0  0  0  0  0
   -2.0214    0.2474    0.0000 C   0  0  0  0  0  0  0  0  0
   -1.3070   -0.1651    0.0000 C   0  0  0  0  0  0  0  0  0
   -3.4504    0.2474    0.0000 C   0  0  0  0  0  0  0  0  0
   -4.1648   -0.1651    0.0000 C   0  0  0  0  0  0  0  0  0
   -4.8793    0.2474    0.0000 N   0  0  0  0  0  0  0  0  0
   -5.5938   -0.1651    0.0000 C   0  0  0  0  0  0  0  0  0
   -5.5938   -0.9901    0.0000 O   0  0  0  0  0  0  0  0  0
   -6.3082    0.2474    0.0000 C   0  0  0  0  0  0  0  0  0
   -7.0929   -0.0076    0.0000 C   0  0  0  0  0  0  0  0  0
   -7.5778    0.6599    0.0000 C   0  0  0  0  0  0  0  0  0
   -7.0929    1.3273    0.0000 N   0  0  0  0  0  0  0  0  0
   -6.3082    1.0724    0.0000 C   0  0  0  0  0  0  0  0  0
   -5.5938    1.4849    0.0000 N   0  0  0  0  0  0  0  0  0
   -4.8793    1.0724    0.0000 C   0  0  0  0  0  0  0  0  0
   -4.1648    1.4849    0.0000 O   0  0  0  0  0  0  0  0  0
   -8.4028    0.6599    0.0000 C   0  0  0  0  0  0  0  0  0
   -8.8153   -0.0546    0.0000 C   0  0  0  0  0  0  0  0  0
   -9.6403   -0.0546    0.0000 C   0  0  0  0  0  0  0  0  0
  -10.0528    0.6599    0.0000 C   0  0  0  0  0  0  0  0  0
  -10.8778    0.6599    0.0000 O   0  0  0  0  0  0  0  0  0
  -11.2903   -0.0546    0.0000 C   0  0  0  0  0  0  0  0  0
   -9.6403    1.3743    0.0000 C   0  0  0  0  0  0  0  0  0
   -8.8153    1.3743    0.0000 C   0  0  0  0  0  0  0  0  0
  1  2  1  0  0  0  0
  1  3  1  0  0  0  0
  3  4  4  0  0  0  0
  3  8  4  0  0  0  0
  4  5  4  0  0  0  0
  5  6  4  0  0  0  0
  6  7  4  0  0  0  0
  7  8  4  0  0  0  0
  8  9  1  0  0  0  0
  9 10  1  0  0  0  0
  9 14  1  0  0  0  0
 10 11  1  0  0  0  0
 11 12  1  0  0  0  0
 12 13  1  0  0  0  0
 12 15  1  0  0  0  0
 13 14  1  0  0  0  0
 15 16  1  0  0  0  0
 16 17  1  0  0  0  0
 17 18  1  0  0  0  0
 17 26  1  0  0  0  0
 18 19  2  0  0  0  0
 18 20  1  0  0  0  0
 20 21  4  0  0  0  0
 20 24  4  0  0  0  0
 21 22  4  0  0  0  0
 22 23  4  0  0  0  0
 22 28  1  0  0  0  0
 23 24  4  0  0  0  0
 24 25  1  0  0  0  0
 25 26  1  0  0  0  0
 26 27  2  0  0  0  0
 28 29  4  0  0  0  0
 28 35  4  0  0  0  0
 29 30  4  0  0  0  0
 30 31  4  0  0  0  0
 31 32  1  0  0  0  0
 31 34  4  0  0  0  0
 32 33  1  0  0  0  0
 34 35  4  0  0  0  0
M  STY  1   1 DAT
M  SAL   1  1  23
M  SDT   1 MRV_IMPLICIT_H                                        
M  SDD   1     0.0000    0.0000    DR    ALL  0       0  
M  SED   1 IMPL_H1
M  END
>  <Name_Molregno>
334030

>  <5-HT1A>
6.95

$$$$
334036
  Marvin  02231216192D 0   1.00000     0.00000     0

 35 39  0  0  0  0  0  0  0  0999 V2000
   -8.1915   -0.5194    0.0000 O   0  0  0  0  0  0  0  0  0
   -8.6040   -1.2338    0.0000 C   0  0  0  0  0  0  0  0  0
   -8.6040    0.1951    0.0000 C   0  0  0  0  0  0  0  0  0
   -9.4290    0.1951    0.0000 C   0  0  0  0  0  0  0  0  0
   -9.8415    0.9096    0.0000 C   0  0  0  0  0  0  0  0  0
   -9.4290    1.6241    0.0000 C   0  0  0  0  0  0  0  0  0
   -8.6040    1.6241    0.0000 C   0  0  0  0  0  0  0  0  0
   -8.1915    0.9096    0.0000 C   0  0  0  0  0  0  0  0  0
   -7.3665    0.9096    0.0000 C   0  0  0  0  0  0  0  0  0
   -6.8816    1.5770    0.0000 N   0  0  0  0  0  0  0  0  0
   -6.0970    1.3221    0.0000 C   0  0  0  0  0  0  0  0  0
   -5.3825    1.7346    0.0000 N   0  0  0  0  0  0  0  0  0
   -4.6680    1.3221    0.0000 C   0  0  0  0  0  0  0  0  0
   -3.9536    1.7346    0.0000 O   0  0  0  0  0  0  0  0  0
   -4.6680    0.4971    0.0000 N   0  0  0  0  0  0  0  0  0
   -3.9536    0.0846    0.0000 C   0  0  0  0  0  0  0  0  0
   -3.2391    0.4971    0.0000 C   0  0  0  0  0  0  0  0  0
   -2.5246    0.0846    0.0000 N   0  0  0  0  0  0  0  0  0
   -1.8102    0.4971    0.0000 C   0  0  0  0  0  0  0  0  0
   -1.0957    0.0846    0.0000 C   0  0  0  0  0  0  0  0  0
   -1.0957   -0.7404    0.0000 N   0  0  0  0  0  0  0  0  0
   -1.8102   -1.1529    0.0000 C   0  0  0  0  0  0  0  0  0
   -2.5246   -0.7404    0.0000 C   0  0  0  0  0  0  0  0  0
   -0.3812   -1.1529    0.0000 C   0  0  0  0  0  0  0  0  0
    0.3333   -0.7404    0.0000 C   0  0  0  0  0  0  0  0  0
    1.0477   -1.1529    0.0000 C   0  0  0  0  0  0  0  0  0
    1.0477   -1.9779    0.0000 C   0  0  0  0  0  0  0  0  0
    0.3333   -2.3904    0.0000 C   0  0  0  0  0  0  0  0  0
   -0.3812   -1.9779    0.0000 C   0  0  0  0  0  0  0  0  0
   -1.0957   -2.3904    0.0000 O   0  0  0  0  0  0  0  0  0
   -1.0957   -3.2154    0.0000 C   0  0  0  0  0  0  0  0  0
   -5.3825    0.0846    0.0000 C   0  0  0  0  0  0  0  0  0
   -5.3825   -0.7404    0.0000 O   0  0  0  0  0  0  0  0  0
   -6.0970    0.4971    0.0000 C   0  0  0  0  0  0  0  0  0
   -6.8816    0.2421    0.0000 C   0  0  0  0  0  0  0  0  0
  1  2  1  0  0  0  0
  1  3  1  0  0  0  0
  3  4  4  0  0  0  0
  3  8  4  0  0  0  0
  4  5  4  0  0  0  0
  5  6  4  0  0  0  0
  6  7  4  0  0  0  0
  7  8  4  0  0  0  0
  8  9  1  0  0  0  0
  9 10  4  0  0  0  0
  9 35  4  0  0  0  0
 10 11  4  0  0  0  0
 11 12  1  0  0  0  0
 11 34  4  0  0  0  0
 12 13  1  0  0  0  0
 13 14  2  0  0  0  0
 13 15  1  0  0  0  0
 15 16  1  0  0  0  0
 15 32  1  0  0  0  0
 16 17  1  0  0  0  0
 17 18  1  0  0  0  0
 18 19  1  0  0  0  0
 18 23  1  0  0  0  0
 19 20  1  0  0  0  0
 20 21  1  0  0  0  0
 21 22  1  0  0  0  0
 21 24  1  0  0  0  0
 22 23  1  0  0  0  0
 24 25  4  0  0  0  0
 24 29  4  0  0  0  0
 25 26  4  0  0  0  0
 26 27  4  0  0  0  0
 27 28  4  0  0  0  0
 28 29  4  0  0  0  0
 29 30  1  0  0  0  0
 30 31  1  0  0  0  0
 32 33  2  0  0  0  0
 32 34  1  0  0  0  0
 34 35  4  0  0  0  0
M  STY  1   1 DAT
M  SAL   1  1  10
M  SDT   1 MRV_IMPLICIT_H                                        
M  SDD   1     0.0000    0.0000    DR    ALL  0       0  
M  SED   1 IMPL_H1
M  END
>  <Name_Molregno>
334036

>  <5-HT1A>
6.8

$$$$
334092
  Marvin  02231216192D 0   1.00000     0.00000     0

 33 37  0  0  0  0  0  0  0  0999 V2000
    0.1123   -0.1041    0.0000 O   0  0  0  0  0  0  0  0  0
    0.8268    0.3084    0.0000 C   0  0  0  0  0  0  0  0  0
    0.1123   -0.9291    0.0000 C   0  0  0  0  0  0  0  0  0
    0.8268   -1.3416    0.0000 C   0  0  0  0  0  0  0  0  0
    0.8268   -2.1666    0.0000 C   0  0  0  0  0  0  0  0  0
    0.1123   -2.5791    0.0000 C   0  0  0  0  0  0  0  0  0
   -0.6022   -2.1666    0.0000 C   0  0  0  0  0  0  0  0  0
   -0.6022   -1.3416    0.0000 C   0  0  0  0  0  0  0  0  0
   -1.3167   -0.9291    0.0000 N   0  0  0  0  0  0  0  0  0
   -2.0311   -1.3416    0.0000 C   0  0  0  0  0  0  0  0  0
   -2.7456   -0.9291    0.0000 C   0  0  0  0  0  0  0  0  0
   -2.7456   -0.1041    0.0000 N   0  0  0  0  0  0  0  0  0
   -2.0311    0.3084    0.0000 C   0  0  0  0  0  0  0  0  0
   -1.3167   -0.1041    0.0000 C   0  0  0  0  0  0  0  0  0
   -3.4601    0.3084    0.0000 C   0  0  0  0  0  0  0  0  0
   -4.1745   -0.1041    0.0000 C   0  0  0  0  0  0  0  0  0
   -4.8890    0.3084    0.0000 N   0  0  0  0  0  0  0  0  0
   -5.6035   -0.1041    0.0000 C   0  0  0  0  0  0  0  0  0
   -5.6035   -0.9291    0.0000 O   0  0  0  0  0  0  0  0  0
   -6.3179    0.3084    0.0000 C   0  0  0  0  0  0  0  0  0
   -7.1026    0.0535    0.0000 C   0  0  0  0  0  0  0  0  0
   -7.5875    0.7209    0.0000 C   0  0  0  0  0  0  0  0  0
   -7.1026    1.3883    0.0000 N   0  0  0  0  0  0  0  0  0
   -6.3179    1.1334    0.0000 C   0  0  0  0  0  0  0  0  0
   -5.6035    1.5459    0.0000 N   0  0  0  0  0  0  0  0  0
   -4.8890    1.1334    0.0000 C   0  0  0  0  0  0  0  0  0
   -4.1745    1.5459    0.0000 O   0  0  0  0  0  0  0  0  0
   -8.4125    0.7209    0.0000 C   0  0  0  0  0  0  0  0  0
   -8.8250    0.0064    0.0000 C   0  0  0  0  0  0  0  0  0
   -9.6500    0.0064    0.0000 C   0  0  0  0  0  0  0  0  0
  -10.0625    0.7209    0.0000 C   0  0  0  0  0  0  0  0  0
   -9.6500    1.4354    0.0000 C   0  0  0  0  0  0  0  0  0
   -8.8250    1.4354    0.0000 C   0  0  0  0  0  0  0  0  0
  1  2  1  0  0  0  0
  1  3  1  0  0  0  0
  3  4  4  0  0  0  0
  3  8  4  0  0  0  0
  4  5  4  0  0  0  0
  5  6  4  0  0  0  0
  6  7  4  0  0  0  0
  7  8  4  0  0  0  0
  8  9  1  0  0  0  0
  9 10  1  0  0  0  0
  9 14  1  0  0  0  0
 10 11  1  0  0  0  0
 11 12  1  0  0  0  0
 12 13  1  0  0  0  0
 12 15  1  0  0  0  0
 13 14  1  0  0  0  0
 15 16  1  0  0  0  0
 16 17  1  0  0  0  0
 17 18  1  0  0  0  0
 17 26  1  0  0  0  0
 18 19  2  0  0  0  0
 18 20  1  0  0  0  0
 20 21  4  0  0  0  0
 20 24  4  0  0  0  0
 21 22  4  0  0  0  0
 22 23  4  0  0  0  0
 22 28  1  0  0  0  0
 23 24  4  0  0  0  0
 24 25  1  0  0  0  0
 25 26  1  0  0  0  0
 26 27  2  0  0  0  0
 28 29  4  0  0  0  0
 28 33  4  0  0  0  0
 29 30  4  0  0  0  0
 30 31  4  0  0  0  0
 31 32  4  0  0  0  0
 32 33  4  0  0  0  0
M  STY  1   1 DAT
M  SAL   1  1  23
M  SDT   1 MRV_IMPLICIT_H                                        
M  SDD   1     0.0000    0.0000    DR    ALL  0       0  
M  SED   1 IMPL_H1
M  END
>  <Name_Molregno>
334092

>  <5-HT1A>
6.91

$$$$
334095
  Marvin  02231216192D 0   1.00000     0.00000     0

 32 36  0  0  0  0  0  0  0  0999 V2000
    0.1162   -0.0076    0.0000 Cl  0  0  0  0  0  0  0  0  0
    0.1162   -0.8326    0.0000 C   0  0  0  0  0  0  0  0  0
    0.8307   -1.2451    0.0000 C   0  0  0  0  0  0  0  0  0
    0.8307   -2.0701    0.0000 C   0  0  0  0  0  0  0  0  0
    0.1162   -2.4826    0.0000 C   0  0  0  0  0  0  0  0  0
   -0.5983   -2.0701    0.0000 C   0  0  0  0  0  0  0  0  0
   -0.5983   -1.2451    0.0000 C   0  0  0  0  0  0  0  0  0
   -1.3127   -0.8326    0.0000 N   0  0  0  0  0  0  0  0  0
   -2.0272   -1.2451    0.0000 C   0  0  0  0  0  0  0  0  0
   -2.7417   -0.8326    0.0000 C   0  0  0  0  0  0  0  0  0
   -2.7417   -0.0076    0.0000 N   0  0  0  0  0  0  0  0  0
   -2.0272    0.4049    0.0000 C   0  0  0  0  0  0  0  0  0
   -1.3127   -0.0076    0.0000 C   0  0  0  0  0  0  0  0  0
   -3.4561    0.4049    0.0000 C   0  0  0  0  0  0  0  0  0
   -4.1706   -0.0076    0.0000 C   0  0  0  0  0  0  0  0  0
   -4.8851    0.4049    0.0000 N   0  0  0  0  0  0  0  0  0
   -5.5996   -0.0076    0.0000 C   0  0  0  0  0  0  0  0  0
   -5.5996   -0.8326    0.0000 O   0  0  0  0  0  0  0  0  0
   -6.3140    0.4049    0.0000 C   0  0  0  0  0  0  0  0  0
   -7.0986    0.1499    0.0000 C   0  0  0  0  0  0  0  0  0
   -7.5836    0.8174    0.0000 C   0  0  0  0  0  0  0  0  0
   -7.0986    1.4848    0.0000 N   0  0  0  0  0  0  0  0  0
   -6.3140    1.2299    0.0000 C   0  0  0  0  0  0  0  0  0
   -5.5996    1.6424    0.0000 N   0  0  0  0  0  0  0  0  0
   -4.8851    1.2299    0.0000 C   0  0  0  0  0  0  0  0  0
   -4.1706    1.6424    0.0000 O   0  0  0  0  0  0  0  0  0
   -8.4086    0.8174    0.0000 C   0  0  0  0  0  0  0  0  0
   -8.8211    0.1029    0.0000 C   0  0  0  0  0  0  0  0  0
   -9.6461    0.1029    0.0000 C   0  0  0  0  0  0  0  0  0
  -10.0586    0.8174    0.0000 C   0  0  0  0  0  0  0  0  0
   -9.6461    1.5319    0.0000 C   0  0  0  0  0  0  0  0  0
   -8.8211    1.5319    0.0000 C   0  0  0  0  0  0  0  0  0
  1  2  1  0  0  0  0
  2  3  4  0  0  0  0
  2  7  4  0  0  0  0
  3  4  4  0  0  0  0
  4  5  4  0  0  0  0
  5  6  4  0  0  0  0
  6  7  4  0  0  0  0
  7  8  1  0  0  0  0
  8  9  1  0  0  0  0
  8 13  1  0  0  0  0
  9 10  1  0  0  0  0
 10 11  1  0  0  0  0
 11 12  1  0  0  0  0
 11 14  1  0  0  0  0
 12 13  1  0  0  0  0
 14 15  1  0  0  0  0
 15 16  1  0  0  0  0
 16 17  1  0  0  0  0
 16 25  1  0  0  0  0
 17 18  2  0  0  0  0
 17 19  1  0  0  0  0
 19 20  4  0  0  0  0
 19 23  4  0  0  0  0
 20 21  4  0  0  0  0
 21 22  4  0  0  0  0
 21 27  1  0  0  0  0
 22 23  4  0  0  0  0
 23 24  1  0  0  0  0
 24 25  1  0  0  0  0
 25 26  2  0  0  0  0
 27 28  4  0  0  0  0
 27 32  4  0  0  0  0
 28 29  4  0  0  0  0
 29 30  4  0  0  0  0
 30 31  4  0  0  0  0
 31 32  4  0  0  0  0
M  STY  1   1 DAT
M  SAL   1  1  22
M  SDT   1 MRV_IMPLICIT_H                                        
M  SDD   1     0.0000    0.0000    DR    ALL  0       0  
M  SED   1 IMPL_H1
M  END
>  <Name_Molregno>
334095

>  <5-HT1A>
5.81

>  <DOPAMINE D1>
6.29

>  <DOPAMINE D2>
6.86

$$$$
334128
  Marvin  02231216192D 0   1.00000     0.00000     0

 34 38  0  0  0  0  0  0  0  0999 V2000
    0.1229   -0.0024    0.0000 Cl  0  0  0  0  0  0  0  0  0
    0.1229   -0.8274    0.0000 C   0  0  0  0  0  0  0  0  0
    0.8374   -1.2399    0.0000 C   0  0  0  0  0  0  0  0  0
    0.8374   -2.0649    0.0000 C   0  0  0  0  0  0  0  0  0
    0.1229   -2.4774    0.0000 C   0  0  0  0  0  0  0  0  0
   -0.5916   -2.0649    0.0000 C   0  0  0  0  0  0  0  0  0
   -0.5916   -1.2399    0.0000 C   0  0  0  0  0  0  0  0  0
   -1.3060   -0.8274    0.0000 N   0  0  0  0  0  0  0  0  0
   -2.0205   -1.2399    0.0000 C   0  0  0  0  0  0  0  0  0
   -2.7350   -0.8274    0.0000 C   0  0  0  0  0  0  0  0  0
   -2.7350   -0.0024    0.0000 N   0  0  0  0  0  0  0  0  0
   -2.0205    0.4101    0.0000 C   0  0  0  0  0  0  0  0  0
   -1.3060   -0.0024    0.0000 C   0  0  0  0  0  0  0  0  0
   -3.4495    0.4101    0.0000 C   0  0  0  0  0  0  0  0  0
   -4.1639   -0.0024    0.0000 C   0  0  0  0  0  0  0  0  0
   -4.8784    0.4101    0.0000 N   0  0  0  0  0  0  0  0  0
   -5.5929   -0.0024    0.0000 C   0  0  0  0  0  0  0  0  0
   -5.5929   -0.8274    0.0000 O   0  0  0  0  0  0  0  0  0
   -6.3073    0.4101    0.0000 C   0  0  0  0  0  0  0  0  0
   -7.0920    0.1552    0.0000 C   0  0  0  0  0  0  0  0  0
   -7.5769    0.8226    0.0000 C   0  0  0  0  0  0  0  0  0
   -7.0920    1.4900    0.0000 N   0  0  0  0  0  0  0  0  0
   -6.3073    1.2351    0.0000 C   0  0  0  0  0  0  0  0  0
   -5.5929    1.6476    0.0000 N   0  0  0  0  0  0  0  0  0
   -4.8784    1.2351    0.0000 C   0  0  0  0  0  0  0  0  0
   -4.1639    1.6476    0.0000 O   0  0  0  0  0  0  0  0  0
   -8.4019    0.8226    0.0000 C   0  0  0  0  0  0  0  0  0
   -8.8144    0.1081    0.0000 C   0  0  0  0  0  0  0  0  0
   -9.6394    0.1081    0.0000 C   0  0  0  0  0  0  0  0  0
  -10.0519    0.8226    0.0000 C   0  0  0  0  0  0  0  0  0
   -9.6394    1.5371    0.0000 C   0  0  0  0  0  0  0  0  0
   -8.8144    1.5371    0.0000 C   0  0  0  0  0  0  0  0  0
   -8.4019    2.2515    0.0000 O   0  0  0  0  0  0  0  0  0
   -8.8144    2.9660    0.0000 C   0  0  0  0  0  0  0  0  0
  1  2  1  0  0  0  0
  2  3  4  0  0  0  0
  2  7  4  0  0  0  0
  3  4  4  0  0  0  0
  4  5  4  0  0  0  0
  5  6  4  0  0  0  0
  6  7  4  0  0  0  0
  7  8  1  0  0  0  0
  8  9  1  0  0  0  0
  8 13  1  0  0  0  0
  9 10  1  0  0  0  0
 10 11  1  0  0  0  0
 11 12  1  0  0  0  0
 11 14  1  0  0  0  0
 12 13  1  0  0  0  0
 14 15  1  0  0  0  0
 15 16  1  0  0  0  0
 16 17  1  0  0  0  0
 16 25  1  0  0  0  0
 17 18  2  0  0  0  0
 17 19  1  0  0  0  0
 19 20  4  0  0  0  0
 19 23  4  0  0  0  0
 20 21  4  0  0  0  0
 21 22  4  0  0  0  0
 21 27  1  0  0  0  0
 22 23  4  0  0  0  0
 23 24  1  0  0  0  0
 24 25  1  0  0  0  0
 25 26  2  0  0  0  0
 27 28  4  0  0  0  0
 27 32  4  0  0  0  0
 28 29  4  0  0  0  0
 29 30  4  0  0  0  0
 30 31  4  0  0  0  0
 31 32  4  0  0  0  0
 32 33  1  0  0  0  0
 33 34  1  0  0  0  0
M  STY  1   1 DAT
M  SAL   1  1  22
M  SDT   1 MRV_IMPLICIT_H                                        
M  SDD   1     0.0000    0.0000    DR    ALL  0       0  
M  SED   1 IMPL_H1
M  END
>  <Name_Molregno>
334128

>  <5-HT1A>
5.99

>  <DOPAMINE D1>
5.07

>  <DOPAMINE D2>
6.44

$$$$
334129
  Marvin  02231216192D 0   1.00000     0.00000     0

 34 38  0  0  0  0  0  0  0  0999 V2000
    0.5112   -0.3718    0.0000 Cl  0  0  0  0  0  0  0  0  0
    0.0987    0.3426    0.0000 C   0  0  0  0  0  0  0  0  0
   -0.7263    0.3426    0.0000 C   0  0  0  0  0  0  0  0  0
   -1.1388    1.0571    0.0000 C   0  0  0  0  0  0  0  0  0
   -0.7263    1.7716    0.0000 C   0  0  0  0  0  0  0  0  0
    0.0987    1.7716    0.0000 C   0  0  0  0  0  0  0  0  0
    0.5112    1.0571    0.0000 C   0  0  0  0  0  0  0  0  0
    1.3362    1.0571    0.0000 C   0  0  0  0  0  0  0  0  0
    1.8211    1.7245    0.0000 N   0  0  0  0  0  0  0  0  0
    2.6057    1.4696    0.0000 C   0  0  0  0  0  0  0  0  0
    3.3202    1.8821    0.0000 N   0  0  0  0  0  0  0  0  0
    4.0347    1.4696    0.0000 C   0  0  0  0  0  0  0  0  0
    4.7491    1.8821    0.0000 O   0  0  0  0  0  0  0  0  0
    4.0347    0.6446    0.0000 N   0  0  0  0  0  0  0  0  0
    4.7491    0.2321    0.0000 C   0  0  0  0  0  0  0  0  0
    5.4636    0.6446    0.0000 C   0  0  0  0  0  0  0  0  0
    6.1781    0.2321    0.0000 N   0  0  0  0  0  0  0  0  0
    6.8925    0.6446    0.0000 C   0  0  0  0  0  0  0  0  0
    7.6070    0.2321    0.0000 C   0  0  0  0  0  0  0  0  0
    7.6070   -0.5929    0.0000 N   0  0  0  0  0  0  0  0  0
    6.8925   -1.0054    0.0000 C   0  0  0  0  0  0  0  0  0
    6.1781   -0.5929    0.0000 C   0  0  0  0  0  0  0  0  0
    8.3215   -1.0054    0.0000 C   0  0  0  0  0  0  0  0  0
    9.0360   -0.5929    0.0000 C   0  0  0  0  0  0  0  0  0
    9.7504   -1.0054    0.0000 C   0  0  0  0  0  0  0  0  0
    9.7504   -1.8304    0.0000 C   0  0  0  0  0  0  0  0  0
    9.0360   -2.2429    0.0000 C   0  0  0  0  0  0  0  0  0
    8.3215   -1.8304    0.0000 C   0  0  0  0  0  0  0  0  0
    7.6070   -2.2429    0.0000 O   0  0  0  0  0  0  0  0  0
    7.6070   -3.0679    0.0000 C   0  0  0  0  0  0  0  0  0
    3.3202    0.2321    0.0000 C   0  0  0  0  0  0  0  0  0
    3.3202   -0.5929    0.0000 O   0  0  0  0  0  0  0  0  0
    2.6057    0.6446    0.0000 C   0  0  0  0  0  0  0  0  0
    1.8211    0.3897    0.0000 C   0  0  0  0  0  0  0  0  0
  1  2  1  0  0  0  0
  2  3  4  0  0  0  0
  2  7  4  0  0  0  0
  3  4  4  0  0  0  0
  4  5  4  0  0  0  0
  5  6  4  0  0  0  0
  6  7  4  0  0  0  0
  7  8  1  0  0  0  0
  8  9  4  0  0  0  0
  8 34  4  0  0  0  0
  9 10  4  0  0  0  0
 10 11  1  0  0  0  0
 10 33  4  0  0  0  0
 11 12  1  0  0  0  0
 12 13  2  0  0  0  0
 12 14  1  0  0  0  0
 14 15  1  0  0  0  0
 14 31  1  0  0  0  0
 15 16  1  0  0  0  0
 16 17  1  0  0  0  0
 17 18  1  0  0  0  0
 17 22  1  0  0  0  0
 18 19  1  0  0  0  0
 19 20  1  0  0  0  0
 20 21  1  0  0  0  0
 20 23  1  0  0  0  0
 21 22  1  0  0  0  0
 23 24  4  0  0  0  0
 23 28  4  0  0  0  0
 24 25  4  0  0  0  0
 25 26  4  0  0  0  0
 26 27  4  0  0  0  0
 27 28  4  0  0  0  0
 28 29  1  0  0  0  0
 29 30  1  0  0  0  0
 31 32  2  0  0  0  0
 31 33  1  0  0  0  0
 33 34  4  0  0  0  0
M  STY  1   1 DAT
M  SAL   1  1   9
M  SDT   1 MRV_IMPLICIT_H                                        
M  SDD   1     0.0000    0.0000    DR    ALL  0       0  
M  SED   1 IMPL_H1
M  END
>  <Name_Molregno>
334129

>  <5-HT1A>
7.72

$$$$
334137
  Marvin  02231216192D 0   1.00000     0.00000     0

 33 37  0  0  0  0  0  0  0  0999 V2000
   -8.2411   -0.5364    0.0000 Cl  0  0  0  0  0  0  0  0  0
   -8.6536    0.1781    0.0000 C   0  0  0  0  0  0  0  0  0
   -9.4786    0.1781    0.0000 C   0  0  0  0  0  0  0  0  0
   -9.8911    0.8926    0.0000 C   0  0  0  0  0  0  0  0  0
   -9.4786    1.6070    0.0000 C   0  0  0  0  0  0  0  0  0
   -8.6536    1.6070    0.0000 C   0  0  0  0  0  0  0  0  0
   -8.2411    0.8926    0.0000 C   0  0  0  0  0  0  0  0  0
   -7.4161    0.8926    0.0000 C   0  0  0  0  0  0  0  0  0
   -6.9312    1.5600    0.0000 N   0  0  0  0  0  0  0  0  0
   -6.1466    1.3051    0.0000 C   0  0  0  0  0  0  0  0  0
   -5.4321    1.7176    0.0000 N   0  0  0  0  0  0  0  0  0
   -4.7176    1.3051    0.0000 C   0  0  0  0  0  0  0  0  0
   -4.0032    1.7176    0.0000 O   0  0  0  0  0  0  0  0  0
   -4.7176    0.4801    0.0000 N   0  0  0  0  0  0  0  0  0
   -4.0032    0.0676    0.0000 C   0  0  0  0  0  0  0  0  0
   -3.2887    0.4801    0.0000 C   0  0  0  0  0  0  0  0  0
   -2.5742    0.0676    0.0000 N   0  0  0  0  0  0  0  0  0
   -1.8598    0.4801    0.0000 C   0  0  0  0  0  0  0  0  0
   -1.1453    0.0676    0.0000 C   0  0  0  0  0  0  0  0  0
   -1.1453   -0.7574    0.0000 N   0  0  0  0  0  0  0  0  0
   -1.8598   -1.1699    0.0000 C   0  0  0  0  0  0  0  0  0
   -2.5742   -0.7574    0.0000 C   0  0  0  0  0  0  0  0  0
   -0.4308   -1.1699    0.0000 C   0  0  0  0  0  0  0  0  0
    0.2837   -0.7574    0.0000 C   0  0  0  0  0  0  0  0  0
    0.9981   -1.1699    0.0000 C   0  0  0  0  0  0  0  0  0
    0.9981   -1.9949    0.0000 C   0  0  0  0  0  0  0  0  0
    0.2837   -2.4074    0.0000 C   0  0  0  0  0  0  0  0  0
   -0.4308   -1.9949    0.0000 C   0  0  0  0  0  0  0  0  0
   -1.1453   -2.4074    0.0000 Cl  0  0  0  0  0  0  0  0  0
   -5.4321    0.0676    0.0000 C   0  0  0  0  0  0  0  0  0
   -5.4321   -0.7574    0.0000 O   0  0  0  0  0  0  0  0  0
   -6.1466    0.4801    0.0000 C   0  0  0  0  0  0  0  0  0
   -6.9312    0.2251    0.0000 C   0  0  0  0  0  0  0  0  0
  1  2  1  0  0  0  0
  2  3  4  0  0  0  0
  2  7  4  0  0  0  0
  3  4  4  0  0  0  0
  4  5  4  0  0  0  0
  5  6  4  0  0  0  0
  6  7  4  0  0  0  0
  7  8  1  0  0  0  0
  8  9  4  0  0  0  0
  8 33  4  0  0  0  0
  9 10  4  0  0  0  0
 10 11  1  0  0  0  0
 10 32  4  0  0  0  0
 11 12  1  0  0  0  0
 12 13  2  0  0  0  0
 12 14  1  0  0  0  0
 14 15  1  0  0  0  0
 14 30  1  0  0  0  0
 15 16  1  0  0  0  0
 16 17  1  0  0  0  0
 17 18  1  0  0  0  0
 17 22  1  0  0  0  0
 18 19  1  0  0  0  0
 19 20  1  0  0  0  0
 20 21  1  0  0  0  0
 20 23  1  0  0  0  0
 21 22  1  0  0  0  0
 23 24  4  0  0  0  0
 23 28  4  0  0  0  0
 24 25  4  0  0  0  0
 25 26  4  0  0  0  0
 26 27  4  0  0  0  0
 27 28  4  0  0  0  0
 28 29  1  0  0  0  0
 30 31  2  0  0  0  0
 30 32  1  0  0  0  0
 32 33  4  0  0  0  0
M  STY  1   1 DAT
M  SAL   1  1   9
M  SDT   1 MRV_IMPLICIT_H                                        
M  SDD   1     0.0000    0.0000    DR    ALL  0       0  
M  SED   1 IMPL_H1
M  END
>  <Name_Molregno>
334137

>  <5-HT1A>
7.19

>  <DOPAMINE D1>
6.25

>  <DOPAMINE D2>
6.45

$$$$
334146
  Marvin  02231216192D 0   1.00000     0.00000     0

 34 38  0  0  0  0  0  0  0  0999 V2000
    0.1161   -0.2501    0.0000 O   0  0  0  0  0  0  0  0  0
    0.8306    0.1624    0.0000 C   0  0  0  0  0  0  0  0  0
    0.1161   -1.0751    0.0000 C   0  0  0  0  0  0  0  0  0
    0.8306   -1.4876    0.0000 C   0  0  0  0  0  0  0  0  0
    0.8306   -2.3126    0.0000 C   0  0  0  0  0  0  0  0  0
    0.1161   -2.7251    0.0000 C   0  0  0  0  0  0  0  0  0
   -0.5983   -2.3126    0.0000 C   0  0  0  0  0  0  0  0  0
   -0.5983   -1.4876    0.0000 C   0  0  0  0  0  0  0  0  0
   -1.3128   -1.0751    0.0000 N   0  0  0  0  0  0  0  0  0
   -2.0273   -1.4876    0.0000 C   0  0  0  0  0  0  0  0  0
   -2.7417   -1.0751    0.0000 C   0  0  0  0  0  0  0  0  0
   -2.7417   -0.2501    0.0000 N   0  0  0  0  0  0  0  0  0
   -2.0273    0.1624    0.0000 C   0  0  0  0  0  0  0  0  0
   -1.3128   -0.2501    0.0000 C   0  0  0  0  0  0  0  0  0
   -3.4562    0.1624    0.0000 C   0  0  0  0  0  0  0  0  0
   -4.1707   -0.2501    0.0000 C   0  0  0  0  0  0  0  0  0
   -4.8852    0.1624    0.0000 N   0  0  0  0  0  0  0  0  0
   -5.5996   -0.2501    0.0000 C   0  0  0  0  0  0  0  0  0
   -5.5996   -1.0751    0.0000 O   0  0  0  0  0  0  0  0  0
   -6.3141    0.1624    0.0000 C   0  0  0  0  0  0  0  0  0
   -7.0987   -0.0925    0.0000 C   0  0  0  0  0  0  0  0  0
   -7.5836    0.5749    0.0000 C   0  0  0  0  0  0  0  0  0
   -7.0987    1.2424    0.0000 N   0  0  0  0  0  0  0  0  0
   -6.3141    0.9874    0.0000 C   0  0  0  0  0  0  0  0  0
   -5.5996    1.3999    0.0000 N   0  0  0  0  0  0  0  0  0
   -4.8852    0.9874    0.0000 C   0  0  0  0  0  0  0  0  0
   -4.1707    1.3999    0.0000 O   0  0  0  0  0  0  0  0  0
   -8.4086    0.5749    0.0000 C   0  0  0  0  0  0  0  0  0
   -8.8211   -0.1395    0.0000 C   0  0  0  0  0  0  0  0  0
   -9.6461   -0.1395    0.0000 C   0  0  0  0  0  0  0  0  0
  -10.0586    0.5749    0.0000 C   0  0  0  0  0  0  0  0  0
   -9.6461    1.2894    0.0000 C   0  0  0  0  0  0  0  0  0
   -8.8211    1.2894    0.0000 C   0  0  0  0  0  0  0  0  0
   -8.4086    2.0039    0.0000 C   0  0  0  0  0  0  0  0  0
  1  2  1  0  0  0  0
  1  3  1  0  0  0  0
  3  4  4  0  0  0  0
  3  8  4  0  0  0  0
  4  5  4  0  0  0  0
  5  6  4  0  0  0  0
  6  7  4  0  0  0  0
  7  8  4  0  0  0  0
  8  9  1  0  0  0  0
  9 10  1  0  0  0  0
  9 14  1  0  0  0  0
 10 11  1  0  0  0  0
 11 12  1  0  0  0  0
 12 13  1  0  0  0  0
 12 15  1  0  0  0  0
 13 14  1  0  0  0  0
 15 16  1  0  0  0  0
 16 17  1  0  0  0  0
 17 18  1  0  0  0  0
 17 26  1  0  0  0  0
 18 19  2  0  0  0  0
 18 20  1  0  0  0  0
 20 21  4  0  0  0  0
 20 24  4  0  0  0  0
 21 22  4  0  0  0  0
 22 23  4  0  0  0  0
 22 28  1  0  0  0  0
 23 24  4  0  0  0  0
 24 25  1  0  0  0  0
 25 26  1  0  0  0  0
 26 27  2  0  0  0  0
 28 29  4  0  0  0  0
 28 33  4  0  0  0  0
 29 30  4  0  0  0  0
 30 31  4  0  0  0  0
 31 32  4  0  0  0  0
 32 33  4  0  0  0  0
 33 34  1  0  0  0  0
M  STY  1   1 DAT
M  SAL   1  1  23
M  SDT   1 MRV_IMPLICIT_H                                        
M  SDD   1     0.0000    0.0000    DR    ALL  0       0  
M  SED   1 IMPL_H1
M  END
>  <Name_Molregno>
334146

>  <5-HT1A>
6.53

$$$$
334152
  Marvin  02231216192D 0   1.00000     0.00000     0

 33 37  0  0  0  0  0  0  0  0999 V2000
    0.1198    0.0096    0.0000 Cl  0  0  0  0  0  0  0  0  0
    0.1198   -0.8154    0.0000 C   0  0  0  0  0  0  0  0  0
    0.8343   -1.2279    0.0000 C   0  0  0  0  0  0  0  0  0
    0.8343   -2.0529    0.0000 C   0  0  0  0  0  0  0  0  0
    0.1198   -2.4654    0.0000 C   0  0  0  0  0  0  0  0  0
   -0.5946   -2.0529    0.0000 C   0  0  0  0  0  0  0  0  0
   -0.5946   -1.2279    0.0000 C   0  0  0  0  0  0  0  0  0
   -1.3091   -0.8154    0.0000 N   0  0  0  0  0  0  0  0  0
   -2.0236   -1.2279    0.0000 C   0  0  0  0  0  0  0  0  0
   -2.7380   -0.8154    0.0000 C   0  0  0  0  0  0  0  0  0
   -2.7380    0.0096    0.0000 N   0  0  0  0  0  0  0  0  0
   -2.0236    0.4221    0.0000 C   0  0  0  0  0  0  0  0  0
   -1.3091    0.0096    0.0000 C   0  0  0  0  0  0  0  0  0
   -3.4525    0.4221    0.0000 C   0  0  0  0  0  0  0  0  0
   -4.1670    0.0096    0.0000 C   0  0  0  0  0  0  0  0  0
   -4.8814    0.4221    0.0000 N   0  0  0  0  0  0  0  0  0
   -5.5959    0.0096    0.0000 C   0  0  0  0  0  0  0  0  0
   -5.5959   -0.8154    0.0000 O   0  0  0  0  0  0  0  0  0
   -6.3104    0.4221    0.0000 C   0  0  0  0  0  0  0  0  0
   -7.0950    0.1672    0.0000 C   0  0  0  0  0  0  0  0  0
   -7.5799    0.8346    0.0000 C   0  0  0  0  0  0  0  0  0
   -7.0950    1.5020    0.0000 N   0  0  0  0  0  0  0  0  0
   -6.3104    1.2471    0.0000 C   0  0  0  0  0  0  0  0  0
   -5.5959    1.6596    0.0000 N   0  0  0  0  0  0  0  0  0
   -4.8814    1.2471    0.0000 C   0  0  0  0  0  0  0  0  0
   -4.1670    1.6596    0.0000 O   0  0  0  0  0  0  0  0  0
   -8.4049    0.8346    0.0000 C   0  0  0  0  0  0  0  0  0
   -8.8174    0.1201    0.0000 C   0  0  0  0  0  0  0  0  0
   -9.6424    0.1201    0.0000 C   0  0  0  0  0  0  0  0  0
  -10.0549    0.8346    0.0000 C   0  0  0  0  0  0  0  0  0
   -9.6424    1.5491    0.0000 C   0  0  0  0  0  0  0  0  0
   -8.8174    1.5491    0.0000 C   0  0  0  0  0  0  0  0  0
   -8.4049    2.2635    0.0000 C   0  0  0  0  0  0  0  0  0
  1  2  1  0  0  0  0
  2  3  4  0  0  0  0
  2  7  4  0  0  0  0
  3  4  4  0  0  0  0
  4  5  4  0  0  0  0
  5  6  4  0  0  0  0
  6  7  4  0  0  0  0
  7  8  1  0  0  0  0
  8  9  1  0  0  0  0
  8 13  1  0  0  0  0
  9 10  1  0  0  0  0
 10 11  1  0  0  0  0
 11 12  1  0  0  0  0
 11 14  1  0  0  0  0
 12 13  1  0  0  0  0
 14 15  1  0  0  0  0
 15 16  1  0  0  0  0
 16 17  1  0  0  0  0
 16 25  1  0  0  0  0
 17 18  2  0  0  0  0
 17 19  1  0  0  0  0
 19 20  4  0  0  0  0
 19 23  4  0  0  0  0
 20 21  4  0  0  0  0
 21 22  4  0  0  0  0
 21 27  1  0  0  0  0
 22 23  4  0  0  0  0
 23 24  1  0  0  0  0
 24 25  1  0  0  0  0
 25 26  2  0  0  0  0
 27 28  4  0  0  0  0
 27 32  4  0  0  0  0
 28 29  4  0  0  0  0
 29 30  4  0  0  0  0
 30 31  4  0  0  0  0
 31 32  4  0  0  0  0
 32 33  1  0  0  0  0
M  STY  1   1 DAT
M  SAL   1  1  22
M  SDT   1 MRV_IMPLICIT_H                                        
M  SDD   1     0.0000    0.0000    DR    ALL  0       0  
M  SED   1 IMPL_H1
M  END
>  <Name_Molregno>
334152

>  <5-HT1A>
5.84

>  <DOPAMINE D1>
5.98

>  <DOPAMINE D2>
6.2

$$$$
334173
  Marvin  02231216192D 0   1.00000     0.00000     0

 34 38  0  0  0  0  0  0  0  0999 V2000
    0.1170   -0.1219    0.0000 O   0  0  0  0  0  0  0  0  0
    0.8315    0.2906    0.0000 C   0  0  0  0  0  0  0  0  0
    0.1170   -0.9469    0.0000 C   0  0  0  0  0  0  0  0  0
    0.8315   -1.3594    0.0000 C   0  0  0  0  0  0  0  0  0
    0.8315   -2.1844    0.0000 C   0  0  0  0  0  0  0  0  0
    0.1170   -2.5969    0.0000 C   0  0  0  0  0  0  0  0  0
   -0.5975   -2.1844    0.0000 C   0  0  0  0  0  0  0  0  0
   -0.5975   -1.3594    0.0000 C   0  0  0  0  0  0  0  0  0
   -1.3120   -0.9469    0.0000 N   0  0  0  0  0  0  0  0  0
   -2.0264   -1.3594    0.0000 C   0  0  0  0  0  0  0  0  0
   -2.7409   -0.9469    0.0000 C   0  0  0  0  0  0  0  0  0
   -2.7409   -0.1219    0.0000 N   0  0  0  0  0  0  0  0  0
   -2.0264    0.2906    0.0000 C   0  0  0  0  0  0  0  0  0
   -1.3120   -0.1219    0.0000 C   0  0  0  0  0  0  0  0  0
   -3.4554    0.2906    0.0000 C   0  0  0  0  0  0  0  0  0
   -4.1698   -0.1219    0.0000 C   0  0  0  0  0  0  0  0  0
   -4.8843    0.2906    0.0000 N   0  0  0  0  0  0  0  0  0
   -5.5988   -0.1219    0.0000 C   0  0  0  0  0  0  0  0  0
   -5.5988   -0.9469    0.0000 O   0  0  0  0  0  0  0  0  0
   -6.3132    0.2906    0.0000 C   0  0  0  0  0  0  0  0  0
   -7.0979    0.0357    0.0000 C   0  0  0  0  0  0  0  0  0
   -7.5828    0.7031    0.0000 C   0  0  0  0  0  0  0  0  0
   -7.0979    1.3705    0.0000 N   0  0  0  0  0  0  0  0  0
   -6.3132    1.1156    0.0000 C   0  0  0  0  0  0  0  0  0
   -5.5988    1.5281    0.0000 N   0  0  0  0  0  0  0  0  0
   -4.8843    1.1156    0.0000 C   0  0  0  0  0  0  0  0  0
   -4.1698    1.5281    0.0000 O   0  0  0  0  0  0  0  0  0
   -8.4078    0.7031    0.0000 C   0  0  0  0  0  0  0  0  0
   -8.8203   -0.0114    0.0000 C   0  0  0  0  0  0  0  0  0
   -9.6453   -0.0114    0.0000 C   0  0  0  0  0  0  0  0  0
  -10.0578    0.7031    0.0000 C   0  0  0  0  0  0  0  0  0
   -9.6453    1.4176    0.0000 C   0  0  0  0  0  0  0  0  0
   -8.8203    1.4176    0.0000 C   0  0  0  0  0  0  0  0  0
  -10.8828    0.7031    0.0000 C   0  0  0  0  0  0  0  0  0
  1  2  1  0  0  0  0
  1  3  1  0  0  0  0
  3  4  4  0  0  0  0
  3  8  4  0  0  0  0
  4  5  4  0  0  0  0
  5  6  4  0  0  0  0
  6  7  4  0  0  0  0
  7  8  4  0  0  0  0
  8  9  1  0  0  0  0
  9 10  1  0  0  0  0
  9 14  1  0  0  0  0
 10 11  1  0  0  0  0
 11 12  1  0  0  0  0
 12 13  1  0  0  0  0
 12 15  1  0  0  0  0
 13 14  1  0  0  0  0
 15 16  1  0  0  0  0
 16 17  1  0  0  0  0
 17 18  1  0  0  0  0
 17 26  1  0  0  0  0
 18 19  2  0  0  0  0
 18 20  1  0  0  0  0
 20 21  4  0  0  0  0
 20 24  4  0  0  0  0
 21 22  4  0  0  0  0
 22 23  4  0  0  0  0
 22 28  1  0  0  0  0
 23 24  4  0  0  0  0
 24 25  1  0  0  0  0
 25 26  1  0  0  0  0
 26 27  2  0  0  0  0
 28 29  4  0  0  0  0
 28 33  4  0  0  0  0
 29 30  4  0  0  0  0
 30 31  4  0  0  0  0
 31 32  4  0  0  0  0
 31 34  1  0  0  0  0
 32 33  4  0  0  0  0
M  STY  1   1 DAT
M  SAL   1  1  23
M  SDT   1 MRV_IMPLICIT_H                                        
M  SDD   1     0.0000    0.0000    DR    ALL  0       0  
M  SED   1 IMPL_H1
M  END
>  <Name_Molregno>
334173

>  <5-HT1A>
6.48

$$$$
334174
  Marvin  02231216192D 0   1.00000     0.00000     0

 33 37  0  0  0  0  0  0  0  0999 V2000
    0.1212   -0.0292    0.0000 Cl  0  0  0  0  0  0  0  0  0
    0.1212   -0.8542    0.0000 C   0  0  0  0  0  0  0  0  0
    0.8356   -1.2667    0.0000 C   0  0  0  0  0  0  0  0  0
    0.8356   -2.0917    0.0000 C   0  0  0  0  0  0  0  0  0
    0.1212   -2.5042    0.0000 C   0  0  0  0  0  0  0  0  0
   -0.5933   -2.0917    0.0000 C   0  0  0  0  0  0  0  0  0
   -0.5933   -1.2667    0.0000 C   0  0  0  0  0  0  0  0  0
   -1.3078   -0.8542    0.0000 N   0  0  0  0  0  0  0  0  0
   -2.0222   -1.2667    0.0000 C   0  0  0  0  0  0  0  0  0
   -2.7367   -0.8542    0.0000 C   0  0  0  0  0  0  0  0  0
   -2.7367   -0.0292    0.0000 N   0  0  0  0  0  0  0  0  0
   -2.0222    0.3833    0.0000 C   0  0  0  0  0  0  0  0  0
   -1.3078   -0.0292    0.0000 C   0  0  0  0  0  0  0  0  0
   -3.4512    0.3833    0.0000 C   0  0  0  0  0  0  0  0  0
   -4.1657   -0.0292    0.0000 C   0  0  0  0  0  0  0  0  0
   -4.8801    0.3833    0.0000 N   0  0  0  0  0  0  0  0  0
   -5.5946   -0.0292    0.0000 C   0  0  0  0  0  0  0  0  0
   -5.5946   -0.8542    0.0000 O   0  0  0  0  0  0  0  0  0
   -6.3091    0.3833    0.0000 C   0  0  0  0  0  0  0  0  0
   -7.0937    0.1284    0.0000 C   0  0  0  0  0  0  0  0  0
   -7.5786    0.7958    0.0000 C   0  0  0  0  0  0  0  0  0
   -7.0937    1.4633    0.0000 N   0  0  0  0  0  0  0  0  0
   -6.3091    1.2083    0.0000 C   0  0  0  0  0  0  0  0  0
   -5.5946    1.6208    0.0000 N   0  0  0  0  0  0  0  0  0
   -4.8801    1.2083    0.0000 C   0  0  0  0  0  0  0  0  0
   -4.1657    1.6208    0.0000 O   0  0  0  0  0  0  0  0  0
   -8.4036    0.7958    0.0000 C   0  0  0  0  0  0  0  0  0
   -8.8161    0.0813    0.0000 C   0  0  0  0  0  0  0  0  0
   -9.6411    0.0813    0.0000 C   0  0  0  0  0  0  0  0  0
  -10.0536    0.7958    0.0000 C   0  0  0  0  0  0  0  0  0
   -9.6411    1.5103    0.0000 C   0  0  0  0  0  0  0  0  0
   -8.8161    1.5103    0.0000 C   0  0  0  0  0  0  0  0  0
  -10.8786    0.7958    0.0000 C   0  0  0  0  0  0  0  0  0
  1  2  1  0  0  0  0
  2  3  4  0  0  0  0
  2  7  4  0  0  0  0
  3  4  4  0  0  0  0
  4  5  4  0  0  0  0
  5  6  4  0  0  0  0
  6  7  4  0  0  0  0
  7  8  1  0  0  0  0
  8  9  1  0  0  0  0
  8 13  1  0  0  0  0
  9 10  1  0  0  0  0
 10 11  1  0  0  0  0
 11 12  1  0  0  0  0
 11 14  1  0  0  0  0
 12 13  1  0  0  0  0
 14 15  1  0  0  0  0
 15 16  1  0  0  0  0
 16 17  1  0  0  0  0
 16 25  1  0  0  0  0
 17 18  2  0  0  0  0
 17 19  1  0  0  0  0
 19 20  4  0  0  0  0
 19 23  4  0  0  0  0
 20 21  4  0  0  0  0
 21 22  4  0  0  0  0
 21 27  1  0  0  0  0
 22 23  4  0  0  0  0
 23 24  1  0  0  0  0
 24 25  1  0  0  0  0
 25 26  2  0  0  0  0
 27 28  4  0  0  0  0
 27 32  4  0  0  0  0
 28 29  4  0  0  0  0
 29 30  4  0  0  0  0
 30 31  4  0  0  0  0
 30 33  1  0  0  0  0
 31 32  4  0  0  0  0
M  STY  1   1 DAT
M  SAL   1  1  22
M  SDT   1 MRV_IMPLICIT_H                                        
M  SDD   1     0.0000    0.0000    DR    ALL  0       0  
M  SED   1 IMPL_H1
M  END
>  <Name_Molregno>
334174

>  <5-HT1A>
5.74

>  <DOPAMINE D1>
6.41

>  <DOPAMINE D2>
5.76

$$$$
334198
  Marvin  02231216192D 0   1.00000     0.00000     0

 34 38  0  0  0  0  0  0  0  0999 V2000
   -0.0598    1.6356    0.0000 Cl  0  0  0  0  0  0  0  0  0
    0.7652    1.6356    0.0000 C   0  0  0  0  0  0  0  0  0
    1.1777    2.3500    0.0000 C   0  0  0  0  0  0  0  0  0
    2.0027    2.3500    0.0000 C   0  0  0  0  0  0  0  0  0
    2.4152    1.6356    0.0000 C   0  0  0  0  0  0  0  0  0
    2.0027    0.9211    0.0000 C   0  0  0  0  0  0  0  0  0
    1.1777    0.9211    0.0000 C   0  0  0  0  0  0  0  0  0
    3.2402    1.6356    0.0000 C   0  0  0  0  0  0  0  0  0
    3.7251    2.3030    0.0000 N   0  0  0  0  0  0  0  0  0
    4.5098    2.0481    0.0000 C   0  0  0  0  0  0  0  0  0
    5.2242    2.4606    0.0000 N   0  0  0  0  0  0  0  0  0
    5.9387    2.0481    0.0000 C   0  0  0  0  0  0  0  0  0
    6.6532    2.4606    0.0000 O   0  0  0  0  0  0  0  0  0
    5.9387    1.2231    0.0000 N   0  0  0  0  0  0  0  0  0
    6.6532    0.8106    0.0000 C   0  0  0  0  0  0  0  0  0
    7.3676    1.2231    0.0000 C   0  0  0  0  0  0  0  0  0
    8.0821    0.8106    0.0000 N   0  0  0  0  0  0  0  0  0
    8.7966    1.2231    0.0000 C   0  0  0  0  0  0  0  0  0
    9.5111    0.8106    0.0000 C   0  0  0  0  0  0  0  0  0
    9.5111   -0.0144    0.0000 N   0  0  0  0  0  0  0  0  0
    8.7966   -0.4269    0.0000 C   0  0  0  0  0  0  0  0  0
    8.0821   -0.0144    0.0000 C   0  0  0  0  0  0  0  0  0
   10.2255   -0.4269    0.0000 C   0  0  0  0  0  0  0  0  0
   10.9400   -0.0144    0.0000 C   0  0  0  0  0  0  0  0  0
   11.6545   -0.4269    0.0000 C   0  0  0  0  0  0  0  0  0
   11.6545   -1.2519    0.0000 C   0  0  0  0  0  0  0  0  0
   10.9400   -1.6644    0.0000 C   0  0  0  0  0  0  0  0  0
   10.2255   -1.2519    0.0000 C   0  0  0  0  0  0  0  0  0
    9.5111   -1.6644    0.0000 O   0  0  0  0  0  0  0  0  0
    9.5111   -2.4894    0.0000 C   0  0  0  0  0  0  0  0  0
    5.2242    0.8106    0.0000 C   0  0  0  0  0  0  0  0  0
    5.2242   -0.0144    0.0000 O   0  0  0  0  0  0  0  0  0
    4.5098    1.2231    0.0000 C   0  0  0  0  0  0  0  0  0
    3.7251    0.9681    0.0000 C   0  0  0  0  0  0  0  0  0
  1  2  1  0  0  0  0
  2  3  4  0  0  0  0
  2  7  4  0  0  0  0
  3  4  4  0  0  0  0
  4  5  4  0  0  0  0
  5  6  4  0  0  0  0
  5  8  1  0  0  0  0
  6  7  4  0  0  0  0
  8  9  4  0  0  0  0
  8 34  4  0  0  0  0
  9 10  4  0  0  0  0
 10 11  1  0  0  0  0
 10 33  4  0  0  0  0
 11 12  1  0  0  0  0
 12 13  2  0  0  0  0
 12 14  1  0  0  0  0
 14 15  1  0  0  0  0
 14 31  1  0  0  0  0
 15 16  1  0  0  0  0
 16 17  1  0  0  0  0
 17 18  1  0  0  0  0
 17 22  1  0  0  0  0
 18 19  1  0  0  0  0
 19 20  1  0  0  0  0
 20 21  1  0  0  0  0
 20 23  1  0  0  0  0
 21 22  1  0  0  0  0
 23 24  4  0  0  0  0
 23 28  4  0  0  0  0
 24 25  4  0  0  0  0
 25 26  4  0  0  0  0
 26 27  4  0  0  0  0
 27 28  4  0  0  0  0
 28 29  1  0  0  0  0
 29 30  1  0  0  0  0
 31 32  2  0  0  0  0
 31 33  1  0  0  0  0
 33 34  4  0  0  0  0
M  STY  1   1 DAT
M  SAL   1  1   9
M  SDT   1 MRV_IMPLICIT_H                                        
M  SDD   1     0.0000    0.0000    DR    ALL  0       0  
M  SED   1 IMPL_H1
M  END
>  <Name_Molregno>
334198

>  <5-HT1A>
6.4

$$$$
334199
  Marvin  02231216192D 0   1.00000     0.00000     0

 33 37  0  0  0  0  0  0  0  0999 V2000
    0.1212   -0.0292    0.0000 Cl  0  0  0  0  0  0  0  0  0
    0.1212   -0.8542    0.0000 C   0  0  0  0  0  0  0  0  0
    0.8356   -1.2667    0.0000 C   0  0  0  0  0  0  0  0  0
    0.8356   -2.0917    0.0000 C   0  0  0  0  0  0  0  0  0
    0.1212   -2.5042    0.0000 C   0  0  0  0  0  0  0  0  0
   -0.5933   -2.0917    0.0000 C   0  0  0  0  0  0  0  0  0
   -0.5933   -1.2667    0.0000 C   0  0  0  0  0  0  0  0  0
   -1.3078   -0.8542    0.0000 N   0  0  0  0  0  0  0  0  0
   -2.0222   -1.2667    0.0000 C   0  0  0  0  0  0  0  0  0
   -2.7367   -0.8542    0.0000 C   0  0  0  0  0  0  0  0  0
   -2.7367   -0.0292    0.0000 N   0  0  0  0  0  0  0  0  0
   -2.0222    0.3833    0.0000 C   0  0  0  0  0  0  0  0  0
   -1.3078   -0.0292    0.0000 C   0  0  0  0  0  0  0  0  0
   -3.4512    0.3833    0.0000 C   0  0  0  0  0  0  0  0  0
   -4.1657   -0.0292    0.0000 C   0  0  0  0  0  0  0  0  0
   -4.8801    0.3833    0.0000 N   0  0  0  0  0  0  0  0  0
   -5.5946   -0.0292    0.0000 C   0  0  0  0  0  0  0  0  0
   -5.5946   -0.8542    0.0000 O   0  0  0  0  0  0  0  0  0
   -6.3091    0.3833    0.0000 C   0  0  0  0  0  0  0  0  0
   -7.0937    0.1284    0.0000 C   0  0  0  0  0  0  0  0  0
   -7.5786    0.7958    0.0000 C   0  0  0  0  0  0  0  0  0
   -7.0937    1.4633    0.0000 N   0  0  0  0  0  0  0  0  0
   -6.3091    1.2083    0.0000 C   0  0  0  0  0  0  0  0  0
   -5.5946    1.6208    0.0000 N   0  0  0  0  0  0  0  0  0
   -4.8801    1.2083    0.0000 C   0  0  0  0  0  0  0  0  0
   -4.1657    1.6208    0.0000 O   0  0  0  0  0  0  0  0  0
   -8.4036    0.7958    0.0000 C   0  0  0  0  0  0  0  0  0
   -8.8161    0.0813    0.0000 C   0  0  0  0  0  0  0  0  0
   -9.6411    0.0813    0.0000 C   0  0  0  0  0  0  0  0  0
  -10.0536    0.7958    0.0000 C   0  0  0  0  0  0  0  0  0
  -10.8786    0.7958    0.0000 Cl  0  0  0  0  0  0  0  0  0
   -9.6411    1.5103    0.0000 C   0  0  0  0  0  0  0  0  0
   -8.8161    1.5103    0.0000 C   0  0  0  0  0  0  0  0  0
  1  2  1  0  0  0  0
  2  3  4  0  0  0  0
  2  7  4  0  0  0  0
  3  4  4  0  0  0  0
  4  5  4  0  0  0  0
  5  6  4  0  0  0  0
  6  7  4  0  0  0  0
  7  8  1  0  0  0  0
  8  9  1  0  0  0  0
  8 13  1  0  0  0  0
  9 10  1  0  0  0  0
 10 11  1  0  0  0  0
 11 12  1  0  0  0  0
 11 14  1  0  0  0  0
 12 13  1  0  0  0  0
 14 15  1  0  0  0  0
 15 16  1  0  0  0  0
 16 17  1  0  0  0  0
 16 25  1  0  0  0  0
 17 18  2  0  0  0  0
 17 19  1  0  0  0  0
 19 20  4  0  0  0  0
 19 23  4  0  0  0  0
 20 21  4  0  0  0  0
 21 22  4  0  0  0  0
 21 27  1  0  0  0  0
 22 23  4  0  0  0  0
 23 24  1  0  0  0  0
 24 25  1  0  0  0  0
 25 26  2  0  0  0  0
 27 28  4  0  0  0  0
 27 33  4  0  0  0  0
 28 29  4  0  0  0  0
 29 30  4  0  0  0  0
 30 31  1  0  0  0  0
 30 32  4  0  0  0  0
 32 33  4  0  0  0  0
M  STY  1   1 DAT
M  SAL   1  1  22
M  SDT   1 MRV_IMPLICIT_H                                        
M  SDD   1     0.0000    0.0000    DR    ALL  0       0  
M  SED   1 IMPL_H1
M  END
>  <Name_Molregno>
334199

>  <5-HT1A>
5.82

>  <DOPAMINE D1>
6.26

>  <DOPAMINE D2>
5.63

$$$$
334352
  Marvin  02231216192D 0   1.00000     0.00000     0

 34 38  0  0  0  0  0  0  0  0999 V2000
    0.1262    0.0189    0.0000 Cl  0  0  0  0  0  0  0  0  0
    0.1262   -0.8061    0.0000 C   0  0  0  0  0  0  0  0  0
    0.8407   -1.2186    0.0000 C   0  0  0  0  0  0  0  0  0
    0.8407   -2.0436    0.0000 C   0  0  0  0  0  0  0  0  0
    0.1262   -2.4561    0.0000 C   0  0  0  0  0  0  0  0  0
   -0.5883   -2.0436    0.0000 C   0  0  0  0  0  0  0  0  0
   -0.5883   -1.2186    0.0000 C   0  0  0  0  0  0  0  0  0
   -1.3027   -0.8061    0.0000 N   0  0  0  0  0  0  0  0  0
   -2.0172   -1.2186    0.0000 C   0  0  0  0  0  0  0  0  0
   -2.7317   -0.8061    0.0000 C   0  0  0  0  0  0  0  0  0
   -2.7317    0.0189    0.0000 N   0  0  0  0  0  0  0  0  0
   -2.0172    0.4314    0.0000 C   0  0  0  0  0  0  0  0  0
   -1.3027    0.0189    0.0000 C   0  0  0  0  0  0  0  0  0
   -3.4462    0.4314    0.0000 C   0  0  0  0  0  0  0  0  0
   -4.1606    0.0189    0.0000 C   0  0  0  0  0  0  0  0  0
   -4.8751    0.4314    0.0000 N   0  0  0  0  0  0  0  0  0
   -5.5896    0.0189    0.0000 C   0  0  0  0  0  0  0  0  0
   -5.5896   -0.8061    0.0000 O   0  0  0  0  0  0  0  0  0
   -6.3040    0.4314    0.0000 C   0  0  0  0  0  0  0  0  0
   -7.0887    0.1764    0.0000 C   0  0  0  0  0  0  0  0  0
   -7.5736    0.8439    0.0000 C   0  0  0  0  0  0  0  0  0
   -7.0887    1.5113    0.0000 N   0  0  0  0  0  0  0  0  0
   -6.3040    1.2564    0.0000 C   0  0  0  0  0  0  0  0  0
   -5.5896    1.6689    0.0000 N   0  0  0  0  0  0  0  0  0
   -4.8751    1.2564    0.0000 C   0  0  0  0  0  0  0  0  0
   -4.1606    1.6689    0.0000 O   0  0  0  0  0  0  0  0  0
   -8.3986    0.8439    0.0000 C   0  0  0  0  0  0  0  0  0
   -8.8111    0.1294    0.0000 C   0  0  0  0  0  0  0  0  0
   -9.6361    0.1294    0.0000 C   0  0  0  0  0  0  0  0  0
  -10.0486    0.8439    0.0000 C   0  0  0  0  0  0  0  0  0
  -10.8736    0.8439    0.0000 O   0  0  0  0  0  0  0  0  0
  -11.2861    0.1294    0.0000 C   0  0  0  0  0  0  0  0  0
   -9.6361    1.5584    0.0000 C   0  0  0  0  0  0  0  0  0
   -8.8111    1.5584    0.0000 C   0  0  0  0  0  0  0  0  0
  1  2  1  0  0  0  0
  2  3  4  0  0  0  0
  2  7  4  0  0  0  0
  3  4  4  0  0  0  0
  4  5  4  0  0  0  0
  5  6  4  0  0  0  0
  6  7  4  0  0  0  0
  7  8  1  0  0  0  0
  8  9  1  0  0  0  0
  8 13  1  0  0  0  0
  9 10  1  0  0  0  0
 10 11  1  0  0  0  0
 11 12  1  0  0  0  0
 11 14  1  0  0  0  0
 12 13  1  0  0  0  0
 14 15  1  0  0  0  0
 15 16  1  0  0  0  0
 16 17  1  0  0  0  0
 16 25  1  0  0  0  0
 17 18  2  0  0  0  0
 17 19  1  0  0  0  0
 19 20  4  0  0  0  0
 19 23  4  0  0  0  0
 20 21  4  0  0  0  0
 21 22  4  0  0  0  0
 21 27  1  0  0  0  0
 22 23  4  0  0  0  0
 23 24  1  0  0  0  0
 24 25  1  0  0  0  0
 25 26  2  0  0  0  0
 27 28  4  0  0  0  0
 27 34  4  0  0  0  0
 28 29  4  0  0  0  0
 29 30  4  0  0  0  0
 30 31  1  0  0  0  0
 30 33  4  0  0  0  0
 31 32  1  0  0  0  0
 33 34  4  0  0  0  0
M  STY  1   1 DAT
M  SAL   1  1  22
M  SDT   1 MRV_IMPLICIT_H                                        
M  SDD   1     0.0000    0.0000    DR    ALL  0       0  
M  SED   1 IMPL_H1
M  END
>  <Name_Molregno>
334352

>  <5-HT1A>
5.97

>  <DOPAMINE D1>
6.57

>  <DOPAMINE D2>
6.78

$$$$
335202
  Marvin  02231216192D 0   1.00000     0.00000     0

 31 34  0  0  0  0  0  0  0  0999 V2000
   -5.3316    5.4643    0.0000 O   0  0  0  0  0  0  0  0  0
   -6.0461    5.8768    0.0000 C   0  0  0  0  0  0  0  0  0
   -4.6172    5.8768    0.0000 C   0  0  0  0  0  0  0  0  0
   -3.9027    5.4643    0.0000 C   0  0  0  0  0  0  0  0  0
   -3.1882    5.8768    0.0000 C   0  0  0  0  0  0  0  0  0
   -3.1882    6.7018    0.0000 C   0  0  0  0  0  0  0  0  0
   -3.9027    7.1143    0.0000 C   0  0  0  0  0  0  0  0  0
   -4.6172    6.7018    0.0000 C   0  0  0  0  0  0  0  0  0
   -2.4737    7.1143    0.0000 C   0  0  0  0  0  0  0  0  0
   -1.7593    6.7018    0.0000 C   0  0  0  0  0  0  0  0  0
   -1.7593    5.8768    0.0000 C   0  0  0  0  0  0  0  0  0
   -2.4737    5.4643    0.0000 C   0  0  0  0  0  0  0  0  0
   -2.4737    4.6393    0.0000 N   0  0  0  0  0  0  0  0  0
   -1.7593    4.2268    0.0000 C   0  0  0  0  0  0  0  0  0
   -1.7593    3.4018    0.0000 C   0  0  0  0  0  0  0  0  0
   -2.4737    2.9893    0.0000 N   0  0  0  0  0  0  0  0  0
   -3.1882    3.4018    0.0000 C   0  0  0  0  0  0  0  0  0
   -3.1882    4.2268    0.0000 C   0  0  0  0  0  0  0  0  0
   -2.4737    2.1643    0.0000 C   0  0  0  0  0  0  0  0  0
   -1.7593    1.7518    0.0000 C   0  0  0  0  0  0  0  0  0
   -1.7593    0.9268    0.0000 C   0  0  0  0  0  0  0  0  0
   -1.0448    0.5143    0.0000 C   0  0  0  0  0  0  0  0  0
   -1.0448   -0.3107    0.0000 N   0  0  0  0  0  0  0  0  0
   -0.3303   -0.7232    0.0000 N   0  0  0  0  0  0  0  0  0
   -0.3303   -1.5482    0.0000 C   0  0  0  0  0  0  0  0  0
   -1.0448   -1.9607    0.0000 C   0  0  0  0  0  0  0  0  0
   -1.0448   -2.7857    0.0000 O   0  0  0  0  0  0  0  0  0
   -1.7593   -1.5482    0.0000 N   0  0  0  0  0  0  0  0  0
   -2.4737   -1.9607    0.0000 C   0  0  0  0  0  0  0  0  0
   -1.7593   -0.7232    0.0000 C   0  0  0  0  0  0  0  0  0
   -2.4737   -0.3107    0.0000 O   0  0  0  0  0  0  0  0  0
  1  2  1  0  0  0  0
  1  3  1  0  0  0  0
  3  4  4  0  0  0  0
  3  8  4  0  0  0  0
  4  5  4  0  0  0  0
  5  6  4  0  0  0  0
  5 12  4  0  0  0  0
  6  7  4  0  0  0  0
  6  9  4  0  0  0  0
  7  8  4  0  0  0  0
  9 10  4  0  0  0  0
 10 11  4  0  0  0  0
 11 12  4  0  0  0  0
 12 13  1  0  0  0  0
 13 14  1  0  0  0  0
 13 18  1  0  0  0  0
 14 15  1  0  0  0  0
 15 16  1  0  0  0  0
 16 17  1  0  0  0  0
 16 19  1  0  0  0  0
 17 18  1  0  0  0  0
 19 20  1  0  0  0  0
 20 21  1  0  0  0  0
 21 22  1  0  0  0  0
 22 23  1  0  0  0  0
 23 24  1  0  0  0  0
 23 30  1  0  0  0  0
 24 25  2  0  0  0  0
 25 26  1  0  0  0  0
 26 27  2  0  0  0  0
 26 28  1  0  0  0  0
 28 29  1  0  0  0  0
 28 30  1  0  0  0  0
 30 31  2  0  0  0  0
M  END
>  <Name_Molregno>
335202

>  <5-HT1A>
8.87

>  <5-HT2A>
7.38

>  <5-HT2C>
7

>  <5-HT3>
5

>  <5-HT5>
6.64

>  <5-HT6>
6.92

>  <5-HT7>
8.04

>  <Alpha-2A>
5.99

>  <Alpha-2B>
6.5

>  <Alpha-2C>
7.63

>  <Beta-1>
6.32

>  <Beta-2>
7.22

>  <DOPAMINE D1>
5.13

>  <DOPAMINE D2>
7.66

>  <DOPAMINE D3>
7.2

>  <DOPAMINE D4>
8.07

>  <DOPAMINE D5>
5

>  <Dopamine transporter>
6.39

>  <HISTAMINE H1>
6.82

>  <HISTAMINE H2>
6.52

>  <HISTAMINE H3>
5

>  <HISTAMINE H4>
5

>  <Norepinephrine transporter>
5.16

>  <Serotonin transporter>
5.21

$$$$
335730
  Marvin  02231216192D 0   1.00000     0.00000     0

 14 15  0  0  1  0  0  0  0  0999 V2000
    0.1624   -1.0405    0.0000 O   0  0  0  0  0  0  0  0  0
   -0.5521   -0.6280    0.0000 C   0  0  0  0  0  0  0  0  0
   -1.2666   -1.0405    0.0000 C   0  0  0  0  0  0  0  0  0
   -1.9811   -0.6280    0.0000 C   0  0  0  0  0  0  0  0  0
   -2.7657   -0.8829    0.0000 N   0  0  0  0  0  0  0  0  0
   -3.2506   -0.2155    0.0000 N   0  0  0  0  0  0  0  0  0
   -2.7657    0.4520    0.0000 C   0  0  0  0  0  0  0  0  0
   -1.9811    0.1970    0.0000 C   0  0  0  0  0  0  0  0  0
   -1.2666    0.6095    0.0000 C   0  0  0  0  0  0  0  0  0
   -0.5521    0.1970    0.0000 C   0  0  0  0  0  0  0  0  0
   -3.0206   -1.6675    0.0000 C   0  0  0  0  0  0  0  0  0
   -3.8276   -1.8391    0.0000 C   0  0  0  0  0  0  0  0  0
   -4.0825   -2.6237    0.0000 N   0  0  0  0  0  0  0  0  0
   -4.3796   -1.2260    0.0000 C   0  0  0  0  0  0  0  0  0
  1  2  1  0  0  0  0
  2  3  4  0  0  0  0
  2 10  4  0  0  0  0
  3  4  4  0  0  0  0
  4  5  4  0  0  0  0
  4  8  4  0  0  0  0
  5  6  4  0  0  0  0
  5 11  1  0  0  0  0
  6  7  4  0  0  0  0
  7  8  4  0  0  0  0
  8  9  4  0  0  0  0
  9 10  4  0  0  0  0
 11 12  1  0  0  0  0
 12 13  1  0  0  0  0
 12 14  1  0  0  0  0
M  END
>  <Name_Molregno>
335730

>  <5-HT1A>
6.85

>  <5-HT1B>
5

>  <5-HT1D>
5.1

>  <5-HT2A>
7.45

>  <5-HT2C>
8

>  <5-HT3>
5

>  <5-HT5>
5

>  <5-HT6>
5

>  <Alpha-1A>
4.52

>  <Alpha-1B>
4.52

>  <Alpha-2A>
5.64

>  <Alpha-2C>
5.33

>  <Norepinephrine transporter>
5

>  <Serotonin transporter>
5

$$$$
341020
  Marvin  02231216192D 0   1.00000     0.00000     0

 26 28  0  0  1  0  0  0  0  0999 V2000
   -3.7395   -1.2429    0.0000 S   0  0  0  0  0  0  0  0  0
   -3.5413   -0.4420    0.0000 O   0  0  0  0  0  0  0  0  0
   -3.9376   -2.0437    0.0000 O   0  0  0  0  0  0  0  0  0
   -2.9386   -1.4410    0.0000 C   0  0  0  0  0  0  0  0  0
   -2.1378   -1.6392    0.0000 C   0  0  0  0  0  0  0  0  0
   -1.5658   -1.0447    0.0000 C   0  0  0  0  0  0  0  0  0
   -0.7649   -1.2429    0.0000 C   0  0  0  0  0  0  0  0  0
   -0.1929   -0.6484    0.0000 N   0  0  0  0  0  0  0  0  0
   -0.4217    0.1442    0.0000 C   0  0  0  0  0  0  0  0  0
    0.1504    0.7387    0.0000 C   0  0  0  0  0  0  0  0  0
    0.9512    0.5405    0.0000 C   0  0  0  0  0  0  0  0  0
    1.1800   -0.2521    0.0000 C   0  0  0  0  0  0  0  0  0
    0.6080   -0.8466    0.0000 C   0  0  0  0  0  0  0  0  0
   -0.0785    1.5313    0.0000 C   0  0  0  0  0  0  0  0  0
   -0.8542    1.8121    0.0000 O   0  0  0  0  0  0  0  0  0
   -0.8269    2.6367    0.0000 C   0  0  0  0  0  0  0  0  0
   -0.0343    2.8655    0.0000 N   0  0  0  0  0  0  0  0  0
    0.4283    2.1824    0.0000 C   0  0  0  0  0  0  0  0  0
   -2.7405   -0.6402    0.0000 C   0  0  0  0  0  0  0  0  0
   -3.1368   -2.2419    0.0000 C   0  0  0  0  0  0  0  0  0
   -4.5403   -1.0447    0.0000 C   0  0  0  0  0  0  0  0  0
   -5.1124   -1.6392    0.0000 C   0  0  0  0  0  0  0  0  0
   -5.9132   -1.4410    0.0000 C   0  0  0  0  0  0  0  0  0
   -6.1420   -0.6484    0.0000 C   0  0  0  0  0  0  0  0  0
   -5.5700   -0.0539    0.0000 C   0  0  0  0  0  0  0  0  0
   -4.7691   -0.2521    0.0000 C   0  0  0  0  0  0  0  0  0
  1  2  2  0  0  0  0
  1  3  2  0  0  0  0
  1  4  1  0  0  0  0
  1 21  1  0  0  0  0
  4  5  1  0  0  0  0
  4 19  1  0  0  0  0
  4 20  1  0  0  0  0
  5  6  1  0  0  0  0
  6  7  1  0  0  0  0
  7  8  1  0  0  0  0
  8  9  1  0  0  0  0
  8 13  1  0  0  0  0
  9 10  1  0  0  0  0
 10 11  1  0  0  0  0
 10 14  1  0  0  0  0
 11 12  1  0  0  0  0
 12 13  1  0  0  0  0
 14 15  4  0  0  0  0
 14 18  4  0  0  0  0
 15 16  4  0  0  0  0
 16 17  4  0  0  0  0
 17 18  4  0  0  0  0
 21 22  4  0  0  0  0
 21 26  4  0  0  0  0
 22 23  4  0  0  0  0
 23 24  4  0  0  0  0
 24 25  4  0  0  0  0
 25 26  4  0  0  0  0
M  END
>  <Name_Molregno>
341020

>  <5-HT1A>
5.15

>  <5-HT1B>
5.3

>  <5-HT2A>
6

>  <5-HT7>
7.82

>  <DOPAMINE D2>
5.82

$$$$
341128
  Marvin  02231216192D 0   1.00000     0.00000     0

 27 30  0  0  1  0  0  0  0  0999 V2000
   -8.1605   -0.5339    0.0000 F   0  0  0  0  0  0  0  0  0
   -7.9056   -1.3185    0.0000 C   0  0  0  0  0  0  0  0  0
   -7.0986   -1.4900    0.0000 C   0  0  0  0  0  0  0  0  0
   -6.8437   -2.2747    0.0000 C   0  0  0  0  0  0  0  0  0
   -7.3957   -2.8878    0.0000 C   0  0  0  0  0  0  0  0  0
   -6.9832   -3.6022    0.0000 N   0  0  0  0  0  0  0  0  0
   -6.1763   -3.4307    0.0000 C   0  0  0  0  0  0  0  0  0
   -6.0900   -2.6102    0.0000 C   0  0  0  0  0  0  0  0  0
   -5.3755   -2.1977    0.0000 C   0  0  0  0  0  0  0  0  0
   -4.6611   -2.6102    0.0000 C   0  0  0  0  0  0  0  0  0
   -3.9466   -2.1977    0.0000 N   0  0  0  0  0  0  0  0  0
   -3.2321   -2.6102    0.0000 C   0  0  0  0  0  0  0  0  0
   -2.5177   -2.1977    0.0000 C   0  0  0  0  0  0  0  0  0
   -1.8032   -2.6102    0.0000 O   0  0  0  0  0  0  0  0  0
   -1.0887   -2.1977    0.0000 C   0  0  0  0  0  0  0  0  0
   -1.0887   -1.3727    0.0000 C   0  0  0  0  0  0  0  0  0
   -1.8032   -0.9602    0.0000 N   0  0  0  0  0  0  0  0  0
   -2.5177   -1.3727    0.0000 C   0  0  0  0  0  0  0  0  0
   -1.8032   -0.1352    0.0000 C   0  0  0  0  0  0  0  0  0
   -2.5177    0.2773    0.0000 C   0  0  0  0  0  0  0  0  0
   -1.0887    0.2773    0.0000 C   0  0  0  0  0  0  0  0  0
   -0.3743   -0.9602    0.0000 C   0  0  0  0  0  0  0  0  0
    0.3402   -1.3727    0.0000 C   0  0  0  0  0  0  0  0  0
    0.3402   -2.1977    0.0000 C   0  0  0  0  0  0  0  0  0
   -0.3743   -2.6102    0.0000 C   0  0  0  0  0  0  0  0  0
   -8.2027   -2.7162    0.0000 C   0  0  0  0  0  0  0  0  0
   -8.4576   -1.9316    0.0000 C   0  0  0  0  0  0  0  0  0
  1  2  1  0  0  0  0
  2  3  4  0  0  0  0
  2 27  4  0  0  0  0
  3  4  4  0  0  0  0
  4  5  4  0  0  0  0
  4  8  4  0  0  0  0
  5  6  4  0  0  0  0
  5 26  4  0  0  0  0
  6  7  4  0  0  0  0
  7  8  4  0  0  0  0
  8  9  1  0  0  0  0
  9 10  1  0  0  0  0
 10 11  1  0  0  0  0
 11 12  1  0  0  0  0
 12 13  1  0  0  0  0
 13 14  1  0  0  0  0
 13 18  1  0  0  0  0
 14 15  1  0  0  0  0
 15 16  4  0  0  0  0
 15 25  4  0  0  0  0
 16 17  1  0  0  0  0
 16 22  4  0  0  0  0
 17 18  1  0  0  0  0
 17 19  1  0  0  0  0
 19 20  1  0  0  0  0
 19 21  1  0  0  0  0
 22 23  4  0  0  0  0
 23 24  4  0  0  0  0
 24 25  4  0  0  0  0
 26 27  4  0  0  0  0
M  STY  1   1 DAT
M  SAL   1  1   6
M  SDT   1 MRV_IMPLICIT_H                                        
M  SDD   1     0.0000    0.0000    DR    ALL  0       0  
M  SED   1 IMPL_H1
M  END
>  <Name_Molregno>
341128

>  <5-HT1A>
8.55

$$$$
341129
  Marvin  02231216192D 0   1.00000     0.00000     0

 31 35  0  0  1  0  0  0  0  0999 V2000
   -8.7104    0.2273    0.0000 F   0  0  0  0  0  0  0  0  0
   -8.4554   -0.5573    0.0000 C   0  0  0  0  0  0  0  0  0
   -7.6485   -0.7288    0.0000 C   0  0  0  0  0  0  0  0  0
   -7.3935   -1.5135    0.0000 C   0  0  0  0  0  0  0  0  0
   -7.9456   -2.1266    0.0000 C   0  0  0  0  0  0  0  0  0
   -7.5331   -2.8410    0.0000 N   0  0  0  0  0  0  0  0  0
   -6.7261   -2.6695    0.0000 C   0  0  0  0  0  0  0  0  0
   -6.6399   -1.8490    0.0000 C   0  0  0  0  0  0  0  0  0
   -5.9254   -1.4365    0.0000 C   0  0  0  0  0  0  0  0  0
   -5.9254   -0.6115    0.0000 C   0  0  0  0  0  0  0  0  0
   -5.2109   -0.1990    0.0000 N   0  0  0  0  0  0  0  0  0
   -5.2109    0.6260    0.0000 C   0  0  0  0  0  0  0  0  0
   -4.4964    1.0385    0.0000 C   0  0  0  0  0  0  0  0  0
   -3.7820    0.6260    0.0000 O   0  0  0  0  0  0  0  0  0
   -3.0675    1.0385    0.0000 C   0  0  0  0  0  0  0  0  0
   -3.0675    1.8635    0.0000 C   0  0  0  0  0  0  0  0  0
   -3.7820    2.2760    0.0000 N   0  0  0  0  0  0  0  0  0
   -4.4964    1.8635    0.0000 C   0  0  0  0  0  0  0  0  0
   -3.7820    3.1010    0.0000 C   0  0  0  0  0  0  0  0  0
   -3.0675    3.5135    0.0000 C   0  0  0  0  0  0  0  0  0
   -3.0675    4.3385    0.0000 C   0  0  0  0  0  0  0  0  0
   -2.3530    4.7510    0.0000 C   0  0  0  0  0  0  0  0  0
   -1.6386    4.3385    0.0000 C   0  0  0  0  0  0  0  0  0
   -1.6386    3.5135    0.0000 C   0  0  0  0  0  0  0  0  0
   -2.3530    3.1010    0.0000 C   0  0  0  0  0  0  0  0  0
   -2.3530    2.2760    0.0000 C   0  0  0  0  0  0  0  0  0
   -1.6386    1.8635    0.0000 C   0  0  0  0  0  0  0  0  0
   -1.6386    1.0385    0.0000 C   0  0  0  0  0  0  0  0  0
   -2.3530    0.6260    0.0000 C   0  0  0  0  0  0  0  0  0
   -8.7525   -1.9550    0.0000 C   0  0  0  0  0  0  0  0  0
   -9.0075   -1.1704    0.0000 C   0  0  0  0  0  0  0  0  0
  1  2  1  0  0  0  0
  2  3  4  0  0  0  0
  2 31  4  0  0  0  0
  3  4  4  0  0  0  0
  4  5  4  0  0  0  0
  4  8  4  0  0  0  0
  5  6  4  0  0  0  0
  5 30  4  0  0  0  0
  6  7  4  0  0  0  0
  7  8  4  0  0  0  0
  8  9  1  0  0  0  0
  9 10  1  0  0  0  0
 10 11  1  0  0  0  0
 11 12  1  0  0  0  0
 12 13  1  0  0  0  0
 13 14  1  0  0  0  0
 13 18  1  0  0  0  0
 14 15  1  0  0  0  0
 15 16  4  0  0  0  0
 15 29  4  0  0  0  0
 16 17  1  0  0  0  0
 16 26  4  0  0  0  0
 17 18  1  0  0  0  0
 17 19  1  0  0  0  0
 19 20  1  0  0  0  0
 20 21  4  0  0  0  0
 20 25  4  0  0  0  0
 21 22  4  0  0  0  0
 22 23  4  0  0  0  0
 23 24  4  0  0  0  0
 24 25  4  0  0  0  0
 26 27  4  0  0  0  0
 27 28  4  0  0  0  0
 28 29  4  0  0  0  0
 30 31  4  0  0  0  0
M  STY  1   1 DAT
M  SAL   1  1   6
M  SDT   1 MRV_IMPLICIT_H                                        
M  SDD   1     0.0000    0.0000    DR    ALL  0       0  
M  SED   1 IMPL_H1
M  END
>  <Name_Molregno>
341129

>  <5-HT1A>
8.14

$$$$
341136
  Marvin  02231216192D 0   1.00000     0.00000     0

 29 33  0  0  1  0  0  0  0  0999 V2000
    0.0090   -0.4840    0.0000 O   0  0  0  0  0  0  0  0  0
   -0.2460   -1.2686    0.0000 C   0  0  0  0  0  0  0  0  0
    0.3061   -1.8817    0.0000 C   0  0  0  0  0  0  0  0  0
    1.1130   -1.7102    0.0000 N   0  0  0  0  0  0  0  0  0
    1.3680   -0.9256    0.0000 C   0  0  0  0  0  0  0  0  0
    0.8159   -0.3125    0.0000 C   0  0  0  0  0  0  0  0  0
    1.0709    0.4721    0.0000 C   0  0  0  0  0  0  0  0  0
    0.5188    1.0852    0.0000 N   0  0  0  0  0  0  0  0  0
    0.7738    1.8698    0.0000 C   0  0  0  0  0  0  0  0  0
    0.2217    2.4829    0.0000 C   0  0  0  0  0  0  0  0  0
    0.4767    3.2676    0.0000 C   0  0  0  0  0  0  0  0  0
    1.2613    3.5225    0.0000 C   0  0  0  0  0  0  0  0  0
    1.2613    4.3475    0.0000 C   0  0  0  0  0  0  0  0  0
    0.4767    4.6024    0.0000 N   0  0  0  0  0  0  0  0  0
   -0.0082    3.9350    0.0000 C   0  0  0  0  0  0  0  0  0
    1.9758    4.7600    0.0000 C   0  0  0  0  0  0  0  0  0
    2.6903    4.3475    0.0000 C   0  0  0  0  0  0  0  0  0
    2.6903    3.5225    0.0000 C   0  0  0  0  0  0  0  0  0
    1.9758    3.1100    0.0000 C   0  0  0  0  0  0  0  0  0
    1.6651   -2.3233    0.0000 C   0  0  0  0  0  0  0  0  0
    2.4720   -2.1518    0.0000 C   0  0  0  0  0  0  0  0  0
    3.0241   -2.7649    0.0000 C   0  0  0  0  0  0  0  0  0
    2.7691   -3.5495    0.0000 C   0  0  0  0  0  0  0  0  0
    1.9622   -3.7210    0.0000 C   0  0  0  0  0  0  0  0  0
    1.4101   -3.1079    0.0000 C   0  0  0  0  0  0  0  0  0
    0.0511   -2.6664    0.0000 C   0  0  0  0  0  0  0  0  0
   -0.7559   -2.8379    0.0000 C   0  0  0  0  0  0  0  0  0
   -1.3079   -2.2248    0.0000 C   0  0  0  0  0  0  0  0  0
   -1.0529   -1.4402    0.0000 C   0  0  0  0  0  0  0  0  0
  1  2  1  0  0  0  0
  1  6  1  0  0  0  0
  2  3  4  0  0  0  0
  2 29  4  0  0  0  0
  3  4  1  0  0  0  0
  3 26  4  0  0  0  0
  4  5  1  0  0  0  0
  4 20  1  0  0  0  0
  5  6  1  0  0  0  0
  6  7  1  0  0  0  0
  7  8  1  0  0  0  0
  8  9  1  0  0  0  0
  9 10  1  0  0  0  0
 10 11  1  0  0  0  0
 11 12  4  0  0  0  0
 11 15  4  0  0  0  0
 12 13  4  0  0  0  0
 12 19  4  0  0  0  0
 13 14  4  0  0  0  0
 13 16  4  0  0  0  0
 14 15  4  0  0  0  0
 16 17  4  0  0  0  0
 17 18  4  0  0  0  0
 18 19  4  0  0  0  0
 20 21  4  0  0  0  0
 20 25  4  0  0  0  0
 21 22  4  0  0  0  0
 22 23  4  0  0  0  0
 23 24  4  0  0  0  0
 24 25  4  0  0  0  0
 26 27  4  0  0  0  0
 27 28  4  0  0  0  0
 28 29  4  0  0  0  0
M  STY  1   1 DAT
M  SAL   1  1  14
M  SDT   1 MRV_IMPLICIT_H                                        
M  SDD   1     0.0000    0.0000    DR    ALL  0       0  
M  SED   1 IMPL_H1
M  END
>  <Name_Molregno>
341136

>  <5-HT1A>
7.52

$$$$
341168
  Marvin  02231216192D 0   1.00000     0.00000     0

 26 29  0  0  1  0  0  0  0  0999 V2000
    0.5752   -1.1401    0.0000 O   0  0  0  0  0  0  0  0  0
    0.3203   -1.9247    0.0000 C   0  0  0  0  0  0  0  0  0
    0.8723   -2.5378    0.0000 C   0  0  0  0  0  0  0  0  0
    1.6793   -2.3663    0.0000 N   0  0  0  0  0  0  0  0  0
    1.9342   -1.5816    0.0000 C   0  0  0  0  0  0  0  0  0
    1.3822   -0.9685    0.0000 C   0  0  0  0  0  0  0  0  0
    1.6371   -0.1839    0.0000 C   0  0  0  0  0  0  0  0  0
    1.0851    0.4292    0.0000 N   0  0  0  0  0  0  0  0  0
    1.3400    1.2138    0.0000 C   0  0  0  0  0  0  0  0  0
    0.7880    1.8269    0.0000 C   0  0  0  0  0  0  0  0  0
    1.0429    2.6115    0.0000 C   0  0  0  0  0  0  0  0  0
    1.8275    2.8664    0.0000 C   0  0  0  0  0  0  0  0  0
    1.8275    3.6914    0.0000 C   0  0  0  0  0  0  0  0  0
    1.0429    3.9464    0.0000 N   0  0  0  0  0  0  0  0  0
    0.5580    3.2789    0.0000 C   0  0  0  0  0  0  0  0  0
    2.5420    4.1039    0.0000 C   0  0  0  0  0  0  0  0  0
    3.2565    3.6914    0.0000 C   0  0  0  0  0  0  0  0  0
    3.2565    2.8664    0.0000 C   0  0  0  0  0  0  0  0  0
    2.5420    2.4539    0.0000 C   0  0  0  0  0  0  0  0  0
    2.2313   -2.9794    0.0000 C   0  0  0  0  0  0  0  0  0
    1.9764   -3.7640    0.0000 C   0  0  0  0  0  0  0  0  0
    2.5284   -4.3771    0.0000 C   0  0  0  0  0  0  0  0  0
    0.6174   -3.3224    0.0000 C   0  0  0  0  0  0  0  0  0
   -0.1896   -3.4939    0.0000 C   0  0  0  0  0  0  0  0  0
   -0.7416   -2.8808    0.0000 C   0  0  0  0  0  0  0  0  0
   -0.4867   -2.0962    0.0000 C   0  0  0  0  0  0  0  0  0
  1  2  1  0  0  0  0
  1  6  1  0  0  0  0
  2  3  4  0  0  0  0
  2 26  4  0  0  0  0
  3  4  1  0  0  0  0
  3 23  4  0  0  0  0
  4  5  1  0  0  0  0
  4 20  1  0  0  0  0
  5  6  1  0  0  0  0
  6  7  1  0  0  0  0
  7  8  1  0  0  0  0
  8  9  1  0  0  0  0
  9 10  1  0  0  0  0
 10 11  1  0  0  0  0
 11 12  4  0  0  0  0
 11 15  4  0  0  0  0
 12 13  4  0  0  0  0
 12 19  4  0  0  0  0
 13 14  4  0  0  0  0
 13 16  4  0  0  0  0
 14 15  4  0  0  0  0
 16 17  4  0  0  0  0
 17 18  4  0  0  0  0
 18 19  4  0  0  0  0
 20 21  1  0  0  0  0
 21 22  1  0  0  0  0
 23 24  4  0  0  0  0
 24 25  4  0  0  0  0
 25 26  4  0  0  0  0
M  STY  1   1 DAT
M  SAL   1  1  14
M  SDT   1 MRV_IMPLICIT_H                                        
M  SDD   1     0.0000    0.0000    DR    ALL  0       0  
M  SED   1 IMPL_H1
M  END
>  <Name_Molregno>
341168

>  <5-HT1A>
7.89

$$$$
341175
  Marvin  02231216192D 0   1.00000     0.00000     0

 27 30  0  0  1  0  0  0  0  0999 V2000
   -0.4897    0.8750    0.0000 O   0  0  0  0  0  0  0  0  0
   -1.2042    0.4625    0.0000 C   0  0  0  0  0  0  0  0  0
   -1.2042   -0.3625    0.0000 C   0  0  0  0  0  0  0  0  0
   -0.4897   -0.7750    0.0000 N   0  0  0  0  0  0  0  0  0
    0.2248   -0.3625    0.0000 C   0  0  0  0  0  0  0  0  0
    0.2248    0.4625    0.0000 C   0  0  0  0  0  0  0  0  0
    0.9393    0.8750    0.0000 C   0  0  0  0  0  0  0  0  0
    1.6537    0.4625    0.0000 N   0  0  0  0  0  0  0  0  0
    2.3682    0.8750    0.0000 C   0  0  0  0  0  0  0  0  0
    3.0827    0.4625    0.0000 C   0  0  0  0  0  0  0  0  0
    3.7971    0.8750    0.0000 C   0  0  0  0  0  0  0  0  0
    4.5116    0.4625    0.0000 C   0  0  0  0  0  0  0  0  0
    4.5979   -0.3579    0.0000 C   0  0  0  0  0  0  0  0  0
    5.4048   -0.5295    0.0000 C   0  0  0  0  0  0  0  0  0
    5.8173    0.1850    0.0000 N   0  0  0  0  0  0  0  0  0
    5.2653    0.7981    0.0000 C   0  0  0  0  0  0  0  0  0
    5.6598   -1.3141    0.0000 C   0  0  0  0  0  0  0  0  0
    5.1077   -1.9272    0.0000 C   0  0  0  0  0  0  0  0  0
    4.3008   -1.7557    0.0000 C   0  0  0  0  0  0  0  0  0
    4.0458   -0.9710    0.0000 C   0  0  0  0  0  0  0  0  0
   -0.4897   -1.6000    0.0000 C   0  0  0  0  0  0  0  0  0
    0.2248   -2.0125    0.0000 C   0  0  0  0  0  0  0  0  0
   -1.2042   -2.0125    0.0000 C   0  0  0  0  0  0  0  0  0
   -1.9186   -0.7750    0.0000 C   0  0  0  0  0  0  0  0  0
   -2.6331   -0.3625    0.0000 C   0  0  0  0  0  0  0  0  0
   -2.6331    0.4625    0.0000 C   0  0  0  0  0  0  0  0  0
   -1.9186    0.8750    0.0000 C   0  0  0  0  0  0  0  0  0
  1  2  1  0  0  0  0
  1  6  1  0  0  0  0
  2  3  4  0  0  0  0
  2 27  4  0  0  0  0
  3  4  1  0  0  0  0
  3 24  4  0  0  0  0
  4  5  1  0  0  0  0
  4 21  1  0  0  0  0
  5  6  1  0  0  0  0
  6  7  1  0  0  0  0
  7  8  1  0  0  0  0
  8  9  1  0  0  0  0
  9 10  1  0  0  0  0
 10 11  1  0  0  0  0
 11 12  1  0  0  0  0
 12 13  4  0  0  0  0
 12 16  4  0  0  0  0
 13 14  4  0  0  0  0
 13 20  4  0  0  0  0
 14 15  4  0  0  0  0
 14 17  4  0  0  0  0
 15 16  4  0  0  0  0
 17 18  4  0  0  0  0
 18 19  4  0  0  0  0
 19 20  4  0  0  0  0
 21 22  1  0  0  0  0
 21 23  1  0  0  0  0
 24 25  4  0  0  0  0
 25 26  4  0  0  0  0
 26 27  4  0  0  0  0
M  STY  1   1 DAT
M  SAL   1  1  15
M  SDT   1 MRV_IMPLICIT_H                                        
M  SDD   1     0.0000    0.0000    DR    ALL  0       0  
M  SED   1 IMPL_H1
M  END
>  <Name_Molregno>
341175

>  <5-HT1A>
7.04

$$$$
341176
  Marvin  02231216192D 0   1.00000     0.00000     0

 30 34  0  0  1  0  0  0  0  0999 V2000
   -0.0268   -0.0629    0.0000 O   0  0  0  0  0  0  0  0  0
   -0.8338   -0.2344    0.0000 C   0  0  0  0  0  0  0  0  0
   -1.0887   -1.0190    0.0000 C   0  0  0  0  0  0  0  0  0
   -0.5367   -1.6321    0.0000 N   0  0  0  0  0  0  0  0  0
    0.2703   -1.4606    0.0000 C   0  0  0  0  0  0  0  0  0
    0.5253   -0.6760    0.0000 C   0  0  0  0  0  0  0  0  0
    1.3322   -0.5044    0.0000 C   0  0  0  0  0  0  0  0  0
    1.5872    0.2802    0.0000 N   0  0  0  0  0  0  0  0  0
    2.3941    0.4517    0.0000 C   0  0  0  0  0  0  0  0  0
    2.6491    1.2363    0.0000 C   0  0  0  0  0  0  0  0  0
    3.4560    1.4079    0.0000 C   0  0  0  0  0  0  0  0  0
    3.7110    2.1925    0.0000 C   0  0  0  0  0  0  0  0  0
    4.4956    2.4474    0.0000 C   0  0  0  0  0  0  0  0  0
    4.4956    3.2724    0.0000 C   0  0  0  0  0  0  0  0  0
    3.7110    3.5274    0.0000 N   0  0  0  0  0  0  0  0  0
    3.2261    2.8599    0.0000 C   0  0  0  0  0  0  0  0  0
    5.2101    3.6849    0.0000 C   0  0  0  0  0  0  0  0  0
    5.9245    3.2724    0.0000 C   0  0  0  0  0  0  0  0  0
    5.9245    2.4474    0.0000 C   0  0  0  0  0  0  0  0  0
    5.2101    2.0349    0.0000 C   0  0  0  0  0  0  0  0  0
   -0.7916   -2.4167    0.0000 C   0  0  0  0  0  0  0  0  0
   -0.2396   -3.0298    0.0000 C   0  0  0  0  0  0  0  0  0
   -0.4945   -3.8145    0.0000 C   0  0  0  0  0  0  0  0  0
   -1.3015   -3.9860    0.0000 C   0  0  0  0  0  0  0  0  0
   -1.8535   -3.3729    0.0000 C   0  0  0  0  0  0  0  0  0
   -1.5986   -2.5883    0.0000 C   0  0  0  0  0  0  0  0  0
   -1.8957   -1.1906    0.0000 C   0  0  0  0  0  0  0  0  0
   -2.4477   -0.5775    0.0000 C   0  0  0  0  0  0  0  0  0
   -2.1928    0.2072    0.0000 C   0  0  0  0  0  0  0  0  0
   -1.3858    0.3787    0.0000 C   0  0  0  0  0  0  0  0  0
  1  2  1  0  0  0  0
  1  6  1  0  0  0  0
  2  3  4  0  0  0  0
  2 30  4  0  0  0  0
  3  4  1  0  0  0  0
  3 27  4  0  0  0  0
  4  5  1  0  0  0  0
  4 21  1  0  0  0  0
  5  6  1  0  0  0  0
  6  7  1  0  0  0  0
  7  8  1  0  0  0  0
  8  9  1  0  0  0  0
  9 10  1  0  0  0  0
 10 11  1  0  0  0  0
 11 12  1  0  0  0  0
 12 13  4  0  0  0  0
 12 16  4  0  0  0  0
 13 14  4  0  0  0  0
 13 20  4  0  0  0  0
 14 15  4  0  0  0  0
 14 17  4  0  0  0  0
 15 16  4  0  0  0  0
 17 18  4  0  0  0  0
 18 19  4  0  0  0  0
 19 20  4  0  0  0  0
 21 22  4  0  0  0  0
 21 26  4  0  0  0  0
 22 23  4  0  0  0  0
 23 24  4  0  0  0  0
 24 25  4  0  0  0  0
 25 26  4  0  0  0  0
 27 28  4  0  0  0  0
 28 29  4  0  0  0  0
 29 30  4  0  0  0  0
M  STY  1   1 DAT
M  SAL   1  1  15
M  SDT   1 MRV_IMPLICIT_H                                        
M  SDD   1     0.0000    0.0000    DR    ALL  0       0  
M  SED   1 IMPL_H1
M  END
>  <Name_Molregno>
341176

>  <5-HT1A>
7.12

$$$$
341183
  Marvin  02231216192D 0   1.00000     0.00000     0

 29 33  0  0  1  0  0  0  0  0999 V2000
   -4.6231    0.0489    0.0000 F   0  0  0  0  0  0  0  0  0
   -5.1751   -0.5642    0.0000 C   0  0  0  0  0  0  0  0  0
   -4.9202   -1.3488    0.0000 C   0  0  0  0  0  0  0  0  0
   -5.4722   -1.9619    0.0000 C   0  0  0  0  0  0  0  0  0
   -6.2792   -1.7904    0.0000 C   0  0  0  0  0  0  0  0  0
   -6.6917   -2.5049    0.0000 N   0  0  0  0  0  0  0  0  0
   -6.1396   -3.1180    0.0000 C   0  0  0  0  0  0  0  0  0
   -5.3860   -2.7824    0.0000 C   0  0  0  0  0  0  0  0  0
   -4.6715   -3.1949    0.0000 C   0  0  0  0  0  0  0  0  0
   -3.9570   -2.7824    0.0000 C   0  0  0  0  0  0  0  0  0
   -3.2426   -3.1949    0.0000 C   0  0  0  0  0  0  0  0  0
   -3.2426   -4.0199    0.0000 N   0  0  0  0  0  0  0  0  0
   -3.9570   -4.4324    0.0000 C   0  0  0  0  0  0  0  0  0
   -4.6715   -4.0199    0.0000 C   0  0  0  0  0  0  0  0  0
   -2.5281   -4.4324    0.0000 C   0  0  0  0  0  0  0  0  0
   -1.8136   -4.0199    0.0000 C   0  0  0  0  0  0  0  0  0
   -1.0991   -4.4324    0.0000 O   0  0  0  0  0  0  0  0  0
   -0.3847   -4.0199    0.0000 C   0  0  0  0  0  0  0  0  0
   -0.3847   -3.1949    0.0000 C   0  0  0  0  0  0  0  0  0
   -1.0991   -2.7824    0.0000 N   0  0  0  0  0  0  0  0  0
   -1.8136   -3.1949    0.0000 C   0  0  0  0  0  0  0  0  0
    0.3298   -2.7824    0.0000 C   0  0  0  0  0  0  0  0  0
    1.0443   -3.1949    0.0000 C   0  0  0  0  0  0  0  0  0
    1.0443   -4.0199    0.0000 C   0  0  0  0  0  0  0  0  0
    0.3298   -4.4324    0.0000 C   0  0  0  0  0  0  0  0  0
    0.3298   -5.2574    0.0000 O   0  0  0  0  0  0  0  0  0
    1.0443   -5.6699    0.0000 C   0  0  0  0  0  0  0  0  0
   -6.5341   -1.0058    0.0000 C   0  0  0  0  0  0  0  0  0
   -5.9821   -0.3927    0.0000 C   0  0  0  0  0  0  0  0  0
  1  2  1  0  0  0  0
  2  3  4  0  0  0  0
  2 29  4  0  0  0  0
  3  4  4  0  0  0  0
  4  5  4  0  0  0  0
  4  8  4  0  0  0  0
  5  6  4  0  0  0  0
  5 28  4  0  0  0  0
  6  7  4  0  0  0  0
  7  8  4  0  0  0  0
  8  9  1  0  0  0  0
  9 10  1  0  0  0  0
  9 14  2  0  0  0  0
 10 11  1  0  0  0  0
 11 12  1  0  0  0  0
 12 13  1  0  0  0  0
 12 15  1  0  0  0  0
 13 14  1  0  0  0  0
 15 16  1  0  0  0  0
 16 17  1  0  0  0  0
 16 21  1  0  0  0  0
 17 18  1  0  0  0  0
 18 19  4  0  0  0  0
 18 25  4  0  0  0  0
 19 20  1  0  0  0  0
 19 22  4  0  0  0  0
 20 21  1  0  0  0  0
 22 23  4  0  0  0  0
 23 24  4  0  0  0  0
 24 25  4  0  0  0  0
 25 26  1  0  0  0  0
 26 27  1  0  0  0  0
 28 29  4  0  0  0  0
M  STY  1   1 DAT
M  SAL   1  1   6
M  SDT   1 MRV_IMPLICIT_H                                        
M  SDD   1     0.0000    0.0000    DR    ALL  0       0  
M  SED   1 IMPL_H1
M  END
>  <Name_Molregno>
341183

>  <5-HT1A>
6.81

$$$$
341184
  Marvin  02231216192D 0   1.00000     0.00000     0

 30 34  0  0  1  0  0  0  0  0999 V2000
   -4.7149   -0.0745    0.0000 F   0  0  0  0  0  0  0  0  0
   -5.2669   -0.6876    0.0000 C   0  0  0  0  0  0  0  0  0
   -5.0120   -1.4722    0.0000 C   0  0  0  0  0  0  0  0  0
   -5.5640   -2.0853    0.0000 C   0  0  0  0  0  0  0  0  0
   -6.3710   -1.9137    0.0000 C   0  0  0  0  0  0  0  0  0
   -6.7835   -2.6282    0.0000 N   0  0  0  0  0  0  0  0  0
   -6.2315   -3.2413    0.0000 C   0  0  0  0  0  0  0  0  0
   -5.4778   -2.9057    0.0000 C   0  0  0  0  0  0  0  0  0
   -4.7633   -3.3182    0.0000 C   0  0  0  0  0  0  0  0  0
   -4.0489   -2.9057    0.0000 C   0  0  0  0  0  0  0  0  0
   -3.3344   -3.3182    0.0000 C   0  0  0  0  0  0  0  0  0
   -3.3344   -4.1432    0.0000 N   0  0  0  0  0  0  0  0  0
   -4.0489   -4.5557    0.0000 C   0  0  0  0  0  0  0  0  0
   -4.7633   -4.1432    0.0000 C   0  0  0  0  0  0  0  0  0
   -2.6199   -4.5557    0.0000 C   0  0  0  0  0  0  0  0  0
   -1.9054   -4.1432    0.0000 C   0  0  0  0  0  0  0  0  0
   -1.1910   -4.5557    0.0000 O   0  0  0  0  0  0  0  0  0
   -0.4765   -4.1432    0.0000 C   0  0  0  0  0  0  0  0  0
   -0.4765   -3.3182    0.0000 C   0  0  0  0  0  0  0  0  0
   -1.1910   -2.9057    0.0000 N   0  0  0  0  0  0  0  0  0
   -1.9054   -3.3182    0.0000 C   0  0  0  0  0  0  0  0  0
   -1.1910   -2.0807    0.0000 C   0  0  0  0  0  0  0  0  0
    0.2380   -2.9057    0.0000 C   0  0  0  0  0  0  0  0  0
    0.9524   -3.3182    0.0000 C   0  0  0  0  0  0  0  0  0
    0.9524   -4.1432    0.0000 C   0  0  0  0  0  0  0  0  0
    0.2380   -4.5557    0.0000 C   0  0  0  0  0  0  0  0  0
    0.2380   -5.3807    0.0000 O   0  0  0  0  0  0  0  0  0
    0.9524   -5.7932    0.0000 C   0  0  0  0  0  0  0  0  0
   -6.6259   -1.1291    0.0000 C   0  0  0  0  0  0  0  0  0
   -6.0739   -0.5160    0.0000 C   0  0  0  0  0  0  0  0  0
  1  2  1  0  0  0  0
  2  3  4  0  0  0  0
  2 30  4  0  0  0  0
  3  4  4  0  0  0  0
  4  5  4  0  0  0  0
  4  8  4  0  0  0  0
  5  6  4  0  0  0  0
  5 29  4  0  0  0  0
  6  7  4  0  0  0  0
  7  8  4  0  0  0  0
  8  9  1  0  0  0  0
  9 10  1  0  0  0  0
  9 14  2  0  0  0  0
 10 11  1  0  0  0  0
 11 12  1  0  0  0  0
 12 13  1  0  0  0  0
 12 15  1  0  0  0  0
 13 14  1  0  0  0  0
 15 16  1  0  0  0  0
 16 17  1  0  0  0  0
 16 21  1  0  0  0  0
 17 18  1  0  0  0  0
 18 19  4  0  0  0  0
 18 26  4  0  0  0  0
 19 20  1  0  0  0  0
 19 23  4  0  0  0  0
 20 21  1  0  0  0  0
 20 22  1  0  0  0  0
 23 24  4  0  0  0  0
 24 25  4  0  0  0  0
 25 26  4  0  0  0  0
 26 27  1  0  0  0  0
 27 28  1  0  0  0  0
 29 30  4  0  0  0  0
M  STY  1   1 DAT
M  SAL   1  1   6
M  SDT   1 MRV_IMPLICIT_H                                        
M  SDD   1     0.0000    0.0000    DR    ALL  0       0  
M  SED   1 IMPL_H1
M  END
>  <Name_Molregno>
341184

>  <5-HT1A>
6.85

$$$$
341380
  Marvin  02231216192D 0   1.00000     0.00000     0

 26 29  0  0  1  0  0  0  0  0999 V2000
   -8.6589    0.9592    0.0000 F   0  0  0  0  0  0  0  0  0
   -8.4039    0.1746    0.0000 C   0  0  0  0  0  0  0  0  0
   -7.5970    0.0031    0.0000 C   0  0  0  0  0  0  0  0  0
   -7.3420   -0.7816    0.0000 C   0  0  0  0  0  0  0  0  0
   -7.8941   -1.3947    0.0000 C   0  0  0  0  0  0  0  0  0
   -7.4816   -2.1091    0.0000 N   0  0  0  0  0  0  0  0  0
   -6.6746   -1.9376    0.0000 C   0  0  0  0  0  0  0  0  0
   -6.5883   -1.1171    0.0000 C   0  0  0  0  0  0  0  0  0
   -5.8739   -0.7046    0.0000 C   0  0  0  0  0  0  0  0  0
   -5.1594   -1.1171    0.0000 C   0  0  0  0  0  0  0  0  0
   -4.4449   -0.7046    0.0000 N   0  0  0  0  0  0  0  0  0
   -3.7305   -1.1171    0.0000 C   0  0  0  0  0  0  0  0  0
   -3.0160   -0.7046    0.0000 C   0  0  0  0  0  0  0  0  0
   -2.3015   -1.1171    0.0000 O   0  0  0  0  0  0  0  0  0
   -1.5870   -0.7046    0.0000 C   0  0  0  0  0  0  0  0  0
   -1.5870    0.1204    0.0000 C   0  0  0  0  0  0  0  0  0
   -2.3015    0.5329    0.0000 N   0  0  0  0  0  0  0  0  0
   -3.0160    0.1204    0.0000 C   0  0  0  0  0  0  0  0  0
   -0.8726    0.5329    0.0000 C   0  0  0  0  0  0  0  0  0
   -0.1581    0.1204    0.0000 C   0  0  0  0  0  0  0  0  0
   -0.1581   -0.7046    0.0000 C   0  0  0  0  0  0  0  0  0
   -0.8726   -1.1171    0.0000 C   0  0  0  0  0  0  0  0  0
   -0.8726   -1.9421    0.0000 O   0  0  0  0  0  0  0  0  0
   -0.1581   -2.3546    0.0000 C   0  0  0  0  0  0  0  0  0
   -8.7010   -1.2231    0.0000 C   0  0  0  0  0  0  0  0  0
   -8.9560   -0.4385    0.0000 C   0  0  0  0  0  0  0  0  0
  1  2  1  0  0  0  0
  2  3  4  0  0  0  0
  2 26  4  0  0  0  0
  3  4  4  0  0  0  0
  4  5  4  0  0  0  0
  4  8  4  0  0  0  0
  5  6  4  0  0  0  0
  5 25  4  0  0  0  0
  6  7  4  0  0  0  0
  7  8  4  0  0  0  0
  8  9  1  0  0  0  0
  9 10  1  0  0  0  0
 10 11  1  0  0  0  0
 11 12  1  0  0  0  0
 12 13  1  0  0  0  0
 13 14  1  0  0  0  0
 13 18  1  0  0  0  0
 14 15  1  0  0  0  0
 15 16  4  0  0  0  0
 15 22  4  0  0  0  0
 16 17  1  0  0  0  0
 16 19  4  0  0  0  0
 17 18  1  0  0  0  0
 19 20  4  0  0  0  0
 20 21  4  0  0  0  0
 21 22  4  0  0  0  0
 22 23  1  0  0  0  0
 23 24  1  0  0  0  0
 25 26  4  0  0  0  0
M  STY  1   1 DAT
M  SAL   1  1   6
M  SDT   1 MRV_IMPLICIT_H                                        
M  SDD   1     0.0000    0.0000    DR    ALL  0       0  
M  SED   1 IMPL_H1
M  END
>  <Name_Molregno>
341380

>  <5-HT1A>
8.03

$$$$
341385
  Marvin  02231216192D 0   1.00000     0.00000     0

 27 29  0  0  1  0  0  0  0  0999 V2000
   -3.9769   -1.3635    0.0000 S   0  0  0  0  0  0  0  0  0
   -3.7787   -0.5626    0.0000 O   0  0  0  0  0  0  0  0  0
   -4.1750   -2.1643    0.0000 O   0  0  0  0  0  0  0  0  0
   -3.1760   -1.5616    0.0000 C   0  0  0  0  0  0  0  0  0
   -2.3752   -1.7598    0.0000 C   0  0  0  0  0  0  0  0  0
   -1.8031   -1.1653    0.0000 C   0  0  0  0  0  0  0  0  0
   -1.0023   -1.3635    0.0000 C   0  0  0  0  0  0  0  0  0
   -0.4302   -0.7690    0.0000 N   0  0  0  0  0  0  0  0  0
   -0.6591    0.0237    0.0000 C   0  0  0  0  0  0  0  0  0
   -0.0870    0.6181    0.0000 C   0  0  0  0  0  0  0  0  0
    0.7138    0.4200    0.0000 C   0  0  0  0  0  0  0  0  0
    0.9426   -0.3727    0.0000 C   0  0  0  0  0  0  0  0  0
    0.3706   -0.9671    0.0000 C   0  0  0  0  0  0  0  0  0
   -0.3158    1.4108    0.0000 C   0  0  0  0  0  0  0  0  0
   -1.1167    1.6089    0.0000 C   0  0  0  0  0  0  0  0  0
   -1.3455    2.4016    0.0000 C   0  0  0  0  0  0  0  0  0
   -0.7735    2.9960    0.0000 C   0  0  0  0  0  0  0  0  0
    0.0274    2.7979    0.0000 C   0  0  0  0  0  0  0  0  0
    0.2562    2.0052    0.0000 C   0  0  0  0  0  0  0  0  0
   -2.9778   -0.7608    0.0000 C   0  0  0  0  0  0  0  0  0
   -3.3742   -2.3625    0.0000 C   0  0  0  0  0  0  0  0  0
   -4.7777   -1.1653    0.0000 C   0  0  0  0  0  0  0  0  0
   -5.3497   -1.7598    0.0000 C   0  0  0  0  0  0  0  0  0
   -6.1506   -1.5616    0.0000 C   0  0  0  0  0  0  0  0  0
   -6.3794   -0.7690    0.0000 C   0  0  0  0  0  0  0  0  0
   -5.8074   -0.1745    0.0000 C   0  0  0  0  0  0  0  0  0
   -5.0065   -0.3727    0.0000 C   0  0  0  0  0  0  0  0  0
  1  2  2  0  0  0  0
  1  3  2  0  0  0  0
  1  4  1  0  0  0  0
  1 22  1  0  0  0  0
  4  5  1  0  0  0  0
  4 20  1  0  0  0  0
  4 21  1  0  0  0  0
  5  6  1  0  0  0  0
  6  7  1  0  0  0  0
  7  8  1  0  0  0  0
  8  9  1  0  0  0  0
  8 13  1  0  0  0  0
  9 10  1  0  0  0  0
 10 11  1  0  0  0  0
 10 14  1  0  0  0  0
 11 12  1  0  0  0  0
 12 13  1  0  0  0  0
 14 15  4  0  0  0  0
 14 19  4  0  0  0  0
 15 16  4  0  0  0  0
 16 17  4  0  0  0  0
 17 18  4  0  0  0  0
 18 19  4  0  0  0  0
 22 23  4  0  0  0  0
 22 27  4  0  0  0  0
 23 24  4  0  0  0  0
 24 25  4  0  0  0  0
 25 26  4  0  0  0  0
 26 27  4  0  0  0  0
M  END
>  <Name_Molregno>
341385

>  <5-HT1A>
6.4

>  <5-HT1B>
5.11

>  <5-HT2A>
5.74

>  <5-HT7>
8.15

>  <DOPAMINE D2>
6.66

$$$$
341388
  Marvin  02231216192D 0   1.00000     0.00000     0

 26 29  0  0  1  0  0  0  0  0999 V2000
   -6.3308    1.8752    0.0000 F   0  0  0  0  0  0  0  0  0
   -6.8828    1.2621    0.0000 C   0  0  0  0  0  0  0  0  0
   -6.6279    0.4775    0.0000 C   0  0  0  0  0  0  0  0  0
   -7.1799   -0.1356    0.0000 C   0  0  0  0  0  0  0  0  0
   -7.9869    0.0359    0.0000 C   0  0  0  0  0  0  0  0  0
   -8.3994   -0.6785    0.0000 N   0  0  0  0  0  0  0  0  0
   -7.8474   -1.2916    0.0000 C   0  0  0  0  0  0  0  0  0
   -7.0937   -0.9561    0.0000 C   0  0  0  0  0  0  0  0  0
   -6.3792   -1.3686    0.0000 C   0  0  0  0  0  0  0  0  0
   -5.6647   -0.9561    0.0000 C   0  0  0  0  0  0  0  0  0
   -4.9503   -1.3686    0.0000 N   0  0  0  0  0  0  0  0  0
   -4.2358   -0.9561    0.0000 C   0  0  0  0  0  0  0  0  0
   -3.5213   -1.3686    0.0000 C   0  0  0  0  0  0  0  0  0
   -2.8069   -0.9561    0.0000 O   0  0  0  0  0  0  0  0  0
   -2.0924   -1.3686    0.0000 C   0  0  0  0  0  0  0  0  0
   -1.3779   -0.9561    0.0000 C   0  0  0  0  0  0  0  0  0
   -0.6634   -1.3686    0.0000 C   0  0  0  0  0  0  0  0  0
    0.0510   -0.9561    0.0000 O   0  0  0  0  0  0  0  0  0
    0.7655   -1.3686    0.0000 C   0  0  0  0  0  0  0  0  0
   -0.6634   -2.1936    0.0000 C   0  0  0  0  0  0  0  0  0
   -1.3779   -2.6061    0.0000 C   0  0  0  0  0  0  0  0  0
   -2.0924   -2.1936    0.0000 C   0  0  0  0  0  0  0  0  0
   -2.8069   -2.6061    0.0000 N   0  0  0  0  0  0  0  0  0
   -3.5213   -2.1936    0.0000 C   0  0  0  0  0  0  0  0  0
   -8.2418    0.8205    0.0000 C   0  0  0  0  0  0  0  0  0
   -7.6898    1.4336    0.0000 C   0  0  0  0  0  0  0  0  0
  1  2  1  0  0  0  0
  2  3  4  0  0  0  0
  2 26  4  0  0  0  0
  3  4  4  0  0  0  0
  4  5  4  0  0  0  0
  4  8  4  0  0  0  0
  5  6  4  0  0  0  0
  5 25  4  0  0  0  0
  6  7  4  0  0  0  0
  7  8  4  0  0  0  0
  8  9  1  0  0  0  0
  9 10  1  0  0  0  0
 10 11  1  0  0  0  0
 11 12  1  0  0  0  0
 12 13  1  0  0  0  0
 13 14  1  0  0  0  0
 13 24  1  0  0  0  0
 14 15  1  0  0  0  0
 15 16  4  0  0  0  0
 15 22  4  0  0  0  0
 16 17  4  0  0  0  0
 17 18  1  0  0  0  0
 17 20  4  0  0  0  0
 18 19  1  0  0  0  0
 20 21  4  0  0  0  0
 21 22  4  0  0  0  0
 22 23  1  0  0  0  0
 23 24  1  0  0  0  0
 25 26  4  0  0  0  0
M  STY  1   1 DAT
M  SAL   1  1   6
M  SDT   1 MRV_IMPLICIT_H                                        
M  SDD   1     0.0000    0.0000    DR    ALL  0       0  
M  SED   1 IMPL_H1
M  END
>  <Name_Molregno>
341388

>  <5-HT1A>
6.99

$$$$
341407
  Marvin  02231216192D 0   1.00000     0.00000     0

 31 35  0  0  1  0  0  0  0  0999 V2000
   -5.8623    1.3253    0.0000 F   0  0  0  0  0  0  0  0  0
   -6.4144    0.7123    0.0000 C   0  0  0  0  0  0  0  0  0
   -6.1594   -0.0724    0.0000 C   0  0  0  0  0  0  0  0  0
   -6.7115   -0.6855    0.0000 C   0  0  0  0  0  0  0  0  0
   -7.5184   -0.5139    0.0000 C   0  0  0  0  0  0  0  0  0
   -7.9309   -1.2284    0.0000 N   0  0  0  0  0  0  0  0  0
   -7.3789   -1.8415    0.0000 C   0  0  0  0  0  0  0  0  0
   -6.6252   -1.5059    0.0000 C   0  0  0  0  0  0  0  0  0
   -5.9108   -1.9184    0.0000 C   0  0  0  0  0  0  0  0  0
   -5.1963   -1.5059    0.0000 C   0  0  0  0  0  0  0  0  0
   -4.4818   -1.9184    0.0000 C   0  0  0  0  0  0  0  0  0
   -4.4818   -2.7434    0.0000 N   0  0  0  0  0  0  0  0  0
   -5.1963   -3.1559    0.0000 C   0  0  0  0  0  0  0  0  0
   -5.9108   -2.7434    0.0000 C   0  0  0  0  0  0  0  0  0
   -3.7673   -3.1559    0.0000 C   0  0  0  0  0  0  0  0  0
   -3.0529   -2.7434    0.0000 C   0  0  0  0  0  0  0  0  0
   -2.3384   -3.1559    0.0000 O   0  0  0  0  0  0  0  0  0
   -1.6239   -2.7434    0.0000 C   0  0  0  0  0  0  0  0  0
   -1.6239   -1.9184    0.0000 C   0  0  0  0  0  0  0  0  0
   -2.3384   -1.5059    0.0000 N   0  0  0  0  0  0  0  0  0
   -3.0529   -1.9184    0.0000 C   0  0  0  0  0  0  0  0  0
   -2.3384   -0.6809    0.0000 C   0  0  0  0  0  0  0  0  0
   -3.0529   -0.2684    0.0000 C   0  0  0  0  0  0  0  0  0
   -0.9095   -1.5059    0.0000 C   0  0  0  0  0  0  0  0  0
   -0.1950   -1.9184    0.0000 C   0  0  0  0  0  0  0  0  0
   -0.1950   -2.7434    0.0000 C   0  0  0  0  0  0  0  0  0
   -0.9095   -3.1559    0.0000 C   0  0  0  0  0  0  0  0  0
   -0.9095   -3.9809    0.0000 O   0  0  0  0  0  0  0  0  0
   -0.1950   -4.3934    0.0000 C   0  0  0  0  0  0  0  0  0
   -7.7734    0.2707    0.0000 C   0  0  0  0  0  0  0  0  0
   -7.2213    0.8838    0.0000 C   0  0  0  0  0  0  0  0  0
  1  2  1  0  0  0  0
  2  3  4  0  0  0  0
  2 31  4  0  0  0  0
  3  4  4  0  0  0  0
  4  5  4  0  0  0  0
  4  8  4  0  0  0  0
  5  6  4  0  0  0  0
  5 30  4  0  0  0  0
  6  7  4  0  0  0  0
  7  8  4  0  0  0  0
  8  9  1  0  0  0  0
  9 10  1  0  0  0  0
  9 14  2  0  0  0  0
 10 11  1  0  0  0  0
 11 12  1  0  0  0  0
 12 13  1  0  0  0  0
 12 15  1  0  0  0  0
 13 14  1  0  0  0  0
 15 16  1  0  0  0  0
 16 17  1  0  0  0  0
 16 21  1  0  0  0  0
 17 18  1  0  0  0  0
 18 19  4  0  0  0  0
 18 27  4  0  0  0  0
 19 20  1  0  0  0  0
 19 24  4  0  0  0  0
 20 21  1  0  0  0  0
 20 22  1  0  0  0  0
 22 23  1  0  0  0  0
 24 25  4  0  0  0  0
 25 26  4  0  0  0  0
 26 27  4  0  0  0  0
 27 28  1  0  0  0  0
 28 29  1  0  0  0  0
 30 31  4  0  0  0  0
M  STY  1   1 DAT
M  SAL   1  1   6
M  SDT   1 MRV_IMPLICIT_H                                        
M  SDD   1     0.0000    0.0000    DR    ALL  0       0  
M  SED   1 IMPL_H1
M  END
>  <Name_Molregno>
341407

>  <5-HT1A>
6.87

$$$$
341432
  Marvin  02231216192D 0   1.00000     0.00000     0

 26 29  0  0  0  0  0  0  0  0999 V2000
    0.8212    1.5345    0.0000 S   0  0  0  0  0  0  0  0  0
    0.8212    0.7095    0.0000 O   0  0  0  0  0  0  0  0  0
    0.8212    2.3595    0.0000 O   0  0  0  0  0  0  0  0  0
   -0.0038    1.5345    0.0000 C   0  0  0  0  0  0  0  0  0
   -0.8288    1.5345    0.0000 C   0  0  0  0  0  0  0  0  0
   -0.8288    2.3595    0.0000 C   0  0  0  0  0  0  0  0  0
   -0.0038    2.3595    0.0000 C   0  0  0  0  0  0  0  0  0
   -0.0038    0.7095    0.0000 C   0  0  0  0  0  0  0  0  0
    0.7107    0.2970    0.0000 C   0  0  0  0  0  0  0  0  0
    0.7107   -0.5280    0.0000 C   0  0  0  0  0  0  0  0  0
    1.4252   -0.9405    0.0000 N   0  0  0  0  0  0  0  0  0
    1.4252   -1.7655    0.0000 C   0  0  0  0  0  0  0  0  0
    2.1396   -2.1780    0.0000 C   0  0  0  0  0  0  0  0  0
    2.8541   -1.7655    0.0000 C   0  0  0  0  0  0  0  0  0
    2.8541   -0.9405    0.0000 C   0  0  0  0  0  0  0  0  0
    2.1396   -0.5280    0.0000 C   0  0  0  0  0  0  0  0  0
    3.5686   -0.5280    0.0000 C   0  0  0  0  0  0  0  0  0
    4.2830   -0.9405    0.0000 C   0  0  0  0  0  0  0  0  0
    4.2830   -1.7655    0.0000 C   0  0  0  0  0  0  0  0  0
    3.5686   -2.1780    0.0000 C   0  0  0  0  0  0  0  0  0
    1.6462    1.5345    0.0000 C   0  0  0  0  0  0  0  0  0
    2.0587    2.2490    0.0000 C   0  0  0  0  0  0  0  0  0
    2.8837    2.2490    0.0000 C   0  0  0  0  0  0  0  0  0
    3.2962    1.5345    0.0000 C   0  0  0  0  0  0  0  0  0
    2.8837    0.8200    0.0000 C   0  0  0  0  0  0  0  0  0
    2.0587    0.8200    0.0000 C   0  0  0  0  0  0  0  0  0
  1  2  2  0  0  0  0
  1  3  2  0  0  0  0
  1  4  1  0  0  0  0
  1 21  1  0  0  0  0
  4  5  1  0  0  0  0
  4  7  1  0  0  0  0
  4  8  1  0  0  0  0
  5  6  1  0  0  0  0
  6  7  1  0  0  0  0
  8  9  1  0  0  0  0
  9 10  1  0  0  0  0
 10 11  1  0  0  0  0
 11 12  1  0  0  0  0
 11 16  1  0  0  0  0
 12 13  1  0  0  0  0
 13 14  1  0  0  0  0
 14 15  4  0  0  0  0
 14 20  4  0  0  0  0
 15 16  1  0  0  0  0
 15 17  4  0  0  0  0
 17 18  4  0  0  0  0
 18 19  4  0  0  0  0
 19 20  4  0  0  0  0
 21 22  4  0  0  0  0
 21 26  4  0  0  0  0
 22 23  4  0  0  0  0
 23 24  4  0  0  0  0
 24 25  4  0  0  0  0
 25 26  4  0  0  0  0
M  END
>  <Name_Molregno>
341432

>  <5-HT1A>
7.46

>  <5-HT2A>
7.19

>  <5-HT7>
8.1

$$$$
341446
  Marvin  02231216192D 0   1.00000     0.00000     0

 25 26  0  0  1  0  0  0  0  0999 V2000
   -3.4458   -1.1233    0.0000 S   0  0  0  0  0  0  0  0  0
   -3.2476   -0.3224    0.0000 O   0  0  0  0  0  0  0  0  0
   -3.6439   -1.9241    0.0000 O   0  0  0  0  0  0  0  0  0
   -2.6449   -1.3214    0.0000 C   0  0  0  0  0  0  0  0  0
   -1.8441   -1.5196    0.0000 C   0  0  0  0  0  0  0  0  0
   -1.2721   -0.9251    0.0000 C   0  0  0  0  0  0  0  0  0
   -0.4712   -1.1233    0.0000 C   0  0  0  0  0  0  0  0  0
    0.1008   -0.5288    0.0000 N   0  0  0  0  0  0  0  0  0
   -0.1280    0.2638    0.0000 C   0  0  0  0  0  0  0  0  0
    0.4441    0.8583    0.0000 C   0  0  0  0  0  0  0  0  0
    1.2449    0.6601    0.0000 C   0  0  0  0  0  0  0  0  0
    1.4737   -0.1325    0.0000 C   0  0  0  0  0  0  0  0  0
    0.9017   -0.7270    0.0000 C   0  0  0  0  0  0  0  0  0
    0.2152    1.6509    0.0000 C   0  0  0  0  0  0  0  0  0
   -0.0136    2.4436    0.0000 F   0  0  0  0  0  0  0  0  0
   -0.5774    1.4221    0.0000 F   0  0  0  0  0  0  0  0  0
    1.0079    1.8797    0.0000 F   0  0  0  0  0  0  0  0  0
   -2.4468   -0.5206    0.0000 C   0  0  0  0  0  0  0  0  0
   -2.8431   -2.1223    0.0000 C   0  0  0  0  0  0  0  0  0
   -4.2466   -0.9251    0.0000 C   0  0  0  0  0  0  0  0  0
   -4.8187   -1.5196    0.0000 C   0  0  0  0  0  0  0  0  0
   -5.6195   -1.3214    0.0000 C   0  0  0  0  0  0  0  0  0
   -5.8483   -0.5288    0.0000 C   0  0  0  0  0  0  0  0  0
   -5.2763    0.0657    0.0000 C   0  0  0  0  0  0  0  0  0
   -4.4754   -0.1325    0.0000 C   0  0  0  0  0  0  0  0  0
  1  2  2  0  0  0  0
  1  3  2  0  0  0  0
  1  4  1  0  0  0  0
  1 20  1  0  0  0  0
  4  5  1  0  0  0  0
  4 18  1  0  0  0  0
  4 19  1  0  0  0  0
  5  6  1  0  0  0  0
  6  7  1  0  0  0  0
  7  8  1  0  0  0  0
  8  9  1  0  0  0  0
  8 13  1  0  0  0  0
  9 10  1  0  0  0  0
 10 11  1  0  0  0  0
 10 14  1  0  0  0  0
 11 12  1  0  0  0  0
 12 13  1  0  0  0  0
 14 15  1  0  0  0  0
 14 16  1  0  0  0  0
 14 17  1  0  0  0  0
 20 21  4  0  0  0  0
 20 25  4  0  0  0  0
 21 22  4  0  0  0  0
 22 23  4  0  0  0  0
 23 24  4  0  0  0  0
 24 25  4  0  0  0  0
M  END
>  <Name_Molregno>
341446

>  <5-HT1A>
5.15

>  <5-HT1B>
5.15

>  <5-HT2A>
5.7

>  <5-HT7>
7.27

>  <DOPAMINE D2>
6

$$$$
341469
  Marvin  02231216192D 0   1.00000     0.00000     0

 26 27  0  0  1  0  0  0  0  0999 V2000
    0.2162    0.0185    0.0000 S   0  0  0  0  0  0  0  0  0
   -0.3239    0.6422    0.0000 O   0  0  0  0  0  0  0  0  0
    0.7563   -0.6051    0.0000 O   0  0  0  0  0  0  0  0  0
    0.8399    0.5586    0.0000 C   0  0  0  0  0  0  0  0  0
    1.4635    1.0987    0.0000 C   0  0  0  0  0  0  0  0  0
    2.2431    0.8287    0.0000 C   0  0  0  0  0  0  0  0  0
    2.3990    0.0185    0.0000 C   0  0  0  0  0  0  0  0  0
    3.1785   -0.2515    0.0000 N   0  0  0  0  0  0  0  0  0
    3.8022    0.2886    0.0000 C   0  0  0  0  0  0  0  0  0
    4.5817    0.0185    0.0000 C   0  0  0  0  0  0  0  0  0
    4.7376   -0.7916    0.0000 C   0  0  0  0  0  0  0  0  0
    4.1140   -1.3317    0.0000 C   0  0  0  0  0  0  0  0  0
    3.3344   -1.0616    0.0000 C   0  0  0  0  0  0  0  0  0
    5.2054    0.5586    0.0000 C   0  0  0  0  0  0  0  0  0
    5.9849    0.2886    0.0000 O   0  0  0  0  0  0  0  0  0
    6.6086    0.8287    0.0000 C   0  0  0  0  0  0  0  0  0
    7.3881    0.5586    0.0000 C   0  0  0  0  0  0  0  0  0
    5.0494    1.3688    0.0000 O   0  0  0  0  0  0  0  0  0
    0.2998    1.1823    0.0000 C   0  0  0  0  0  0  0  0  0
    1.3800   -0.0650    0.0000 C   0  0  0  0  0  0  0  0  0
   -0.4074   -0.5215    0.0000 C   0  0  0  0  0  0  0  0  0
   -0.2515   -1.3317    0.0000 C   0  0  0  0  0  0  0  0  0
   -0.8751   -1.8718    0.0000 C   0  0  0  0  0  0  0  0  0
   -1.6547   -1.6017    0.0000 C   0  0  0  0  0  0  0  0  0
   -1.8106   -0.7916    0.0000 C   0  0  0  0  0  0  0  0  0
   -1.1870   -0.2515    0.0000 C   0  0  0  0  0  0  0  0  0
  1  2  2  0  0  0  0
  1  3  2  0  0  0  0
  1  4  1  0  0  0  0
  1 21  1  0  0  0  0
  4  5  1  0  0  0  0
  4 19  1  0  0  0  0
  4 20  1  0  0  0  0
  5  6  1  0  0  0  0
  6  7  1  0  0  0  0
  7  8  1  0  0  0  0
  8  9  1  0  0  0  0
  8 13  1  0  0  0  0
  9 10  1  0  0  0  0
 10 11  1  0  0  0  0
 10 14  1  0  0  0  0
 11 12  1  0  0  0  0
 12 13  1  0  0  0  0
 14 15  1  0  0  0  0
 14 18  2  0  0  0  0
 15 16  1  0  0  0  0
 16 17  1  0  0  0  0
 21 22  4  0  0  0  0
 21 26  4  0  0  0  0
 22 23  4  0  0  0  0
 23 24  4  0  0  0  0
 24 25  4  0  0  0  0
 25 26  4  0  0  0  0
M  END
>  <Name_Molregno>
341469

>  <5-HT1A>
5.62

>  <5-HT1B>
5.15

>  <5-HT2A>
5.73

>  <5-HT7>
6.98

>  <DOPAMINE D2>
6.15

$$$$
341518
  Marvin  02231216192D 0   1.00000     0.00000     0

 25 27  0  0  1  0  0  0  0  0999 V2000
   -3.8526   -0.6700    0.0000 S   0  0  0  0  0  0  0  0  0
   -3.6545    0.1308    0.0000 O   0  0  0  0  0  0  0  0  0
   -4.0508   -1.4709    0.0000 O   0  0  0  0  0  0  0  0  0
   -3.0518   -0.8682    0.0000 C   0  0  0  0  0  0  0  0  0
   -2.2509   -1.0663    0.0000 C   0  0  0  0  0  0  0  0  0
   -1.6789   -0.4719    0.0000 C   0  0  0  0  0  0  0  0  0
   -0.8780   -0.6700    0.0000 C   0  0  0  0  0  0  0  0  0
   -0.3060   -0.0756    0.0000 N   0  0  0  0  0  0  0  0  0
    0.4948   -0.2737    0.0000 C   0  0  0  0  0  0  0  0  0
    1.0669    0.3208    0.0000 C   0  0  0  0  0  0  0  0  0
    0.8381    1.1134    0.0000 C   0  0  0  0  0  0  0  0  0
    1.4101    1.7079    0.0000 C   0  0  0  0  0  0  0  0  0
    2.2109    1.5097    0.0000 C   0  0  0  0  0  0  0  0  0
    2.4398    0.7171    0.0000 C   0  0  0  0  0  0  0  0  0
    1.8677    0.1226    0.0000 C   0  0  0  0  0  0  0  0  0
    0.0372    1.3116    0.0000 C   0  0  0  0  0  0  0  0  0
   -0.5348    0.7171    0.0000 C   0  0  0  0  0  0  0  0  0
   -2.8536   -0.0673    0.0000 C   0  0  0  0  0  0  0  0  0
   -3.2499   -1.6690    0.0000 C   0  0  0  0  0  0  0  0  0
   -4.6535   -0.4719    0.0000 C   0  0  0  0  0  0  0  0  0
   -5.2255   -1.0663    0.0000 C   0  0  0  0  0  0  0  0  0
   -6.0263   -0.8682    0.0000 C   0  0  0  0  0  0  0  0  0
   -6.2552   -0.0756    0.0000 C   0  0  0  0  0  0  0  0  0
   -5.6831    0.5189    0.0000 C   0  0  0  0  0  0  0  0  0
   -4.8823    0.3208    0.0000 C   0  0  0  0  0  0  0  0  0
  1  2  2  0  0  0  0
  1  3  2  0  0  0  0
  1  4  1  0  0  0  0
  1 20  1  0  0  0  0
  4  5  1  0  0  0  0
  4 18  1  0  0  0  0
  4 19  1  0  0  0  0
  5  6  1  0  0  0  0
  6  7  1  0  0  0  0
  7  8  1  0  0  0  0
  8  9  1  0  0  0  0
  8 17  1  0  0  0  0
  9 10  1  0  0  0  0
 10 11  1  0  0  0  0
 10 15  1  0  0  0  0
 11 12  1  0  0  0  0
 11 16  1  0  0  0  0
 12 13  1  0  0  0  0
 13 14  1  0  0  0  0
 14 15  1  0  0  0  0
 16 17  1  0  0  0  0
 20 21  4  0  0  0  0
 20 25  4  0  0  0  0
 21 22  4  0  0  0  0
 22 23  4  0  0  0  0
 23 24  4  0  0  0  0
 24 25  4  0  0  0  0
M  END
>  <Name_Molregno>
341518

>  <5-HT1A>
5.82

>  <5-HT1B>
5.15

>  <5-HT2A>
5.7

>  <5-HT7>
8.1

>  <DOPAMINE D2>
6.05

$$$$
341542
  Marvin  02231216192D 0   1.00000     0.00000     0

 31 35  0  0  1  0  0  0  0  0999 V2000
    0.1269    0.7796    0.0000 O   0  0  0  0  0  0  0  0  0
   -0.6801    0.6081    0.0000 C   0  0  0  0  0  0  0  0  0
   -0.9350   -0.1766    0.0000 C   0  0  0  0  0  0  0  0  0
   -0.3830   -0.7897    0.0000 N   0  0  0  0  0  0  0  0  0
    0.4240   -0.6181    0.0000 C   0  0  0  0  0  0  0  0  0
    0.6789    0.1665    0.0000 C   0  0  0  0  0  0  0  0  0
    1.4859    0.3380    0.0000 C   0  0  0  0  0  0  0  0  0
    1.7409    1.1226    0.0000 N   0  0  0  0  0  0  0  0  0
    2.5478    1.2942    0.0000 C   0  0  0  0  0  0  0  0  0
    2.8028    2.0788    0.0000 C   0  0  0  0  0  0  0  0  0
    3.6097    2.2503    0.0000 C   0  0  0  0  0  0  0  0  0
    3.8647    3.0349    0.0000 C   0  0  0  0  0  0  0  0  0
    4.6493    3.2899    0.0000 C   0  0  0  0  0  0  0  0  0
    4.6493    4.1149    0.0000 C   0  0  0  0  0  0  0  0  0
    3.8647    4.3698    0.0000 N   0  0  0  0  0  0  0  0  0
    3.3798    3.7024    0.0000 C   0  0  0  0  0  0  0  0  0
    5.3638    4.5274    0.0000 C   0  0  0  0  0  0  0  0  0
    6.0782    4.1149    0.0000 C   0  0  0  0  0  0  0  0  0
    6.0782    3.2899    0.0000 C   0  0  0  0  0  0  0  0  0
    5.3638    2.8774    0.0000 C   0  0  0  0  0  0  0  0  0
   -0.6379   -1.5743    0.0000 C   0  0  0  0  0  0  0  0  0
   -1.4449   -1.7458    0.0000 C   0  0  0  0  0  0  0  0  0
   -1.6998   -2.5304    0.0000 C   0  0  0  0  0  0  0  0  0
   -2.5068   -2.7020    0.0000 C   0  0  0  0  0  0  0  0  0
   -3.0588   -2.0889    0.0000 C   0  0  0  0  0  0  0  0  0
   -2.8039   -1.3042    0.0000 C   0  0  0  0  0  0  0  0  0
   -1.9969   -1.1327    0.0000 C   0  0  0  0  0  0  0  0  0
   -1.7420   -0.3481    0.0000 C   0  0  0  0  0  0  0  0  0
   -2.2940    0.2650    0.0000 C   0  0  0  0  0  0  0  0  0
   -2.0391    1.0496    0.0000 C   0  0  0  0  0  0  0  0  0
   -1.2321    1.2212    0.0000 C   0  0  0  0  0  0  0  0  0
  1  2  1  0  0  0  0
  1  6  1  0  0  0  0
  2  3  4  0  0  0  0
  2 31  4  0  0  0  0
  3  4  1  0  0  0  0
  3 28  4  0  0  0  0
  4  5  1  0  0  0  0
  4 21  1  0  0  0  0
  5  6  1  0  0  0  0
  6  7  1  0  0  0  0
  7  8  1  0  0  0  0
  8  9  1  0  0  0  0
  9 10  1  0  0  0  0
 10 11  1  0  0  0  0
 11 12  1  0  0  0  0
 12 13  4  0  0  0  0
 12 16  4  0  0  0  0
 13 14  4  0  0  0  0
 13 20  4  0  0  0  0
 14 15  4  0  0  0  0
 14 17  4  0  0  0  0
 15 16  4  0  0  0  0
 17 18  4  0  0  0  0
 18 19  4  0  0  0  0
 19 20  4  0  0  0  0
 21 22  1  0  0  0  0
 22 23  4  0  0  0  0
 22 27  4  0  0  0  0
 23 24  4  0  0  0  0
 24 25  4  0  0  0  0
 25 26  4  0  0  0  0
 26 27  4  0  0  0  0
 28 29  4  0  0  0  0
 29 30  4  0  0  0  0
 30 31  4  0  0  0  0
M  STY  1   1 DAT
M  SAL   1  1  15
M  SDT   1 MRV_IMPLICIT_H                                        
M  SDD   1     0.0000    0.0000    DR    ALL  0       0  
M  SED   1 IMPL_H1
M  END
>  <Name_Molregno>
341542

>  <5-HT1A>
7.12

$$$$
341549
  Marvin  02231216192D 0   1.00000     0.00000     0

 30 34  0  0  1  0  0  0  0  0999 V2000
   -6.8681   -4.0220    0.0000 F   0  0  0  0  0  0  0  0  0
   -6.6132   -4.8066    0.0000 C   0  0  0  0  0  0  0  0  0
   -5.8062   -4.9781    0.0000 C   0  0  0  0  0  0  0  0  0
   -5.5512   -5.7627    0.0000 C   0  0  0  0  0  0  0  0  0
   -6.1033   -6.3758    0.0000 C   0  0  0  0  0  0  0  0  0
   -5.6908   -7.0903    0.0000 N   0  0  0  0  0  0  0  0  0
   -4.8838   -6.9188    0.0000 C   0  0  0  0  0  0  0  0  0
   -4.7976   -6.0983    0.0000 C   0  0  0  0  0  0  0  0  0
   -4.0831   -5.6858    0.0000 C   0  0  0  0  0  0  0  0  0
   -4.0831   -4.8608    0.0000 C   0  0  0  0  0  0  0  0  0
   -3.3686   -4.4483    0.0000 N   0  0  0  0  0  0  0  0  0
   -3.3686   -3.6233    0.0000 C   0  0  0  0  0  0  0  0  0
   -2.6542   -3.2108    0.0000 C   0  0  0  0  0  0  0  0  0
   -1.9397   -3.6233    0.0000 O   0  0  0  0  0  0  0  0  0
   -1.2252   -3.2108    0.0000 C   0  0  0  0  0  0  0  0  0
   -1.2252   -2.3858    0.0000 C   0  0  0  0  0  0  0  0  0
   -1.9397   -1.9733    0.0000 N   0  0  0  0  0  0  0  0  0
   -2.6542   -2.3858    0.0000 C   0  0  0  0  0  0  0  0  0
   -1.9397   -1.1483    0.0000 C   0  0  0  0  0  0  0  0  0
   -2.6542   -0.7358    0.0000 C   0  0  0  0  0  0  0  0  0
   -2.6542    0.0892    0.0000 C   0  0  0  0  0  0  0  0  0
   -1.9397    0.5017    0.0000 C   0  0  0  0  0  0  0  0  0
   -1.2252    0.0892    0.0000 C   0  0  0  0  0  0  0  0  0
   -1.2252   -0.7358    0.0000 C   0  0  0  0  0  0  0  0  0
   -0.5107   -1.9733    0.0000 C   0  0  0  0  0  0  0  0  0
    0.2037   -2.3858    0.0000 C   0  0  0  0  0  0  0  0  0
    0.2037   -3.2108    0.0000 C   0  0  0  0  0  0  0  0  0
   -0.5107   -3.6233    0.0000 C   0  0  0  0  0  0  0  0  0
   -6.9102   -6.2043    0.0000 C   0  0  0  0  0  0  0  0  0
   -7.1652   -5.4197    0.0000 C   0  0  0  0  0  0  0  0  0
  1  2  1  0  0  0  0
  2  3  4  0  0  0  0
  2 30  4  0  0  0  0
  3  4  4  0  0  0  0
  4  5  4  0  0  0  0
  4  8  4  0  0  0  0
  5  6  4  0  0  0  0
  5 29  4  0  0  0  0
  6  7  4  0  0  0  0
  7  8  4  0  0  0  0
  8  9  1  0  0  0  0
  9 10  1  0  0  0  0
 10 11  1  0  0  0  0
 11 12  1  0  0  0  0
 12 13  1  0  0  0  0
 13 14  1  0  0  0  0
 13 18  1  0  0  0  0
 14 15  1  0  0  0  0
 15 16  4  0  0  0  0
 15 28  4  0  0  0  0
 16 17  1  0  0  0  0
 16 25  4  0  0  0  0
 17 18  1  0  0  0  0
 17 19  1  0  0  0  0
 19 20  4  0  0  0  0
 19 24  4  0  0  0  0
 20 21  4  0  0  0  0
 21 22  4  0  0  0  0
 22 23  4  0  0  0  0
 23 24  4  0  0  0  0
 25 26  4  0  0  0  0
 26 27  4  0  0  0  0
 27 28  4  0  0  0  0
 29 30  4  0  0  0  0
M  STY  1   1 DAT
M  SAL   1  1   6
M  SDT   1 MRV_IMPLICIT_H                                        
M  SDD   1     0.0000    0.0000    DR    ALL  0       0  
M  SED   1 IMPL_H1
M  END
>  <Name_Molregno>
341549

>  <5-HT1A>
8.15

$$$$
341550
  Marvin  02231216192D 0   1.00000     0.00000     0

 26 29  0  0  1  0  0  0  0  0999 V2000
    4.5295    3.5575    0.0000 Cl  0  0  0  0  0  0  0  0  0
    3.9774    2.9444    0.0000 C   0  0  0  0  0  0  0  0  0
    4.2324    2.1598    0.0000 C   0  0  0  0  0  0  0  0  0
    3.6803    1.5467    0.0000 C   0  0  0  0  0  0  0  0  0
    3.9353    0.7620    0.0000 O   0  0  0  0  0  0  0  0  0
    3.3833    0.1489    0.0000 C   0  0  0  0  0  0  0  0  0
    2.5763    0.3205    0.0000 C   0  0  0  0  0  0  0  0  0
    2.3213    1.1051    0.0000 N   0  0  0  0  0  0  0  0  0
    2.8734    1.7182    0.0000 C   0  0  0  0  0  0  0  0  0
    2.6184    2.5028    0.0000 C   0  0  0  0  0  0  0  0  0
    3.1705    3.1159    0.0000 C   0  0  0  0  0  0  0  0  0
    1.5144    1.2766    0.0000 C   0  0  0  0  0  0  0  0  0
    3.6382   -0.6357    0.0000 C   0  0  0  0  0  0  0  0  0
    4.4452   -0.8072    0.0000 N   0  0  0  0  0  0  0  0  0
    4.7001   -1.5918    0.0000 C   0  0  0  0  0  0  0  0  0
    5.5071   -1.7634    0.0000 C   0  0  0  0  0  0  0  0  0
    5.7620   -2.5480    0.0000 C   0  0  0  0  0  0  0  0  0
    6.5466   -2.8029    0.0000 C   0  0  0  0  0  0  0  0  0
    7.2611   -2.3904    0.0000 C   0  0  0  0  0  0  0  0  0
    7.9756   -2.8029    0.0000 C   0  0  0  0  0  0  0  0  0
    8.6900   -2.3904    0.0000 F   0  0  0  0  0  0  0  0  0
    7.9756   -3.6279    0.0000 C   0  0  0  0  0  0  0  0  0
    7.2611   -4.0404    0.0000 C   0  0  0  0  0  0  0  0  0
    6.5466   -3.6279    0.0000 C   0  0  0  0  0  0  0  0  0
    5.7620   -3.8829    0.0000 N   0  0  0  0  0  0  0  0  0
    5.2771   -3.2154    0.0000 C   0  0  0  0  0  0  0  0  0
  1  2  1  0  0  0  0
  2  3  4  0  0  0  0
  2 11  4  0  0  0  0
  3  4  4  0  0  0  0
  4  5  1  0  0  0  0
  4  9  4  0  0  0  0
  5  6  1  0  0  0  0
  6  7  1  0  0  0  0
  6 13  1  0  0  0  0
  7  8  1  0  0  0  0
  8  9  1  0  0  0  0
  8 12  1  0  0  0  0
  9 10  4  0  0  0  0
 10 11  4  0  0  0  0
 13 14  1  0  0  0  0
 14 15  1  0  0  0  0
 15 16  1  0  0  0  0
 16 17  1  0  0  0  0
 17 18  4  0  0  0  0
 17 26  4  0  0  0  0
 18 19  4  0  0  0  0
 18 24  4  0  0  0  0
 19 20  4  0  0  0  0
 20 21  1  0  0  0  0
 20 22  4  0  0  0  0
 22 23  4  0  0  0  0
 23 24  4  0  0  0  0
 24 25  4  0  0  0  0
 25 26  4  0  0  0  0
M  STY  1   1 DAT
M  SAL   1  1  25
M  SDT   1 MRV_IMPLICIT_H                                        
M  SDD   1     0.0000    0.0000    DR    ALL  0       0  
M  SED   1 IMPL_H1
M  END
>  <Name_Molregno>
341550

>  <5-HT1A>
7.12

$$$$
341612
  Marvin  02231216192D 0   1.00000     0.00000     0

 28 31  0  0  1  0  0  0  0  0999 V2000
   -7.7414   -1.8682    0.0000 F   0  0  0  0  0  0  0  0  0
   -7.4864   -2.6529    0.0000 C   0  0  0  0  0  0  0  0  0
   -6.6795   -2.8244    0.0000 C   0  0  0  0  0  0  0  0  0
   -6.4245   -3.6090    0.0000 C   0  0  0  0  0  0  0  0  0
   -6.9766   -4.2221    0.0000 C   0  0  0  0  0  0  0  0  0
   -6.5641   -4.9366    0.0000 N   0  0  0  0  0  0  0  0  0
   -5.7571   -4.7650    0.0000 C   0  0  0  0  0  0  0  0  0
   -5.6709   -3.9446    0.0000 C   0  0  0  0  0  0  0  0  0
   -4.9564   -3.5321    0.0000 C   0  0  0  0  0  0  0  0  0
   -4.9564   -2.7071    0.0000 C   0  0  0  0  0  0  0  0  0
   -4.2419   -2.2946    0.0000 N   0  0  0  0  0  0  0  0  0
   -4.2419   -1.4696    0.0000 C   0  0  0  0  0  0  0  0  0
   -3.5274   -1.0571    0.0000 C   0  0  0  0  0  0  0  0  0
   -2.8130   -1.4696    0.0000 O   0  0  0  0  0  0  0  0  0
   -2.0985   -1.0571    0.0000 C   0  0  0  0  0  0  0  0  0
   -2.0985   -0.2321    0.0000 C   0  0  0  0  0  0  0  0  0
   -2.8130    0.1804    0.0000 N   0  0  0  0  0  0  0  0  0
   -3.5274   -0.2321    0.0000 C   0  0  0  0  0  0  0  0  0
   -2.8130    1.0054    0.0000 C   0  0  0  0  0  0  0  0  0
   -2.0985    1.4179    0.0000 C   0  0  0  0  0  0  0  0  0
   -2.0985    2.2429    0.0000 C   0  0  0  0  0  0  0  0  0
   -1.3840    1.0054    0.0000 C   0  0  0  0  0  0  0  0  0
   -1.3840    0.1804    0.0000 C   0  0  0  0  0  0  0  0  0
   -0.6696   -0.2321    0.0000 C   0  0  0  0  0  0  0  0  0
   -0.6696   -1.0571    0.0000 C   0  0  0  0  0  0  0  0  0
   -1.3840   -1.4696    0.0000 C   0  0  0  0  0  0  0  0  0
   -7.7835   -4.0506    0.0000 C   0  0  0  0  0  0  0  0  0
   -8.0385   -3.2659    0.0000 C   0  0  0  0  0  0  0  0  0
  1  2  1  0  0  0  0
  2  3  4  0  0  0  0
  2 28  4  0  0  0  0
  3  4  4  0  0  0  0
  4  5  4  0  0  0  0
  4  8  4  0  0  0  0
  5  6  4  0  0  0  0
  5 27  4  0  0  0  0
  6  7  4  0  0  0  0
  7  8  4  0  0  0  0
  8  9  1  0  0  0  0
  9 10  1  0  0  0  0
 10 11  1  0  0  0  0
 11 12  1  0  0  0  0
 12 13  1  0  0  0  0
 13 14  1  0  0  0  0
 13 18  1  0  0  0  0
 14 15  1  0  0  0  0
 15 16  4  0  0  0  0
 15 26  4  0  0  0  0
 16 17  1  0  0  0  0
 16 23  4  0  0  0  0
 17 18  1  0  0  0  0
 17 19  1  0  0  0  0
 19 20  1  0  0  0  0
 20 21  1  0  0  0  0
 20 22  1  0  0  0  0
 23 24  4  0  0  0  0
 24 25  4  0  0  0  0
 25 26  4  0  0  0  0
 27 28  4  0  0  0  0
M  STY  1   1 DAT
M  SAL   1  1   6
M  SDT   1 MRV_IMPLICIT_H                                        
M  SDD   1     0.0000    0.0000    DR    ALL  0       0  
M  SED   1 IMPL_H1
M  END
>  <Name_Molregno>
341612

>  <5-HT1A>
8.09

$$$$
341613
  Marvin  02231216192D 0   1.00000     0.00000     0

 24 27  0  0  1  0  0  0  0  0999 V2000
    0.1452   -0.5431    0.0000 O   0  0  0  0  0  0  0  0  0
   -0.1097   -1.3277    0.0000 C   0  0  0  0  0  0  0  0  0
    0.4423   -1.9408    0.0000 C   0  0  0  0  0  0  0  0  0
    1.2493   -1.7693    0.0000 N   0  0  0  0  0  0  0  0  0
    1.5042   -0.9847    0.0000 C   0  0  0  0  0  0  0  0  0
    0.9522   -0.3716    0.0000 C   0  0  0  0  0  0  0  0  0
    1.2071    0.4131    0.0000 C   0  0  0  0  0  0  0  0  0
    2.0141    0.5846    0.0000 N   0  0  0  0  0  0  0  0  0
    2.2690    1.3692    0.0000 C   0  0  0  0  0  0  0  0  0
    3.0760    1.5407    0.0000 C   0  0  0  0  0  0  0  0  0
    3.3309    2.3254    0.0000 C   0  0  0  0  0  0  0  0  0
    4.1156    2.5803    0.0000 C   0  0  0  0  0  0  0  0  0
    4.1156    3.4053    0.0000 C   0  0  0  0  0  0  0  0  0
    3.3309    3.6602    0.0000 N   0  0  0  0  0  0  0  0  0
    2.8460    2.9928    0.0000 C   0  0  0  0  0  0  0  0  0
    4.8300    3.8178    0.0000 C   0  0  0  0  0  0  0  0  0
    5.5445    3.4053    0.0000 C   0  0  0  0  0  0  0  0  0
    5.5445    2.5803    0.0000 C   0  0  0  0  0  0  0  0  0
    4.8300    2.1678    0.0000 C   0  0  0  0  0  0  0  0  0
    1.8013   -2.3824    0.0000 C   0  0  0  0  0  0  0  0  0
    0.1874   -2.7254    0.0000 C   0  0  0  0  0  0  0  0  0
   -0.6196   -2.8970    0.0000 C   0  0  0  0  0  0  0  0  0
   -1.1716   -2.2839    0.0000 C   0  0  0  0  0  0  0  0  0
   -0.9167   -1.4992    0.0000 C   0  0  0  0  0  0  0  0  0
  1  2  1  0  0  0  0
  1  6  1  0  0  0  0
  2  3  4  0  0  0  0
  2 24  4  0  0  0  0
  3  4  1  0  0  0  0
  3 21  4  0  0  0  0
  4  5  1  0  0  0  0
  4 20  1  0  0  0  0
  5  6  1  0  0  0  0
  6  7  1  0  0  0  0
  7  8  1  0  0  0  0
  8  9  1  0  0  0  0
  9 10  1  0  0  0  0
 10 11  1  0  0  0  0
 11 12  4  0  0  0  0
 11 15  4  0  0  0  0
 12 13  4  0  0  0  0
 12 19  4  0  0  0  0
 13 14  4  0  0  0  0
 13 16  4  0  0  0  0
 14 15  4  0  0  0  0
 16 17  4  0  0  0  0
 17 18  4  0  0  0  0
 18 19  4  0  0  0  0
 21 22  4  0  0  0  0
 22 23  4  0  0  0  0
 23 24  4  0  0  0  0
M  STY  1   1 DAT
M  SAL   1  1  14
M  SDT   1 MRV_IMPLICIT_H                                        
M  SDD   1     0.0000    0.0000    DR    ALL  0       0  
M  SED   1 IMPL_H1
M  END
>  <Name_Molregno>
341613

>  <5-HT1A>
8.23

$$$$
341619
  Marvin  02231216192D 0   1.00000     0.00000     0

 25 28  0  0  1  0  0  0  0  0999 V2000
   -8.1683    0.8538    0.0000 F   0  0  0  0  0  0  0  0  0
   -7.9133    0.0691    0.0000 C   0  0  0  0  0  0  0  0  0
   -7.1064   -0.1024    0.0000 C   0  0  0  0  0  0  0  0  0
   -6.8514   -0.8870    0.0000 C   0  0  0  0  0  0  0  0  0
   -7.4035   -1.5001    0.0000 C   0  0  0  0  0  0  0  0  0
   -6.9910   -2.2146    0.0000 N   0  0  0  0  0  0  0  0  0
   -6.1840   -2.0430    0.0000 C   0  0  0  0  0  0  0  0  0
   -6.0978   -1.2226    0.0000 C   0  0  0  0  0  0  0  0  0
   -5.3833   -0.8101    0.0000 C   0  0  0  0  0  0  0  0  0
   -4.6688   -1.2226    0.0000 C   0  0  0  0  0  0  0  0  0
   -3.9543   -0.8101    0.0000 N   0  0  0  0  0  0  0  0  0
   -3.2399   -1.2226    0.0000 C   0  0  0  0  0  0  0  0  0
   -2.5254   -0.8101    0.0000 C   0  0  0  0  0  0  0  0  0
   -1.8109   -1.2226    0.0000 O   0  0  0  0  0  0  0  0  0
   -1.0965   -0.8101    0.0000 C   0  0  0  0  0  0  0  0  0
   -1.0965    0.0149    0.0000 C   0  0  0  0  0  0  0  0  0
   -1.8109    0.4274    0.0000 N   0  0  0  0  0  0  0  0  0
   -2.5254    0.0149    0.0000 C   0  0  0  0  0  0  0  0  0
   -1.8109    1.2524    0.0000 C   0  0  0  0  0  0  0  0  0
   -0.3820    0.4274    0.0000 C   0  0  0  0  0  0  0  0  0
    0.3325    0.0149    0.0000 C   0  0  0  0  0  0  0  0  0
    0.3325   -0.8101    0.0000 C   0  0  0  0  0  0  0  0  0
   -0.3820   -1.2226    0.0000 C   0  0  0  0  0  0  0  0  0
   -8.2104   -1.3286    0.0000 C   0  0  0  0  0  0  0  0  0
   -8.4654   -0.5439    0.0000 C   0  0  0  0  0  0  0  0  0
  1  2  1  0  0  0  0
  2  3  4  0  0  0  0
  2 25  4  0  0  0  0
  3  4  4  0  0  0  0
  4  5  4  0  0  0  0
  4  8  4  0  0  0  0
  5  6  4  0  0  0  0
  5 24  4  0  0  0  0
  6  7  4  0  0  0  0
  7  8  4  0  0  0  0
  8  9  1  0  0  0  0
  9 10  1  0  0  0  0
 10 11  1  0  0  0  0
 11 12  1  0  0  0  0
 12 13  1  0  0  0  0
 13 14  1  0  0  0  0
 13 18  1  0  0  0  0
 14 15  1  0  0  0  0
 15 16  4  0  0  0  0
 15 23  4  0  0  0  0
 16 17  1  0  0  0  0
 16 20  4  0  0  0  0
 17 18  1  0  0  0  0
 17 19  1  0  0  0  0
 20 21  4  0  0  0  0
 21 22  4  0  0  0  0
 22 23  4  0  0  0  0
 24 25  4  0  0  0  0
M  STY  1   1 DAT
M  SAL   1  1   6
M  SDT   1 MRV_IMPLICIT_H                                        
M  SDD   1     0.0000    0.0000    DR    ALL  0       0  
M  SED   1 IMPL_H1
M  END
>  <Name_Molregno>
341619

>  <5-HT1A>
8.07

$$$$
341621
  Marvin  02231216192D 0   1.00000     0.00000     0

 23 26  0  0  1  0  0  0  0  0999 V2000
    0.2171   -0.7229    0.0000 O   0  0  0  0  0  0  0  0  0
   -0.0378   -1.5076    0.0000 C   0  0  0  0  0  0  0  0  0
    0.5142   -2.1207    0.0000 C   0  0  0  0  0  0  0  0  0
    1.3212   -1.9491    0.0000 N   0  0  0  0  0  0  0  0  0
    1.5761   -1.1645    0.0000 C   0  0  0  0  0  0  0  0  0
    1.0241   -0.5514    0.0000 C   0  0  0  0  0  0  0  0  0
    1.2790    0.2332    0.0000 C   0  0  0  0  0  0  0  0  0
    2.0860    0.4047    0.0000 N   0  0  0  0  0  0  0  0  0
    2.3409    1.1893    0.0000 C   0  0  0  0  0  0  0  0  0
    3.1479    1.3609    0.0000 C   0  0  0  0  0  0  0  0  0
    3.4028    2.1455    0.0000 C   0  0  0  0  0  0  0  0  0
    4.1875    2.4004    0.0000 C   0  0  0  0  0  0  0  0  0
    4.1875    3.2254    0.0000 C   0  0  0  0  0  0  0  0  0
    3.4028    3.4804    0.0000 N   0  0  0  0  0  0  0  0  0
    2.9179    2.8129    0.0000 C   0  0  0  0  0  0  0  0  0
    4.9019    3.6379    0.0000 C   0  0  0  0  0  0  0  0  0
    5.6164    3.2254    0.0000 C   0  0  0  0  0  0  0  0  0
    5.6164    2.4004    0.0000 C   0  0  0  0  0  0  0  0  0
    4.9019    1.9879    0.0000 C   0  0  0  0  0  0  0  0  0
    0.2593   -2.9053    0.0000 C   0  0  0  0  0  0  0  0  0
   -0.5477   -3.0768    0.0000 C   0  0  0  0  0  0  0  0  0
   -1.0997   -2.4637    0.0000 C   0  0  0  0  0  0  0  0  0
   -0.8448   -1.6791    0.0000 C   0  0  0  0  0  0  0  0  0
  1  2  1  0  0  0  0
  1  6  1  0  0  0  0
  2  3  4  0  0  0  0
  2 23  4  0  0  0  0
  3  4  1  0  0  0  0
  3 20  4  0  0  0  0
  4  5  1  0  0  0  0
  5  6  1  0  0  0  0
  6  7  1  0  0  0  0
  7  8  1  0  0  0  0
  8  9  1  0  0  0  0
  9 10  1  0  0  0  0
 10 11  1  0  0  0  0
 11 12  4  0  0  0  0
 11 15  4  0  0  0  0
 12 13  4  0  0  0  0
 12 19  4  0  0  0  0
 13 14  4  0  0  0  0
 13 16  4  0  0  0  0
 14 15  4  0  0  0  0
 16 17  4  0  0  0  0
 17 18  4  0  0  0  0
 18 19  4  0  0  0  0
 20 21  4  0  0  0  0
 21 22  4  0  0  0  0
 22 23  4  0  0  0  0
M  STY  1   1 DAT
M  SAL   1  1  14
M  SDT   1 MRV_IMPLICIT_H                                        
M  SDD   1     0.0000    0.0000    DR    ALL  0       0  
M  SED   1 IMPL_H1
M  END
>  <Name_Molregno>
341621

>  <5-HT1A>
8.16

$$$$
341629
  Marvin  02231216192D 0   1.00000     0.00000     0

 26 30  0  0  1  0  0  0  0  0999 V2000
    1.4761   -2.6144    0.0000 O   0  0  0  0  0  0  0  0  0
    2.0281   -3.2275    0.0000 C   0  0  0  0  0  0  0  0  0
    2.8351   -3.0560    0.0000 C   0  0  0  0  0  0  0  0  0
    3.0900   -2.2713    0.0000 N   0  0  0  0  0  0  0  0  0
    2.5380   -1.6583    0.0000 C   0  0  0  0  0  0  0  0  0
    1.7310   -1.8298    0.0000 C   0  0  0  0  0  0  0  0  0
    1.1790   -1.2167    0.0000 C   0  0  0  0  0  0  0  0  0
    1.4339   -0.4321    0.0000 N   0  0  0  0  0  0  0  0  0
    0.8819    0.1810    0.0000 C   0  0  0  0  0  0  0  0  0
    1.1368    0.9657    0.0000 C   0  0  0  0  0  0  0  0  0
    1.9438    1.1372    0.0000 C   0  0  0  0  0  0  0  0  0
    2.4958    0.5241    0.0000 C   0  0  0  0  0  0  0  0  0
    2.2409   -0.2605    0.0000 C   0  0  0  0  0  0  0  0  0
    2.1987    1.9218    0.0000 C   0  0  0  0  0  0  0  0  0
    2.9833    2.1767    0.0000 C   0  0  0  0  0  0  0  0  0
    2.9833    3.0017    0.0000 C   0  0  0  0  0  0  0  0  0
    2.1987    3.2567    0.0000 N   0  0  0  0  0  0  0  0  0
    1.7138    2.5892    0.0000 C   0  0  0  0  0  0  0  0  0
    3.6978    3.4142    0.0000 C   0  0  0  0  0  0  0  0  0
    4.4123    3.0017    0.0000 C   0  0  0  0  0  0  0  0  0
    4.4123    2.1767    0.0000 C   0  0  0  0  0  0  0  0  0
    3.6978    1.7642    0.0000 C   0  0  0  0  0  0  0  0  0
    3.3871   -3.6691    0.0000 C   0  0  0  0  0  0  0  0  0
    3.1321   -4.4537    0.0000 C   0  0  0  0  0  0  0  0  0
    2.3252   -4.6252    0.0000 C   0  0  0  0  0  0  0  0  0
    1.7731   -4.0121    0.0000 C   0  0  0  0  0  0  0  0  0
  1  2  1  0  0  0  0
  1  6  1  0  0  0  0
  2  3  4  0  0  0  0
  2 26  4  0  0  0  0
  3  4  1  0  0  0  0
  3 23  4  0  0  0  0
  4  5  1  0  0  0  0
  5  6  1  0  0  0  0
  6  7  1  0  0  0  0
  7  8  1  0  0  0  0
  8  9  1  0  0  0  0
  8 13  1  0  0  0  0
  9 10  1  0  0  0  0
 10 11  1  0  0  0  0
 11 12  2  0  0  0  0
 11 14  1  0  0  0  0
 12 13  1  0  0  0  0
 14 15  4  0  0  0  0
 14 18  4  0  0  0  0
 15 16  4  0  0  0  0
 15 22  4  0  0  0  0
 16 17  4  0  0  0  0
 16 19  4  0  0  0  0
 17 18  4  0  0  0  0
 19 20  4  0  0  0  0
 20 21  4  0  0  0  0
 21 22  4  0  0  0  0
 23 24  4  0  0  0  0
 24 25  4  0  0  0  0
 25 26  4  0  0  0  0
M  STY  1   1 DAT
M  SAL   1  1  17
M  SDT   1 MRV_IMPLICIT_H                                        
M  SDD   1     0.0000    0.0000    DR    ALL  0       0  
M  SED   1 IMPL_H1
M  END
>  <Name_Molregno>
341629

>  <5-HT1A>
6.09

$$$$
341630
  Marvin  02231216192D 0   1.00000     0.00000     0

 32 36  0  0  1  0  0  0  0  0999 V2000
   -6.6814   -6.2478    0.0000 F   0  0  0  0  0  0  0  0  0
   -5.8745   -6.4193    0.0000 C   0  0  0  0  0  0  0  0  0
   -5.3224   -5.8062    0.0000 C   0  0  0  0  0  0  0  0  0
   -4.5155   -5.9777    0.0000 C   0  0  0  0  0  0  0  0  0
   -4.2605   -6.7623    0.0000 C   0  0  0  0  0  0  0  0  0
   -3.4355   -6.7623    0.0000 N   0  0  0  0  0  0  0  0  0
   -3.1806   -5.9777    0.0000 C   0  0  0  0  0  0  0  0  0
   -3.8480   -5.4928    0.0000 C   0  0  0  0  0  0  0  0  0
   -3.8480   -4.6678    0.0000 C   0  0  0  0  0  0  0  0  0
   -4.5625   -4.2553    0.0000 C   0  0  0  0  0  0  0  0  0
   -4.5625   -3.4303    0.0000 C   0  0  0  0  0  0  0  0  0
   -3.8480   -3.0178    0.0000 N   0  0  0  0  0  0  0  0  0
   -3.1335   -3.4303    0.0000 C   0  0  0  0  0  0  0  0  0
   -3.1335   -4.2553    0.0000 C   0  0  0  0  0  0  0  0  0
   -3.8480   -2.1928    0.0000 C   0  0  0  0  0  0  0  0  0
   -3.1335   -1.7803    0.0000 C   0  0  0  0  0  0  0  0  0
   -2.4191   -2.1928    0.0000 O   0  0  0  0  0  0  0  0  0
   -1.7046   -1.7803    0.0000 C   0  0  0  0  0  0  0  0  0
   -1.7046   -0.9553    0.0000 C   0  0  0  0  0  0  0  0  0
   -2.4191   -0.5428    0.0000 N   0  0  0  0  0  0  0  0  0
   -3.1335   -0.9553    0.0000 C   0  0  0  0  0  0  0  0  0
   -2.4191    0.2822    0.0000 C   0  0  0  0  0  0  0  0  0
   -1.7046    0.6947    0.0000 C   0  0  0  0  0  0  0  0  0
   -1.7046    1.5197    0.0000 C   0  0  0  0  0  0  0  0  0
   -0.9901   -0.5428    0.0000 C   0  0  0  0  0  0  0  0  0
   -0.2757   -0.9553    0.0000 C   0  0  0  0  0  0  0  0  0
   -0.2757   -1.7803    0.0000 C   0  0  0  0  0  0  0  0  0
   -0.9901   -2.1928    0.0000 C   0  0  0  0  0  0  0  0  0
   -0.9901   -3.0178    0.0000 O   0  0  0  0  0  0  0  0  0
   -0.2757   -3.4303    0.0000 C   0  0  0  0  0  0  0  0  0
   -4.8125   -7.3754    0.0000 C   0  0  0  0  0  0  0  0  0
   -5.6195   -7.2039    0.0000 C   0  0  0  0  0  0  0  0  0
  1  2  1  0  0  0  0
  2  3  4  0  0  0  0
  2 32  4  0  0  0  0
  3  4  4  0  0  0  0
  4  5  4  0  0  0  0
  4  8  4  0  0  0  0
  5  6  4  0  0  0  0
  5 31  4  0  0  0  0
  6  7  4  0  0  0  0
  7  8  4  0  0  0  0
  8  9  1  0  0  0  0
  9 10  1  0  0  0  0
  9 14  2  0  0  0  0
 10 11  1  0  0  0  0
 11 12  1  0  0  0  0
 12 13  1  0  0  0  0
 12 15  1  0  0  0  0
 13 14  1  0  0  0  0
 15 16  1  0  0  0  0
 16 17  1  0  0  0  0
 16 21  1  0  0  0  0
 17 18  1  0  0  0  0
 18 19  4  0  0  0  0
 18 28  4  0  0  0  0
 19 20  1  0  0  0  0
 19 25  4  0  0  0  0
 20 21  1  0  0  0  0
 20 22  1  0  0  0  0
 22 23  1  0  0  0  0
 23 24  1  0  0  0  0
 25 26  4  0  0  0  0
 26 27  4  0  0  0  0
 27 28  4  0  0  0  0
 28 29  1  0  0  0  0
 29 30  1  0  0  0  0
 31 32  4  0  0  0  0
M  STY  1   1 DAT
M  SAL   1  1   6
M  SDT   1 MRV_IMPLICIT_H                                        
M  SDD   1     0.0000    0.0000    DR    ALL  0       0  
M  SED   1 IMPL_H1
M  END
>  <Name_Molregno>
341630

>  <5-HT1A>
6.44

$$$$
341712
  Marvin  02231216192D 0   1.00000     0.00000     0

 26 29  0  0  1  0  0  0  0  0999 V2000
   -7.8973   -0.4159    0.0000 F   0  0  0  0  0  0  0  0  0
   -7.6424   -1.2005    0.0000 C   0  0  0  0  0  0  0  0  0
   -6.8354   -1.3720    0.0000 C   0  0  0  0  0  0  0  0  0
   -6.5805   -2.1566    0.0000 C   0  0  0  0  0  0  0  0  0
   -7.1325   -2.7697    0.0000 C   0  0  0  0  0  0  0  0  0
   -6.7200   -3.4842    0.0000 N   0  0  0  0  0  0  0  0  0
   -5.9130   -3.3127    0.0000 C   0  0  0  0  0  0  0  0  0
   -5.8268   -2.4922    0.0000 C   0  0  0  0  0  0  0  0  0
   -5.1123   -2.0797    0.0000 C   0  0  0  0  0  0  0  0  0
   -4.3979   -2.4922    0.0000 C   0  0  0  0  0  0  0  0  0
   -3.6834   -2.0797    0.0000 N   0  0  0  0  0  0  0  0  0
   -2.9689   -2.4922    0.0000 C   0  0  0  0  0  0  0  0  0
   -2.2545   -2.0797    0.0000 C   0  0  0  0  0  0  0  0  0
   -1.5400   -2.4922    0.0000 O   0  0  0  0  0  0  0  0  0
   -0.8255   -2.0797    0.0000 C   0  0  0  0  0  0  0  0  0
   -0.8255   -1.2547    0.0000 C   0  0  0  0  0  0  0  0  0
   -1.5400   -0.8422    0.0000 N   0  0  0  0  0  0  0  0  0
   -2.2545   -1.2547    0.0000 C   0  0  0  0  0  0  0  0  0
   -1.5400   -0.0172    0.0000 C   0  0  0  0  0  0  0  0  0
   -2.2545    0.3953    0.0000 C   0  0  0  0  0  0  0  0  0
   -0.1110   -0.8422    0.0000 C   0  0  0  0  0  0  0  0  0
    0.6034   -1.2547    0.0000 C   0  0  0  0  0  0  0  0  0
    0.6034   -2.0797    0.0000 C   0  0  0  0  0  0  0  0  0
   -0.1110   -2.4922    0.0000 C   0  0  0  0  0  0  0  0  0
   -7.9395   -2.5982    0.0000 C   0  0  0  0  0  0  0  0  0
   -8.1944   -1.8136    0.0000 C   0  0  0  0  0  0  0  0  0
  1  2  1  0  0  0  0
  2  3  4  0  0  0  0
  2 26  4  0  0  0  0
  3  4  4  0  0  0  0
  4  5  4  0  0  0  0
  4  8  4  0  0  0  0
  5  6  4  0  0  0  0
  5 25  4  0  0  0  0
  6  7  4  0  0  0  0
  7  8  4  0  0  0  0
  8  9  1  0  0  0  0
  9 10  1  0  0  0  0
 10 11  1  0  0  0  0
 11 12  1  0  0  0  0
 12 13  1  0  0  0  0
 13 14  1  0  0  0  0
 13 18  1  0  0  0  0
 14 15  1  0  0  0  0
 15 16  4  0  0  0  0
 15 24  4  0  0  0  0
 16 17  1  0  0  0  0
 16 21  4  0  0  0  0
 17 18  1  0  0  0  0
 17 19  1  0  0  0  0
 19 20  1  0  0  0  0
 21 22  4  0  0  0  0
 22 23  4  0  0  0  0
 23 24  4  0  0  0  0
 25 26  4  0  0  0  0
M  STY  1   1 DAT
M  SAL   1  1   6
M  SDT   1 MRV_IMPLICIT_H                                        
M  SDD   1     0.0000    0.0000    DR    ALL  0       0  
M  SED   1 IMPL_H1
M  END
>  <Name_Molregno>
341712

>  <5-HT1A>
7.82

$$$$
341719
  Marvin  02231216192D 0   1.00000     0.00000     0

 24 27  0  0  1  0  0  0  0  0999 V2000
   -6.5381   -1.6368    0.0000 F   0  0  0  0  0  0  0  0  0
   -6.2831   -2.4214    0.0000 C   0  0  0  0  0  0  0  0  0
   -5.4762   -2.5929    0.0000 C   0  0  0  0  0  0  0  0  0
   -5.2212   -3.3776    0.0000 C   0  0  0  0  0  0  0  0  0
   -5.7733   -3.9907    0.0000 C   0  0  0  0  0  0  0  0  0
   -5.3608   -4.7051    0.0000 N   0  0  0  0  0  0  0  0  0
   -4.5538   -4.5336    0.0000 C   0  0  0  0  0  0  0  0  0
   -4.4676   -3.7131    0.0000 C   0  0  0  0  0  0  0  0  0
   -3.7531   -3.3006    0.0000 C   0  0  0  0  0  0  0  0  0
   -3.0386   -3.7131    0.0000 C   0  0  0  0  0  0  0  0  0
   -2.3241   -3.3006    0.0000 N   0  0  0  0  0  0  0  0  0
   -1.6097   -3.7131    0.0000 C   0  0  0  0  0  0  0  0  0
   -0.8952   -3.3006    0.0000 C   0  0  0  0  0  0  0  0  0
   -0.1807   -3.7131    0.0000 O   0  0  0  0  0  0  0  0  0
    0.5337   -3.3006    0.0000 C   0  0  0  0  0  0  0  0  0
    0.5337   -2.4756    0.0000 C   0  0  0  0  0  0  0  0  0
   -0.1807   -2.0631    0.0000 N   0  0  0  0  0  0  0  0  0
   -0.8952   -2.4756    0.0000 C   0  0  0  0  0  0  0  0  0
    1.2482   -2.0631    0.0000 C   0  0  0  0  0  0  0  0  0
    1.9627   -2.4756    0.0000 C   0  0  0  0  0  0  0  0  0
    1.9627   -3.3006    0.0000 C   0  0  0  0  0  0  0  0  0
    1.2482   -3.7131    0.0000 C   0  0  0  0  0  0  0  0  0
   -6.5802   -3.8191    0.0000 C   0  0  0  0  0  0  0  0  0
   -6.8352   -3.0345    0.0000 C   0  0  0  0  0  0  0  0  0
  1  2  1  0  0  0  0
  2  3  4  0  0  0  0
  2 24  4  0  0  0  0
  3  4  4  0  0  0  0
  4  5  4  0  0  0  0
  4  8  4  0  0  0  0
  5  6  4  0  0  0  0
  5 23  4  0  0  0  0
  6  7  4  0  0  0  0
  7  8  4  0  0  0  0
  8  9  1  0  0  0  0
  9 10  1  0  0  0  0
 10 11  1  0  0  0  0
 11 12  1  0  0  0  0
 12 13  1  0  0  0  0
 13 14  1  0  0  0  0
 13 18  1  0  0  0  0
 14 15  1  0  0  0  0
 15 16  4  0  0  0  0
 15 22  4  0  0  0  0
 16 17  1  0  0  0  0
 16 19  4  0  0  0  0
 17 18  1  0  0  0  0
 19 20  4  0  0  0  0
 20 21  4  0  0  0  0
 21 22  4  0  0  0  0
 23 24  4  0  0  0  0
M  STY  1   1 DAT
M  SAL   1  1   6
M  SDT   1 MRV_IMPLICIT_H                                        
M  SDD   1     0.0000    0.0000    DR    ALL  0       0  
M  SED   1 IMPL_H1
M  END
>  <Name_Molregno>
341719

>  <5-HT1A>
7.96

$$$$
341823
  Marvin  02231216192D 0   1.00000     0.00000     0

 26 29  0  0  1  0  0  0  0  0999 V2000
    0.1056    0.3624    0.0000 S   0  0  0  0  0  0  0  0  0
    0.8201   -0.0501    0.0000 O   0  0  0  0  0  0  0  0  0
   -0.6089    0.7749    0.0000 O   0  0  0  0  0  0  0  0  0
   -0.3069   -0.3520    0.0000 C   0  0  0  0  0  0  0  0  0
   -0.7194   -1.0665    0.0000 C   0  0  0  0  0  0  0  0  0
   -1.4339   -0.6540    0.0000 C   0  0  0  0  0  0  0  0  0
   -1.0214    0.0605    0.0000 C   0  0  0  0  0  0  0  0  0
    0.4076   -0.7645    0.0000 C   0  0  0  0  0  0  0  0  0
    1.1221   -0.3520    0.0000 C   0  0  0  0  0  0  0  0  0
    1.8365   -0.7645    0.0000 C   0  0  0  0  0  0  0  0  0
    2.5510   -0.3520    0.0000 N   0  0  0  0  0  0  0  0  0
    3.2655   -0.7645    0.0000 C   0  0  0  0  0  0  0  0  0
    3.9799   -0.3520    0.0000 C   0  0  0  0  0  0  0  0  0
    3.9799    0.4730    0.0000 C   0  0  0  0  0  0  0  0  0
    4.6944    0.8855    0.0000 C   0  0  0  0  0  0  0  0  0
    5.4089    0.4730    0.0000 C   0  0  0  0  0  0  0  0  0
    5.4089   -0.3520    0.0000 C   0  0  0  0  0  0  0  0  0
    4.6944   -0.7645    0.0000 C   0  0  0  0  0  0  0  0  0
    3.2655    0.8855    0.0000 C   0  0  0  0  0  0  0  0  0
    2.5510    0.4730    0.0000 C   0  0  0  0  0  0  0  0  0
    0.5181    1.0769    0.0000 C   0  0  0  0  0  0  0  0  0
    0.1056    1.7914    0.0000 C   0  0  0  0  0  0  0  0  0
    0.5181    2.5058    0.0000 C   0  0  0  0  0  0  0  0  0
    1.3431    2.5058    0.0000 C   0  0  0  0  0  0  0  0  0
    1.7556    1.7914    0.0000 C   0  0  0  0  0  0  0  0  0
    1.3431    1.0769    0.0000 C   0  0  0  0  0  0  0  0  0
  1  2  2  0  0  0  0
  1  3  2  0  0  0  0
  1  4  1  0  0  0  0
  1 21  1  0  0  0  0
  4  5  1  0  0  0  0
  4  7  1  0  0  0  0
  4  8  1  0  0  0  0
  5  6  1  0  0  0  0
  6  7  1  0  0  0  0
  8  9  1  0  0  0  0
  9 10  1  0  0  0  0
 10 11  1  0  0  0  0
 11 12  1  0  0  0  0
 11 20  1  0  0  0  0
 12 13  1  0  0  0  0
 13 14  1  0  0  0  0
 13 18  1  0  0  0  0
 14 15  1  0  0  0  0
 14 19  1  0  0  0  0
 15 16  1  0  0  0  0
 16 17  1  0  0  0  0
 17 18  1  0  0  0  0
 19 20  1  0  0  0  0
 21 22  4  0  0  0  0
 21 26  4  0  0  0  0
 22 23  4  0  0  0  0
 23 24  4  0  0  0  0
 24 25  4  0  0  0  0
 25 26  4  0  0  0  0
M  END
>  <Name_Molregno>
341823

>  <5-HT1A>
6.68

>  <5-HT2A>
6.24

>  <5-HT7>
8.22

$$$$
342514
  Marvin  02231216192D 0   1.00000     0.00000     0

 20 23  0  0  1  0  0  0  0  0999 V2000
   -3.9747   -0.6378    0.0000 O   0  0  0  0  0  0  0  0  0
   -4.5268   -1.2508    0.0000 C   0  0  0  0  0  0  0  0  0
   -5.3338   -1.0793    0.0000 C   0  0  0  0  0  0  0  0  0
   -6.1184   -1.3343    0.0000 C   0  0  0  0  0  0  0  0  0
   -5.9468   -0.5273    0.0000 C   0  0  0  0  0  0  0  0  0
   -3.1678   -0.8093    0.0000 C   0  0  0  0  0  0  0  0  0
   -2.6157   -0.1962    0.0000 C   0  0  0  0  0  0  0  0  0
   -1.8088   -0.3677    0.0000 N   0  0  0  0  0  0  0  0  0
   -1.2567    0.2454    0.0000 C   0  0  0  0  0  0  0  0  0
   -0.4317    0.2454    0.0000 N   0  0  0  0  0  0  0  0  0
   -0.1768    1.0300    0.0000 C   0  0  0  0  0  0  0  0  0
   -0.8442    1.5149    0.0000 C   0  0  0  0  0  0  0  0  0
   -1.5117    1.0300    0.0000 C   0  0  0  0  0  0  0  0  0
   -2.3187    1.2015    0.0000 C   0  0  0  0  0  0  0  0  0
   -2.8707    0.5884    0.0000 C   0  0  0  0  0  0  0  0  0
    0.6302    1.2015    0.0000 C   0  0  0  0  0  0  0  0  0
    1.1822    0.5884    0.0000 N   0  0  0  0  0  0  0  0  0
    0.9273   -0.1962    0.0000 C   0  0  0  0  0  0  0  0  0
    0.1203   -0.3677    0.0000 C   0  0  0  0  0  0  0  0  0
   -0.1346   -1.1523    0.0000 C   0  0  0  0  0  0  0  0  0
  1  2  1  0  0  0  0
  1  6  1  0  0  0  0
  2  3  1  0  0  0  0
  3  4  1  0  0  0  0
  3  5  1  0  0  0  0
  4  5  1  0  0  0  0
  6  7  1  0  0  0  0
  7  8  4  0  0  0  0
  7 15  4  0  0  0  0
  8  9  4  0  0  0  0
  9 10  1  0  0  0  0
  9 13  4  0  0  0  0
 10 11  1  0  0  0  0
 10 19  1  0  0  0  0
 11 12  1  0  0  0  0
 11 16  1  0  0  0  0
 12 13  1  0  0  0  0
 13 14  4  0  0  0  0
 14 15  4  0  0  0  0
 16 17  1  0  0  0  0
 17 18  1  0  0  0  0
 18 19  1  0  0  0  0
 19 20  1  0  0  0  0
M  END
>  <Name_Molregno>
342514

>  <5-HT1A>
6.14

>  <5-HT1B>
6.14

>  <5-HT1D>
6.44

>  <5-HT2A>
7.13

>  <5-HT2C>
8.44

>  <5-HT3>
6

>  <5-HT5>
6.14

>  <5-HT6>
6.14

>  <5-HT7>
6

>  <Beta-1>
6

>  <DOPAMINE D4>
6.14

>  <Dopamine transporter>
6

>  <Norepinephrine transporter>
6

>  <Serotonin transporter>
6

$$$$
344371
  Marvin  02231216192D 0   1.00000     0.00000     0

 27 29  0  0  0  0  0  0  0  0999 V2000
   -8.3424    3.5017    0.0000 O   0  0  0  0  0  0  0  0  0
   -9.0569    3.9142    0.0000 C   0  0  0  0  0  0  0  0  0
   -8.3424    2.6767    0.0000 C   0  0  0  0  0  0  0  0  0
   -7.6279    2.2642    0.0000 C   0  0  0  0  0  0  0  0  0
   -7.6279    1.4392    0.0000 C   0  0  0  0  0  0  0  0  0
   -6.9134    1.0267    0.0000 N   0  0  0  0  0  0  0  0  0
   -6.1990    1.4392    0.0000 C   0  0  0  0  0  0  0  0  0
   -5.4845    1.0267    0.0000 C   0  0  0  0  0  0  0  0  0
   -5.4845    0.2017    0.0000 N   0  0  0  0  0  0  0  0  0
   -6.1990   -0.2108    0.0000 C   0  0  0  0  0  0  0  0  0
   -6.9134    0.2017    0.0000 C   0  0  0  0  0  0  0  0  0
   -4.7700   -0.2108    0.0000 C   0  0  0  0  0  0  0  0  0
   -4.0556    0.2017    0.0000 C   0  0  0  0  0  0  0  0  0
   -3.3411   -0.2108    0.0000 C   0  0  0  0  0  0  0  0  0
   -2.6266    0.2017    0.0000 C   0  0  0  0  0  0  0  0  0
   -1.9121   -0.2108    0.0000 N   0  0  0  0  0  0  0  0  0
   -1.1977    0.2017    0.0000 N   0  0  0  0  0  0  0  0  0
   -0.4832   -0.2108    0.0000 C   0  0  0  0  0  0  0  0  0
   -0.4832   -1.0358    0.0000 C   0  0  0  0  0  0  0  0  0
    0.2313   -1.4483    0.0000 O   0  0  0  0  0  0  0  0  0
   -1.1977   -1.4483    0.0000 N   0  0  0  0  0  0  0  0  0
   -1.1977   -2.2733    0.0000 C   0  0  0  0  0  0  0  0  0
   -1.9121   -1.0358    0.0000 C   0  0  0  0  0  0  0  0  0
   -2.6266   -1.4483    0.0000 O   0  0  0  0  0  0  0  0  0
   -8.3424    1.0267    0.0000 C   0  0  0  0  0  0  0  0  0
   -9.0569    1.4392    0.0000 C   0  0  0  0  0  0  0  0  0
   -9.0569    2.2642    0.0000 C   0  0  0  0  0  0  0  0  0
  1  2  1  0  0  0  0
  1  3  1  0  0  0  0
  3  4  4  0  0  0  0
  3 27  4  0  0  0  0
  4  5  4  0  0  0  0
  5  6  1  0  0  0  0
  5 25  4  0  0  0  0
  6  7  1  0  0  0  0
  6 11  1  0  0  0  0
  7  8  1  0  0  0  0
  8  9  1  0  0  0  0
  9 10  1  0  0  0  0
  9 12  1  0  0  0  0
 10 11  1  0  0  0  0
 12 13  1  0  0  0  0
 13 14  1  0  0  0  0
 14 15  1  0  0  0  0
 15 16  1  0  0  0  0
 16 17  1  0  0  0  0
 16 23  1  0  0  0  0
 17 18  2  0  0  0  0
 18 19  1  0  0  0  0
 19 20  2  0  0  0  0
 19 21  1  0  0  0  0
 21 22  1  0  0  0  0
 21 23  1  0  0  0  0
 23 24  2  0  0  0  0
 25 26  4  0  0  0  0
 26 27  4  0  0  0  0
M  END
>  <Name_Molregno>
344371

>  <5-HT1A>
8.96

>  <5-HT1B>
6.64

>  <5-HT1E>
5

>  <5-HT2A>
5.68

>  <5-HT3>
5

>  <5-HT5>
5

>  <5-HT6>
5

>  <5-HT7>
6.48

>  <Alpha-1A>
6.38

>  <Alpha-1B>
6.42

>  <Alpha-2A>
6.6

>  <Alpha-2C>
6.96

>  <DOPAMINE D2>
5.59

>  <DOPAMINE D3>
5

>  <DOPAMINE D4>
5

>  <DOPAMINE D5>
5

>  <Dopamine transporter>
5

>  <HISTAMINE H1>
6.08

>  <HISTAMINE H2>
5.67

>  <HISTAMINE H3>
5

>  <HISTAMINE H4>
5

>  <Norepinephrine transporter>
5

>  <Serotonin transporter>
5

$$$$
347612
  Marvin  02231216192D 0   1.00000     0.00000     0

 32 34  0  0  0  0  0  0  0  0999 V2000
    0.1331   -0.4371    0.0000 S   0  0  0  0  0  0  0  0  0
    0.5456    0.2773    0.0000 O   0  0  0  0  0  0  0  0  0
   -0.2794   -1.1516    0.0000 O   0  0  0  0  0  0  0  0  0
    0.8476   -0.8496    0.0000 N   0  0  0  0  0  0  0  0  0
    1.5621   -0.4371    0.0000 C   0  0  0  0  0  0  0  0  0
    2.2765   -0.8496    0.0000 C   0  0  0  0  0  0  0  0  0
    2.9910   -0.4371    0.0000 C   0  0  0  0  0  0  0  0  0
    3.7055   -0.8496    0.0000 C   0  0  0  0  0  0  0  0  0
    4.4200   -0.4371    0.0000 N   0  0  0  0  0  0  0  0  0
    4.4200    0.3879    0.0000 C   0  0  0  0  0  0  0  0  0
    5.1344    0.8004    0.0000 C   0  0  0  0  0  0  0  0  0
    5.8489    0.3879    0.0000 N   0  0  0  0  0  0  0  0  0
    5.8489   -0.4371    0.0000 C   0  0  0  0  0  0  0  0  0
    5.1344   -0.8496    0.0000 C   0  0  0  0  0  0  0  0  0
    6.5634    0.8004    0.0000 C   0  0  0  0  0  0  0  0  0
    6.5634    1.6254    0.0000 C   0  0  0  0  0  0  0  0  0
    7.2778    2.0379    0.0000 C   0  0  0  0  0  0  0  0  0
    7.2778    2.8629    0.0000 N   0  0  0  0  0  0  0  0  0
    7.9923    3.2754    0.0000 S   0  0  0  0  0  0  0  0  0
    8.7068    3.6879    0.0000 O   0  0  0  0  0  0  0  0  0
    7.5798    3.9898    0.0000 O   0  0  0  0  0  0  0  0  0
    8.4048    2.5609    0.0000 C   0  0  0  0  0  0  0  0  0
    7.9923    1.6254    0.0000 C   0  0  0  0  0  0  0  0  0
    7.9923    0.8004    0.0000 C   0  0  0  0  0  0  0  0  0
    7.2778    0.3879    0.0000 C   0  0  0  0  0  0  0  0  0
   -0.5813   -0.0246    0.0000 C   0  0  0  0  0  0  0  0  0
   -1.2958   -0.4371    0.0000 C   0  0  0  0  0  0  0  0  0
   -2.0103   -0.0246    0.0000 C   0  0  0  0  0  0  0  0  0
   -2.0103    0.8004    0.0000 C   0  0  0  0  0  0  0  0  0
   -1.2958    1.2129    0.0000 C   0  0  0  0  0  0  0  0  0
   -0.5813    0.8004    0.0000 C   0  0  0  0  0  0  0  0  0
   -2.7248    1.2129    0.0000 C   0  0  0  0  0  0  0  0  0
  1  2  2  0  0  0  0
  1  3  2  0  0  0  0
  1  4  1  0  0  0  0
  1 26  1  0  0  0  0
  4  5  1  0  0  0  0
  5  6  1  0  0  0  0
  6  7  1  0  0  0  0
  7  8  1  0  0  0  0
  8  9  1  0  0  0  0
  9 10  1  0  0  0  0
  9 14  1  0  0  0  0
 10 11  1  0  0  0  0
 11 12  1  0  0  0  0
 12 13  1  0  0  0  0
 12 15  1  0  0  0  0
 13 14  1  0  0  0  0
 15 16  4  0  0  0  0
 15 25  4  0  0  0  0
 16 17  4  0  0  0  0
 17 18  1  0  0  0  0
 17 23  4  0  0  0  0
 18 19  1  0  0  0  0
 19 20  2  0  0  0  0
 19 21  2  0  0  0  0
 19 22  1  0  0  0  0
 23 24  4  0  0  0  0
 24 25  4  0  0  0  0
 26 27  4  0  0  0  0
 26 31  4  0  0  0  0
 27 28  4  0  0  0  0
 28 29  4  0  0  0  0
 29 30  4  0  0  0  0
 29 32  1  0  0  0  0
 30 31  4  0  0  0  0
M  END
>  <Name_Molregno>
347612

>  <5-HT1A>
7.34

$$$$
347618
  Marvin  02231216192D 0   1.00000     0.00000     0

 33 35  0  0  0  0  0  0  0  0999 V2000
   -7.4600   -1.9629    0.0000 S   0  0  0  0  0  0  0  0  0
   -7.0475   -1.2484    0.0000 O   0  0  0  0  0  0  0  0  0
   -7.8725   -2.6773    0.0000 O   0  0  0  0  0  0  0  0  0
   -6.7455   -2.3754    0.0000 N   0  0  0  0  0  0  0  0  0
   -6.0311   -1.9629    0.0000 C   0  0  0  0  0  0  0  0  0
   -5.3166   -2.3754    0.0000 C   0  0  0  0  0  0  0  0  0
   -4.6021   -1.9629    0.0000 C   0  0  0  0  0  0  0  0  0
   -3.8876   -2.3754    0.0000 C   0  0  0  0  0  0  0  0  0
   -3.1732   -1.9629    0.0000 N   0  0  0  0  0  0  0  0  0
   -3.1732   -1.1379    0.0000 C   0  0  0  0  0  0  0  0  0
   -2.4587   -0.7254    0.0000 C   0  0  0  0  0  0  0  0  0
   -1.7442   -1.1379    0.0000 N   0  0  0  0  0  0  0  0  0
   -1.7442   -1.9629    0.0000 C   0  0  0  0  0  0  0  0  0
   -2.4587   -2.3754    0.0000 C   0  0  0  0  0  0  0  0  0
   -1.0298   -0.7254    0.0000 C   0  0  0  0  0  0  0  0  0
   -1.0298    0.0996    0.0000 C   0  0  0  0  0  0  0  0  0
   -0.3153    0.5121    0.0000 C   0  0  0  0  0  0  0  0  0
   -0.3153    1.3371    0.0000 N   0  0  0  0  0  0  0  0  0
    0.3992    1.7496    0.0000 S   0  0  0  0  0  0  0  0  0
   -0.0133    2.4641    0.0000 O   0  0  0  0  0  0  0  0  0
    0.8117    1.0352    0.0000 O   0  0  0  0  0  0  0  0  0
    1.1136    2.1621    0.0000 C   0  0  0  0  0  0  0  0  0
    1.1136    2.9871    0.0000 C   0  0  0  0  0  0  0  0  0
    0.3992    0.0996    0.0000 C   0  0  0  0  0  0  0  0  0
    0.3992   -0.7254    0.0000 C   0  0  0  0  0  0  0  0  0
   -0.3153   -1.1379    0.0000 C   0  0  0  0  0  0  0  0  0
   -8.1745   -1.5504    0.0000 C   0  0  0  0  0  0  0  0  0
   -8.8889   -1.9629    0.0000 C   0  0  0  0  0  0  0  0  0
   -9.6034   -1.5504    0.0000 C   0  0  0  0  0  0  0  0  0
   -9.6034   -0.7254    0.0000 C   0  0  0  0  0  0  0  0  0
   -8.8889   -0.3129    0.0000 C   0  0  0  0  0  0  0  0  0
   -8.1745   -0.7254    0.0000 C   0  0  0  0  0  0  0  0  0
  -10.3179   -0.3129    0.0000 C   0  0  0  0  0  0  0  0  0
  1  2  2  0  0  0  0
  1  3  2  0  0  0  0
  1  4  1  0  0  0  0
  1 27  1  0  0  0  0
  4  5  1  0  0  0  0
  5  6  1  0  0  0  0
  6  7  1  0  0  0  0
  7  8  1  0  0  0  0
  8  9  1  0  0  0  0
  9 10  1  0  0  0  0
  9 14  1  0  0  0  0
 10 11  1  0  0  0  0
 11 12  1  0  0  0  0
 12 13  1  0  0  0  0
 12 15  1  0  0  0  0
 13 14  1  0  0  0  0
 15 16  4  0  0  0  0
 15 26  4  0  0  0  0
 16 17  4  0  0  0  0
 17 18  1  0  0  0  0
 17 24  4  0  0  0  0
 18 19  1  0  0  0  0
 19 20  2  0  0  0  0
 19 21  2  0  0  0  0
 19 22  1  0  0  0  0
 22 23  1  0  0  0  0
 24 25  4  0  0  0  0
 25 26  4  0  0  0  0
 27 28  4  0  0  0  0
 27 32  4  0  0  0  0
 28 29  4  0  0  0  0
 29 30  4  0  0  0  0
 30 31  4  0  0  0  0
 30 33  1  0  0  0  0
 31 32  4  0  0  0  0
M  END
>  <Name_Molregno>
347618

>  <5-HT1A>
6.85

$$$$
347619
  Marvin  02231216192D 0   1.00000     0.00000     0

 34 36  0  0  0  0  0  0  0  0999 V2000
   -7.7974   -2.1008    0.0000 S   0  0  0  0  0  0  0  0  0
   -7.3849   -1.3863    0.0000 O   0  0  0  0  0  0  0  0  0
   -8.2099   -2.8152    0.0000 O   0  0  0  0  0  0  0  0  0
   -7.0829   -2.5133    0.0000 N   0  0  0  0  0  0  0  0  0
   -6.3685   -2.1008    0.0000 C   0  0  0  0  0  0  0  0  0
   -5.6540   -2.5133    0.0000 C   0  0  0  0  0  0  0  0  0
   -4.9395   -2.1008    0.0000 C   0  0  0  0  0  0  0  0  0
   -4.2251   -2.5133    0.0000 C   0  0  0  0  0  0  0  0  0
   -3.5106   -2.1008    0.0000 N   0  0  0  0  0  0  0  0  0
   -3.5106   -1.2758    0.0000 C   0  0  0  0  0  0  0  0  0
   -2.7961   -0.8633    0.0000 C   0  0  0  0  0  0  0  0  0
   -2.0816   -1.2758    0.0000 N   0  0  0  0  0  0  0  0  0
   -2.0816   -2.1008    0.0000 C   0  0  0  0  0  0  0  0  0
   -2.7961   -2.5133    0.0000 C   0  0  0  0  0  0  0  0  0
   -1.3672   -0.8633    0.0000 C   0  0  0  0  0  0  0  0  0
   -1.3672   -0.0383    0.0000 C   0  0  0  0  0  0  0  0  0
   -0.6527    0.3742    0.0000 C   0  0  0  0  0  0  0  0  0
   -0.6527    1.1992    0.0000 N   0  0  0  0  0  0  0  0  0
    0.0618    1.6117    0.0000 S   0  0  0  0  0  0  0  0  0
   -0.3507    2.3262    0.0000 O   0  0  0  0  0  0  0  0  0
    0.4743    0.8973    0.0000 O   0  0  0  0  0  0  0  0  0
    0.7762    2.0242    0.0000 C   0  0  0  0  0  0  0  0  0
    0.7762    2.8492    0.0000 C   0  0  0  0  0  0  0  0  0
    1.4907    1.6117    0.0000 C   0  0  0  0  0  0  0  0  0
    0.0618   -0.0383    0.0000 C   0  0  0  0  0  0  0  0  0
    0.0618   -0.8633    0.0000 C   0  0  0  0  0  0  0  0  0
   -0.6527   -1.2758    0.0000 C   0  0  0  0  0  0  0  0  0
   -8.5119   -1.6883    0.0000 C   0  0  0  0  0  0  0  0  0
   -9.2264   -2.1008    0.0000 C   0  0  0  0  0  0  0  0  0
   -9.9408   -1.6883    0.0000 C   0  0  0  0  0  0  0  0  0
   -9.9408   -0.8633    0.0000 C   0  0  0  0  0  0  0  0  0
   -9.2264   -0.4508    0.0000 C   0  0  0  0  0  0  0  0  0
   -8.5119   -0.8633    0.0000 C   0  0  0  0  0  0  0  0  0
  -10.6553   -0.4508    0.0000 C   0  0  0  0  0  0  0  0  0
  1  2  2  0  0  0  0
  1  3  2  0  0  0  0
  1  4  1  0  0  0  0
  1 28  1  0  0  0  0
  4  5  1  0  0  0  0
  5  6  1  0  0  0  0
  6  7  1  0  0  0  0
  7  8  1  0  0  0  0
  8  9  1  0  0  0  0
  9 10  1  0  0  0  0
  9 14  1  0  0  0  0
 10 11  1  0  0  0  0
 11 12  1  0  0  0  0
 12 13  1  0  0  0  0
 12 15  1  0  0  0  0
 13 14  1  0  0  0  0
 15 16  4  0  0  0  0
 15 27  4  0  0  0  0
 16 17  4  0  0  0  0
 17 18  1  0  0  0  0
 17 25  4  0  0  0  0
 18 19  1  0  0  0  0
 19 20  2  0  0  0  0
 19 21  2  0  0  0  0
 19 22  1  0  0  0  0
 22 23  1  0  0  0  0
 22 24  1  0  0  0  0
 25 26  4  0  0  0  0
 26 27  4  0  0  0  0
 28 29  4  0  0  0  0
 28 33  4  0  0  0  0
 29 30  4  0  0  0  0
 30 31  4  0  0  0  0
 31 32  4  0  0  0  0
 31 34  1  0  0  0  0
 32 33  4  0  0  0  0
M  END
>  <Name_Molregno>
347619

>  <5-HT1A>
7.33

$$$$
347663
  Marvin  02231216192D 0   1.00000     0.00000     0

 32 34  0  0  0  0  0  0  0  0999 V2000
   -7.1641   -0.4710    0.0000 S   0  0  0  0  0  0  0  0  0
   -6.7516    0.2434    0.0000 O   0  0  0  0  0  0  0  0  0
   -7.5766   -1.1855    0.0000 O   0  0  0  0  0  0  0  0  0
   -6.4496   -0.8835    0.0000 N   0  0  0  0  0  0  0  0  0
   -5.7351   -0.4710    0.0000 C   0  0  0  0  0  0  0  0  0
   -5.0206   -0.8835    0.0000 C   0  0  0  0  0  0  0  0  0
   -4.3062   -0.4710    0.0000 C   0  0  0  0  0  0  0  0  0
   -3.5917   -0.8835    0.0000 C   0  0  0  0  0  0  0  0  0
   -2.8772   -0.4710    0.0000 N   0  0  0  0  0  0  0  0  0
   -2.8772    0.3540    0.0000 C   0  0  0  0  0  0  0  0  0
   -2.1628    0.7665    0.0000 C   0  0  0  0  0  0  0  0  0
   -1.4483    0.3540    0.0000 N   0  0  0  0  0  0  0  0  0
   -1.4483   -0.4710    0.0000 C   0  0  0  0  0  0  0  0  0
   -2.1628   -0.8835    0.0000 C   0  0  0  0  0  0  0  0  0
   -0.7338    0.7665    0.0000 C   0  0  0  0  0  0  0  0  0
   -0.7338    1.5915    0.0000 C   0  0  0  0  0  0  0  0  0
   -0.0193    2.0040    0.0000 C   0  0  0  0  0  0  0  0  0
   -0.0193    2.8290    0.0000 N   0  0  0  0  0  0  0  0  0
    0.6951    3.2415    0.0000 C   0  0  0  0  0  0  0  0  0
    1.4096    2.8290    0.0000 O   0  0  0  0  0  0  0  0  0
    0.6951    4.0665    0.0000 C   0  0  0  0  0  0  0  0  0
    1.4096    4.4790    0.0000 C   0  0  0  0  0  0  0  0  0
    0.6951    1.5915    0.0000 C   0  0  0  0  0  0  0  0  0
    0.6951    0.7665    0.0000 C   0  0  0  0  0  0  0  0  0
   -0.0193    0.3540    0.0000 C   0  0  0  0  0  0  0  0  0
   -7.8785   -0.0585    0.0000 C   0  0  0  0  0  0  0  0  0
   -8.5930   -0.4710    0.0000 C   0  0  0  0  0  0  0  0  0
   -9.3075   -0.0585    0.0000 C   0  0  0  0  0  0  0  0  0
   -9.3075    0.7665    0.0000 C   0  0  0  0  0  0  0  0  0
   -8.5930    1.1790    0.0000 C   0  0  0  0  0  0  0  0  0
   -7.8785    0.7665    0.0000 C   0  0  0  0  0  0  0  0  0
  -10.0219    1.1790    0.0000 C   0  0  0  0  0  0  0  0  0
  1  2  2  0  0  0  0
  1  3  2  0  0  0  0
  1  4  1  0  0  0  0
  1 26  1  0  0  0  0
  4  5  1  0  0  0  0
  5  6  1  0  0  0  0
  6  7  1  0  0  0  0
  7  8  1  0  0  0  0
  8  9  1  0  0  0  0
  9 10  1  0  0  0  0
  9 14  1  0  0  0  0
 10 11  1  0  0  0  0
 11 12  1  0  0  0  0
 12 13  1  0  0  0  0
 12 15  1  0  0  0  0
 13 14  1  0  0  0  0
 15 16  4  0  0  0  0
 15 25  4  0  0  0  0
 16 17  4  0  0  0  0
 17 18  1  0  0  0  0
 17 23  4  0  0  0  0
 18 19  1  0  0  0  0
 19 20  2  0  0  0  0
 19 21  1  0  0  0  0
 21 22  1  0  0  0  0
 23 24  4  0  0  0  0
 24 25  4  0  0  0  0
 26 27  4  0  0  0  0
 26 31  4  0  0  0  0
 27 28  4  0  0  0  0
 28 29  4  0  0  0  0
 29 30  4  0  0  0  0
 29 32  1  0  0  0  0
 30 31  4  0  0  0  0
M  END
>  <Name_Molregno>
347663

>  <5-HT1A>
6.37

$$$$
347664
  Marvin  02231216192D 0   1.00000     0.00000     0

 27 29  0  0  0  0  0  0  0  0999 V2000
   -5.2778   -1.2892    0.0000 S   0  0  0  0  0  0  0  0  0
   -4.8653   -0.5747    0.0000 O   0  0  0  0  0  0  0  0  0
   -5.6903   -2.0037    0.0000 O   0  0  0  0  0  0  0  0  0
   -4.5633   -1.7017    0.0000 N   0  0  0  0  0  0  0  0  0
   -3.8488   -1.2892    0.0000 C   0  0  0  0  0  0  0  0  0
   -3.1344   -1.7017    0.0000 C   0  0  0  0  0  0  0  0  0
   -2.4199   -1.2892    0.0000 C   0  0  0  0  0  0  0  0  0
   -1.7054   -1.7017    0.0000 C   0  0  0  0  0  0  0  0  0
   -0.9909   -1.2892    0.0000 N   0  0  0  0  0  0  0  0  0
   -0.9909   -0.4642    0.0000 C   0  0  0  0  0  0  0  0  0
   -0.2765   -0.0517    0.0000 C   0  0  0  0  0  0  0  0  0
    0.4380   -0.4642    0.0000 N   0  0  0  0  0  0  0  0  0
    0.4380   -1.2892    0.0000 C   0  0  0  0  0  0  0  0  0
   -0.2765   -1.7017    0.0000 C   0  0  0  0  0  0  0  0  0
    1.1525   -0.0517    0.0000 C   0  0  0  0  0  0  0  0  0
    1.1525    0.7733    0.0000 C   0  0  0  0  0  0  0  0  0
    1.8669    1.1858    0.0000 C   0  0  0  0  0  0  0  0  0
    2.5814    0.7733    0.0000 C   0  0  0  0  0  0  0  0  0
    2.5814   -0.0517    0.0000 C   0  0  0  0  0  0  0  0  0
    1.8669   -0.4642    0.0000 C   0  0  0  0  0  0  0  0  0
   -5.9922   -0.8767    0.0000 C   0  0  0  0  0  0  0  0  0
   -6.7067   -1.2892    0.0000 C   0  0  0  0  0  0  0  0  0
   -7.4212   -0.8767    0.0000 C   0  0  0  0  0  0  0  0  0
   -7.4212   -0.0517    0.0000 C   0  0  0  0  0  0  0  0  0
   -6.7067    0.3608    0.0000 C   0  0  0  0  0  0  0  0  0
   -5.9922   -0.0517    0.0000 C   0  0  0  0  0  0  0  0  0
   -8.1357    0.3608    0.0000 C   0  0  0  0  0  0  0  0  0
  1  2  2  0  0  0  0
  1  3  2  0  0  0  0
  1  4  1  0  0  0  0
  1 21  1  0  0  0  0
  4  5  1  0  0  0  0
  5  6  1  0  0  0  0
  6  7  1  0  0  0  0
  7  8  1  0  0  0  0
  8  9  1  0  0  0  0
  9 10  1  0  0  0  0
  9 14  1  0  0  0  0
 10 11  1  0  0  0  0
 11 12  1  0  0  0  0
 12 13  1  0  0  0  0
 12 15  1  0  0  0  0
 13 14  1  0  0  0  0
 15 16  4  0  0  0  0
 15 20  4  0  0  0  0
 16 17  4  0  0  0  0
 17 18  4  0  0  0  0
 18 19  4  0  0  0  0
 19 20  4  0  0  0  0
 21 22  4  0  0  0  0
 21 26  4  0  0  0  0
 22 23  4  0  0  0  0
 23 24  4  0  0  0  0
 24 25  4  0  0  0  0
 24 27  1  0  0  0  0
 25 26  4  0  0  0  0
M  END
>  <Name_Molregno>
347664

>  <5-HT1A>
7.4

$$$$
347686
  Marvin  02231216192D 0   1.00000     0.00000     0

 33 35  0  0  0  0  0  0  0  0999 V2000
    0.2215   -0.5834    0.0000 S   0  0  0  0  0  0  0  0  0
    0.6340    0.1311    0.0000 O   0  0  0  0  0  0  0  0  0
   -0.1910   -1.2979    0.0000 O   0  0  0  0  0  0  0  0  0
    0.9360   -0.9959    0.0000 N   0  0  0  0  0  0  0  0  0
    1.6505   -0.5834    0.0000 C   0  0  0  0  0  0  0  0  0
    2.3650   -0.9959    0.0000 C   0  0  0  0  0  0  0  0  0
    3.0794   -0.5834    0.0000 C   0  0  0  0  0  0  0  0  0
    3.7939   -0.9959    0.0000 C   0  0  0  0  0  0  0  0  0
    4.5084   -0.5834    0.0000 N   0  0  0  0  0  0  0  0  0
    4.5084    0.2416    0.0000 C   0  0  0  0  0  0  0  0  0
    5.2228    0.6541    0.0000 C   0  0  0  0  0  0  0  0  0
    5.9373    0.2416    0.0000 N   0  0  0  0  0  0  0  0  0
    5.9373   -0.5834    0.0000 C   0  0  0  0  0  0  0  0  0
    5.2228   -0.9959    0.0000 C   0  0  0  0  0  0  0  0  0
    6.6518    0.6541    0.0000 C   0  0  0  0  0  0  0  0  0
    6.6518    1.4791    0.0000 C   0  0  0  0  0  0  0  0  0
    7.3663    1.8916    0.0000 C   0  0  0  0  0  0  0  0  0
    7.3663    2.7166    0.0000 N   0  0  0  0  0  0  0  0  0
    8.0807    3.1291    0.0000 C   0  0  0  0  0  0  0  0  0
    8.7952    2.7166    0.0000 O   0  0  0  0  0  0  0  0  0
    8.0807    3.9541    0.0000 C   0  0  0  0  0  0  0  0  0
    8.7952    4.3666    0.0000 C   0  0  0  0  0  0  0  0  0
    8.7952    5.1916    0.0000 C   0  0  0  0  0  0  0  0  0
    8.0807    1.4791    0.0000 C   0  0  0  0  0  0  0  0  0
    8.0807    0.6541    0.0000 C   0  0  0  0  0  0  0  0  0
    7.3663    0.2416    0.0000 C   0  0  0  0  0  0  0  0  0
   -0.4929   -0.1709    0.0000 C   0  0  0  0  0  0  0  0  0
   -1.2074   -0.5834    0.0000 C   0  0  0  0  0  0  0  0  0
   -1.9219   -0.1709    0.0000 C   0  0  0  0  0  0  0  0  0
   -1.9219    0.6541    0.0000 C   0  0  0  0  0  0  0  0  0
   -1.2074    1.0666    0.0000 C   0  0  0  0  0  0  0  0  0
   -0.4929    0.6541    0.0000 C   0  0  0  0  0  0  0  0  0
   -2.6363    1.0666    0.0000 C   0  0  0  0  0  0  0  0  0
  1  2  2  0  0  0  0
  1  3  2  0  0  0  0
  1  4  1  0  0  0  0
  1 27  1  0  0  0  0
  4  5  1  0  0  0  0
  5  6  1  0  0  0  0
  6  7  1  0  0  0  0
  7  8  1  0  0  0  0
  8  9  1  0  0  0  0
  9 10  1  0  0  0  0
  9 14  1  0  0  0  0
 10 11  1  0  0  0  0
 11 12  1  0  0  0  0
 12 13  1  0  0  0  0
 12 15  1  0  0  0  0
 13 14  1  0  0  0  0
 15 16  4  0  0  0  0
 15 26  4  0  0  0  0
 16 17  4  0  0  0  0
 17 18  1  0  0  0  0
 17 24  4  0  0  0  0
 18 19  1  0  0  0  0
 19 20  2  0  0  0  0
 19 21  1  0  0  0  0
 21 22  1  0  0  0  0
 22 23  1  0  0  0  0
 24 25  4  0  0  0  0
 25 26  4  0  0  0  0
 27 28  4  0  0  0  0
 27 32  4  0  0  0  0
 28 29  4  0  0  0  0
 29 30  4  0  0  0  0
 30 31  4  0  0  0  0
 30 33  1  0  0  0  0
 31 32  4  0  0  0  0
M  END
>  <Name_Molregno>
347686

>  <5-HT1A>
7.25

$$$$
347814
  Marvin  02231216192D 0   1.00000     0.00000     0

 31 33  0  0  0  0  0  0  0  0999 V2000
    0.0984   -0.3656    0.0000 S   0  0  0  0  0  0  0  0  0
    0.5109    0.3489    0.0000 O   0  0  0  0  0  0  0  0  0
   -0.3141   -1.0801    0.0000 O   0  0  0  0  0  0  0  0  0
    0.8129   -0.7781    0.0000 N   0  0  0  0  0  0  0  0  0
    1.5273   -0.3656    0.0000 C   0  0  0  0  0  0  0  0  0
    2.2418   -0.7781    0.0000 C   0  0  0  0  0  0  0  0  0
    2.9563   -0.3656    0.0000 C   0  0  0  0  0  0  0  0  0
    3.6707   -0.7781    0.0000 C   0  0  0  0  0  0  0  0  0
    4.3852   -0.3656    0.0000 N   0  0  0  0  0  0  0  0  0
    4.3852    0.4594    0.0000 C   0  0  0  0  0  0  0  0  0
    5.0997    0.8719    0.0000 C   0  0  0  0  0  0  0  0  0
    5.8142    0.4594    0.0000 N   0  0  0  0  0  0  0  0  0
    5.8142   -0.3656    0.0000 C   0  0  0  0  0  0  0  0  0
    5.0997   -0.7781    0.0000 C   0  0  0  0  0  0  0  0  0
    6.5286    0.8719    0.0000 C   0  0  0  0  0  0  0  0  0
    6.5286    1.6969    0.0000 C   0  0  0  0  0  0  0  0  0
    7.2431    2.1094    0.0000 C   0  0  0  0  0  0  0  0  0
    7.2431    2.9344    0.0000 N   0  0  0  0  0  0  0  0  0
    7.9576    3.3469    0.0000 C   0  0  0  0  0  0  0  0  0
    7.9576    4.1719    0.0000 O   0  0  0  0  0  0  0  0  0
    8.6720    2.9344    0.0000 C   0  0  0  0  0  0  0  0  0
    7.9576    1.6969    0.0000 C   0  0  0  0  0  0  0  0  0
    7.9576    0.8719    0.0000 C   0  0  0  0  0  0  0  0  0
    7.2431    0.4594    0.0000 C   0  0  0  0  0  0  0  0  0
   -0.6161    0.0469    0.0000 C   0  0  0  0  0  0  0  0  0
   -1.3306   -0.3656    0.0000 C   0  0  0  0  0  0  0  0  0
   -2.0450    0.0469    0.0000 C   0  0  0  0  0  0  0  0  0
   -2.0450    0.8719    0.0000 C   0  0  0  0  0  0  0  0  0
   -1.3306    1.2844    0.0000 C   0  0  0  0  0  0  0  0  0
   -0.6161    0.8719    0.0000 C   0  0  0  0  0  0  0  0  0
   -2.7595    1.2844    0.0000 C   0  0  0  0  0  0  0  0  0
  1  2  2  0  0  0  0
  1  3  2  0  0  0  0
  1  4  1  0  0  0  0
  1 25  1  0  0  0  0
  4  5  1  0  0  0  0
  5  6  1  0  0  0  0
  6  7  1  0  0  0  0
  7  8  1  0  0  0  0
  8  9  1  0  0  0  0
  9 10  1  0  0  0  0
  9 14  1  0  0  0  0
 10 11  1  0  0  0  0
 11 12  1  0  0  0  0
 12 13  1  0  0  0  0
 12 15  1  0  0  0  0
 13 14  1  0  0  0  0
 15 16  4  0  0  0  0
 15 24  4  0  0  0  0
 16 17  4  0  0  0  0
 17 18  1  0  0  0  0
 17 22  4  0  0  0  0
 18 19  1  0  0  0  0
 19 20  2  0  0  0  0
 19 21  1  0  0  0  0
 22 23  4  0  0  0  0
 23 24  4  0  0  0  0
 25 26  4  0  0  0  0
 25 30  4  0  0  0  0
 26 27  4  0  0  0  0
 27 28  4  0  0  0  0
 28 29  4  0  0  0  0
 28 31  1  0  0  0  0
 29 30  4  0  0  0  0
M  END
>  <Name_Molregno>
347814

>  <5-HT1A>
8.17

$$$$
347868
  Marvin  02231216192D 0   1.00000     0.00000     0

 31 33  0  0  0  0  0  0  0  0999 V2000
    0.0984   -0.3656    0.0000 S   0  0  0  0  0  0  0  0  0
    0.5109    0.3489    0.0000 O   0  0  0  0  0  0  0  0  0
   -0.3141   -1.0801    0.0000 O   0  0  0  0  0  0  0  0  0
    0.8129   -0.7781    0.0000 N   0  0  0  0  0  0  0  0  0
    1.5273   -0.3656    0.0000 C   0  0  0  0  0  0  0  0  0
    2.2418   -0.7781    0.0000 C   0  0  0  0  0  0  0  0  0
    2.9563   -0.3656    0.0000 C   0  0  0  0  0  0  0  0  0
    3.6707   -0.7781    0.0000 C   0  0  0  0  0  0  0  0  0
    4.3852   -0.3656    0.0000 N   0  0  0  0  0  0  0  0  0
    4.3852    0.4594    0.0000 C   0  0  0  0  0  0  0  0  0
    5.0997    0.8719    0.0000 C   0  0  0  0  0  0  0  0  0
    5.8142    0.4594    0.0000 N   0  0  0  0  0  0  0  0  0
    5.8142   -0.3656    0.0000 C   0  0  0  0  0  0  0  0  0
    5.0997   -0.7781    0.0000 C   0  0  0  0  0  0  0  0  0
    6.5286    0.8719    0.0000 C   0  0  0  0  0  0  0  0  0
    6.5286    1.6969    0.0000 C   0  0  0  0  0  0  0  0  0
    7.2431    2.1094    0.0000 C   0  0  0  0  0  0  0  0  0
    7.2431    2.9344    0.0000 N   0  0  0  0  0  0  0  0  0
    7.9576    3.3469    0.0000 C   0  0  0  0  0  0  0  0  0
    7.9576    4.1719    0.0000 O   0  0  0  0  0  0  0  0  0
    8.6720    2.9344    0.0000 C   0  0  0  0  0  0  0  0  0
    7.9576    1.6969    0.0000 C   0  0  0  0  0  0  0  0  0
    7.9576    0.8719    0.0000 C   0  0  0  0  0  0  0  0  0
    7.2431    0.4594    0.0000 C   0  0  0  0  0  0  0  0  0
   -0.6161    0.0469    0.0000 C   0  0  0  0  0  0  0  0  0
   -1.3306   -0.3656    0.0000 C   0  0  0  0  0  0  0  0  0
   -2.0450    0.0469    0.0000 C   0  0  0  0  0  0  0  0  0
   -2.0450    0.8719    0.0000 C   0  0  0  0  0  0  0  0  0
   -2.7595    1.2844    0.0000 F   0  0  0  0  0  0  0  0  0
   -1.3306    1.2844    0.0000 C   0  0  0  0  0  0  0  0  0
   -0.6161    0.8719    0.0000 C   0  0  0  0  0  0  0  0  0
  1  2  2  0  0  0  0
  1  3  2  0  0  0  0
  1  4  1  0  0  0  0
  1 25  1  0  0  0  0
  4  5  1  0  0  0  0
  5  6  1  0  0  0  0
  6  7  1  0  0  0  0
  7  8  1  0  0  0  0
  8  9  1  0  0  0  0
  9 10  1  0  0  0  0
  9 14  1  0  0  0  0
 10 11  1  0  0  0  0
 11 12  1  0  0  0  0
 12 13  1  0  0  0  0
 12 15  1  0  0  0  0
 13 14  1  0  0  0  0
 15 16  4  0  0  0  0
 15 24  4  0  0  0  0
 16 17  4  0  0  0  0
 17 18  1  0  0  0  0
 17 22  4  0  0  0  0
 18 19  1  0  0  0  0
 19 20  2  0  0  0  0
 19 21  1  0  0  0  0
 22 23  4  0  0  0  0
 23 24  4  0  0  0  0
 25 26  4  0  0  0  0
 25 31  4  0  0  0  0
 26 27  4  0  0  0  0
 27 28  4  0  0  0  0
 28 29  1  0  0  0  0
 28 30  4  0  0  0  0
 30 31  4  0  0  0  0
M  END
>  <Name_Molregno>
347868

>  <5-HT1A>
7.74

$$$$
347869
  Marvin  02231216192D 0   1.00000     0.00000     0

 30 32  0  0  0  0  0  0  0  0999 V2000
    0.0900   -0.3302    0.0000 S   0  0  0  0  0  0  0  0  0
    0.5025    0.3843    0.0000 O   0  0  0  0  0  0  0  0  0
   -0.3225   -1.0446    0.0000 O   0  0  0  0  0  0  0  0  0
    0.8045   -0.7427    0.0000 N   0  0  0  0  0  0  0  0  0
    1.5190   -0.3302    0.0000 C   0  0  0  0  0  0  0  0  0
    2.2334   -0.7427    0.0000 C   0  0  0  0  0  0  0  0  0
    2.9479   -0.3302    0.0000 C   0  0  0  0  0  0  0  0  0
    3.6624   -0.7427    0.0000 C   0  0  0  0  0  0  0  0  0
    4.3768   -0.3302    0.0000 N   0  0  0  0  0  0  0  0  0
    4.3768    0.4948    0.0000 C   0  0  0  0  0  0  0  0  0
    5.0913    0.9073    0.0000 C   0  0  0  0  0  0  0  0  0
    5.8058    0.4948    0.0000 N   0  0  0  0  0  0  0  0  0
    5.8058   -0.3302    0.0000 C   0  0  0  0  0  0  0  0  0
    5.0913   -0.7427    0.0000 C   0  0  0  0  0  0  0  0  0
    6.5203    0.9073    0.0000 C   0  0  0  0  0  0  0  0  0
    6.5203    1.7323    0.0000 C   0  0  0  0  0  0  0  0  0
    7.2347    2.1448    0.0000 C   0  0  0  0  0  0  0  0  0
    7.2347    2.9698    0.0000 N   0  0  0  0  0  0  0  0  0
    7.9492    3.3823    0.0000 C   0  0  0  0  0  0  0  0  0
    7.9492    4.2073    0.0000 O   0  0  0  0  0  0  0  0  0
    8.6637    2.9698    0.0000 C   0  0  0  0  0  0  0  0  0
    7.9492    1.7323    0.0000 C   0  0  0  0  0  0  0  0  0
    7.9492    0.9073    0.0000 C   0  0  0  0  0  0  0  0  0
    7.2347    0.4948    0.0000 C   0  0  0  0  0  0  0  0  0
   -0.6245    0.0823    0.0000 C   0  0  0  0  0  0  0  0  0
   -1.3389   -0.3302    0.0000 C   0  0  0  0  0  0  0  0  0
   -2.0534    0.0823    0.0000 C   0  0  0  0  0  0  0  0  0
   -2.0534    0.9073    0.0000 C   0  0  0  0  0  0  0  0  0
   -1.3389    1.3198    0.0000 C   0  0  0  0  0  0  0  0  0
   -0.6245    0.9073    0.0000 C   0  0  0  0  0  0  0  0  0
  1  2  2  0  0  0  0
  1  3  2  0  0  0  0
  1  4  1  0  0  0  0
  1 25  1  0  0  0  0
  4  5  1  0  0  0  0
  5  6  1  0  0  0  0
  6  7  1  0  0  0  0
  7  8  1  0  0  0  0
  8  9  1  0  0  0  0
  9 10  1  0  0  0  0
  9 14  1  0  0  0  0
 10 11  1  0  0  0  0
 11 12  1  0  0  0  0
 12 13  1  0  0  0  0
 12 15  1  0  0  0  0
 13 14  1  0  0  0  0
 15 16  4  0  0  0  0
 15 24  4  0  0  0  0
 16 17  4  0  0  0  0
 17 18  1  0  0  0  0
 17 22  4  0  0  0  0
 18 19  1  0  0  0  0
 19 20  2  0  0  0  0
 19 21  1  0  0  0  0
 22 23  4  0  0  0  0
 23 24  4  0  0  0  0
 25 26  1  0  0  0  0
 25 30  1  0  0  0  0
 26 27  1  0  0  0  0
 27 28  1  0  0  0  0
 28 29  1  0  0  0  0
 29 30  1  0  0  0  0
M  END
>  <Name_Molregno>
347869

>  <5-HT1A>
7.4

$$$$
347876
  Marvin  02231216192D 0   1.00000     0.00000     0

 27 28  0  0  0  0  0  0  0  0999 V2000
   -0.3650    1.1396    0.0000 S   0  0  0  0  0  0  0  0  0
   -0.6350    0.3601    0.0000 O   0  0  0  0  0  0  0  0  0
   -0.0949    1.9192    0.0000 O   0  0  0  0  0  0  0  0  0
   -1.1445    1.4097    0.0000 N   0  0  0  0  0  0  0  0  0
   -1.7682    0.8696    0.0000 C   0  0  0  0  0  0  0  0  0
   -2.5477    1.1396    0.0000 C   0  0  0  0  0  0  0  0  0
   -3.1714    0.5996    0.0000 C   0  0  0  0  0  0  0  0  0
   -3.9509    0.8696    0.0000 C   0  0  0  0  0  0  0  0  0
   -4.5746    0.3295    0.0000 N   0  0  0  0  0  0  0  0  0
   -4.4186   -0.4806    0.0000 C   0  0  0  0  0  0  0  0  0
   -5.0423   -1.0207    0.0000 C   0  0  0  0  0  0  0  0  0
   -5.8218   -0.7507    0.0000 N   0  0  0  0  0  0  0  0  0
   -5.9778    0.0595    0.0000 C   0  0  0  0  0  0  0  0  0
   -5.3541    0.5996    0.0000 C   0  0  0  0  0  0  0  0  0
   -6.4455   -1.2908    0.0000 C   0  0  0  0  0  0  0  0  0
   -6.2896   -2.1009    0.0000 C   0  0  0  0  0  0  0  0  0
   -6.9132   -2.6410    0.0000 C   0  0  0  0  0  0  0  0  0
   -6.7573   -3.4511    0.0000 N   0  0  0  0  0  0  0  0  0
   -7.3809   -3.9912    0.0000 C   0  0  0  0  0  0  0  0  0
   -7.2250   -4.8013    0.0000 O   0  0  0  0  0  0  0  0  0
   -8.1605   -3.7212    0.0000 C   0  0  0  0  0  0  0  0  0
   -7.6928   -2.3709    0.0000 C   0  0  0  0  0  0  0  0  0
   -7.8487   -1.5608    0.0000 C   0  0  0  0  0  0  0  0  0
   -7.2250   -1.0207    0.0000 C   0  0  0  0  0  0  0  0  0
    0.4146    0.8696    0.0000 C   0  0  0  0  0  0  0  0  0
    1.0382    1.4097    0.0000 C   0  0  0  0  0  0  0  0  0
    0.5705    0.0595    0.0000 C   0  0  0  0  0  0  0  0  0
  1  2  2  0  0  0  0
  1  3  2  0  0  0  0
  1  4  1  0  0  0  0
  1 25  1  0  0  0  0
  4  5  1  0  0  0  0
  5  6  1  0  0  0  0
  6  7  1  0  0  0  0
  7  8  1  0  0  0  0
  8  9  1  0  0  0  0
  9 10  1  0  0  0  0
  9 14  1  0  0  0  0
 10 11  1  0  0  0  0
 11 12  1  0  0  0  0
 12 13  1  0  0  0  0
 12 15  1  0  0  0  0
 13 14  1  0  0  0  0
 15 16  4  0  0  0  0
 15 24  4  0  0  0  0
 16 17  4  0  0  0  0
 17 18  1  0  0  0  0
 17 22  4  0  0  0  0
 18 19  1  0  0  0  0
 19 20  2  0  0  0  0
 19 21  1  0  0  0  0
 22 23  4  0  0  0  0
 23 24  4  0  0  0  0
 25 26  1  0  0  0  0
 25 27  1  0  0  0  0
M  END
>  <Name_Molregno>
347876

>  <5-HT1A>
7.62

$$$$
347877
  Marvin  02231216192D 0   1.00000     0.00000     0

 31 33  0  0  0  0  0  0  0  0999 V2000
    6.6753   -0.6471    0.0000 S   0  0  0  0  0  0  0  0  0
    6.9453   -1.4267    0.0000 O   0  0  0  0  0  0  0  0  0
    6.4053    0.1325    0.0000 O   0  0  0  0  0  0  0  0  0
    5.8958   -0.9171    0.0000 N   0  0  0  0  0  0  0  0  0
    5.2721   -0.3771    0.0000 C   0  0  0  0  0  0  0  0  0
    4.4926   -0.6471    0.0000 C   0  0  0  0  0  0  0  0  0
    3.8689   -0.1070    0.0000 C   0  0  0  0  0  0  0  0  0
    3.0894   -0.3771    0.0000 C   0  0  0  0  0  0  0  0  0
    2.4657    0.1630    0.0000 N   0  0  0  0  0  0  0  0  0
    1.6862   -0.1070    0.0000 C   0  0  0  0  0  0  0  0  0
    1.0625    0.4331    0.0000 C   0  0  0  0  0  0  0  0  0
    1.2184    1.2432    0.0000 N   0  0  0  0  0  0  0  0  0
    1.9980    1.5133    0.0000 C   0  0  0  0  0  0  0  0  0
    2.6216    0.9732    0.0000 C   0  0  0  0  0  0  0  0  0
    0.5948    1.7833    0.0000 C   0  0  0  0  0  0  0  0  0
   -0.1848    1.5133    0.0000 C   0  0  0  0  0  0  0  0  0
   -0.8084    2.0533    0.0000 C   0  0  0  0  0  0  0  0  0
   -1.5879    1.7833    0.0000 N   0  0  0  0  0  0  0  0  0
   -2.2116    2.3234    0.0000 C   0  0  0  0  0  0  0  0  0
   -2.9911    2.0533    0.0000 O   0  0  0  0  0  0  0  0  0
   -2.0557    3.1335    0.0000 C   0  0  0  0  0  0  0  0  0
   -0.6525    2.8635    0.0000 C   0  0  0  0  0  0  0  0  0
    0.1271    3.1335    0.0000 C   0  0  0  0  0  0  0  0  0
    0.7507    2.5934    0.0000 C   0  0  0  0  0  0  0  0  0
    7.4549   -0.3771    0.0000 C   0  0  0  0  0  0  0  0  0
    8.0785   -0.9171    0.0000 C   0  0  0  0  0  0  0  0  0
    8.8580   -0.6471    0.0000 C   0  0  0  0  0  0  0  0  0
    9.4817   -1.1872    0.0000 C   0  0  0  0  0  0  0  0  0
    9.3258   -1.9973    0.0000 C   0  0  0  0  0  0  0  0  0
    8.5462   -2.2674    0.0000 C   0  0  0  0  0  0  0  0  0
    7.9226   -1.7273    0.0000 C   0  0  0  0  0  0  0  0  0
  1  2  2  0  0  0  0
  1  3  2  0  0  0  0
  1  4  1  0  0  0  0
  1 25  1  0  0  0  0
  4  5  1  0  0  0  0
  5  6  1  0  0  0  0
  6  7  1  0  0  0  0
  7  8  1  0  0  0  0
  8  9  1  0  0  0  0
  9 10  1  0  0  0  0
  9 14  1  0  0  0  0
 10 11  1  0  0  0  0
 11 12  1  0  0  0  0
 12 13  1  0  0  0  0
 12 15  1  0  0  0  0
 13 14  1  0  0  0  0
 15 16  4  0  0  0  0
 15 24  4  0  0  0  0
 16 17  4  0  0  0  0
 17 18  1  0  0  0  0
 17 22  4  0  0  0  0
 18 19  1  0  0  0  0
 19 20  2  0  0  0  0
 19 21  1  0  0  0  0
 22 23  4  0  0  0  0
 23 24  4  0  0  0  0
 25 26  1  0  0  0  0
 26 27  1  0  0  0  0
 26 31  1  0  0  0  0
 27 28  1  0  0  0  0
 28 29  1  0  0  0  0
 29 30  1  0  0  0  0
 30 31  1  0  0  0  0
M  END
>  <Name_Molregno>
347877

>  <5-HT1A>
8.29

>  <5-HT2A>
5.7

>  <5-HT2C>
5.3

>  <5-HT5>
5.3

>  <5-HT6>
5.3

>  <5-HT7>
6.15

>  <DOPAMINE D2>
5.7

>  <Dopamine transporter>
5.7

>  <Norepinephrine transporter>
5.7

$$$$
347931
  Marvin  02231216192D 0   1.00000     0.00000     0

 33 36  0  0  0  0  0  0  0  0999 V2000
   -7.4733   -0.6315    0.0000 S   0  0  0  0  0  0  0  0  0
   -7.0608    0.0830    0.0000 O   0  0  0  0  0  0  0  0  0
   -7.8858   -1.3460    0.0000 O   0  0  0  0  0  0  0  0  0
   -6.7588   -1.0440    0.0000 N   0  0  0  0  0  0  0  0  0
   -6.0443   -0.6315    0.0000 C   0  0  0  0  0  0  0  0  0
   -5.3298   -1.0440    0.0000 C   0  0  0  0  0  0  0  0  0
   -4.6154   -0.6315    0.0000 C   0  0  0  0  0  0  0  0  0
   -3.9009   -1.0440    0.0000 C   0  0  0  0  0  0  0  0  0
   -3.1864   -0.6315    0.0000 N   0  0  0  0  0  0  0  0  0
   -3.1864    0.1935    0.0000 C   0  0  0  0  0  0  0  0  0
   -2.4720    0.6060    0.0000 C   0  0  0  0  0  0  0  0  0
   -1.7575    0.1935    0.0000 N   0  0  0  0  0  0  0  0  0
   -1.7575   -0.6315    0.0000 C   0  0  0  0  0  0  0  0  0
   -2.4720   -1.0440    0.0000 C   0  0  0  0  0  0  0  0  0
   -1.0430    0.6060    0.0000 C   0  0  0  0  0  0  0  0  0
   -1.0430    1.4310    0.0000 C   0  0  0  0  0  0  0  0  0
   -0.3285    1.8435    0.0000 C   0  0  0  0  0  0  0  0  0
   -0.3285    2.6685    0.0000 N   0  0  0  0  0  0  0  0  0
    0.3859    3.0810    0.0000 C   0  0  0  0  0  0  0  0  0
    1.1004    2.6685    0.0000 O   0  0  0  0  0  0  0  0  0
    0.3859    3.9060    0.0000 C   0  0  0  0  0  0  0  0  0
   -0.0266    4.6205    0.0000 C   0  0  0  0  0  0  0  0  0
    0.7984    4.6205    0.0000 C   0  0  0  0  0  0  0  0  0
    0.3859    1.4310    0.0000 C   0  0  0  0  0  0  0  0  0
    0.3859    0.6060    0.0000 C   0  0  0  0  0  0  0  0  0
   -0.3285    0.1935    0.0000 C   0  0  0  0  0  0  0  0  0
   -8.1877   -0.2190    0.0000 C   0  0  0  0  0  0  0  0  0
   -8.9022   -0.6315    0.0000 C   0  0  0  0  0  0  0  0  0
   -9.6167   -0.2190    0.0000 C   0  0  0  0  0  0  0  0  0
   -9.6167    0.6060    0.0000 C   0  0  0  0  0  0  0  0  0
   -8.9022    1.0185    0.0000 C   0  0  0  0  0  0  0  0  0
   -8.1877    0.6060    0.0000 C   0  0  0  0  0  0  0  0  0
  -10.3311    1.0185    0.0000 C   0  0  0  0  0  0  0  0  0
  1  2  2  0  0  0  0
  1  3  2  0  0  0  0
  1  4  1  0  0  0  0
  1 27  1  0  0  0  0
  4  5  1  0  0  0  0
  5  6  1  0  0  0  0
  6  7  1  0  0  0  0
  7  8  1  0  0  0  0
  8  9  1  0  0  0  0
  9 10  1  0  0  0  0
  9 14  1  0  0  0  0
 10 11  1  0  0  0  0
 11 12  1  0  0  0  0
 12 13  1  0  0  0  0
 12 15  1  0  0  0  0
 13 14  1  0  0  0  0
 15 16  4  0  0  0  0
 15 26  4  0  0  0  0
 16 17  4  0  0  0  0
 17 18  1  0  0  0  0
 17 24  4  0  0  0  0
 18 19  1  0  0  0  0
 19 20  2  0  0  0  0
 19 21  1  0  0  0  0
 21 22  1  0  0  0  0
 21 23  1  0  0  0  0
 22 23  1  0  0  0  0
 24 25  4  0  0  0  0
 25 26  4  0  0  0  0
 27 28  4  0  0  0  0
 27 32  4  0  0  0  0
 28 29  4  0  0  0  0
 29 30  4  0  0  0  0
 30 31  4  0  0  0  0
 30 33  1  0  0  0  0
 31 32  4  0  0  0  0
M  END
>  <Name_Molregno>
347931

>  <5-HT1A>
7.66

$$$$
347932
  Marvin  02231216192D 0   1.00000     0.00000     0

 34 36  0  0  0  0  0  0  0  0999 V2000
    0.2769   -2.0594    0.0000 S   0  0  0  0  0  0  0  0  0
    0.6894   -1.3449    0.0000 O   0  0  0  0  0  0  0  0  0
   -0.1356   -2.7739    0.0000 O   0  0  0  0  0  0  0  0  0
    0.9914   -2.4719    0.0000 N   0  0  0  0  0  0  0  0  0
    1.7058   -2.0594    0.0000 C   0  0  0  0  0  0  0  0  0
    2.4203   -2.4719    0.0000 C   0  0  0  0  0  0  0  0  0
    3.1348   -2.0594    0.0000 C   0  0  0  0  0  0  0  0  0
    3.8493   -2.4719    0.0000 C   0  0  0  0  0  0  0  0  0
    4.5637   -2.0594    0.0000 N   0  0  0  0  0  0  0  0  0
    4.5637   -1.2344    0.0000 C   0  0  0  0  0  0  0  0  0
    5.2782   -0.8219    0.0000 C   0  0  0  0  0  0  0  0  0
    5.9927   -1.2344    0.0000 N   0  0  0  0  0  0  0  0  0
    5.9927   -2.0594    0.0000 C   0  0  0  0  0  0  0  0  0
    5.2782   -2.4719    0.0000 C   0  0  0  0  0  0  0  0  0
    6.7071   -0.8219    0.0000 C   0  0  0  0  0  0  0  0  0
    6.7071    0.0031    0.0000 C   0  0  0  0  0  0  0  0  0
    7.4216    0.4156    0.0000 C   0  0  0  0  0  0  0  0  0
    7.4216    1.2406    0.0000 N   0  0  0  0  0  0  0  0  0
    8.1361    1.6531    0.0000 C   0  0  0  0  0  0  0  0  0
    8.8506    1.2406    0.0000 O   0  0  0  0  0  0  0  0  0
    8.1361    2.4781    0.0000 C   0  0  0  0  0  0  0  0  0
    8.1361    3.3031    0.0000 C   0  0  0  0  0  0  0  0  0
    7.3111    2.4781    0.0000 C   0  0  0  0  0  0  0  0  0
    8.9611    2.4781    0.0000 C   0  0  0  0  0  0  0  0  0
    8.1361    0.0031    0.0000 C   0  0  0  0  0  0  0  0  0
    8.1361   -0.8219    0.0000 C   0  0  0  0  0  0  0  0  0
    7.4216   -1.2344    0.0000 C   0  0  0  0  0  0  0  0  0
   -0.4376   -1.6469    0.0000 C   0  0  0  0  0  0  0  0  0
   -1.1520   -2.0594    0.0000 C   0  0  0  0  0  0  0  0  0
   -1.8665   -1.6469    0.0000 C   0  0  0  0  0  0  0  0  0
   -1.8665   -0.8219    0.0000 C   0  0  0  0  0  0  0  0  0
   -1.1520   -0.4094    0.0000 C   0  0  0  0  0  0  0  0  0
   -0.4376   -0.8219    0.0000 C   0  0  0  0  0  0  0  0  0
   -2.5810   -0.4094    0.0000 C   0  0  0  0  0  0  0  0  0
  1  2  2  0  0  0  0
  1  3  2  0  0  0  0
  1  4  1  0  0  0  0
  1 28  1  0  0  0  0
  4  5  1  0  0  0  0
  5  6  1  0  0  0  0
  6  7  1  0  0  0  0
  7  8  1  0  0  0  0
  8  9  1  0  0  0  0
  9 10  1  0  0  0  0
  9 14  1  0  0  0  0
 10 11  1  0  0  0  0
 11 12  1  0  0  0  0
 12 13  1  0  0  0  0
 12 15  1  0  0  0  0
 13 14  1  0  0  0  0
 15 16  4  0  0  0  0
 15 27  4  0  0  0  0
 16 17  4  0  0  0  0
 17 18  1  0  0  0  0
 17 25  4  0  0  0  0
 18 19  1  0  0  0  0
 19 20  2  0  0  0  0
 19 21  1  0  0  0  0
 21 22  1  0  0  0  0
 21 23  1  0  0  0  0
 21 24  1  0  0  0  0
 25 26  4  0  0  0  0
 26 27  4  0  0  0  0
 28 29  4  0  0  0  0
 28 33  4  0  0  0  0
 29 30  4  0  0  0  0
 30 31  4  0  0  0  0
 31 32  4  0  0  0  0
 31 34  1  0  0  0  0
 32 33  4  0  0  0  0
M  END
>  <Name_Molregno>
347932

>  <5-HT1A>
5.87

$$$$
348036
  Marvin  02231216192D 0   1.00000     0.00000     0

 33 36  0  0  0  0  0  0  0  0999 V2000
    7.5279   -0.7580    0.0000 S   0  0  0  0  0  0  0  0  0
    7.7980   -1.5376    0.0000 O   0  0  0  0  0  0  0  0  0
    7.2579    0.0215    0.0000 O   0  0  0  0  0  0  0  0  0
    6.7484   -1.0281    0.0000 N   0  0  0  0  0  0  0  0  0
    6.1247   -0.4880    0.0000 C   0  0  0  0  0  0  0  0  0
    5.3452   -0.7580    0.0000 C   0  0  0  0  0  0  0  0  0
    4.7215   -0.2179    0.0000 C   0  0  0  0  0  0  0  0  0
    3.9420   -0.4880    0.0000 C   0  0  0  0  0  0  0  0  0
    3.3183    0.0521    0.0000 N   0  0  0  0  0  0  0  0  0
    2.5388   -0.2179    0.0000 C   0  0  0  0  0  0  0  0  0
    1.9151    0.3221    0.0000 C   0  0  0  0  0  0  0  0  0
    2.0711    1.1323    0.0000 N   0  0  0  0  0  0  0  0  0
    2.8506    1.4023    0.0000 C   0  0  0  0  0  0  0  0  0
    3.4743    0.8622    0.0000 C   0  0  0  0  0  0  0  0  0
    1.4474    1.6724    0.0000 C   0  0  0  0  0  0  0  0  0
    0.6679    1.4023    0.0000 C   0  0  0  0  0  0  0  0  0
    0.0442    1.9424    0.0000 C   0  0  0  0  0  0  0  0  0
   -0.7353    1.6724    0.0000 N   0  0  0  0  0  0  0  0  0
   -1.3590    2.2125    0.0000 C   0  0  0  0  0  0  0  0  0
   -1.2031    3.0226    0.0000 O   0  0  0  0  0  0  0  0  0
   -2.1385    1.9424    0.0000 C   0  0  0  0  0  0  0  0  0
   -2.6786    1.3188    0.0000 C   0  0  0  0  0  0  0  0  0
   -2.9487    2.0983    0.0000 C   0  0  0  0  0  0  0  0  0
    0.2001    2.7525    0.0000 C   0  0  0  0  0  0  0  0  0
    0.9797    3.0226    0.0000 C   0  0  0  0  0  0  0  0  0
    1.6033    2.4825    0.0000 C   0  0  0  0  0  0  0  0  0
    8.3075   -0.4880    0.0000 C   0  0  0  0  0  0  0  0  0
    8.9311   -1.0281    0.0000 C   0  0  0  0  0  0  0  0  0
    9.7107   -0.7580    0.0000 C   0  0  0  0  0  0  0  0  0
   10.3343   -1.2981    0.0000 C   0  0  0  0  0  0  0  0  0
   10.1784   -2.1083    0.0000 C   0  0  0  0  0  0  0  0  0
    9.3988   -2.3783    0.0000 C   0  0  0  0  0  0  0  0  0
    8.7752   -1.8382    0.0000 C   0  0  0  0  0  0  0  0  0
  1  2  2  0  0  0  0
  1  3  2  0  0  0  0
  1  4  1  0  0  0  0
  1 27  1  0  0  0  0
  4  5  1  0  0  0  0
  5  6  1  0  0  0  0
  6  7  1  0  0  0  0
  7  8  1  0  0  0  0
  8  9  1  0  0  0  0
  9 10  1  0  0  0  0
  9 14  1  0  0  0  0
 10 11  1  0  0  0  0
 11 12  1  0  0  0  0
 12 13  1  0  0  0  0
 12 15  1  0  0  0  0
 13 14  1  0  0  0  0
 15 16  4  0  0  0  0
 15 26  4  0  0  0  0
 16 17  4  0  0  0  0
 17 18  1  0  0  0  0
 17 24  4  0  0  0  0
 18 19  1  0  0  0  0
 19 20  2  0  0  0  0
 19 21  1  0  0  0  0
 21 22  1  0  0  0  0
 21 23  1  0  0  0  0
 22 23  1  0  0  0  0
 24 25  4  0  0  0  0
 25 26  4  0  0  0  0
 27 28  1  0  0  0  0
 28 29  1  0  0  0  0
 28 33  1  0  0  0  0
 29 30  1  0  0  0  0
 30 31  1  0  0  0  0
 31 32  1  0  0  0  0
 32 33  1  0  0  0  0
M  END
>  <Name_Molregno>
348036

>  <5-HT1A>
8.05

$$$$
348041
  Marvin  02231216192D 0   1.00000     0.00000     0

 28 29  0  0  0  0  0  0  0  0999 V2000
    0.3041    0.3235    0.0000 S   0  0  0  0  0  0  0  0  0
    0.7166   -0.3910    0.0000 O   0  0  0  0  0  0  0  0  0
   -0.1084    1.0380    0.0000 O   0  0  0  0  0  0  0  0  0
   -0.4104   -0.0890    0.0000 N   0  0  0  0  0  0  0  0  0
   -1.1248    0.3235    0.0000 C   0  0  0  0  0  0  0  0  0
   -1.8393   -0.0890    0.0000 C   0  0  0  0  0  0  0  0  0
   -2.5538    0.3235    0.0000 C   0  0  0  0  0  0  0  0  0
   -3.2682   -0.0890    0.0000 C   0  0  0  0  0  0  0  0  0
   -3.9827    0.3235    0.0000 N   0  0  0  0  0  0  0  0  0
   -4.6972   -0.0890    0.0000 C   0  0  0  0  0  0  0  0  0
   -5.4116    0.3235    0.0000 C   0  0  0  0  0  0  0  0  0
   -5.4116    1.1485    0.0000 N   0  0  0  0  0  0  0  0  0
   -4.6972    1.5610    0.0000 C   0  0  0  0  0  0  0  0  0
   -3.9827    1.1485    0.0000 C   0  0  0  0  0  0  0  0  0
   -6.1261    1.5610    0.0000 C   0  0  0  0  0  0  0  0  0
   -6.8406    1.1485    0.0000 C   0  0  0  0  0  0  0  0  0
   -7.5551    1.5610    0.0000 C   0  0  0  0  0  0  0  0  0
   -8.2695    1.1485    0.0000 N   0  0  0  0  0  0  0  0  0
   -8.9840    1.5610    0.0000 C   0  0  0  0  0  0  0  0  0
   -9.6985    1.1485    0.0000 O   0  0  0  0  0  0  0  0  0
   -8.9840    2.3860    0.0000 C   0  0  0  0  0  0  0  0  0
   -7.5551    2.3860    0.0000 C   0  0  0  0  0  0  0  0  0
   -6.8406    2.7985    0.0000 C   0  0  0  0  0  0  0  0  0
   -6.1261    2.3860    0.0000 C   0  0  0  0  0  0  0  0  0
    1.0186    0.7360    0.0000 C   0  0  0  0  0  0  0  0  0
    1.7331    0.3235    0.0000 C   0  0  0  0  0  0  0  0  0
    2.4475    0.7360    0.0000 C   0  0  0  0  0  0  0  0  0
    1.7331   -0.5015    0.0000 C   0  0  0  0  0  0  0  0  0
  1  2  2  0  0  0  0
  1  3  2  0  0  0  0
  1  4  1  0  0  0  0
  1 25  1  0  0  0  0
  4  5  1  0  0  0  0
  5  6  1  0  0  0  0
  6  7  1  0  0  0  0
  7  8  1  0  0  0  0
  8  9  1  0  0  0  0
  9 10  1  0  0  0  0
  9 14  1  0  0  0  0
 10 11  1  0  0  0  0
 11 12  1  0  0  0  0
 12 13  1  0  0  0  0
 12 15  1  0  0  0  0
 13 14  1  0  0  0  0
 15 16  4  0  0  0  0
 15 24  4  0  0  0  0
 16 17  4  0  0  0  0
 17 18  1  0  0  0  0
 17 22  4  0  0  0  0
 18 19  1  0  0  0  0
 19 20  2  0  0  0  0
 19 21  1  0  0  0  0
 22 23  4  0  0  0  0
 23 24  4  0  0  0  0
 25 26  1  0  0  0  0
 26 27  1  0  0  0  0
 26 28  1  0  0  0  0
M  END
>  <Name_Molregno>
348041

>  <5-HT1A>
8.04

>  <DOPAMINE D2>
5.3

$$$$
348046
  Marvin  02231216192D 0   1.00000     0.00000     0

 32 34  0  0  0  0  0  0  0  0999 V2000
    6.5204   -0.6533    0.0000 S   0  0  0  0  0  0  0  0  0
    6.7905   -1.4329    0.0000 O   0  0  0  0  0  0  0  0  0
    6.2504    0.1262    0.0000 O   0  0  0  0  0  0  0  0  0
    5.7409   -0.9234    0.0000 N   0  0  0  0  0  0  0  0  0
    5.1172   -0.3833    0.0000 C   0  0  0  0  0  0  0  0  0
    4.3377   -0.6533    0.0000 C   0  0  0  0  0  0  0  0  0
    3.7141   -0.1133    0.0000 C   0  0  0  0  0  0  0  0  0
    2.9345   -0.3833    0.0000 C   0  0  0  0  0  0  0  0  0
    2.3109    0.1568    0.0000 N   0  0  0  0  0  0  0  0  0
    1.5313   -0.1133    0.0000 C   0  0  0  0  0  0  0  0  0
    0.9077    0.4268    0.0000 C   0  0  0  0  0  0  0  0  0
    1.0636    1.2370    0.0000 N   0  0  0  0  0  0  0  0  0
    1.8431    1.5070    0.0000 C   0  0  0  0  0  0  0  0  0
    2.4668    0.9669    0.0000 C   0  0  0  0  0  0  0  0  0
    0.4399    1.7771    0.0000 C   0  0  0  0  0  0  0  0  0
   -0.3396    1.5070    0.0000 C   0  0  0  0  0  0  0  0  0
   -0.9633    2.0471    0.0000 C   0  0  0  0  0  0  0  0  0
   -1.7428    1.7771    0.0000 N   0  0  0  0  0  0  0  0  0
   -2.3664    2.3172    0.0000 C   0  0  0  0  0  0  0  0  0
   -3.1460    2.0471    0.0000 O   0  0  0  0  0  0  0  0  0
   -2.2105    3.1273    0.0000 C   0  0  0  0  0  0  0  0  0
   -0.8073    2.8572    0.0000 C   0  0  0  0  0  0  0  0  0
   -0.0278    3.1273    0.0000 C   0  0  0  0  0  0  0  0  0
    0.5958    2.5872    0.0000 C   0  0  0  0  0  0  0  0  0
    5.5850   -1.7335    0.0000 C   0  0  0  0  0  0  0  0  0
    7.3000   -0.3833    0.0000 C   0  0  0  0  0  0  0  0  0
    7.9236   -0.9234    0.0000 C   0  0  0  0  0  0  0  0  0
    8.7032   -0.6533    0.0000 C   0  0  0  0  0  0  0  0  0
    9.3268   -1.1934    0.0000 C   0  0  0  0  0  0  0  0  0
    9.1709   -2.0036    0.0000 C   0  0  0  0  0  0  0  0  0
    8.3914   -2.2736    0.0000 C   0  0  0  0  0  0  0  0  0
    7.7677   -1.7335    0.0000 C   0  0  0  0  0  0  0  0  0
  1  2  2  0  0  0  0
  1  3  2  0  0  0  0
  1  4  1  0  0  0  0
  1 26  1  0  0  0  0
  4  5  1  0  0  0  0
  4 25  1  0  0  0  0
  5  6  1  0  0  0  0
  6  7  1  0  0  0  0
  7  8  1  0  0  0  0
  8  9  1  0  0  0  0
  9 10  1  0  0  0  0
  9 14  1  0  0  0  0
 10 11  1  0  0  0  0
 11 12  1  0  0  0  0
 12 13  1  0  0  0  0
 12 15  1  0  0  0  0
 13 14  1  0  0  0  0
 15 16  4  0  0  0  0
 15 24  4  0  0  0  0
 16 17  4  0  0  0  0
 17 18  1  0  0  0  0
 17 22  4  0  0  0  0
 18 19  1  0  0  0  0
 19 20  2  0  0  0  0
 19 21  1  0  0  0  0
 22 23  4  0  0  0  0
 23 24  4  0  0  0  0
 26 27  1  0  0  0  0
 27 28  1  0  0  0  0
 27 32  1  0  0  0  0
 28 29  1  0  0  0  0
 29 30  1  0  0  0  0
 30 31  1  0  0  0  0
 31 32  1  0  0  0  0
M  END
>  <Name_Molregno>
348046

>  <5-HT1A>
8.89

$$$$
348049
  Marvin  02231216192D 0   1.00000     0.00000     0

 29 30  0  0  0  0  0  0  0  0999 V2000
    7.8809   -0.0304    0.0000 S   0  0  0  0  0  0  0  0  0
    8.2934   -0.7449    0.0000 O   0  0  0  0  0  0  0  0  0
    7.4684    0.6841    0.0000 O   0  0  0  0  0  0  0  0  0
    7.1664   -0.4429    0.0000 N   0  0  0  0  0  0  0  0  0
    6.4519   -0.0304    0.0000 C   0  0  0  0  0  0  0  0  0
    5.7374   -0.4429    0.0000 C   0  0  0  0  0  0  0  0  0
    5.0230   -0.0304    0.0000 C   0  0  0  0  0  0  0  0  0
    4.3085   -0.4429    0.0000 C   0  0  0  0  0  0  0  0  0
    3.5940   -0.0304    0.0000 N   0  0  0  0  0  0  0  0  0
    2.8796   -0.4429    0.0000 C   0  0  0  0  0  0  0  0  0
    2.1651   -0.0304    0.0000 C   0  0  0  0  0  0  0  0  0
    2.1651    0.7946    0.0000 N   0  0  0  0  0  0  0  0  0
    2.8796    1.2071    0.0000 C   0  0  0  0  0  0  0  0  0
    3.5940    0.7946    0.0000 C   0  0  0  0  0  0  0  0  0
    1.4506    1.2071    0.0000 C   0  0  0  0  0  0  0  0  0
    0.7361    0.7946    0.0000 C   0  0  0  0  0  0  0  0  0
    0.0217    1.2071    0.0000 C   0  0  0  0  0  0  0  0  0
   -0.6928    0.7946    0.0000 N   0  0  0  0  0  0  0  0  0
   -1.4073    1.2071    0.0000 C   0  0  0  0  0  0  0  0  0
   -2.1217    0.7946    0.0000 O   0  0  0  0  0  0  0  0  0
   -1.4073    2.0321    0.0000 C   0  0  0  0  0  0  0  0  0
    0.0217    2.0321    0.0000 C   0  0  0  0  0  0  0  0  0
    0.7361    2.4446    0.0000 C   0  0  0  0  0  0  0  0  0
    1.4506    2.0321    0.0000 C   0  0  0  0  0  0  0  0  0
    7.1664   -1.2679    0.0000 C   0  0  0  0  0  0  0  0  0
    8.5953    0.3821    0.0000 C   0  0  0  0  0  0  0  0  0
    9.3098   -0.0304    0.0000 C   0  0  0  0  0  0  0  0  0
   10.0243    0.3821    0.0000 C   0  0  0  0  0  0  0  0  0
    9.3098   -0.8554    0.0000 C   0  0  0  0  0  0  0  0  0
  1  2  2  0  0  0  0
  1  3  2  0  0  0  0
  1  4  1  0  0  0  0
  1 26  1  0  0  0  0
  4  5  1  0  0  0  0
  4 25  1  0  0  0  0
  5  6  1  0  0  0  0
  6  7  1  0  0  0  0
  7  8  1  0  0  0  0
  8  9  1  0  0  0  0
  9 10  1  0  0  0  0
  9 14  1  0  0  0  0
 10 11  1  0  0  0  0
 11 12  1  0  0  0  0
 12 13  1  0  0  0  0
 12 15  1  0  0  0  0
 13 14  1  0  0  0  0
 15 16  4  0  0  0  0
 15 24  4  0  0  0  0
 16 17  4  0  0  0  0
 17 18  1  0  0  0  0
 17 22  4  0  0  0  0
 18 19  1  0  0  0  0
 19 20  2  0  0  0  0
 19 21  1  0  0  0  0
 22 23  4  0  0  0  0
 23 24  4  0  0  0  0
 26 27  1  0  0  0  0
 27 28  1  0  0  0  0
 27 29  1  0  0  0  0
M  END
>  <Name_Molregno>
348049

>  <5-HT1A>
8.01

$$$$
348065
  Marvin  02231216192D 0   1.00000     0.00000     0

 33 35  0  0  0  0  0  0  0  0999 V2000
   -7.4492   -0.5568    0.0000 S   0  0  0  0  0  0  0  0  0
   -7.0367    0.1577    0.0000 O   0  0  0  0  0  0  0  0  0
   -7.8617   -1.2713    0.0000 O   0  0  0  0  0  0  0  0  0
   -6.7347   -0.9693    0.0000 N   0  0  0  0  0  0  0  0  0
   -6.0202   -0.5568    0.0000 C   0  0  0  0  0  0  0  0  0
   -5.3057   -0.9693    0.0000 C   0  0  0  0  0  0  0  0  0
   -4.5913   -0.5568    0.0000 C   0  0  0  0  0  0  0  0  0
   -3.8768   -0.9693    0.0000 C   0  0  0  0  0  0  0  0  0
   -3.1623   -0.5568    0.0000 N   0  0  0  0  0  0  0  0  0
   -3.1623    0.2682    0.0000 C   0  0  0  0  0  0  0  0  0
   -2.4479    0.6807    0.0000 C   0  0  0  0  0  0  0  0  0
   -1.7334    0.2682    0.0000 N   0  0  0  0  0  0  0  0  0
   -1.7334   -0.5568    0.0000 C   0  0  0  0  0  0  0  0  0
   -2.4479   -0.9693    0.0000 C   0  0  0  0  0  0  0  0  0
   -1.0189    0.6807    0.0000 C   0  0  0  0  0  0  0  0  0
   -1.0189    1.5057    0.0000 C   0  0  0  0  0  0  0  0  0
   -0.3045    1.9182    0.0000 C   0  0  0  0  0  0  0  0  0
   -0.3045    2.7432    0.0000 N   0  0  0  0  0  0  0  0  0
    0.4100    3.1557    0.0000 C   0  0  0  0  0  0  0  0  0
    1.1245    2.7432    0.0000 O   0  0  0  0  0  0  0  0  0
    0.4100    3.9807    0.0000 C   0  0  0  0  0  0  0  0  0
    1.1245    4.3932    0.0000 C   0  0  0  0  0  0  0  0  0
   -0.3045    4.3932    0.0000 C   0  0  0  0  0  0  0  0  0
    0.4100    1.5057    0.0000 C   0  0  0  0  0  0  0  0  0
    0.4100    0.6807    0.0000 C   0  0  0  0  0  0  0  0  0
   -0.3045    0.2682    0.0000 C   0  0  0  0  0  0  0  0  0
   -8.1636   -0.1443    0.0000 C   0  0  0  0  0  0  0  0  0
   -8.8781   -0.5568    0.0000 C   0  0  0  0  0  0  0  0  0
   -9.5926   -0.1443    0.0000 C   0  0  0  0  0  0  0  0  0
   -9.5926    0.6807    0.0000 C   0  0  0  0  0  0  0  0  0
   -8.8781    1.0932    0.0000 C   0  0  0  0  0  0  0  0  0
   -8.1636    0.6807    0.0000 C   0  0  0  0  0  0  0  0  0
  -10.3070    1.0932    0.0000 C   0  0  0  0  0  0  0  0  0
  1  2  2  0  0  0  0
  1  3  2  0  0  0  0
  1  4  1  0  0  0  0
  1 27  1  0  0  0  0
  4  5  1  0  0  0  0
  5  6  1  0  0  0  0
  6  7  1  0  0  0  0
  7  8  1  0  0  0  0
  8  9  1  0  0  0  0
  9 10  1  0  0  0  0
  9 14  1  0  0  0  0
 10 11  1  0  0  0  0
 11 12  1  0  0  0  0
 12 13  1  0  0  0  0
 12 15  1  0  0  0  0
 13 14  1  0  0  0  0
 15 16  4  0  0  0  0
 15 26  4  0  0  0  0
 16 17  4  0  0  0  0
 17 18  1  0  0  0  0
 17 24  4  0  0  0  0
 18 19  1  0  0  0  0
 19 20  2  0  0  0  0
 19 21  1  0  0  0  0
 21 22  1  0  0  0  0
 21 23  1  0  0  0  0
 24 25  4  0  0  0  0
 25 26  4  0  0  0  0
 27 28  4  0  0  0  0
 27 32  4  0  0  0  0
 28 29  4  0  0  0  0
 29 30  4  0  0  0  0
 30 31  4  0  0  0  0
 30 33  1  0  0  0  0
 31 32  4  0  0  0  0
M  END
>  <Name_Molregno>
348065

>  <5-HT1A>
7.11

$$$$
348111
  Marvin  02231216192D 0   1.00000     0.00000     0

 33 36  0  0  0  0  0  0  0  0999 V2000
   -1.6781    3.0258    0.0000 S   0  0  0  0  0  0  0  0  0
   -0.8531    3.0258    0.0000 O   0  0  0  0  0  0  0  0  0
   -2.5031    3.0258    0.0000 O   0  0  0  0  0  0  0  0  0
   -1.6781    2.2008    0.0000 N   0  0  0  0  0  0  0  0  0
   -0.9636    1.7883    0.0000 C   0  0  0  0  0  0  0  0  0
   -0.9636    0.9633    0.0000 C   0  0  0  0  0  0  0  0  0
   -1.6781    0.5508    0.0000 C   0  0  0  0  0  0  0  0  0
   -2.3925    0.9633    0.0000 C   0  0  0  0  0  0  0  0  0
   -2.3925    1.7883    0.0000 C   0  0  0  0  0  0  0  0  0
   -1.6781   -0.2742    0.0000 C   0  0  0  0  0  0  0  0  0
   -2.3925   -0.6867    0.0000 N   0  0  0  0  0  0  0  0  0
   -2.3925   -1.5117    0.0000 C   0  0  0  0  0  0  0  0  0
   -3.1070   -1.9242    0.0000 C   0  0  0  0  0  0  0  0  0
   -3.8215   -1.5117    0.0000 N   0  0  0  0  0  0  0  0  0
   -3.8215   -0.6867    0.0000 C   0  0  0  0  0  0  0  0  0
   -3.1070   -0.2742    0.0000 C   0  0  0  0  0  0  0  0  0
   -4.5360   -1.9242    0.0000 C   0  0  0  0  0  0  0  0  0
   -4.5360   -2.7492    0.0000 C   0  0  0  0  0  0  0  0  0
   -5.2504   -3.1617    0.0000 C   0  0  0  0  0  0  0  0  0
   -5.2504   -3.9867    0.0000 N   0  0  0  0  0  0  0  0  0
   -5.9649   -4.3992    0.0000 C   0  0  0  0  0  0  0  0  0
   -5.9649   -5.2242    0.0000 O   0  0  0  0  0  0  0  0  0
   -6.6794   -3.9867    0.0000 C   0  0  0  0  0  0  0  0  0
   -5.9649   -2.7492    0.0000 C   0  0  0  0  0  0  0  0  0
   -5.9649   -1.9242    0.0000 C   0  0  0  0  0  0  0  0  0
   -5.2504   -1.5117    0.0000 C   0  0  0  0  0  0  0  0  0
   -1.6781    3.8508    0.0000 C   0  0  0  0  0  0  0  0  0
   -0.9636    4.2633    0.0000 C   0  0  0  0  0  0  0  0  0
   -0.9636    5.0883    0.0000 C   0  0  0  0  0  0  0  0  0
   -0.2491    5.5008    0.0000 C   0  0  0  0  0  0  0  0  0
    0.4653    5.0883    0.0000 C   0  0  0  0  0  0  0  0  0
    0.4653    4.2633    0.0000 C   0  0  0  0  0  0  0  0  0
   -0.2491    3.8508    0.0000 C   0  0  0  0  0  0  0  0  0
  1  2  2  0  0  0  0
  1  3  2  0  0  0  0
  1  4  1  0  0  0  0
  1 27  1  0  0  0  0
  4  5  1  0  0  0  0
  4  9  1  0  0  0  0
  5  6  1  0  0  0  0
  6  7  1  0  0  0  0
  7  8  1  0  0  0  0
  7 10  1  0  0  0  0
  8  9  1  0  0  0  0
 10 11  1  0  0  0  0
 11 12  1  0  0  0  0
 11 16  1  0  0  0  0
 12 13  1  0  0  0  0
 13 14  1  0  0  0  0
 14 15  1  0  0  0  0
 14 17  1  0  0  0  0
 15 16  1  0  0  0  0
 17 18  4  0  0  0  0
 17 26  4  0  0  0  0
 18 19  4  0  0  0  0
 19 20  1  0  0  0  0
 19 24  4  0  0  0  0
 20 21  1  0  0  0  0
 21 22  2  0  0  0  0
 21 23  1  0  0  0  0
 24 25  4  0  0  0  0
 25 26  4  0  0  0  0
 27 28  1  0  0  0  0
 28 29  1  0  0  0  0
 28 33  1  0  0  0  0
 29 30  1  0  0  0  0
 30 31  1  0  0  0  0
 31 32  1  0  0  0  0
 32 33  1  0  0  0  0
M  END
>  <Name_Molregno>
348111

>  <5-HT1A>
8

$$$$
348118
  Marvin  02231216192D 0   1.00000     0.00000     0

 29 31  0  0  0  0  0  0  0  0999 V2000
   -1.9731    3.5834    0.0000 S   0  0  0  0  0  0  0  0  0
   -1.1481    3.5834    0.0000 O   0  0  0  0  0  0  0  0  0
   -2.7981    3.5834    0.0000 O   0  0  0  0  0  0  0  0  0
   -1.9731    2.7584    0.0000 N   0  0  0  0  0  0  0  0  0
   -1.2587    2.3459    0.0000 C   0  0  0  0  0  0  0  0  0
   -1.2587    1.5209    0.0000 C   0  0  0  0  0  0  0  0  0
   -1.9731    1.1084    0.0000 C   0  0  0  0  0  0  0  0  0
   -2.6876    1.5209    0.0000 C   0  0  0  0  0  0  0  0  0
   -2.6876    2.3459    0.0000 C   0  0  0  0  0  0  0  0  0
   -1.9731    0.2834    0.0000 C   0  0  0  0  0  0  0  0  0
   -2.6876   -0.1291    0.0000 N   0  0  0  0  0  0  0  0  0
   -2.6876   -0.9541    0.0000 C   0  0  0  0  0  0  0  0  0
   -3.4021   -1.3666    0.0000 C   0  0  0  0  0  0  0  0  0
   -4.1166   -0.9541    0.0000 N   0  0  0  0  0  0  0  0  0
   -4.1166   -0.1291    0.0000 C   0  0  0  0  0  0  0  0  0
   -3.4021    0.2834    0.0000 C   0  0  0  0  0  0  0  0  0
   -4.8310   -1.3666    0.0000 C   0  0  0  0  0  0  0  0  0
   -4.8310   -2.1916    0.0000 C   0  0  0  0  0  0  0  0  0
   -5.5455   -2.6041    0.0000 C   0  0  0  0  0  0  0  0  0
   -5.5455   -3.4291    0.0000 N   0  0  0  0  0  0  0  0  0
   -6.2600   -3.8416    0.0000 C   0  0  0  0  0  0  0  0  0
   -6.2600   -4.6666    0.0000 O   0  0  0  0  0  0  0  0  0
   -6.9744   -3.4291    0.0000 C   0  0  0  0  0  0  0  0  0
   -6.2600   -2.1916    0.0000 C   0  0  0  0  0  0  0  0  0
   -6.2600   -1.3666    0.0000 C   0  0  0  0  0  0  0  0  0
   -5.5455   -0.9541    0.0000 C   0  0  0  0  0  0  0  0  0
   -1.9731    4.4084    0.0000 C   0  0  0  0  0  0  0  0  0
   -2.6876    4.8209    0.0000 C   0  0  0  0  0  0  0  0  0
   -1.2587    4.8209    0.0000 C   0  0  0  0  0  0  0  0  0
  1  2  2  0  0  0  0
  1  3  2  0  0  0  0
  1  4  1  0  0  0  0
  1 27  1  0  0  0  0
  4  5  1  0  0  0  0
  4  9  1  0  0  0  0
  5  6  1  0  0  0  0
  6  7  1  0  0  0  0
  7  8  1  0  0  0  0
  7 10  1  0  0  0  0
  8  9  1  0  0  0  0
 10 11  1  0  0  0  0
 11 12  1  0  0  0  0
 11 16  1  0  0  0  0
 12 13  1  0  0  0  0
 13 14  1  0  0  0  0
 14 15  1  0  0  0  0
 14 17  1  0  0  0  0
 15 16  1  0  0  0  0
 17 18  4  0  0  0  0
 17 26  4  0  0  0  0
 18 19  4  0  0  0  0
 19 20  1  0  0  0  0
 19 24  4  0  0  0  0
 20 21  1  0  0  0  0
 21 22  2  0  0  0  0
 21 23  1  0  0  0  0
 24 25  4  0  0  0  0
 25 26  4  0  0  0  0
 27 28  1  0  0  0  0
 27 29  1  0  0  0  0
M  END
>  <Name_Molregno>
348118

>  <5-HT1A>
6.95

$$$$
348204
  Marvin  02231216192D 0   1.00000     0.00000     0

 28 31  0  0  1  0  0  0  0  0999 V2000
   10.2950   -1.6307    0.0000 Cl  0  0  0  0  0  0  0  0  0
    9.4759   -1.5325    0.0000 C   0  0  0  0  0  0  0  0  0
    8.9812   -2.1928    0.0000 C   0  0  0  0  0  0  0  0  0
    8.1621   -2.0945    0.0000 C   0  0  0  0  0  0  0  0  0
    7.8376   -1.3360    0.0000 C   0  0  0  0  0  0  0  0  0
    8.3323   -0.6758    0.0000 C   0  0  0  0  0  0  0  0  0
    9.1514   -0.7740    0.0000 C   0  0  0  0  0  0  0  0  0
    7.0185   -1.2378    0.0000 C   0  0  0  0  0  0  0  0  0
    6.6925   -1.9956    0.0000 O   0  0  0  0  0  0  0  0  0
    6.8803   -0.4204    0.0000 C   0  0  0  0  0  0  0  0  0
    5.9515   -0.4359    0.0000 C   0  0  0  0  0  0  0  0  0
    5.3909    0.0040    0.0000 N   0  0  0  0  0  0  0  0  0
    5.5306   -0.8091    0.0000 C   0  0  0  0  0  0  0  0  0
    6.5023   -0.8091    0.0000 C   0  0  0  0  0  0  0  0  0
    5.0107   -1.5214    0.0000 C   0  0  0  0  0  0  0  0  0
    5.6310   -1.1445    0.0000 C   0  0  0  0  0  0  0  0  0
    4.9683    0.7126    0.0000 C   0  0  0  0  0  0  0  0  0
    4.1434    0.7008    0.0000 C   0  0  0  0  0  0  0  0  0
    3.7208    1.4094    0.0000 C   0  0  0  0  0  0  0  0  0
    2.8958    1.3977    0.0000 C   0  0  0  0  0  0  0  0  0
    2.4935    0.6774    0.0000 O   0  0  0  0  0  0  0  0  0
    2.4732    2.1062    0.0000 C   0  0  0  0  0  0  0  0  0
    1.6483    2.0945    0.0000 C   0  0  0  0  0  0  0  0  0
    1.2257    2.8030    0.0000 C   0  0  0  0  0  0  0  0  0
    1.6280    3.5233    0.0000 C   0  0  0  0  0  0  0  0  0
    1.2054    4.2318    0.0000 F   0  0  0  0  0  0  0  0  0
    2.4529    3.5350    0.0000 C   0  0  0  0  0  0  0  0  0
    2.8755    2.8265    0.0000 C   0  0  0  0  0  0  0  0  0
  1  2  1  0  0  0  0
  2  3  4  0  0  0  0
  2  7  4  0  0  0  0
  3  4  4  0  0  0  0
  4  5  4  0  0  0  0
  5  6  4  0  0  0  0
  5  8  1  0  0  0  0
  6  7  4  0  0  0  0
  8  9  1  0  0  0  0
  8 10  1  0  0  0  0
  8 14  1  0  0  0  0
 10 11  1  0  0  0  0
 11 12  1  0  0  0  0
 11 16  1  0  0  0  0
 12 13  1  0  0  0  0
 12 17  1  0  0  0  0
 13 14  1  0  0  0  0
 13 15  1  0  0  0  0
 15 16  1  0  0  0  0
 17 18  1  0  0  0  0
 18 19  1  0  0  0  0
 19 20  1  0  0  0  0
 20 21  2  0  0  0  0
 20 22  1  0  0  0  0
 22 23  4  0  0  0  0
 22 28  4  0  0  0  0
 23 24  4  0  0  0  0
 24 25  4  0  0  0  0
 25 26  1  0  0  0  0
 25 27  4  0  0  0  0
 27 28  4  0  0  0  0
M  END
>  <Name_Molregno>
348204

>  <5-HT1A>
7.56

>  <5-HT2A>
7.51

>  <5-HT2C>
6.06

>  <Alpha-1A>
7.41

>  <Alpha-1B>
7.37

>  <Alpha-2A>
5.55

>  <Alpha-2B>
6.29

>  <Alpha-2C>
6.85

>  <DOPAMINE D2>
8.8

>  <DOPAMINE D3>
8.29

>  <DOPAMINE D4>
8.28

>  <HISTAMINE H1>
5.06

$$$$
348329
  Marvin  02231216192D 0   1.00000     0.00000     0

 24 27  0  0  1  0  0  0  0  0999 V2000
    0.3386    1.8666    0.0000 O   0  0  0  0  0  0  0  0  0
    0.5101    1.0597    0.0000 C   0  0  0  0  0  0  0  0  0
    1.2638    0.7241    0.0000 N   0  0  0  0  0  0  0  0  0
    1.9783    1.1366    0.0000 C   0  0  0  0  0  0  0  0  0
    2.6928    0.7241    0.0000 C   0  0  0  0  0  0  0  0  0
    2.6928   -0.1009    0.0000 C   0  0  0  0  0  0  0  0  0
    3.4072   -0.5134    0.0000 C   0  0  0  0  0  0  0  0  0
    4.1217   -0.1009    0.0000 C   0  0  0  0  0  0  0  0  0
    4.1217    0.7241    0.0000 N   0  0  0  0  0  0  0  0  0
    3.4072    1.1366    0.0000 C   0  0  0  0  0  0  0  0  0
    4.8362    1.1366    0.0000 C   0  0  0  0  0  0  0  0  0
    5.5506    0.7241    0.0000 C   0  0  0  0  0  0  0  0  0
    5.5506   -0.1009    0.0000 N   0  0  0  0  0  0  0  0  0
    4.8362   -0.5134    0.0000 C   0  0  0  0  0  0  0  0  0
    6.2651   -0.5134    0.0000 C   0  0  0  0  0  0  0  0  0
    6.9796   -0.1009    0.0000 N   0  0  0  0  0  0  0  0  0
    7.6940   -0.5134    0.0000 C   0  0  0  0  0  0  0  0  0
    7.6940   -1.3384    0.0000 C   0  0  0  0  0  0  0  0  0
    6.9796   -1.7509    0.0000 C   0  0  0  0  0  0  0  0  0
    6.2651   -1.3384    0.0000 N   0  0  0  0  0  0  0  0  0
    1.1776   -0.0964    0.0000 C   0  0  0  0  0  0  0  0  0
    1.7907   -0.6484    0.0000 O   0  0  0  0  0  0  0  0  0
    0.3706   -0.2679    0.0000 C   0  0  0  0  0  0  0  0  0
   -0.0419    0.4466    0.0000 C   0  0  0  0  0  0  0  0  0
  1  2  2  0  0  0  0
  2  3  1  0  0  0  0
  2 24  1  0  0  0  0
  3  4  1  0  0  0  0
  3 21  1  0  0  0  0
  4  5  1  0  0  0  0
  5  6  1  0  0  0  0
  5 10  1  0  0  0  0
  6  7  1  0  0  0  0
  7  8  1  0  0  0  0
  8  9  1  0  0  0  0
  8 14  1  0  0  0  0
  9 10  1  0  0  0  0
  9 11  1  0  0  0  0
 11 12  1  0  0  0  0
 12 13  1  0  0  0  0
 13 14  1  0  0  0  0
 13 15  1  0  0  0  0
 15 16  4  0  0  0  0
 15 20  4  0  0  0  0
 16 17  4  0  0  0  0
 17 18  4  0  0  0  0
 18 19  4  0  0  0  0
 19 20  4  0  0  0  0
 21 22  2  0  0  0  0
 21 23  1  0  0  0  0
 23 24  1  0  0  0  0
M  END
>  <Name_Molregno>
348329

>  <5-HT1A>
7.04

$$$$
348336
  Marvin  02231216192D 0   1.00000     0.00000     0

 29 31  0  0  0  0  0  0  0  0999 V2000
   -0.0747   -1.1619    0.0000 S   0  0  0  0  0  0  0  0  0
    0.3378   -0.4474    0.0000 O   0  0  0  0  0  0  0  0  0
   -0.4872   -1.8764    0.0000 O   0  0  0  0  0  0  0  0  0
    0.6398   -1.5744    0.0000 N   0  0  0  0  0  0  0  0  0
    1.3543   -1.1619    0.0000 C   0  0  0  0  0  0  0  0  0
    2.0687   -1.5744    0.0000 C   0  0  0  0  0  0  0  0  0
    2.7832   -1.1619    0.0000 C   0  0  0  0  0  0  0  0  0
    3.4977   -1.5744    0.0000 C   0  0  0  0  0  0  0  0  0
    4.2122   -1.1619    0.0000 N   0  0  0  0  0  0  0  0  0
    4.2122   -0.3369    0.0000 C   0  0  0  0  0  0  0  0  0
    4.9266    0.0756    0.0000 C   0  0  0  0  0  0  0  0  0
    5.6411   -0.3369    0.0000 N   0  0  0  0  0  0  0  0  0
    5.6411   -1.1619    0.0000 C   0  0  0  0  0  0  0  0  0
    4.9266   -1.5744    0.0000 C   0  0  0  0  0  0  0  0  0
    6.3556    0.0756    0.0000 C   0  0  0  0  0  0  0  0  0
    6.3556    0.9006    0.0000 C   0  0  0  0  0  0  0  0  0
    7.0700    1.3131    0.0000 C   0  0  0  0  0  0  0  0  0
    7.7845    0.9006    0.0000 C   0  0  0  0  0  0  0  0  0
    7.7845    0.0756    0.0000 C   0  0  0  0  0  0  0  0  0
    7.0700   -0.3369    0.0000 C   0  0  0  0  0  0  0  0  0
    7.0700   -1.1619    0.0000 O   0  0  0  0  0  0  0  0  0
    7.7845   -1.5744    0.0000 C   0  0  0  0  0  0  0  0  0
   -0.7891   -0.7494    0.0000 C   0  0  0  0  0  0  0  0  0
   -1.5036   -1.1619    0.0000 C   0  0  0  0  0  0  0  0  0
   -2.2181   -0.7494    0.0000 C   0  0  0  0  0  0  0  0  0
   -2.2181    0.0756    0.0000 C   0  0  0  0  0  0  0  0  0
   -1.5036    0.4881    0.0000 C   0  0  0  0  0  0  0  0  0
   -0.7891    0.0756    0.0000 C   0  0  0  0  0  0  0  0  0
   -2.9325    0.4881    0.0000 C   0  0  0  0  0  0  0  0  0
  1  2  2  0  0  0  0
  1  3  2  0  0  0  0
  1  4  1  0  0  0  0
  1 23  1  0  0  0  0
  4  5  1  0  0  0  0
  5  6  1  0  0  0  0
  6  7  1  0  0  0  0
  7  8  1  0  0  0  0
  8  9  1  0  0  0  0
  9 10  1  0  0  0  0
  9 14  1  0  0  0  0
 10 11  1  0  0  0  0
 11 12  1  0  0  0  0
 12 13  1  0  0  0  0
 12 15  1  0  0  0  0
 13 14  1  0  0  0  0
 15 16  4  0  0  0  0
 15 20  4  0  0  0  0
 16 17  4  0  0  0  0
 17 18  4  0  0  0  0
 18 19  4  0  0  0  0
 19 20  4  0  0  0  0
 20 21  1  0  0  0  0
 21 22  1  0  0  0  0
 23 24  4  0  0  0  0
 23 28  4  0  0  0  0
 24 25  4  0  0  0  0
 25 26  4  0  0  0  0
 26 27  4  0  0  0  0
 26 29  1  0  0  0  0
 27 28  4  0  0  0  0
M  END
>  <Name_Molregno>
348336

>  <5-HT1A>
9

>  <5-HT2A>
6.31

>  <5-HT7>
7.52

>  <Serotonin transporter>
6.7

$$$$
348337
  Marvin  02231216192D 0   1.00000     0.00000     0

 33 36  0  0  0  0  0  0  0  0999 V2000
   -1.4814    2.6908    0.0000 S   0  0  0  0  0  0  0  0  0
   -0.6564    2.6908    0.0000 O   0  0  0  0  0  0  0  0  0
   -2.3064    2.6908    0.0000 O   0  0  0  0  0  0  0  0  0
   -1.4814    1.8658    0.0000 N   0  0  0  0  0  0  0  0  0
   -0.7669    1.4533    0.0000 C   0  0  0  0  0  0  0  0  0
   -0.7669    0.6283    0.0000 C   0  0  0  0  0  0  0  0  0
   -1.4814    0.2158    0.0000 C   0  0  0  0  0  0  0  0  0
   -2.1959    0.6283    0.0000 C   0  0  0  0  0  0  0  0  0
   -2.1959    1.4533    0.0000 C   0  0  0  0  0  0  0  0  0
   -1.4814   -0.6092    0.0000 C   0  0  0  0  0  0  0  0  0
   -2.1959   -1.0217    0.0000 N   0  0  0  0  0  0  0  0  0
   -2.1959   -1.8467    0.0000 C   0  0  0  0  0  0  0  0  0
   -2.9104   -2.2592    0.0000 C   0  0  0  0  0  0  0  0  0
   -3.6248   -1.8467    0.0000 N   0  0  0  0  0  0  0  0  0
   -3.6248   -1.0217    0.0000 C   0  0  0  0  0  0  0  0  0
   -2.9104   -0.6092    0.0000 C   0  0  0  0  0  0  0  0  0
   -4.3393   -2.2592    0.0000 C   0  0  0  0  0  0  0  0  0
   -4.3393   -3.0842    0.0000 C   0  0  0  0  0  0  0  0  0
   -5.0538   -3.4967    0.0000 C   0  0  0  0  0  0  0  0  0
   -5.0538   -4.3217    0.0000 N   0  0  0  0  0  0  0  0  0
   -5.7682   -4.7342    0.0000 C   0  0  0  0  0  0  0  0  0
   -5.7682   -5.5592    0.0000 O   0  0  0  0  0  0  0  0  0
   -6.4827   -4.3217    0.0000 C   0  0  0  0  0  0  0  0  0
   -5.7682   -3.0842    0.0000 C   0  0  0  0  0  0  0  0  0
   -5.7682   -2.2592    0.0000 C   0  0  0  0  0  0  0  0  0
   -5.0538   -1.8467    0.0000 C   0  0  0  0  0  0  0  0  0
   -1.4814    3.5158    0.0000 C   0  0  0  0  0  0  0  0  0
   -2.1959    3.9283    0.0000 C   0  0  0  0  0  0  0  0  0
   -2.1959    4.7533    0.0000 C   0  0  0  0  0  0  0  0  0
   -1.4814    5.1658    0.0000 C   0  0  0  0  0  0  0  0  0
   -1.4814    5.9908    0.0000 F   0  0  0  0  0  0  0  0  0
   -0.7669    4.7533    0.0000 C   0  0  0  0  0  0  0  0  0
   -0.7669    3.9283    0.0000 C   0  0  0  0  0  0  0  0  0
  1  2  2  0  0  0  0
  1  3  2  0  0  0  0
  1  4  1  0  0  0  0
  1 27  1  0  0  0  0
  4  5  1  0  0  0  0
  4  9  1  0  0  0  0
  5  6  1  0  0  0  0
  6  7  1  0  0  0  0
  7  8  1  0  0  0  0
  7 10  1  0  0  0  0
  8  9  1  0  0  0  0
 10 11  1  0  0  0  0
 11 12  1  0  0  0  0
 11 16  1  0  0  0  0
 12 13  1  0  0  0  0
 13 14  1  0  0  0  0
 14 15  1  0  0  0  0
 14 17  1  0  0  0  0
 15 16  1  0  0  0  0
 17 18  4  0  0  0  0
 17 26  4  0  0  0  0
 18 19  4  0  0  0  0
 19 20  1  0  0  0  0
 19 24  4  0  0  0  0
 20 21  1  0  0  0  0
 21 22  2  0  0  0  0
 21 23  1  0  0  0  0
 24 25  4  0  0  0  0
 25 26  4  0  0  0  0
 27 28  4  0  0  0  0
 27 33  4  0  0  0  0
 28 29  4  0  0  0  0
 29 30  4  0  0  0  0
 30 31  1  0  0  0  0
 30 32  4  0  0  0  0
 32 33  4  0  0  0  0
M  END
>  <Name_Molregno>
348337

>  <5-HT1A>
7.89

$$$$
349093
  Marvin  02231216192D 0   1.00000     0.00000     0

 37 41  0  0  0  0  0  0  0  0999 V2000
  -10.5423   -1.1396    0.0000 O   0  0  0  0  0  0  0  0  0
  -11.1256   -1.7229    0.0000 C   0  0  0  0  0  0  0  0  0
  -10.7558   -0.3427    0.0000 C   0  0  0  0  0  0  0  0  0
  -11.5527   -0.1292    0.0000 C   0  0  0  0  0  0  0  0  0
  -11.7662    0.6677    0.0000 C   0  0  0  0  0  0  0  0  0
  -11.1828    1.2511    0.0000 C   0  0  0  0  0  0  0  0  0
  -10.3859    1.0376    0.0000 C   0  0  0  0  0  0  0  0  0
  -10.1724    0.2407    0.0000 C   0  0  0  0  0  0  0  0  0
   -9.3755    0.0271    0.0000 N   0  0  0  0  0  0  0  0  0
   -8.7922    0.6105    0.0000 C   0  0  0  0  0  0  0  0  0
   -7.9953    0.3970    0.0000 C   0  0  0  0  0  0  0  0  0
   -7.7818   -0.3999    0.0000 N   0  0  0  0  0  0  0  0  0
   -8.3651   -0.9833    0.0000 C   0  0  0  0  0  0  0  0  0
   -9.1620   -0.7697    0.0000 C   0  0  0  0  0  0  0  0  0
   -6.9849   -0.6134    0.0000 C   0  0  0  0  0  0  0  0  0
   -6.4015   -0.0301    0.0000 C   0  0  0  0  0  0  0  0  0
   -5.6046   -0.2436    0.0000 C   0  0  0  0  0  0  0  0  0
   -5.0213    0.3398    0.0000 C   0  0  0  0  0  0  0  0  0
   -4.2244    0.1262    0.0000 N   0  0  0  0  0  0  0  0  0
   -3.6410    0.7096    0.0000 C   0  0  0  0  0  0  0  0  0
   -3.8545    1.5065    0.0000 O   0  0  0  0  0  0  0  0  0
   -2.8441    0.4961    0.0000 C   0  0  0  0  0  0  0  0  0
   -2.4316    1.2105    0.0000 C   0  0  0  0  0  0  0  0  0
   -1.7171    1.6230    0.0000 C   0  0  0  0  0  0  0  0  0
   -0.8921    1.6230    0.0000 C   0  0  0  0  0  0  0  0  0
   -0.1777    1.2105    0.0000 C   0  0  0  0  0  0  0  0  0
    0.2348    0.4961    0.0000 C   0  0  0  0  0  0  0  0  0
    0.2348   -0.3289    0.0000 C   0  0  0  0  0  0  0  0  0
   -0.1777   -1.0434    0.0000 C   0  0  0  0  0  0  0  0  0
   -0.8921   -1.4559    0.0000 C   0  0  0  0  0  0  0  0  0
   -1.7171   -1.4559    0.0000 C   0  0  0  0  0  0  0  0  0
   -2.4316   -1.0434    0.0000 C   0  0  0  0  0  0  0  0  0
   -2.8441   -0.3289    0.0000 C   0  0  0  0  0  0  0  0  0
   -2.2438   -0.2921    0.0000 C   0  0  0  0  0  0  0  0  0
   -2.2438    0.4592    0.0000 C   0  0  0  0  0  0  0  0  0
   -0.3655   -0.2921    0.0000 C   0  0  0  0  0  0  0  0  0
   -0.3655    0.4592    0.0000 C   0  0  0  0  0  0  0  0  0
  1  2  1  0  0  0  0
  1  3  1  0  0  0  0
  3  4  4  0  0  0  0
  3  8  4  0  0  0  0
  4  5  4  0  0  0  0
  5  6  4  0  0  0  0
  6  7  4  0  0  0  0
  7  8  4  0  0  0  0
  8  9  1  0  0  0  0
  9 10  1  0  0  0  0
  9 14  1  0  0  0  0
 10 11  1  0  0  0  0
 11 12  1  0  0  0  0
 12 13  1  0  0  0  0
 12 15  1  0  0  0  0
 13 14  1  0  0  0  0
 15 16  1  0  0  0  0
 16 17  1  0  0  0  0
 17 18  1  0  0  0  0
 18 19  1  0  0  0  0
 19 20  1  0  0  0  0
 20 21  2  0  0  0  0
 20 22  1  0  0  0  0
 22 23  4  0  0  0  0
 22 33  4  0  0  0  0
 23 24  1  0  0  0  0
 23 35  4  0  0  0  0
 24 25  1  0  0  0  0
 25 26  1  0  0  0  0
 26 27  4  0  0  0  0
 26 37  4  0  0  0  0
 27 28  4  0  0  0  0
 28 29  4  0  0  0  0
 29 30  1  0  0  0  0
 29 36  4  0  0  0  0
 30 31  1  0  0  0  0
 31 32  1  0  0  0  0
 32 33  4  0  0  0  0
 32 34  4  0  0  0  0
 34 35  4  0  0  0  0
 36 37  4  0  0  0  0
M  END
>  <Name_Molregno>
349093

>  <5-HT1A>
7.42

>  <DOPAMINE D1>
6.24

>  <DOPAMINE D2>
7.98

>  <DOPAMINE D3>
9.12

>  <DOPAMINE D4>
8.15

$$$$
349345
  Marvin  02231216192D 0   1.00000     0.00000     0

 37 41  0  0  0  0  0  0  0  0999 V2000
    1.3466    3.6338    0.0000 Cl  0  0  0  0  0  0  0  0  0
    0.7633    3.0505    0.0000 C   0  0  0  0  0  0  0  0  0
    0.9768    2.2536    0.0000 C   0  0  0  0  0  0  0  0  0
    1.7737    2.0401    0.0000 N   0  0  0  0  0  0  0  0  0
    2.3570    2.6234    0.0000 C   0  0  0  0  0  0  0  0  0
    3.1539    2.4099    0.0000 C   0  0  0  0  0  0  0  0  0
    3.3675    1.6130    0.0000 N   0  0  0  0  0  0  0  0  0
    2.7841    1.0296    0.0000 C   0  0  0  0  0  0  0  0  0
    1.9872    1.2432    0.0000 C   0  0  0  0  0  0  0  0  0
    4.1643    1.3995    0.0000 C   0  0  0  0  0  0  0  0  0
    4.3779    0.6026    0.0000 C   0  0  0  0  0  0  0  0  0
    5.1748    0.3891    0.0000 C   0  0  0  0  0  0  0  0  0
    5.3883   -0.4078    0.0000 C   0  0  0  0  0  0  0  0  0
    6.1852   -0.6213    0.0000 N   0  0  0  0  0  0  0  0  0
    6.3987   -1.4182    0.0000 C   0  0  0  0  0  0  0  0  0
    5.8153   -2.0016    0.0000 O   0  0  0  0  0  0  0  0  0
    7.1956   -1.6318    0.0000 C   0  0  0  0  0  0  0  0  0
    7.6081   -0.9173    0.0000 C   0  0  0  0  0  0  0  0  0
    8.3226   -0.5048    0.0000 C   0  0  0  0  0  0  0  0  0
    9.1476   -0.5048    0.0000 C   0  0  0  0  0  0  0  0  0
    9.8620   -0.9173    0.0000 C   0  0  0  0  0  0  0  0  0
   10.2745   -1.6318    0.0000 C   0  0  0  0  0  0  0  0  0
   10.2745   -2.4568    0.0000 C   0  0  0  0  0  0  0  0  0
    9.8620   -3.1712    0.0000 C   0  0  0  0  0  0  0  0  0
    9.1476   -3.5837    0.0000 C   0  0  0  0  0  0  0  0  0
    8.3226   -3.5837    0.0000 C   0  0  0  0  0  0  0  0  0
    7.6081   -3.1712    0.0000 C   0  0  0  0  0  0  0  0  0
    7.1956   -2.4568    0.0000 C   0  0  0  0  0  0  0  0  0
    7.7959   -2.4199    0.0000 C   0  0  0  0  0  0  0  0  0
    7.7959   -1.6686    0.0000 C   0  0  0  0  0  0  0  0  0
    9.6742   -2.4199    0.0000 C   0  0  0  0  0  0  0  0  0
    9.6742   -1.6686    0.0000 C   0  0  0  0  0  0  0  0  0
    0.3934    1.6702    0.0000 C   0  0  0  0  0  0  0  0  0
   -0.4035    1.8838    0.0000 C   0  0  0  0  0  0  0  0  0
   -0.6170    2.6806    0.0000 C   0  0  0  0  0  0  0  0  0
   -0.0336    3.2640    0.0000 C   0  0  0  0  0  0  0  0  0
   -0.2472    4.0609    0.0000 Cl  0  0  0  0  0  0  0  0  0
  1  2  1  0  0  0  0
  2  3  4  0  0  0  0
  2 36  4  0  0  0  0
  3  4  1  0  0  0  0
  3 33  4  0  0  0  0
  4  5  1  0  0  0  0
  4  9  1  0  0  0  0
  5  6  1  0  0  0  0
  6  7  1  0  0  0  0
  7  8  1  0  0  0  0
  7 10  1  0  0  0  0
  8  9  1  0  0  0  0
 10 11  1  0  0  0  0
 11 12  1  0  0  0  0
 12 13  1  0  0  0  0
 13 14  1  0  0  0  0
 14 15  1  0  0  0  0
 15 16  2  0  0  0  0
 15 17  1  0  0  0  0
 17 18  4  0  0  0  0
 17 28  4  0  0  0  0
 18 19  1  0  0  0  0
 18 30  4  0  0  0  0
 19 20  1  0  0  0  0
 20 21  1  0  0  0  0
 21 22  4  0  0  0  0
 21 32  4  0  0  0  0
 22 23  4  0  0  0  0
 23 24  4  0  0  0  0
 24 25  1  0  0  0  0
 24 31  4  0  0  0  0
 25 26  1  0  0  0  0
 26 27  1  0  0  0  0
 27 28  4  0  0  0  0
 27 29  4  0  0  0  0
 29 30  4  0  0  0  0
 31 32  4  0  0  0  0
 33 34  4  0  0  0  0
 34 35  4  0  0  0  0
 35 36  4  0  0  0  0
 36 37  1  0  0  0  0
M  END
>  <Name_Molregno>
349345

>  <5-HT1A>
6.18

>  <DOPAMINE D1>
5.55

>  <DOPAMINE D2>
6.75

>  <DOPAMINE D3>
8.44

>  <DOPAMINE D4>
6.92

$$$$
349377
  Marvin  02231216192D 0   1.00000     0.00000     0

 38 42  0  0  0  0  0  0  0  0999 V2000
   -0.1995   -1.5097    0.0000 Cl  0  0  0  0  0  0  0  0  0
    0.3839   -0.9263    0.0000 C   0  0  0  0  0  0  0  0  0
    0.1704   -0.1294    0.0000 C   0  0  0  0  0  0  0  0  0
    0.7537    0.4539    0.0000 C   0  0  0  0  0  0  0  0  0
    1.5506    0.2404    0.0000 C   0  0  0  0  0  0  0  0  0
    1.7642   -0.5565    0.0000 C   0  0  0  0  0  0  0  0  0
    2.5610   -0.7700    0.0000 N   0  0  0  0  0  0  0  0  0
    3.1444   -0.1867    0.0000 C   0  0  0  0  0  0  0  0  0
    3.9413   -0.4002    0.0000 C   0  0  0  0  0  0  0  0  0
    4.1548   -1.1971    0.0000 N   0  0  0  0  0  0  0  0  0
    3.5715   -1.7804    0.0000 C   0  0  0  0  0  0  0  0  0
    2.7746   -1.5669    0.0000 C   0  0  0  0  0  0  0  0  0
    4.9517   -1.4106    0.0000 C   0  0  0  0  0  0  0  0  0
    5.5351   -0.8272    0.0000 C   0  0  0  0  0  0  0  0  0
    6.3320   -1.0408    0.0000 C   0  0  0  0  0  0  0  0  0
    6.9153   -0.4574    0.0000 C   0  0  0  0  0  0  0  0  0
    7.7122   -0.6709    0.0000 N   0  0  0  0  0  0  0  0  0
    8.2956   -0.0876    0.0000 C   0  0  0  0  0  0  0  0  0
    8.0821    0.7093    0.0000 O   0  0  0  0  0  0  0  0  0
    9.0925   -0.3011    0.0000 C   0  0  0  0  0  0  0  0  0
    9.5050    0.4134    0.0000 C   0  0  0  0  0  0  0  0  0
   10.2194    0.8259    0.0000 C   0  0  0  0  0  0  0  0  0
   11.0444    0.8259    0.0000 C   0  0  0  0  0  0  0  0  0
   11.7589    0.4134    0.0000 C   0  0  0  0  0  0  0  0  0
   12.1714   -0.3011    0.0000 C   0  0  0  0  0  0  0  0  0
   12.1714   -1.1261    0.0000 C   0  0  0  0  0  0  0  0  0
   11.7589   -1.8406    0.0000 C   0  0  0  0  0  0  0  0  0
   11.0444   -2.2531    0.0000 C   0  0  0  0  0  0  0  0  0
   10.2194   -2.2531    0.0000 C   0  0  0  0  0  0  0  0  0
    9.5050   -1.8406    0.0000 C   0  0  0  0  0  0  0  0  0
    9.0925   -1.1261    0.0000 C   0  0  0  0  0  0  0  0  0
    9.6928   -1.0892    0.0000 C   0  0  0  0  0  0  0  0  0
    9.6928   -0.3379    0.0000 C   0  0  0  0  0  0  0  0  0
   11.5711   -1.0892    0.0000 C   0  0  0  0  0  0  0  0  0
   11.5711   -0.3379    0.0000 C   0  0  0  0  0  0  0  0  0
    1.1808   -1.1399    0.0000 C   0  0  0  0  0  0  0  0  0
    1.3943   -1.9367    0.0000 O   0  0  0  0  0  0  0  0  0
    2.1912   -2.1503    0.0000 C   0  0  0  0  0  0  0  0  0
  1  2  1  0  0  0  0
  2  3  4  0  0  0  0
  2 36  4  0  0  0  0
  3  4  4  0  0  0  0
  4  5  4  0  0  0  0
  5  6  4  0  0  0  0
  6  7  1  0  0  0  0
  6 36  4  0  0  0  0
  7  8  1  0  0  0  0
  7 12  1  0  0  0  0
  8  9  1  0  0  0  0
  9 10  1  0  0  0  0
 10 11  1  0  0  0  0
 10 13  1  0  0  0  0
 11 12  1  0  0  0  0
 13 14  1  0  0  0  0
 14 15  1  0  0  0  0
 15 16  1  0  0  0  0
 16 17  1  0  0  0  0
 17 18  1  0  0  0  0
 18 19  2  0  0  0  0
 18 20  1  0  0  0  0
 20 21  4  0  0  0  0
 20 31  4  0  0  0  0
 21 22  1  0  0  0  0
 21 33  4  0  0  0  0
 22 23  1  0  0  0  0
 23 24  1  0  0  0  0
 24 25  4  0  0  0  0
 24 35  4  0  0  0  0
 25 26  4  0  0  0  0
 26 27  4  0  0  0  0
 27 28  1  0  0  0  0
 27 34  4  0  0  0  0
 28 29  1  0  0  0  0
 29 30  1  0  0  0  0
 30 31  4  0  0  0  0
 30 32  4  0  0  0  0
 32 33  4  0  0  0  0
 34 35  4  0  0  0  0
 36 37  1  0  0  0  0
 37 38  1  0  0  0  0
M  END
>  <Name_Molregno>
349377

>  <5-HT1A>
7.66

>  <DOPAMINE D1>
6.01

>  <DOPAMINE D2>
7.47

>  <DOPAMINE D3>
9.34

>  <DOPAMINE D4>
7.48

$$$$
349778
  Marvin  02231216192D 0   1.00000     0.00000     0

 37 41  0  0  0  0  0  0  0  0999 V2000
    1.3466    3.6338    0.0000 F   0  0  0  0  0  0  0  0  0
    0.7633    3.0505    0.0000 C   0  0  0  0  0  0  0  0  0
    0.9768    2.2536    0.0000 C   0  0  0  0  0  0  0  0  0
    1.7737    2.0401    0.0000 N   0  0  0  0  0  0  0  0  0
    2.3570    2.6234    0.0000 C   0  0  0  0  0  0  0  0  0
    3.1539    2.4099    0.0000 C   0  0  0  0  0  0  0  0  0
    3.3675    1.6130    0.0000 N   0  0  0  0  0  0  0  0  0
    2.7841    1.0296    0.0000 C   0  0  0  0  0  0  0  0  0
    1.9872    1.2432    0.0000 C   0  0  0  0  0  0  0  0  0
    4.1643    1.3995    0.0000 C   0  0  0  0  0  0  0  0  0
    4.3779    0.6026    0.0000 C   0  0  0  0  0  0  0  0  0
    5.1748    0.3891    0.0000 C   0  0  0  0  0  0  0  0  0
    5.3883   -0.4078    0.0000 C   0  0  0  0  0  0  0  0  0
    6.1852   -0.6213    0.0000 N   0  0  0  0  0  0  0  0  0
    6.3987   -1.4182    0.0000 C   0  0  0  0  0  0  0  0  0
    5.8153   -2.0016    0.0000 O   0  0  0  0  0  0  0  0  0
    7.1956   -1.6318    0.0000 C   0  0  0  0  0  0  0  0  0
    7.6081   -0.9173    0.0000 C   0  0  0  0  0  0  0  0  0
    8.3226   -0.5048    0.0000 C   0  0  0  0  0  0  0  0  0
    9.1476   -0.5048    0.0000 C   0  0  0  0  0  0  0  0  0
    9.8620   -0.9173    0.0000 C   0  0  0  0  0  0  0  0  0
   10.2745   -1.6318    0.0000 C   0  0  0  0  0  0  0  0  0
   10.2745   -2.4568    0.0000 C   0  0  0  0  0  0  0  0  0
    9.8620   -3.1712    0.0000 C   0  0  0  0  0  0  0  0  0
    9.1476   -3.5837    0.0000 C   0  0  0  0  0  0  0  0  0
    8.3226   -3.5837    0.0000 C   0  0  0  0  0  0  0  0  0
    7.6081   -3.1712    0.0000 C   0  0  0  0  0  0  0  0  0
    7.1956   -2.4568    0.0000 C   0  0  0  0  0  0  0  0  0
    7.7959   -2.4199    0.0000 C   0  0  0  0  0  0  0  0  0
    7.7959   -1.6686    0.0000 C   0  0  0  0  0  0  0  0  0
    9.6742   -2.4199    0.0000 C   0  0  0  0  0  0  0  0  0
    9.6742   -1.6686    0.0000 C   0  0  0  0  0  0  0  0  0
    0.3934    1.6702    0.0000 C   0  0  0  0  0  0  0  0  0
   -0.4035    1.8838    0.0000 C   0  0  0  0  0  0  0  0  0
   -0.6170    2.6806    0.0000 C   0  0  0  0  0  0  0  0  0
   -0.0336    3.2640    0.0000 C   0  0  0  0  0  0  0  0  0
   -0.2472    4.0609    0.0000 F   0  0  0  0  0  0  0  0  0
  1  2  1  0  0  0  0
  2  3  4  0  0  0  0
  2 36  4  0  0  0  0
  3  4  1  0  0  0  0
  3 33  4  0  0  0  0
  4  5  1  0  0  0  0
  4  9  1  0  0  0  0
  5  6  1  0  0  0  0
  6  7  1  0  0  0  0
  7  8  1  0  0  0  0
  7 10  1  0  0  0  0
  8  9  1  0  0  0  0
 10 11  1  0  0  0  0
 11 12  1  0  0  0  0
 12 13  1  0  0  0  0
 13 14  1  0  0  0  0
 14 15  1  0  0  0  0
 15 16  2  0  0  0  0
 15 17  1  0  0  0  0
 17 18  4  0  0  0  0
 17 28  4  0  0  0  0
 18 19  1  0  0  0  0
 18 30  4  0  0  0  0
 19 20  1  0  0  0  0
 20 21  1  0  0  0  0
 21 22  4  0  0  0  0
 21 32  4  0  0  0  0
 22 23  4  0  0  0  0
 23 24  4  0  0  0  0
 24 25  1  0  0  0  0
 24 31  4  0  0  0  0
 25 26  1  0  0  0  0
 26 27  1  0  0  0  0
 27 28  4  0  0  0  0
 27 29  4  0  0  0  0
 29 30  4  0  0  0  0
 31 32  4  0  0  0  0
 33 34  4  0  0  0  0
 34 35  4  0  0  0  0
 35 36  4  0  0  0  0
 36 37  1  0  0  0  0
M  END
>  <Name_Molregno>
349778

>  <5-HT1A>
6.54

>  <DOPAMINE D1>
6.24

>  <DOPAMINE D2>
7.19

>  <DOPAMINE D3>
8.72

>  <DOPAMINE D4>
7.74

$$$$
349977
  Marvin  02231216192D 0   1.00000     0.00000     0

 40 45  0  0  0  0  0  0  0  0999 V2000
    4.4297    0.9973    0.0000 O   0  0  0  0  0  0  0  0  0
    5.2143    0.7423    0.0000 C   0  0  0  0  0  0  0  0  0
    5.6268    1.4568    0.0000 C   0  0  0  0  0  0  0  0  0
    6.3413    1.8693    0.0000 C   0  0  0  0  0  0  0  0  0
    7.1663    1.8693    0.0000 C   0  0  0  0  0  0  0  0  0
    7.8808    1.4568    0.0000 C   0  0  0  0  0  0  0  0  0
    8.2933    0.7423    0.0000 C   0  0  0  0  0  0  0  0  0
    8.2933   -0.0827    0.0000 C   0  0  0  0  0  0  0  0  0
    7.8808   -0.7971    0.0000 C   0  0  0  0  0  0  0  0  0
    7.1663   -1.2096    0.0000 C   0  0  0  0  0  0  0  0  0
    6.3413   -1.2096    0.0000 C   0  0  0  0  0  0  0  0  0
    5.6268   -0.7971    0.0000 C   0  0  0  0  0  0  0  0  0
    5.2143   -0.0827    0.0000 C   0  0  0  0  0  0  0  0  0
    4.4297   -0.3376    0.0000 C   0  0  0  0  0  0  0  0  0
    3.9448    0.3298    0.0000 C   0  0  0  0  0  0  0  0  0
    3.1198    0.3298    0.0000 C   0  0  0  0  0  0  0  0  0
    2.7073    1.0443    0.0000 O   0  0  0  0  0  0  0  0  0
    2.7073   -0.3846    0.0000 N   0  0  0  0  0  0  0  0  0
    1.8823   -0.3846    0.0000 C   0  0  0  0  0  0  0  0  0
    1.4698   -1.0991    0.0000 C   0  0  0  0  0  0  0  0  0
    0.6448   -1.0991    0.0000 C   0  0  0  0  0  0  0  0  0
    0.2323   -1.8136    0.0000 C   0  0  0  0  0  0  0  0  0
   -0.5927   -1.8136    0.0000 N   0  0  0  0  0  0  0  0  0
   -1.0052   -2.5280    0.0000 C   0  0  0  0  0  0  0  0  0
   -1.8302   -2.5280    0.0000 C   0  0  0  0  0  0  0  0  0
   -2.2427   -1.8136    0.0000 N   0  0  0  0  0  0  0  0  0
   -1.8302   -1.0991    0.0000 C   0  0  0  0  0  0  0  0  0
   -1.0052   -1.0991    0.0000 C   0  0  0  0  0  0  0  0  0
   -3.0677   -1.8136    0.0000 C   0  0  0  0  0  0  0  0  0
   -3.4802   -2.5280    0.0000 C   0  0  0  0  0  0  0  0  0
   -4.3052   -2.5280    0.0000 C   0  0  0  0  0  0  0  0  0
   -4.7177   -1.8136    0.0000 C   0  0  0  0  0  0  0  0  0
   -4.3052   -1.0991    0.0000 C   0  0  0  0  0  0  0  0  0
   -3.4802   -1.0991    0.0000 C   0  0  0  0  0  0  0  0  0
   -3.0677   -0.3846    0.0000 O   0  0  0  0  0  0  0  0  0
   -3.4802    0.3298    0.0000 C   0  0  0  0  0  0  0  0  0
    5.8147   -0.0458    0.0000 C   0  0  0  0  0  0  0  0  0
    5.8147    0.7055    0.0000 C   0  0  0  0  0  0  0  0  0
    7.6930   -0.0458    0.0000 C   0  0  0  0  0  0  0  0  0
    7.6930    0.7055    0.0000 C   0  0  0  0  0  0  0  0  0
  1  2  4  0  0  0  0
  1 15  4  0  0  0  0
  2  3  4  0  0  0  0
  2 13  4  0  0  0  0
  3  4  1  0  0  0  0
  3 38  4  0  0  0  0
  4  5  1  0  0  0  0
  5  6  1  0  0  0  0
  6  7  4  0  0  0  0
  6 40  4  0  0  0  0
  7  8  4  0  0  0  0
  8  9  4  0  0  0  0
  9 10  1  0  0  0  0
  9 39  4  0  0  0  0
 10 11  1  0  0  0  0
 11 12  1  0  0  0  0
 12 13  4  0  0  0  0
 12 37  4  0  0  0  0
 13 14  4  0  0  0  0
 14 15  4  0  0  0  0
 15 16  1  0  0  0  0
 16 17  2  0  0  0  0
 16 18  1  0  0  0  0
 18 19  1  0  0  0  0
 19 20  1  0  0  0  0
 20 21  1  0  0  0  0
 21 22  1  0  0  0  0
 22 23  1  0  0  0  0
 23 24  1  0  0  0  0
 23 28  1  0  0  0  0
 24 25  1  0  0  0  0
 25 26  1  0  0  0  0
 26 27  1  0  0  0  0
 26 29  1  0  0  0  0
 27 28  1  0  0  0  0
 29 30  4  0  0  0  0
 29 34  4  0  0  0  0
 30 31  4  0  0  0  0
 31 32  4  0  0  0  0
 32 33  4  0  0  0  0
 33 34  4  0  0  0  0
 34 35  1  0  0  0  0
 35 36  1  0  0  0  0
 37 38  4  0  0  0  0
 39 40  4  0  0  0  0
M  END
>  <Name_Molregno>
349977

>  <5-HT1A>
6.72

>  <DOPAMINE D1>
6.11

>  <DOPAMINE D2>
6.92

>  <DOPAMINE D3>
7.8

>  <DOPAMINE D4>
6.85

$$$$
350712
  Marvin  02231216192D 0   1.00000     0.00000     0

 33 36  0  0  1  0  0  0  0  0999 V2000
   -7.9195    1.1791    0.0000 O   0  0  0  0  0  0  0  0  0
   -8.6340    0.7666    0.0000 C   0  0  0  0  0  0  0  0  0
   -7.9195    2.0041    0.0000 C   0  0  0  0  0  0  0  0  0
   -8.6340    2.4166    0.0000 C   0  0  0  0  0  0  0  0  0
   -8.6340    3.2416    0.0000 C   0  0  0  0  0  0  0  0  0
   -7.9195    3.6541    0.0000 C   0  0  0  0  0  0  0  0  0
   -7.2051    3.2416    0.0000 C   0  0  0  0  0  0  0  0  0
   -7.2051    2.4166    0.0000 C   0  0  0  0  0  0  0  0  0
   -6.4906    2.0041    0.0000 N   0  0  0  0  0  0  0  0  0
   -5.7761    2.4166    0.0000 C   0  0  0  0  0  0  0  0  0
   -5.0617    2.0041    0.0000 C   0  0  0  0  0  0  0  0  0
   -5.0617    1.1791    0.0000 N   0  0  0  0  0  0  0  0  0
   -5.7761    0.7666    0.0000 C   0  0  0  0  0  0  0  0  0
   -6.4906    1.1791    0.0000 C   0  0  0  0  0  0  0  0  0
   -4.3472    0.7666    0.0000 C   0  0  0  0  0  0  0  0  0
   -4.3472   -0.0584    0.0000 C   0  0  0  0  0  0  0  0  0
   -3.6327   -0.4709    0.0000 C   0  0  0  0  0  0  0  0  0
   -3.6327   -1.2959    0.0000 N   0  0  0  0  0  0  0  0  0
   -2.9653   -1.7808    0.0000 C   0  0  0  0  0  0  0  0  0
   -2.1807   -1.5258    0.0000 O   0  0  0  0  0  0  0  0  0
   -3.2202   -2.5654    0.0000 C   0  0  0  0  0  0  0  0  0
   -2.7353   -3.2328    0.0000 N   0  0  0  0  0  0  0  0  0
   -1.9148   -3.1466    0.0000 C   0  0  0  0  0  0  0  0  0
   -1.5792   -2.3929    0.0000 O   0  0  0  0  0  0  0  0  0
   -1.4299   -3.8140    0.0000 C   0  0  0  0  0  0  0  0  0
   -0.6094   -3.7278    0.0000 C   0  0  0  0  0  0  0  0  0
   -0.1245   -4.3953    0.0000 C   0  0  0  0  0  0  0  0  0
   -0.4600   -5.1489    0.0000 C   0  0  0  0  0  0  0  0  0
   -1.2805   -5.2352    0.0000 C   0  0  0  0  0  0  0  0  0
   -1.7654   -4.5677    0.0000 C   0  0  0  0  0  0  0  0  0
   -4.0452   -2.5654    0.0000 C   0  0  0  0  0  0  0  0  0
   -4.3002   -1.7808    0.0000 C   0  0  0  0  0  0  0  0  0
   -5.0848   -1.5258    0.0000 O   0  0  0  0  0  0  0  0  0
  1  2  1  0  0  0  0
  1  3  1  0  0  0  0
  3  4  4  0  0  0  0
  3  8  4  0  0  0  0
  4  5  4  0  0  0  0
  5  6  4  0  0  0  0
  6  7  4  0  0  0  0
  7  8  4  0  0  0  0
  8  9  1  0  0  0  0
  9 10  1  0  0  0  0
  9 14  1  0  0  0  0
 10 11  1  0  0  0  0
 11 12  1  0  0  0  0
 12 13  1  0  0  0  0
 12 15  1  0  0  0  0
 13 14  1  0  0  0  0
 15 16  1  0  0  0  0
 16 17  1  0  0  0  0
 17 18  1  0  0  0  0
 18 19  1  0  0  0  0
 18 32  1  0  0  0  0
 19 20  2  0  0  0  0
 19 21  1  0  0  0  0
 21 22  1  0  0  0  0
 21 31  1  0  0  0  0
 22 23  1  0  0  0  0
 23 24  2  0  0  0  0
 23 25  1  0  0  0  0
 25 26  4  0  0  0  0
 25 30  4  0  0  0  0
 26 27  4  0  0  0  0
 27 28  4  0  0  0  0
 28 29  4  0  0  0  0
 29 30  4  0  0  0  0
 31 32  1  0  0  0  0
 32 33  2  0  0  0  0
M  END
>  <Name_Molregno>
350712

>  <5-HT1A>
6.62

$$$$
350741
  Marvin  02231216192D 0   1.00000     0.00000     0

 37 42  0  0  1  0  0  0  0  0999 V2000
   -3.9046   -4.5293    0.0000 O   0  0  0  0  0  0  0  0  0
   -3.0841   -4.6155    0.0000 C   0  0  0  0  0  0  0  0  0
   -4.3895   -5.1968    0.0000 C   0  0  0  0  0  0  0  0  0
   -4.0539   -5.9504    0.0000 C   0  0  0  0  0  0  0  0  0
   -4.5388   -6.6179    0.0000 C   0  0  0  0  0  0  0  0  0
   -5.3592   -6.5317    0.0000 C   0  0  0  0  0  0  0  0  0
   -5.6948   -5.7781    0.0000 C   0  0  0  0  0  0  0  0  0
   -5.2100   -5.1106    0.0000 C   0  0  0  0  0  0  0  0  0
   -5.5456   -4.3569    0.0000 N   0  0  0  0  0  0  0  0  0
   -6.3660   -4.2708    0.0000 C   0  0  0  0  0  0  0  0  0
   -6.7016   -3.5171    0.0000 C   0  0  0  0  0  0  0  0  0
   -6.2168   -2.8496    0.0000 N   0  0  0  0  0  0  0  0  0
   -5.3963   -2.9358    0.0000 C   0  0  0  0  0  0  0  0  0
   -5.0607   -3.6895    0.0000 C   0  0  0  0  0  0  0  0  0
   -6.5524   -2.0960    0.0000 C   0  0  0  0  0  0  0  0  0
   -6.0675   -1.4285    0.0000 C   0  0  0  0  0  0  0  0  0
   -6.4031   -0.6749    0.0000 C   0  0  0  0  0  0  0  0  0
   -5.9182   -0.0074    0.0000 N   0  0  0  0  0  0  0  0  0
   -6.1732    0.7772    0.0000 C   0  0  0  0  0  0  0  0  0
   -6.9578    1.0321    0.0000 O   0  0  0  0  0  0  0  0  0
   -5.5058    1.2622    0.0000 C   0  0  0  0  0  0  0  0  0
   -5.5058    2.0872    0.0000 N   0  0  0  0  0  0  0  0  0
   -4.7913    2.4997    0.0000 C   0  0  0  0  0  0  0  0  0
   -4.0769    2.0873    0.0000 O   0  0  0  0  0  0  0  0  0
   -4.7914    3.3247    0.0000 C   0  0  0  0  0  0  0  0  0
   -5.5268    2.9510    0.0000 C   0  0  0  0  0  0  0  0  0
   -5.0774    3.7413    0.0000 C   0  0  0  0  0  0  0  0  0
   -5.0774    4.4887    0.0000 C   0  0  0  0  0  0  0  0  0
   -4.3419    4.8624    0.0000 C   0  0  0  0  0  0  0  0  0
   -4.7914    4.0721    0.0000 C   0  0  0  0  0  0  0  0  0
   -3.6063    4.4887    0.0000 C   0  0  0  0  0  0  0  0  0
   -3.6063    3.7413    0.0000 C   0  0  0  0  0  0  0  0  0
   -4.0558    2.9510    0.0000 C   0  0  0  0  0  0  0  0  0
   -4.3419    3.3676    0.0000 C   0  0  0  0  0  0  0  0  0
   -4.8383    0.7773    0.0000 C   0  0  0  0  0  0  0  0  0
   -5.0932   -0.0073    0.0000 C   0  0  0  0  0  0  0  0  0
   -4.6082   -0.6748    0.0000 O   0  0  0  0  0  0  0  0  0
  1  2  1  0  0  0  0
  1  3  1  0  0  0  0
  3  4  4  0  0  0  0
  3  8  4  0  0  0  0
  4  5  4  0  0  0  0
  5  6  4  0  0  0  0
  6  7  4  0  0  0  0
  7  8  4  0  0  0  0
  8  9  1  0  0  0  0
  9 10  1  0  0  0  0
  9 14  1  0  0  0  0
 10 11  1  0  0  0  0
 11 12  1  0  0  0  0
 12 13  1  0  0  0  0
 12 15  1  0  0  0  0
 13 14  1  0  0  0  0
 15 16  1  0  0  0  0
 16 17  1  0  0  0  0
 17 18  1  0  0  0  0
 18 19  1  0  0  0  0
 18 36  1  0  0  0  0
 19 20  2  0  0  0  0
 19 21  1  0  0  0  0
 21 22  1  0  0  0  0
 21 35  1  0  0  0  0
 22 23  1  0  0  0  0
 23 24  2  0  0  0  0
 23 25  1  0  0  0  0
 25 26  1  0  0  0  0
 32 34  1  0  0  0  0
 25 33  1  0  0  0  0
 26 27  1  0  0  0  0
 32 33  1  0  0  0  0
 27 34  1  0  0  0  0
 28 29  1  0  0  0  0
 29 30  1  0  0  0  0
 29 31  1  0  0  0  0
 31 32  1  0  0  0  0
 27 28  1  0  0  0  0
 25 30  1  0  0  0  0
 35 36  1  0  0  0  0
 36 37  2  0  0  0  0
M  END
>  <Name_Molregno>
350741

>  <5-HT1A>
7.2

$$$$
350742
  Marvin  02231216192D 0   1.00000     0.00000     0

 29 31  0  0  1  0  0  0  0  0999 V2000
   -7.8511   -0.0468    0.0000 O   0  0  0  0  0  0  0  0  0
   -8.5656   -0.4593    0.0000 C   0  0  0  0  0  0  0  0  0
   -7.8511    0.7782    0.0000 C   0  0  0  0  0  0  0  0  0
   -8.5656    1.1907    0.0000 C   0  0  0  0  0  0  0  0  0
   -8.5656    2.0157    0.0000 C   0  0  0  0  0  0  0  0  0
   -7.8511    2.4282    0.0000 C   0  0  0  0  0  0  0  0  0
   -7.1367    2.0157    0.0000 C   0  0  0  0  0  0  0  0  0
   -7.1367    1.1907    0.0000 C   0  0  0  0  0  0  0  0  0
   -6.4222    0.7782    0.0000 N   0  0  0  0  0  0  0  0  0
   -5.7077    1.1907    0.0000 C   0  0  0  0  0  0  0  0  0
   -4.9933    0.7782    0.0000 C   0  0  0  0  0  0  0  0  0
   -4.9933   -0.0468    0.0000 N   0  0  0  0  0  0  0  0  0
   -5.7077   -0.4593    0.0000 C   0  0  0  0  0  0  0  0  0
   -6.4222   -0.0468    0.0000 C   0  0  0  0  0  0  0  0  0
   -4.2788   -0.4593    0.0000 C   0  0  0  0  0  0  0  0  0
   -3.5643   -0.0468    0.0000 C   0  0  0  0  0  0  0  0  0
   -2.8499   -0.4593    0.0000 C   0  0  0  0  0  0  0  0  0
   -2.1354   -0.0468    0.0000 C   0  0  0  0  0  0  0  0  0
   -1.4209   -0.4593    0.0000 N   0  0  0  0  0  0  0  0  0
   -0.6672   -0.1237    0.0000 C   0  0  0  0  0  0  0  0  0
   -0.4957    0.6833    0.0000 O   0  0  0  0  0  0  0  0  0
   -0.1152   -0.7368    0.0000 C   0  0  0  0  0  0  0  0  0
    0.7053   -0.6506    0.0000 N   0  0  0  0  0  0  0  0  0
    1.1902   -1.3180    0.0000 C   0  0  0  0  0  0  0  0  0
    2.0107   -1.2318    0.0000 O   0  0  0  0  0  0  0  0  0
    0.8546   -2.0717    0.0000 C   0  0  0  0  0  0  0  0  0
   -0.5277   -1.4513    0.0000 C   0  0  0  0  0  0  0  0  0
   -1.3347   -1.2797    0.0000 C   0  0  0  0  0  0  0  0  0
   -1.9478   -1.8318    0.0000 O   0  0  0  0  0  0  0  0  0
  1  2  1  0  0  0  0
  1  3  1  0  0  0  0
  3  4  4  0  0  0  0
  3  8  4  0  0  0  0
  4  5  4  0  0  0  0
  5  6  4  0  0  0  0
  6  7  4  0  0  0  0
  7  8  4  0  0  0  0
  8  9  1  0  0  0  0
  9 10  1  0  0  0  0
  9 14  1  0  0  0  0
 10 11  1  0  0  0  0
 11 12  1  0  0  0  0
 12 13  1  0  0  0  0
 12 15  1  0  0  0  0
 13 14  1  0  0  0  0
 15 16  1  0  0  0  0
 16 17  1  0  0  0  0
 17 18  1  0  0  0  0
 18 19  1  0  0  0  0
 19 20  1  0  0  0  0
 19 28  1  0  0  0  0
 20 21  2  0  0  0  0
 20 22  1  0  0  0  0
 22 23  1  0  0  0  0
 22 27  1  0  0  0  0
 23 24  1  0  0  0  0
 24 25  2  0  0  0  0
 24 26  1  0  0  0  0
 27 28  1  0  0  0  0
 28 29  2  0  0  0  0
M  END
>  <Name_Molregno>
350742

>  <5-HT1A>
7.16

$$$$
350773
  Marvin  02231216192D 0   1.00000     0.00000     0

 33 36  0  0  1  0  0  0  0  0999 V2000
   -7.0107    3.4321    0.0000 O   0  0  0  0  0  0  0  0  0
   -7.7252    3.8446    0.0000 C   0  0  0  0  0  0  0  0  0
   -6.2962    3.8446    0.0000 C   0  0  0  0  0  0  0  0  0
   -6.2962    4.6696    0.0000 C   0  0  0  0  0  0  0  0  0
   -5.5817    5.0821    0.0000 C   0  0  0  0  0  0  0  0  0
   -4.8673    4.6696    0.0000 C   0  0  0  0  0  0  0  0  0
   -4.8673    3.8446    0.0000 C   0  0  0  0  0  0  0  0  0
   -5.5817    3.4321    0.0000 C   0  0  0  0  0  0  0  0  0
   -5.5817    2.6071    0.0000 N   0  0  0  0  0  0  0  0  0
   -4.8673    2.1946    0.0000 C   0  0  0  0  0  0  0  0  0
   -4.8673    1.3696    0.0000 C   0  0  0  0  0  0  0  0  0
   -5.5817    0.9571    0.0000 N   0  0  0  0  0  0  0  0  0
   -6.2962    1.3696    0.0000 C   0  0  0  0  0  0  0  0  0
   -6.2962    2.1946    0.0000 C   0  0  0  0  0  0  0  0  0
   -5.5817    0.1321    0.0000 C   0  0  0  0  0  0  0  0  0
   -4.8673   -0.2804    0.0000 C   0  0  0  0  0  0  0  0  0
   -4.8673   -1.1054    0.0000 C   0  0  0  0  0  0  0  0  0
   -4.1528   -1.5179    0.0000 C   0  0  0  0  0  0  0  0  0
   -4.1528   -2.3429    0.0000 N   0  0  0  0  0  0  0  0  0
   -3.4854   -2.8279    0.0000 C   0  0  0  0  0  0  0  0  0
   -2.7007   -2.5729    0.0000 O   0  0  0  0  0  0  0  0  0
   -3.7403   -3.6125    0.0000 C   0  0  0  0  0  0  0  0  0
   -3.2554   -4.2799    0.0000 N   0  0  0  0  0  0  0  0  0
   -2.4349   -4.1937    0.0000 C   0  0  0  0  0  0  0  0  0
   -2.0993   -3.4400    0.0000 O   0  0  0  0  0  0  0  0  0
   -1.9500   -4.8611    0.0000 C   0  0  0  0  0  0  0  0  0
   -1.1250   -4.8611    0.0000 C   0  0  0  0  0  0  0  0  0
   -0.8700   -5.6457    0.0000 C   0  0  0  0  0  0  0  0  0
   -1.5375   -6.1307    0.0000 C   0  0  0  0  0  0  0  0  0
   -2.2049   -5.6457    0.0000 C   0  0  0  0  0  0  0  0  0
   -4.5653   -3.6125    0.0000 C   0  0  0  0  0  0  0  0  0
   -4.8202   -2.8279    0.0000 C   0  0  0  0  0  0  0  0  0
   -5.6049   -2.5729    0.0000 O   0  0  0  0  0  0  0  0  0
  1  2  1  0  0  0  0
  1  3  1  0  0  0  0
  3  4  4  0  0  0  0
  3  8  4  0  0  0  0
  4  5  4  0  0  0  0
  5  6  4  0  0  0  0
  6  7  4  0  0  0  0
  7  8  4  0  0  0  0
  8  9  1  0  0  0  0
  9 10  1  0  0  0  0
  9 14  1  0  0  0  0
 10 11  1  0  0  0  0
 11 12  1  0  0  0  0
 12 13  1  0  0  0  0
 12 15  1  0  0  0  0
 13 14  1  0  0  0  0
 15 16  1  0  0  0  0
 16 17  1  0  0  0  0
 17 18  1  0  0  0  0
 18 19  1  0  0  0  0
 19 20  1  0  0  0  0
 19 32  1  0  0  0  0
 20 21  2  0  0  0  0
 20 22  1  0  0  0  0
 22 23  1  0  0  0  0
 22 31  1  0  0  0  0
 23 24  1  0  0  0  0
 24 25  2  0  0  0  0
 24 26  1  0  0  0  0
 26 27  1  0  0  0  0
 26 30  1  0  0  0  0
 27 28  1  0  0  0  0
 28 29  1  0  0  0  0
 29 30  1  0  0  0  0
 31 32  1  0  0  0  0
 32 33  2  0  0  0  0
M  END
>  <Name_Molregno>
350773

>  <5-HT1A>
7.4

$$$$
350921
  Marvin  02231216192D 0   1.00000     0.00000     0

 35 39  0  0  1  0  0  0  0  0999 V2000
   -2.9755   -4.1758    0.0000 O   0  0  0  0  0  0  0  0  0
   -2.1583   -4.0626    0.0000 C   0  0  0  0  0  0  0  0  0
   -3.2861   -4.9401    0.0000 C   0  0  0  0  0  0  0  0  0
   -2.7795   -5.5912    0.0000 C   0  0  0  0  0  0  0  0  0
   -3.0901   -6.3556    0.0000 C   0  0  0  0  0  0  0  0  0
   -3.9073   -6.4687    0.0000 C   0  0  0  0  0  0  0  0  0
   -4.4139   -5.8176    0.0000 C   0  0  0  0  0  0  0  0  0
   -4.1033   -5.0533    0.0000 C   0  0  0  0  0  0  0  0  0
   -4.6099   -4.4022    0.0000 N   0  0  0  0  0  0  0  0  0
   -5.4271   -4.5154    0.0000 C   0  0  0  0  0  0  0  0  0
   -5.9337   -3.8642    0.0000 C   0  0  0  0  0  0  0  0  0
   -5.6231   -3.0999    0.0000 N   0  0  0  0  0  0  0  0  0
   -4.8059   -2.9867    0.0000 C   0  0  0  0  0  0  0  0  0
   -4.2993   -3.6379    0.0000 C   0  0  0  0  0  0  0  0  0
   -6.1298   -2.4488    0.0000 C   0  0  0  0  0  0  0  0  0
   -5.8192   -1.6845    0.0000 C   0  0  0  0  0  0  0  0  0
   -6.3258   -1.0334    0.0000 C   0  0  0  0  0  0  0  0  0
   -6.0152   -0.2691    0.0000 N   0  0  0  0  0  0  0  0  0
   -6.4510    0.4315    0.0000 C   0  0  0  0  0  0  0  0  0
   -7.2739    0.4907    0.0000 O   0  0  0  0  0  0  0  0  0
   -5.9194    1.0624    0.0000 C   0  0  0  0  0  0  0  0  0
   -6.1174    1.8633    0.0000 N   0  0  0  0  0  0  0  0  0
   -5.5228    2.4352    0.0000 C   0  0  0  0  0  0  0  0  0
   -4.7302    2.2062    0.0000 O   0  0  0  0  0  0  0  0  0
   -5.7208    3.2361    0.0000 C   0  0  0  0  0  0  0  0  0
   -5.1262    3.8080    0.0000 C   0  0  0  0  0  0  0  0  0
   -4.3507    4.1983    0.0000 C   0  0  0  0  0  0  0  0  0
   -4.2806    5.7341    0.0000 C   0  0  0  0  0  0  0  0  0
   -4.1206    4.9187    0.0000 C   0  0  0  0  0  0  0  0  0
   -4.7609    4.4685    0.0000 C   0  0  0  0  0  0  0  0  0
   -3.3251    4.4534    0.0000 C   0  0  0  0  0  0  0  0  0
   -3.6202    3.8280    0.0000 C   0  0  0  0  0  0  0  0  0
   -5.1551    0.7518    0.0000 C   0  0  0  0  0  0  0  0  0
   -5.2143   -0.0711    0.0000 C   0  0  0  0  0  0  0  0  0
   -4.5834   -0.6026    0.0000 O   0  0  0  0  0  0  0  0  0
  1  2  1  0  0  0  0
  1  3  1  0  0  0  0
  3  4  4  0  0  0  0
  3  8  4  0  0  0  0
  4  5  4  0  0  0  0
  5  6  4  0  0  0  0
  6  7  4  0  0  0  0
  7  8  4  0  0  0  0
  8  9  1  0  0  0  0
  9 10  1  0  0  0  0
  9 14  1  0  0  0  0
 10 11  1  0  0  0  0
 11 12  1  0  0  0  0
 12 13  1  0  0  0  0
 12 15  1  0  0  0  0
 13 14  1  0  0  0  0
 15 16  1  0  0  0  0
 16 17  1  0  0  0  0
 17 18  1  0  0  0  0
 18 19  1  0  0  0  0
 18 34  1  0  0  0  0
 19 20  2  0  0  0  0
 19 21  1  0  0  0  0
 21 22  1  0  0  0  0
 21 33  1  0  0  0  0
 22 23  1  0  0  0  0
 23 24  2  0  0  0  0
 23 25  1  0  0  0  0
 25 26  1  0  0  0  0
 26 27  1  0  0  0  0
 26 30  1  0  0  0  0
 27 28  1  0  0  0  0
 27 32  1  0  0  0  0
 28 29  1  0  0  0  0
 29 30  1  0  0  0  0
 29 31  1  0  0  0  0
 31 32  1  0  0  0  0
 33 34  1  0  0  0  0
 34 35  2  0  0  0  0
M  END
>  <Name_Molregno>
350921

>  <5-HT1A>
7.4

$$$$
350922
  Marvin  02231216192D 0   1.00000     0.00000     0

 28 30  0  0  1  0  0  0  0  0999 V2000
   -6.1429    0.5927    0.0000 O   0  0  0  0  0  0  0  0  0
   -6.8574    0.1802    0.0000 C   0  0  0  0  0  0  0  0  0
   -6.1429    1.4177    0.0000 C   0  0  0  0  0  0  0  0  0
   -6.8574    1.8302    0.0000 C   0  0  0  0  0  0  0  0  0
   -6.8574    2.6552    0.0000 C   0  0  0  0  0  0  0  0  0
   -6.1429    3.0677    0.0000 C   0  0  0  0  0  0  0  0  0
   -5.4285    2.6552    0.0000 C   0  0  0  0  0  0  0  0  0
   -5.4285    1.8302    0.0000 C   0  0  0  0  0  0  0  0  0
   -4.7140    1.4177    0.0000 N   0  0  0  0  0  0  0  0  0
   -3.9995    1.8302    0.0000 C   0  0  0  0  0  0  0  0  0
   -3.2850    1.4177    0.0000 C   0  0  0  0  0  0  0  0  0
   -3.2850    0.5927    0.0000 N   0  0  0  0  0  0  0  0  0
   -3.9995    0.1802    0.0000 C   0  0  0  0  0  0  0  0  0
   -4.7140    0.5927    0.0000 C   0  0  0  0  0  0  0  0  0
   -2.5706    0.1802    0.0000 C   0  0  0  0  0  0  0  0  0
   -2.5706   -0.6448    0.0000 C   0  0  0  0  0  0  0  0  0
   -1.8561   -1.0573    0.0000 C   0  0  0  0  0  0  0  0  0
   -1.8561   -1.8823    0.0000 N   0  0  0  0  0  0  0  0  0
   -1.1887   -2.3672    0.0000 C   0  0  0  0  0  0  0  0  0
   -0.4040   -2.1123    0.0000 O   0  0  0  0  0  0  0  0  0
   -1.4436   -3.1518    0.0000 C   0  0  0  0  0  0  0  0  0
   -0.9587   -3.8193    0.0000 N   0  0  0  0  0  0  0  0  0
   -1.2942   -4.5729    0.0000 C   0  0  0  0  0  0  0  0  0
   -0.8093   -5.2404    0.0000 O   0  0  0  0  0  0  0  0  0
   -2.1147   -4.6592    0.0000 C   0  0  0  0  0  0  0  0  0
   -2.2686   -3.1518    0.0000 C   0  0  0  0  0  0  0  0  0
   -2.5235   -2.3672    0.0000 C   0  0  0  0  0  0  0  0  0
   -3.3082   -2.1123    0.0000 O   0  0  0  0  0  0  0  0  0
  1  2  1  0  0  0  0
  1  3  1  0  0  0  0
  3  4  4  0  0  0  0
  3  8  4  0  0  0  0
  4  5  4  0  0  0  0
  5  6  4  0  0  0  0
  6  7  4  0  0  0  0
  7  8  4  0  0  0  0
  8  9  1  0  0  0  0
  9 10  1  0  0  0  0
  9 14  1  0  0  0  0
 10 11  1  0  0  0  0
 11 12  1  0  0  0  0
 12 13  1  0  0  0  0
 12 15  1  0  0  0  0
 13 14  1  0  0  0  0
 15 16  1  0  0  0  0
 16 17  1  0  0  0  0
 17 18  1  0  0  0  0
 18 19  1  0  0  0  0
 18 27  1  0  0  0  0
 19 20  2  0  0  0  0
 19 21  1  0  0  0  0
 21 22  1  0  0  0  0
 21 26  1  0  0  0  0
 22 23  1  0  0  0  0
 23 24  2  0  0  0  0
 23 25  1  0  0  0  0
 26 27  1  0  0  0  0
 27 28  2  0  0  0  0
M  END
>  <Name_Molregno>
350922

>  <5-HT1A>
6.32

$$$$
350928
  Marvin  02231216192D 0   1.00000     0.00000     0

 38 43  0  0  1  0  0  0  0  0999 V2000
   -5.7159   -6.1875    0.0000 O   0  0  0  0  0  0  0  0  0
   -5.5444   -6.9945    0.0000 C   0  0  0  0  0  0  0  0  0
   -6.5006   -5.9326    0.0000 C   0  0  0  0  0  0  0  0  0
   -7.1136   -6.4847    0.0000 C   0  0  0  0  0  0  0  0  0
   -7.8983   -6.2298    0.0000 C   0  0  0  0  0  0  0  0  0
   -8.0698   -5.4228    0.0000 C   0  0  0  0  0  0  0  0  0
   -7.4568   -4.8708    0.0000 C   0  0  0  0  0  0  0  0  0
   -6.6721   -5.1257    0.0000 C   0  0  0  0  0  0  0  0  0
   -6.0591   -4.5736    0.0000 N   0  0  0  0  0  0  0  0  0
   -6.2307   -3.7666    0.0000 C   0  0  0  0  0  0  0  0  0
   -5.6176   -3.2146    0.0000 C   0  0  0  0  0  0  0  0  0
   -4.8330   -3.4695    0.0000 N   0  0  0  0  0  0  0  0  0
   -4.6614   -4.2764    0.0000 C   0  0  0  0  0  0  0  0  0
   -5.2744   -4.8285    0.0000 C   0  0  0  0  0  0  0  0  0
   -4.2199   -2.9174    0.0000 C   0  0  0  0  0  0  0  0  0
   -4.3915   -2.1104    0.0000 C   0  0  0  0  0  0  0  0  0
   -3.7784   -1.5584    0.0000 C   0  0  0  0  0  0  0  0  0
   -3.9500   -0.7514    0.0000 C   0  0  0  0  0  0  0  0  0
   -3.3369   -0.1993    0.0000 N   0  0  0  0  0  0  0  0  0
   -3.5085    0.6076    0.0000 C   0  0  0  0  0  0  0  0  0
   -4.2931    0.8625    0.0000 O   0  0  0  0  0  0  0  0  0
   -2.8954    1.1597    0.0000 C   0  0  0  0  0  0  0  0  0
   -2.9817    1.9802    0.0000 N   0  0  0  0  0  0  0  0  0
   -2.2280    2.3158    0.0000 C   0  0  0  0  0  0  0  0  0
   -1.6760    1.7027    0.0000 C   0  0  0  0  0  0  0  0  0
   -2.0884    0.9882    0.0000 C   0  0  0  0  0  0  0  0  0
   -3.6962    2.3926    0.0000 C   0  0  0  0  0  0  0  0  0
   -4.4106    1.9801    0.0000 O   0  0  0  0  0  0  0  0  0
   -3.6962    3.2176    0.0000 C   0  0  0  0  0  0  0  0  0
   -4.4316    2.8439    0.0000 C   0  0  0  0  0  0  0  0  0
   -3.9822    3.6342    0.0000 C   0  0  0  0  0  0  0  0  0
   -3.9822    4.3816    0.0000 C   0  0  0  0  0  0  0  0  0
   -3.2467    4.7553    0.0000 C   0  0  0  0  0  0  0  0  0
   -3.6962    3.9650    0.0000 C   0  0  0  0  0  0  0  0  0
   -2.5111    4.3816    0.0000 C   0  0  0  0  0  0  0  0  0
   -2.5111    3.6342    0.0000 C   0  0  0  0  0  0  0  0  0
   -2.9606    2.8439    0.0000 C   0  0  0  0  0  0  0  0  0
   -3.2467    3.2605    0.0000 C   0  0  0  0  0  0  0  0  0
  1  2  1  0  0  0  0
  1  3  1  0  0  0  0
  3  4  4  0  0  0  0
  3  8  4  0  0  0  0
  4  5  4  0  0  0  0
  5  6  4  0  0  0  0
  6  7  4  0  0  0  0
  7  8  4  0  0  0  0
  8  9  1  0  0  0  0
  9 10  1  0  0  0  0
  9 14  1  0  0  0  0
 10 11  1  0  0  0  0
 11 12  1  0  0  0  0
 12 13  1  0  0  0  0
 12 15  1  0  0  0  0
 13 14  1  0  0  0  0
 15 16  1  0  0  0  0
 16 17  1  0  0  0  0
 17 18  1  0  0  0  0
 18 19  1  0  0  0  0
 19 20  1  0  0  0  0
 20 21  2  0  0  0  0
 20 22  1  0  0  0  0
 22 23  1  0  0  0  0
 22 26  1  0  0  0  0
 23 24  1  0  0  0  0
 23 27  1  0  0  0  0
 24 25  1  0  0  0  0
 25 26  1  0  0  0  0
 27 28  2  0  0  0  0
 27 29  1  0  0  0  0
 29 30  1  0  0  0  0
 36 38  1  0  0  0  0
 29 37  1  0  0  0  0
 30 31  1  0  0  0  0
 36 37  1  0  0  0  0
 31 38  1  0  0  0  0
 32 33  1  0  0  0  0
 33 34  1  0  0  0  0
 33 35  1  0  0  0  0
 35 36  1  0  0  0  0
 31 32  1  0  0  0  0
 29 34  1  0  0  0  0
M  END
>  <Name_Molregno>
350928

>  <5-HT1A>
8

$$$$
350956
  Marvin  02231216192D 0   1.00000     0.00000     0

 32 35  0  0  1  0  0  0  0  0999 V2000
   -7.6133    1.0265    0.0000 O   0  0  0  0  0  0  0  0  0
   -8.3278    0.6140    0.0000 C   0  0  0  0  0  0  0  0  0
   -7.6133    1.8515    0.0000 C   0  0  0  0  0  0  0  0  0
   -8.3278    2.2640    0.0000 C   0  0  0  0  0  0  0  0  0
   -8.3278    3.0890    0.0000 C   0  0  0  0  0  0  0  0  0
   -7.6133    3.5015    0.0000 C   0  0  0  0  0  0  0  0  0
   -6.8989    3.0890    0.0000 C   0  0  0  0  0  0  0  0  0
   -6.8989    2.2640    0.0000 C   0  0  0  0  0  0  0  0  0
   -6.1844    1.8515    0.0000 N   0  0  0  0  0  0  0  0  0
   -5.4699    2.2640    0.0000 C   0  0  0  0  0  0  0  0  0
   -4.7554    1.8515    0.0000 C   0  0  0  0  0  0  0  0  0
   -4.7554    1.0265    0.0000 N   0  0  0  0  0  0  0  0  0
   -5.4699    0.6140    0.0000 C   0  0  0  0  0  0  0  0  0
   -6.1844    1.0265    0.0000 C   0  0  0  0  0  0  0  0  0
   -4.0410    0.6140    0.0000 C   0  0  0  0  0  0  0  0  0
   -4.0410   -0.2110    0.0000 C   0  0  0  0  0  0  0  0  0
   -3.3265   -0.6235    0.0000 C   0  0  0  0  0  0  0  0  0
   -3.3265   -1.4485    0.0000 N   0  0  0  0  0  0  0  0  0
   -2.6591   -1.9334    0.0000 C   0  0  0  0  0  0  0  0  0
   -1.8744   -1.6785    0.0000 O   0  0  0  0  0  0  0  0  0
   -2.9140   -2.7180    0.0000 C   0  0  0  0  0  0  0  0  0
   -2.4291   -3.3855    0.0000 N   0  0  0  0  0  0  0  0  0
   -1.6086   -3.2992    0.0000 C   0  0  0  0  0  0  0  0  0
   -1.2730   -2.5455    0.0000 O   0  0  0  0  0  0  0  0  0
   -1.1237   -3.9667    0.0000 C   0  0  0  0  0  0  0  0  0
   -0.2987   -3.9667    0.0000 C   0  0  0  0  0  0  0  0  0
   -0.0437   -4.7513    0.0000 C   0  0  0  0  0  0  0  0  0
   -0.7112   -5.2362    0.0000 C   0  0  0  0  0  0  0  0  0
   -1.3786   -4.7513    0.0000 C   0  0  0  0  0  0  0  0  0
   -3.7390   -2.7180    0.0000 C   0  0  0  0  0  0  0  0  0
   -3.9939   -1.9334    0.0000 C   0  0  0  0  0  0  0  0  0
   -4.7786   -1.6785    0.0000 O   0  0  0  0  0  0  0  0  0
  1  2  1  0  0  0  0
  1  3  1  0  0  0  0
  3  4  4  0  0  0  0
  3  8  4  0  0  0  0
  4  5  4  0  0  0  0
  5  6  4  0  0  0  0
  6  7  4  0  0  0  0
  7  8  4  0  0  0  0
  8  9  1  0  0  0  0
  9 10  1  0  0  0  0
  9 14  1  0  0  0  0
 10 11  1  0  0  0  0
 11 12  1  0  0  0  0
 12 13  1  0  0  0  0
 12 15  1  0  0  0  0
 13 14  1  0  0  0  0
 15 16  1  0  0  0  0
 16 17  1  0  0  0  0
 17 18  1  0  0  0  0
 18 19  1  0  0  0  0
 18 31  1  0  0  0  0
 19 20  2  0  0  0  0
 19 21  1  0  0  0  0
 21 22  1  0  0  0  0
 21 30  1  0  0  0  0
 22 23  1  0  0  0  0
 23 24  2  0  0  0  0
 23 25  1  0  0  0  0
 25 26  1  0  0  0  0
 25 29  1  0  0  0  0
 26 27  1  0  0  0  0
 27 28  1  0  0  0  0
 28 29  1  0  0  0  0
 30 31  1  0  0  0  0
 31 32  2  0  0  0  0
M  END
>  <Name_Molregno>
350956

>  <5-HT1A>
6.77

$$$$
350960
  Marvin  02231216192D 0   1.00000     0.00000     0

 35 38  0  0  1  0  0  0  0  0999 V2000
   -9.3989   -0.8437    0.0000 O   0  0  0  0  0  0  0  0  0
  -10.1134   -1.2562    0.0000 C   0  0  0  0  0  0  0  0  0
   -9.3989   -0.0187    0.0000 C   0  0  0  0  0  0  0  0  0
  -10.1134    0.3938    0.0000 C   0  0  0  0  0  0  0  0  0
  -10.1134    1.2188    0.0000 C   0  0  0  0  0  0  0  0  0
   -9.3989    1.6313    0.0000 C   0  0  0  0  0  0  0  0  0
   -8.6844    1.2188    0.0000 C   0  0  0  0  0  0  0  0  0
   -8.6844    0.3938    0.0000 C   0  0  0  0  0  0  0  0  0
   -7.9699   -0.0187    0.0000 N   0  0  0  0  0  0  0  0  0
   -7.2555    0.3938    0.0000 C   0  0  0  0  0  0  0  0  0
   -6.5410   -0.0187    0.0000 C   0  0  0  0  0  0  0  0  0
   -6.5410   -0.8437    0.0000 N   0  0  0  0  0  0  0  0  0
   -7.2555   -1.2562    0.0000 C   0  0  0  0  0  0  0  0  0
   -7.9699   -0.8437    0.0000 C   0  0  0  0  0  0  0  0  0
   -5.8265   -1.2562    0.0000 C   0  0  0  0  0  0  0  0  0
   -5.1121   -0.8437    0.0000 C   0  0  0  0  0  0  0  0  0
   -4.3976   -1.2562    0.0000 C   0  0  0  0  0  0  0  0  0
   -3.6831   -0.8437    0.0000 C   0  0  0  0  0  0  0  0  0
   -2.9686   -1.2562    0.0000 N   0  0  0  0  0  0  0  0  0
   -2.2542   -0.8437    0.0000 C   0  0  0  0  0  0  0  0  0
   -2.2542   -0.0187    0.0000 O   0  0  0  0  0  0  0  0  0
   -1.5397   -1.2562    0.0000 C   0  0  0  0  0  0  0  0  0
   -0.7860   -0.9207    0.0000 N   0  0  0  0  0  0  0  0  0
   -0.6145   -0.1137    0.0000 C   0  0  0  0  0  0  0  0  0
   -1.2276    0.4383    0.0000 O   0  0  0  0  0  0  0  0  0
    0.1701    0.1412    0.0000 C   0  0  0  0  0  0  0  0  0
    0.3416    0.9482    0.0000 C   0  0  0  0  0  0  0  0  0
    1.1263    1.2031    0.0000 C   0  0  0  0  0  0  0  0  0
    1.7394    0.6511    0.0000 C   0  0  0  0  0  0  0  0  0
    1.5678   -0.1559    0.0000 C   0  0  0  0  0  0  0  0  0
    0.7832   -0.4108    0.0000 C   0  0  0  0  0  0  0  0  0
   -0.2340   -1.5338    0.0000 C   0  0  0  0  0  0  0  0  0
    0.5865   -1.4475    0.0000 O   0  0  0  0  0  0  0  0  0
   -0.6465   -2.2483    0.0000 C   0  0  0  0  0  0  0  0  0
   -1.4535   -2.0767    0.0000 C   0  0  0  0  0  0  0  0  0
  1  2  1  0  0  0  0
  1  3  1  0  0  0  0
  3  4  4  0  0  0  0
  3  8  4  0  0  0  0
  4  5  4  0  0  0  0
  5  6  4  0  0  0  0
  6  7  4  0  0  0  0
  7  8  4  0  0  0  0
  8  9  1  0  0  0  0
  9 10  1  0  0  0  0
  9 14  1  0  0  0  0
 10 11  1  0  0  0  0
 11 12  1  0  0  0  0
 12 13  1  0  0  0  0
 12 15  1  0  0  0  0
 13 14  1  0  0  0  0
 15 16  1  0  0  0  0
 16 17  1  0  0  0  0
 17 18  1  0  0  0  0
 18 19  1  0  0  0  0
 19 20  1  0  0  0  0
 20 21  2  0  0  0  0
 20 22  1  0  0  0  0
 22 23  1  0  0  0  0
 22 35  1  0  0  0  0
 23 24  1  0  0  0  0
 23 32  1  0  0  0  0
 24 25  2  0  0  0  0
 24 26  1  0  0  0  0
 26 27  1  0  0  0  0
 26 31  1  0  0  0  0
 27 28  1  0  0  0  0
 28 29  1  0  0  0  0
 29 30  1  0  0  0  0
 30 31  1  0  0  0  0
 32 33  2  0  0  0  0
 32 34  1  0  0  0  0
 34 35  1  0  0  0  0
M  END
>  <Name_Molregno>
350960

>  <5-HT1A>
7.77

$$$$
350962
  Marvin  02231216192D 0   1.00000     0.00000     0

 35 37  0  0  1  0  0  0  0  0999 V2000
   -8.5396   -0.3698    0.0000 O   0  0  0  0  0  0  0  0  0
   -8.8097   -1.1493    0.0000 C   0  0  0  0  0  0  0  0  0
   -9.0797    0.2539    0.0000 C   0  0  0  0  0  0  0  0  0
   -9.8899    0.0980    0.0000 C   0  0  0  0  0  0  0  0  0
  -10.4300    0.7216    0.0000 C   0  0  0  0  0  0  0  0  0
  -10.1599    1.5011    0.0000 C   0  0  0  0  0  0  0  0  0
   -9.3498    1.6571    0.0000 C   0  0  0  0  0  0  0  0  0
   -8.8097    1.0334    0.0000 C   0  0  0  0  0  0  0  0  0
   -7.9996    1.1893    0.0000 N   0  0  0  0  0  0  0  0  0
   -7.7295    1.9689    0.0000 C   0  0  0  0  0  0  0  0  0
   -6.9194    2.1248    0.0000 C   0  0  0  0  0  0  0  0  0
   -6.3793    1.5011    0.0000 N   0  0  0  0  0  0  0  0  0
   -6.6493    0.7216    0.0000 C   0  0  0  0  0  0  0  0  0
   -7.4595    0.5657    0.0000 C   0  0  0  0  0  0  0  0  0
   -5.5692    1.6571    0.0000 C   0  0  0  0  0  0  0  0  0
   -5.0291    1.0334    0.0000 C   0  0  0  0  0  0  0  0  0
   -4.2189    1.1893    0.0000 C   0  0  0  0  0  0  0  0  0
   -3.6788    0.5657    0.0000 C   0  0  0  0  0  0  0  0  0
   -2.8687    0.7216    0.0000 N   0  0  0  0  0  0  0  0  0
   -2.3286    0.0980    0.0000 C   0  0  0  0  0  0  0  0  0
   -2.5987   -0.6816    0.0000 O   0  0  0  0  0  0  0  0  0
   -1.5185    0.2539    0.0000 C   0  0  0  0  0  0  0  0  0
   -0.9784   -0.3698    0.0000 N   0  0  0  0  0  0  0  0  0
   -0.1683   -0.2139    0.0000 C   0  0  0  0  0  0  0  0  0
    0.1018    0.5657    0.0000 O   0  0  0  0  0  0  0  0  0
    0.3718   -0.8375    0.0000 C   0  0  0  0  0  0  0  0  0
    1.1820   -0.6816    0.0000 C   0  0  0  0  0  0  0  0  0
    1.7221   -1.3052    0.0000 C   0  0  0  0  0  0  0  0  0
    1.4520   -2.0848    0.0000 C   0  0  0  0  0  0  0  0  0
    0.6419   -2.2407    0.0000 C   0  0  0  0  0  0  0  0  0
    0.1018   -1.6171    0.0000 C   0  0  0  0  0  0  0  0  0
   -1.2484    1.0334    0.0000 C   0  0  0  0  0  0  0  0  0
   -1.7885    1.6571    0.0000 C   0  0  0  0  0  0  0  0  0
   -2.5987    1.5011    0.0000 O   0  0  0  0  0  0  0  0  0
   -1.5185    2.4366    0.0000 N   0  0  0  0  0  0  0  0  0
  1  2  1  0  0  0  0
  1  3  1  0  0  0  0
  3  4  4  0  0  0  0
  3  8  4  0  0  0  0
  4  5  4  0  0  0  0
  5  6  4  0  0  0  0
  6  7  4  0  0  0  0
  7  8  4  0  0  0  0
  8  9  1  0  0  0  0
  9 10  1  0  0  0  0
  9 14  1  0  0  0  0
 10 11  1  0  0  0  0
 11 12  1  0  0  0  0
 12 13  1  0  0  0  0
 12 15  1  0  0  0  0
 13 14  1  0  0  0  0
 15 16  1  0  0  0  0
 16 17  1  0  0  0  0
 17 18  1  0  0  0  0
 18 19  1  0  0  0  0
 19 20  1  0  0  0  0
 20 21  2  0  0  0  0
 20 22  1  0  0  0  0
 22 23  1  0  0  0  0
 22 32  1  0  0  0  0
 23 24  1  0  0  0  0
 24 25  2  0  0  0  0
 24 26  1  0  0  0  0
 26 27  1  0  0  0  0
 26 31  1  0  0  0  0
 27 28  1  0  0  0  0
 28 29  1  0  0  0  0
 29 30  1  0  0  0  0
 30 31  1  0  0  0  0
 32 33  1  0  0  0  0
 33 34  2  0  0  0  0
 33 35  1  0  0  0  0
M  END
>  <Name_Molregno>
350962

>  <5-HT1A>
7.62

$$$$
350963
  Marvin  02231216192D 0   1.00000     0.00000     0

 37 40  0  0  1  0  0  0  0  0999 V2000
    6.0590   -1.8059    0.0000 O   0  0  0  0  0  0  0  0  0
    6.6536   -1.2340    0.0000 C   0  0  0  0  0  0  0  0  0
    6.2570   -2.6068    0.0000 C   0  0  0  0  0  0  0  0  0
    7.0496   -2.8358    0.0000 C   0  0  0  0  0  0  0  0  0
    7.2476   -3.6367    0.0000 C   0  0  0  0  0  0  0  0  0
    6.6530   -4.2086    0.0000 C   0  0  0  0  0  0  0  0  0
    5.8604   -3.9796    0.0000 C   0  0  0  0  0  0  0  0  0
    5.6624   -3.1787    0.0000 C   0  0  0  0  0  0  0  0  0
    4.8698   -2.9497    0.0000 N   0  0  0  0  0  0  0  0  0
    4.2752   -3.5216    0.0000 C   0  0  0  0  0  0  0  0  0
    3.4826   -3.2926    0.0000 C   0  0  0  0  0  0  0  0  0
    3.2847   -2.4918    0.0000 N   0  0  0  0  0  0  0  0  0
    3.8793   -1.9199    0.0000 C   0  0  0  0  0  0  0  0  0
    4.6718   -2.1488    0.0000 C   0  0  0  0  0  0  0  0  0
    2.4921   -2.2628    0.0000 C   0  0  0  0  0  0  0  0  0
    2.2941   -1.4619    0.0000 C   0  0  0  0  0  0  0  0  0
    2.8887   -0.8900    0.0000 C   0  0  0  0  0  0  0  0  0
    2.6907   -0.0891    0.0000 C   0  0  0  0  0  0  0  0  0
    3.2853    0.4828    0.0000 N   0  0  0  0  0  0  0  0  0
    3.0873    1.2837    0.0000 C   0  0  0  0  0  0  0  0  0
    2.2948    1.5127    0.0000 O   0  0  0  0  0  0  0  0  0
    3.6819    1.8556    0.0000 C   0  0  0  0  0  0  0  0  0
    3.4840    2.6565    0.0000 N   0  0  0  0  0  0  0  0  0
    4.0786    3.2284    0.0000 C   0  0  0  0  0  0  0  0  0
    4.8712    2.9994    0.0000 O   0  0  0  0  0  0  0  0  0
    3.8806    4.0293    0.0000 C   0  0  0  0  0  0  0  0  0
    4.4752    4.6012    0.0000 C   0  0  0  0  0  0  0  0  0
    5.2507    4.9915    0.0000 C   0  0  0  0  0  0  0  0  0
    5.3208    6.5273    0.0000 C   0  0  0  0  0  0  0  0  0
    5.4808    5.7119    0.0000 C   0  0  0  0  0  0  0  0  0
    4.8405    5.2617    0.0000 C   0  0  0  0  0  0  0  0  0
    6.2763    5.2466    0.0000 C   0  0  0  0  0  0  0  0  0
    5.9812    4.6212    0.0000 C   0  0  0  0  0  0  0  0  0
    4.4745    1.6266    0.0000 C   0  0  0  0  0  0  0  0  0
    4.6725    0.8257    0.0000 C   0  0  0  0  0  0  0  0  0
    5.4651    0.5967    0.0000 O   0  0  0  0  0  0  0  0  0
    4.0779    0.2538    0.0000 N   0  0  0  0  0  0  0  0  0
  1  2  1  0  0  0  0
  1  3  1  0  0  0  0
  3  4  4  0  0  0  0
  3  8  4  0  0  0  0
  4  5  4  0  0  0  0
  5  6  4  0  0  0  0
  6  7  4  0  0  0  0
  7  8  4  0  0  0  0
  8  9  1  0  0  0  0
  9 10  1  0  0  0  0
  9 14  1  0  0  0  0
 10 11  1  0  0  0  0
 11 12  1  0  0  0  0
 12 13  1  0  0  0  0
 12 15  1  0  0  0  0
 13 14  1  0  0  0  0
 15 16  1  0  0  0  0
 16 17  1  0  0  0  0
 17 18  1  0  0  0  0
 18 19  1  0  0  0  0
 19 20  1  0  0  0  0
 20 21  2  0  0  0  0
 20 22  1  0  0  0  0
 22 23  1  0  0  0  0
 22 34  1  0  0  0  0
 23 24  1  0  0  0  0
 24 25  2  0  0  0  0
 24 26  1  0  0  0  0
 26 27  1  0  0  0  0
 27 28  1  0  0  0  0
 27 31  1  0  0  0  0
 28 29  1  0  0  0  0
 28 33  1  0  0  0  0
 29 30  1  0  0  0  0
 30 31  1  0  0  0  0
 30 32  1  0  0  0  0
 32 33  1  0  0  0  0
 34 35  1  0  0  0  0
 35 36  2  0  0  0  0
 35 37  1  0  0  0  0
M  END
>  <Name_Molregno>
350963

>  <5-HT1A>
7.96

$$$$
351004
  Marvin  02231216192D 0   1.00000     0.00000     0

 37 41  0  0  1  0  0  0  0  0999 V2000
    4.0635   -6.1727    0.0000 O   0  0  0  0  0  0  0  0  0
    4.4237   -6.9149    0.0000 C   0  0  0  0  0  0  0  0  0
    3.2406   -6.1135    0.0000 C   0  0  0  0  0  0  0  0  0
    2.7779   -6.7965    0.0000 C   0  0  0  0  0  0  0  0  0
    1.9551   -6.7373    0.0000 C   0  0  0  0  0  0  0  0  0
    1.5949   -5.9951    0.0000 C   0  0  0  0  0  0  0  0  0
    2.0576   -5.3120    0.0000 C   0  0  0  0  0  0  0  0  0
    2.8805   -5.3712    0.0000 C   0  0  0  0  0  0  0  0  0
    3.3432   -4.6882    0.0000 N   0  0  0  0  0  0  0  0  0
    2.9830   -3.9460    0.0000 C   0  0  0  0  0  0  0  0  0
    3.4457   -3.2629    0.0000 C   0  0  0  0  0  0  0  0  0
    4.2686   -3.3221    0.0000 N   0  0  0  0  0  0  0  0  0
    4.6288   -4.0644    0.0000 C   0  0  0  0  0  0  0  0  0
    4.1660   -4.7474    0.0000 C   0  0  0  0  0  0  0  0  0
    4.7313   -2.6391    0.0000 C   0  0  0  0  0  0  0  0  0
    4.3711   -1.8969    0.0000 C   0  0  0  0  0  0  0  0  0
    4.8338   -1.2138    0.0000 C   0  0  0  0  0  0  0  0  0
    4.4737   -0.4716    0.0000 C   0  0  0  0  0  0  0  0  0
    4.9364    0.2114    0.0000 N   0  0  0  0  0  0  0  0  0
    4.5762    0.9536    0.0000 C   0  0  0  0  0  0  0  0  0
    3.7533    1.0128    0.0000 O   0  0  0  0  0  0  0  0  0
    5.0389    1.6367    0.0000 C   0  0  0  0  0  0  0  0  0
    4.7583    2.4125    0.0000 N   0  0  0  0  0  0  0  0  0
    3.9657    2.6415    0.0000 C   0  0  0  0  0  0  0  0  0
    3.3711    2.0696    0.0000 O   0  0  0  0  0  0  0  0  0
    3.7677    3.4424    0.0000 C   0  0  0  0  0  0  0  0  0
    4.3623    4.0143    0.0000 C   0  0  0  0  0  0  0  0  0
    5.1378    4.4046    0.0000 C   0  0  0  0  0  0  0  0  0
    5.2079    5.9404    0.0000 C   0  0  0  0  0  0  0  0  0
    5.3679    5.1250    0.0000 C   0  0  0  0  0  0  0  0  0
    4.7276    4.6748    0.0000 C   0  0  0  0  0  0  0  0  0
    6.1634    4.6597    0.0000 C   0  0  0  0  0  0  0  0  0
    5.8683    4.0343    0.0000 C   0  0  0  0  0  0  0  0  0
    5.4094    2.9191    0.0000 C   0  0  0  0  0  0  0  0  0
    5.3823    3.7436    0.0000 O   0  0  0  0  0  0  0  0  0
    6.0924    2.4564    0.0000 C   0  0  0  0  0  0  0  0  0
    5.8635    1.6638    0.0000 C   0  0  0  0  0  0  0  0  0
  1  2  1  0  0  0  0
  1  3  1  0  0  0  0
  3  4  4  0  0  0  0
  3  8  4  0  0  0  0
  4  5  4  0  0  0  0
  5  6  4  0  0  0  0
  6  7  4  0  0  0  0
  7  8  4  0  0  0  0
  8  9  1  0  0  0  0
  9 10  1  0  0  0  0
  9 14  1  0  0  0  0
 10 11  1  0  0  0  0
 11 12  1  0  0  0  0
 12 13  1  0  0  0  0
 12 15  1  0  0  0  0
 13 14  1  0  0  0  0
 15 16  1  0  0  0  0
 16 17  1  0  0  0  0
 17 18  1  0  0  0  0
 18 19  1  0  0  0  0
 19 20  1  0  0  0  0
 20 21  2  0  0  0  0
 20 22  1  0  0  0  0
 22 23  1  0  0  0  0
 22 37  1  0  0  0  0
 23 24  1  0  0  0  0
 23 34  1  0  0  0  0
 24 25  2  0  0  0  0
 24 26  1  0  0  0  0
 26 27  1  0  0  0  0
 27 28  1  0  0  0  0
 27 31  1  0  0  0  0
 28 29  1  0  0  0  0
 28 33  1  0  0  0  0
 29 30  1  0  0  0  0
 30 31  1  0  0  0  0
 30 32  1  0  0  0  0
 32 33  1  0  0  0  0
 34 35  2  0  0  0  0
 34 36  1  0  0  0  0
 36 37  1  0  0  0  0
M  END
>  <Name_Molregno>
351004

>  <5-HT1A>
7.92

$$$$
351005
  Marvin  02231216192D 0   1.00000     0.00000     0

 34 37  0  0  1  0  0  0  0  0999 V2000
   -9.1279   -0.8078    0.0000 O   0  0  0  0  0  0  0  0  0
   -9.8424   -1.2203    0.0000 C   0  0  0  0  0  0  0  0  0
   -9.1279    0.0172    0.0000 C   0  0  0  0  0  0  0  0  0
   -9.8424    0.4297    0.0000 C   0  0  0  0  0  0  0  0  0
   -9.8424    1.2547    0.0000 C   0  0  0  0  0  0  0  0  0
   -9.1279    1.6672    0.0000 C   0  0  0  0  0  0  0  0  0
   -8.4134    1.2547    0.0000 C   0  0  0  0  0  0  0  0  0
   -8.4134    0.4297    0.0000 C   0  0  0  0  0  0  0  0  0
   -7.6990    0.0172    0.0000 N   0  0  0  0  0  0  0  0  0
   -6.9845    0.4297    0.0000 C   0  0  0  0  0  0  0  0  0
   -6.2700    0.0172    0.0000 C   0  0  0  0  0  0  0  0  0
   -6.2700   -0.8078    0.0000 N   0  0  0  0  0  0  0  0  0
   -6.9845   -1.2203    0.0000 C   0  0  0  0  0  0  0  0  0
   -7.6990   -0.8078    0.0000 C   0  0  0  0  0  0  0  0  0
   -5.5556   -1.2203    0.0000 C   0  0  0  0  0  0  0  0  0
   -4.8411   -0.8078    0.0000 C   0  0  0  0  0  0  0  0  0
   -4.1266   -1.2203    0.0000 C   0  0  0  0  0  0  0  0  0
   -3.4121   -0.8078    0.0000 C   0  0  0  0  0  0  0  0  0
   -2.6977   -1.2203    0.0000 N   0  0  0  0  0  0  0  0  0
   -1.9832   -0.8078    0.0000 C   0  0  0  0  0  0  0  0  0
   -1.9832    0.0172    0.0000 O   0  0  0  0  0  0  0  0  0
   -1.2687   -1.2203    0.0000 C   0  0  0  0  0  0  0  0  0
   -0.5151   -0.8847    0.0000 N   0  0  0  0  0  0  0  0  0
    0.0370   -1.4978    0.0000 C   0  0  0  0  0  0  0  0  0
   -0.3755   -2.2123    0.0000 C   0  0  0  0  0  0  0  0  0
   -1.1825   -2.0408    0.0000 C   0  0  0  0  0  0  0  0  0
   -0.3435   -0.0778    0.0000 C   0  0  0  0  0  0  0  0  0
   -0.9566    0.4743    0.0000 O   0  0  0  0  0  0  0  0  0
    0.4411    0.1772    0.0000 C   0  0  0  0  0  0  0  0  0
    0.6126    0.9841    0.0000 C   0  0  0  0  0  0  0  0  0
    1.3972    1.2391    0.0000 C   0  0  0  0  0  0  0  0  0
    2.0103    0.6870    0.0000 C   0  0  0  0  0  0  0  0  0
    1.8388   -0.1199    0.0000 C   0  0  0  0  0  0  0  0  0
    1.0542   -0.3749    0.0000 C   0  0  0  0  0  0  0  0  0
  1  2  1  0  0  0  0
  1  3  1  0  0  0  0
  3  4  4  0  0  0  0
  3  8  4  0  0  0  0
  4  5  4  0  0  0  0
  5  6  4  0  0  0  0
  6  7  4  0  0  0  0
  7  8  4  0  0  0  0
  8  9  1  0  0  0  0
  9 10  1  0  0  0  0
  9 14  1  0  0  0  0
 10 11  1  0  0  0  0
 11 12  1  0  0  0  0
 12 13  1  0  0  0  0
 12 15  1  0  0  0  0
 13 14  1  0  0  0  0
 15 16  1  0  0  0  0
 16 17  1  0  0  0  0
 17 18  1  0  0  0  0
 18 19  1  0  0  0  0
 19 20  1  0  0  0  0
 20 21  2  0  0  0  0
 20 22  1  0  0  0  0
 22 23  1  0  0  0  0
 22 26  1  0  0  0  0
 23 24  1  0  0  0  0
 23 27  1  0  0  0  0
 24 25  1  0  0  0  0
 25 26  1  0  0  0  0
 27 28  2  0  0  0  0
 27 29  1  0  0  0  0
 29 30  1  0  0  0  0
 29 34  1  0  0  0  0
 30 31  1  0  0  0  0
 31 32  1  0  0  0  0
 32 33  1  0  0  0  0
 33 34  1  0  0  0  0
M  END
>  <Name_Molregno>
351005

>  <5-HT1A>
7.57

$$$$
351008
  Marvin  02231216192D 0   1.00000     0.00000     0

 36 40  0  0  1  0  0  0  0  0999 V2000
   -4.7318   -6.0476    0.0000 O   0  0  0  0  0  0  0  0  0
   -4.2252   -6.6987    0.0000 C   0  0  0  0  0  0  0  0  0
   -5.5490   -6.1608    0.0000 C   0  0  0  0  0  0  0  0  0
   -5.8596   -6.9251    0.0000 C   0  0  0  0  0  0  0  0  0
   -6.6768   -7.0383    0.0000 C   0  0  0  0  0  0  0  0  0
   -7.1834   -6.3872    0.0000 C   0  0  0  0  0  0  0  0  0
   -6.8728   -5.6229    0.0000 C   0  0  0  0  0  0  0  0  0
   -6.0556   -5.5097    0.0000 C   0  0  0  0  0  0  0  0  0
   -5.7450   -4.7454    0.0000 N   0  0  0  0  0  0  0  0  0
   -6.2517   -4.0942    0.0000 C   0  0  0  0  0  0  0  0  0
   -5.9411   -3.3299    0.0000 C   0  0  0  0  0  0  0  0  0
   -5.1239   -3.2168    0.0000 N   0  0  0  0  0  0  0  0  0
   -4.6173   -3.8679    0.0000 C   0  0  0  0  0  0  0  0  0
   -4.9278   -4.6322    0.0000 C   0  0  0  0  0  0  0  0  0
   -4.8133   -2.4525    0.0000 C   0  0  0  0  0  0  0  0  0
   -5.3199   -1.8013    0.0000 C   0  0  0  0  0  0  0  0  0
   -5.0093   -1.0370    0.0000 C   0  0  0  0  0  0  0  0  0
   -5.5159   -0.3859    0.0000 C   0  0  0  0  0  0  0  0  0
   -5.2054    0.3784    0.0000 N   0  0  0  0  0  0  0  0  0
   -5.6411    1.0789    0.0000 C   0  0  0  0  0  0  0  0  0
   -6.4640    1.1381    0.0000 O   0  0  0  0  0  0  0  0  0
   -5.1096    1.7098    0.0000 C   0  0  0  0  0  0  0  0  0
   -5.3075    2.5107    0.0000 N   0  0  0  0  0  0  0  0  0
   -4.7129    3.0826    0.0000 C   0  0  0  0  0  0  0  0  0
   -3.9204    2.8537    0.0000 O   0  0  0  0  0  0  0  0  0
   -4.9109    3.8835    0.0000 C   0  0  0  0  0  0  0  0  0
   -4.3163    4.4554    0.0000 C   0  0  0  0  0  0  0  0  0
   -3.5408    4.8457    0.0000 C   0  0  0  0  0  0  0  0  0
   -3.4707    6.3815    0.0000 C   0  0  0  0  0  0  0  0  0
   -3.3107    5.5661    0.0000 C   0  0  0  0  0  0  0  0  0
   -3.9510    5.1159    0.0000 C   0  0  0  0  0  0  0  0  0
   -2.5152    5.1008    0.0000 C   0  0  0  0  0  0  0  0  0
   -2.8103    4.4754    0.0000 C   0  0  0  0  0  0  0  0  0
   -4.3453    1.3993    0.0000 C   0  0  0  0  0  0  0  0  0
   -4.4045    0.5764    0.0000 C   0  0  0  0  0  0  0  0  0
   -3.7735    0.0448    0.0000 O   0  0  0  0  0  0  0  0  0
  1  2  1  0  0  0  0
  1  3  1  0  0  0  0
  3  4  4  0  0  0  0
  3  8  4  0  0  0  0
  4  5  4  0  0  0  0
  5  6  4  0  0  0  0
  6  7  4  0  0  0  0
  7  8  4  0  0  0  0
  8  9  1  0  0  0  0
  9 10  1  0  0  0  0
  9 14  1  0  0  0  0
 10 11  1  0  0  0  0
 11 12  1  0  0  0  0
 12 13  1  0  0  0  0
 12 15  1  0  0  0  0
 13 14  1  0  0  0  0
 15 16  1  0  0  0  0
 16 17  1  0  0  0  0
 17 18  1  0  0  0  0
 18 19  1  0  0  0  0
 19 20  1  0  0  0  0
 19 35  1  0  0  0  0
 20 21  2  0  0  0  0
 20 22  1  0  0  0  0
 22 23  1  0  0  0  0
 22 34  1  0  0  0  0
 23 24  1  0  0  0  0
 24 25  2  0  0  0  0
 24 26  1  0  0  0  0
 26 27  1  0  0  0  0
 27 28  1  0  0  0  0
 27 31  1  0  0  0  0
 28 29  1  0  0  0  0
 28 33  1  0  0  0  0
 29 30  1  0  0  0  0
 30 31  1  0  0  0  0
 30 32  1  0  0  0  0
 32 33  1  0  0  0  0
 34 35  1  0  0  0  0
 35 36  2  0  0  0  0
M  END
>  <Name_Molregno>
351008

>  <5-HT1A>
7.97

$$$$
351054
  Marvin  02231216192D 0   1.00000     0.00000     0

 36 40  0  0  1  0  0  0  0  0999 V2000
    3.9673   -6.0498    0.0000 O   0  0  0  0  0  0  0  0  0
    4.3275   -6.7920    0.0000 C   0  0  0  0  0  0  0  0  0
    3.1444   -5.9906    0.0000 C   0  0  0  0  0  0  0  0  0
    2.6817   -6.6736    0.0000 C   0  0  0  0  0  0  0  0  0
    1.8589   -6.6144    0.0000 C   0  0  0  0  0  0  0  0  0
    1.4987   -5.8722    0.0000 C   0  0  0  0  0  0  0  0  0
    1.9614   -5.1891    0.0000 C   0  0  0  0  0  0  0  0  0
    2.7843   -5.2483    0.0000 C   0  0  0  0  0  0  0  0  0
    3.2470   -4.5653    0.0000 N   0  0  0  0  0  0  0  0  0
    2.8868   -3.8231    0.0000 C   0  0  0  0  0  0  0  0  0
    3.3495   -3.1401    0.0000 C   0  0  0  0  0  0  0  0  0
    4.1724   -3.1993    0.0000 N   0  0  0  0  0  0  0  0  0
    4.5326   -3.9415    0.0000 C   0  0  0  0  0  0  0  0  0
    4.0699   -4.6245    0.0000 C   0  0  0  0  0  0  0  0  0
    4.6351   -2.5162    0.0000 C   0  0  0  0  0  0  0  0  0
    4.2749   -1.7740    0.0000 C   0  0  0  0  0  0  0  0  0
    4.7376   -1.0910    0.0000 C   0  0  0  0  0  0  0  0  0
    4.3775   -0.3487    0.0000 C   0  0  0  0  0  0  0  0  0
    4.8402    0.3343    0.0000 N   0  0  0  0  0  0  0  0  0
    4.4800    1.0765    0.0000 C   0  0  0  0  0  0  0  0  0
    3.6571    1.1357    0.0000 O   0  0  0  0  0  0  0  0  0
    4.9427    1.7595    0.0000 C   0  0  0  0  0  0  0  0  0
    4.6621    2.5354    0.0000 N   0  0  0  0  0  0  0  0  0
    5.3132    3.0420    0.0000 C   0  0  0  0  0  0  0  0  0
    5.9963    2.5793    0.0000 C   0  0  0  0  0  0  0  0  0
    5.7673    1.7867    0.0000 C   0  0  0  0  0  0  0  0  0
    3.8695    2.7643    0.0000 C   0  0  0  0  0  0  0  0  0
    3.2749    2.1924    0.0000 O   0  0  0  0  0  0  0  0  0
    3.6715    3.5652    0.0000 C   0  0  0  0  0  0  0  0  0
    4.2661    4.1371    0.0000 C   0  0  0  0  0  0  0  0  0
    5.0416    4.5274    0.0000 C   0  0  0  0  0  0  0  0  0
    5.1117    6.0632    0.0000 C   0  0  0  0  0  0  0  0  0
    5.2717    5.2478    0.0000 C   0  0  0  0  0  0  0  0  0
    4.6314    4.7976    0.0000 C   0  0  0  0  0  0  0  0  0
    6.0672    4.7825    0.0000 C   0  0  0  0  0  0  0  0  0
    5.7721    4.1571    0.0000 C   0  0  0  0  0  0  0  0  0
  1  2  1  0  0  0  0
  1  3  1  0  0  0  0
  3  4  4  0  0  0  0
  3  8  4  0  0  0  0
  4  5  4  0  0  0  0
  5  6  4  0  0  0  0
  6  7  4  0  0  0  0
  7  8  4  0  0  0  0
  8  9  1  0  0  0  0
  9 10  1  0  0  0  0
  9 14  1  0  0  0  0
 10 11  1  0  0  0  0
 11 12  1  0  0  0  0
 12 13  1  0  0  0  0
 12 15  1  0  0  0  0
 13 14  1  0  0  0  0
 15 16  1  0  0  0  0
 16 17  1  0  0  0  0
 17 18  1  0  0  0  0
 18 19  1  0  0  0  0
 19 20  1  0  0  0  0
 20 21  2  0  0  0  0
 20 22  1  0  0  0  0
 22 23  1  0  0  0  0
 22 26  1  0  0  0  0
 23 24  1  0  0  0  0
 23 27  1  0  0  0  0
 24 25  1  0  0  0  0
 25 26  1  0  0  0  0
 27 28  2  0  0  0  0
 27 29  1  0  0  0  0
 29 30  1  0  0  0  0
 30 31  1  0  0  0  0
 30 34  1  0  0  0  0
 31 32  1  0  0  0  0
 31 36  1  0  0  0  0
 32 33  1  0  0  0  0
 33 34  1  0  0  0  0
 33 35  1  0  0  0  0
 35 36  1  0  0  0  0
M  END
>  <Name_Molregno>
351054

>  <5-HT1A>
7.85

$$$$
351078
  Marvin  02231216192D 0   1.00000     0.00000     0

 34 37  0  0  1  0  0  0  0  0999 V2000
    1.8628    3.4851    0.0000 O   0  0  0  0  0  0  0  0  0
    1.1483    3.8976    0.0000 C   0  0  0  0  0  0  0  0  0
    2.5772    3.8976    0.0000 C   0  0  0  0  0  0  0  0  0
    2.5772    4.7226    0.0000 C   0  0  0  0  0  0  0  0  0
    3.2917    5.1351    0.0000 C   0  0  0  0  0  0  0  0  0
    4.0062    4.7226    0.0000 C   0  0  0  0  0  0  0  0  0
    4.0062    3.8976    0.0000 C   0  0  0  0  0  0  0  0  0
    3.2917    3.4851    0.0000 C   0  0  0  0  0  0  0  0  0
    3.2917    2.6601    0.0000 N   0  0  0  0  0  0  0  0  0
    4.0062    2.2476    0.0000 C   0  0  0  0  0  0  0  0  0
    4.0062    1.4226    0.0000 C   0  0  0  0  0  0  0  0  0
    3.2917    1.0101    0.0000 N   0  0  0  0  0  0  0  0  0
    2.5772    1.4226    0.0000 C   0  0  0  0  0  0  0  0  0
    2.5772    2.2476    0.0000 C   0  0  0  0  0  0  0  0  0
    3.2917    0.1851    0.0000 C   0  0  0  0  0  0  0  0  0
    4.0062   -0.2274    0.0000 C   0  0  0  0  0  0  0  0  0
    4.0062   -1.0524    0.0000 C   0  0  0  0  0  0  0  0  0
    4.7206   -1.4649    0.0000 C   0  0  0  0  0  0  0  0  0
    4.7206   -2.2899    0.0000 N   0  0  0  0  0  0  0  0  0
    5.3881   -2.7748    0.0000 C   0  0  0  0  0  0  0  0  0
    6.1727   -2.5199    0.0000 O   0  0  0  0  0  0  0  0  0
    5.1331   -3.5594    0.0000 C   0  0  0  0  0  0  0  0  0
    5.6181   -4.2269    0.0000 N   0  0  0  0  0  0  0  0  0
    6.4385   -4.1406    0.0000 C   0  0  0  0  0  0  0  0  0
    6.7741   -3.3870    0.0000 O   0  0  0  0  0  0  0  0  0
    6.9235   -4.8081    0.0000 C   0  0  0  0  0  0  0  0  0
    7.7439   -4.7218    0.0000 C   0  0  0  0  0  0  0  0  0
    8.2289   -5.3893    0.0000 C   0  0  0  0  0  0  0  0  0
    7.8933   -6.1430    0.0000 C   0  0  0  0  0  0  0  0  0
    7.0728   -6.2292    0.0000 C   0  0  0  0  0  0  0  0  0
    6.5879   -5.5618    0.0000 C   0  0  0  0  0  0  0  0  0
    4.3081   -3.5594    0.0000 C   0  0  0  0  0  0  0  0  0
    4.0532   -2.7748    0.0000 C   0  0  0  0  0  0  0  0  0
    3.2686   -2.5199    0.0000 O   0  0  0  0  0  0  0  0  0
  1  2  1  0  0  0  0
  1  3  1  0  0  0  0
  3  4  4  0  0  0  0
  3  8  4  0  0  0  0
  4  5  4  0  0  0  0
  5  6  4  0  0  0  0
  6  7  4  0  0  0  0
  7  8  4  0  0  0  0
  8  9  1  0  0  0  0
  9 10  1  0  0  0  0
  9 14  1  0  0  0  0
 10 11  1  0  0  0  0
 11 12  1  0  0  0  0
 12 13  1  0  0  0  0
 12 15  1  0  0  0  0
 13 14  1  0  0  0  0
 15 16  1  0  0  0  0
 16 17  1  0  0  0  0
 17 18  1  0  0  0  0
 18 19  1  0  0  0  0
 19 20  1  0  0  0  0
 19 33  1  0  0  0  0
 20 21  2  0  0  0  0
 20 22  1  0  0  0  0
 22 23  1  0  0  0  0
 22 32  1  0  0  0  0
 23 24  1  0  0  0  0
 24 25  2  0  0  0  0
 24 26  1  0  0  0  0
 26 27  1  0  0  0  0
 26 31  1  0  0  0  0
 27 28  1  0  0  0  0
 28 29  1  0  0  0  0
 29 30  1  0  0  0  0
 30 31  1  0  0  0  0
 32 33  1  0  0  0  0
 33 34  2  0  0  0  0
M  END
>  <Name_Molregno>
351078

>  <5-HT1A>
7.54

$$$$
351129
  Marvin  02231216192D 0   1.00000     0.00000     0

 38 43  0  0  1  0  0  0  0  0999 V2000
    4.2049   -6.3886    0.0000 O   0  0  0  0  0  0  0  0  0
    4.5405   -7.1423    0.0000 C   0  0  0  0  0  0  0  0  0
    3.3844   -6.3024    0.0000 C   0  0  0  0  0  0  0  0  0
    2.8995   -6.9699    0.0000 C   0  0  0  0  0  0  0  0  0
    2.0790   -6.8837    0.0000 C   0  0  0  0  0  0  0  0  0
    1.7434   -6.1301    0.0000 C   0  0  0  0  0  0  0  0  0
    2.2283   -5.4626    0.0000 C   0  0  0  0  0  0  0  0  0
    3.0488   -5.5488    0.0000 C   0  0  0  0  0  0  0  0  0
    3.5337   -4.8813    0.0000 N   0  0  0  0  0  0  0  0  0
    3.1981   -4.1277    0.0000 C   0  0  0  0  0  0  0  0  0
    3.6830   -3.4602    0.0000 C   0  0  0  0  0  0  0  0  0
    4.5034   -3.5464    0.0000 N   0  0  0  0  0  0  0  0  0
    4.8390   -4.3001    0.0000 C   0  0  0  0  0  0  0  0  0
    4.3542   -4.9675    0.0000 C   0  0  0  0  0  0  0  0  0
    4.9883   -2.8789    0.0000 C   0  0  0  0  0  0  0  0  0
    4.6527   -2.1253    0.0000 C   0  0  0  0  0  0  0  0  0
    5.1376   -1.4578    0.0000 C   0  0  0  0  0  0  0  0  0
    4.8020   -0.7041    0.0000 C   0  0  0  0  0  0  0  0  0
    5.2869   -0.0367    0.0000 N   0  0  0  0  0  0  0  0  0
    5.0319    0.7479    0.0000 C   0  0  0  0  0  0  0  0  0
    4.2473    1.0028    0.0000 O   0  0  0  0  0  0  0  0  0
    5.6993    1.2329    0.0000 C   0  0  0  0  0  0  0  0  0
    5.6993    2.0579    0.0000 N   0  0  0  0  0  0  0  0  0
    6.4137    2.4704    0.0000 C   0  0  0  0  0  0  0  0  0
    7.1282    2.0580    0.0000 O   0  0  0  0  0  0  0  0  0
    6.4137    3.2954    0.0000 C   0  0  0  0  0  0  0  0  0
    5.6783    2.9217    0.0000 C   0  0  0  0  0  0  0  0  0
    6.1277    3.7120    0.0000 C   0  0  0  0  0  0  0  0  0
    6.1277    4.4594    0.0000 C   0  0  0  0  0  0  0  0  0
    6.8632    4.8331    0.0000 C   0  0  0  0  0  0  0  0  0
    6.4137    4.0428    0.0000 C   0  0  0  0  0  0  0  0  0
    7.5988    4.4594    0.0000 C   0  0  0  0  0  0  0  0  0
    7.5988    3.7120    0.0000 C   0  0  0  0  0  0  0  0  0
    7.1493    2.9217    0.0000 C   0  0  0  0  0  0  0  0  0
    6.8632    3.3383    0.0000 C   0  0  0  0  0  0  0  0  0
    6.3668    0.7480    0.0000 C   0  0  0  0  0  0  0  0  0
    6.1119   -0.0366    0.0000 C   0  0  0  0  0  0  0  0  0
    6.5969   -0.7041    0.0000 O   0  0  0  0  0  0  0  0  0
  1  2  1  0  0  0  0
  1  3  1  0  0  0  0
  3  4  4  0  0  0  0
  3  8  4  0  0  0  0
  4  5  4  0  0  0  0
  5  6  4  0  0  0  0
  6  7  4  0  0  0  0
  7  8  4  0  0  0  0
  8  9  1  0  0  0  0
  9 10  1  0  0  0  0
  9 14  1  0  0  0  0
 10 11  1  0  0  0  0
 11 12  1  0  0  0  0
 12 13  1  0  0  0  0
 12 15  1  0  0  0  0
 13 14  1  0  0  0  0
 15 16  1  0  0  0  0
 16 17  1  0  0  0  0
 17 18  1  0  0  0  0
 18 19  1  0  0  0  0
 19 20  1  0  0  0  0
 19 37  1  0  0  0  0
 20 21  2  0  0  0  0
 20 22  1  0  0  0  0
 22 23  1  0  0  0  0
 22 36  1  0  0  0  0
 23 24  1  0  0  0  0
 24 25  2  0  0  0  0
 24 26  1  0  0  0  0
 26 27  1  0  0  0  0
 33 35  1  0  0  0  0
 26 34  1  0  0  0  0
 27 28  1  0  0  0  0
 33 34  1  0  0  0  0
 28 35  1  0  0  0  0
 29 30  1  0  0  0  0
 30 31  1  0  0  0  0
 30 32  1  0  0  0  0
 32 33  1  0  0  0  0
 28 29  1  0  0  0  0
 26 31  1  0  0  0  0
 36 37  1  0  0  0  0
 37 38  2  0  0  0  0
M  END
>  <Name_Molregno>
351129

>  <5-HT1A>
7.94

$$$$
353273
  Marvin  02231216192D 0   1.00000     0.00000     0

 30 33  0  0  1  0  0  0  0  0999 V2000
   -0.4943    1.9332    0.0000 F   0  0  0  0  0  0  0  0  0
   -1.3193    1.9332    0.0000 C   0  0  0  0  0  0  0  0  0
   -1.7318    1.2187    0.0000 C   0  0  0  0  0  0  0  0  0
   -1.3193    0.5042    0.0000 O   0  0  0  0  0  0  0  0  0
   -1.7318   -0.2102    0.0000 C   0  0  0  0  0  0  0  0  0
   -2.5568   -0.2102    0.0000 C   0  0  0  0  0  0  0  0  0
   -2.9693   -0.9247    0.0000 N   0  0  0  0  0  0  0  0  0
   -3.7943   -0.9247    0.0000 C   0  0  0  0  0  0  0  0  0
   -4.2068   -1.6392    0.0000 C   0  0  0  0  0  0  0  0  0
   -5.0318   -1.6392    0.0000 C   0  0  0  0  0  0  0  0  0
   -5.5168   -2.3066    0.0000 C   0  0  0  0  0  0  0  0  0
   -5.3452   -3.1136    0.0000 C   0  0  0  0  0  0  0  0  0
   -5.9583   -3.6656    0.0000 C   0  0  0  0  0  0  0  0  0
   -5.7868   -4.4726    0.0000 F   0  0  0  0  0  0  0  0  0
   -6.7429   -3.4107    0.0000 C   0  0  0  0  0  0  0  0  0
   -6.9145   -2.6037    0.0000 C   0  0  0  0  0  0  0  0  0
   -6.3014   -2.0517    0.0000 C   0  0  0  0  0  0  0  0  0
   -6.3014   -1.2267    0.0000 N   0  0  0  0  0  0  0  0  0
   -5.5168   -0.9717    0.0000 C   0  0  0  0  0  0  0  0  0
   -2.5568   -1.6392    0.0000 C   0  0  0  0  0  0  0  0  0
   -1.7318   -1.6392    0.0000 C   0  0  0  0  0  0  0  0  0
   -1.3193   -2.3537    0.0000 C   0  0  0  0  0  0  0  0  0
   -2.9693    0.5042    0.0000 C   0  0  0  0  0  0  0  0  0
   -2.5568    1.2187    0.0000 C   0  0  0  0  0  0  0  0  0
   -2.9693    1.9332    0.0000 C   0  0  0  0  0  0  0  0  0
   -2.5568    2.6476    0.0000 C   0  0  0  0  0  0  0  0  0
   -1.7318    2.6476    0.0000 C   0  0  0  0  0  0  0  0  0
   -3.7943    1.9332    0.0000 C   0  0  0  0  0  0  0  0  0
   -4.2068    2.6476    0.0000 O   0  0  0  0  0  0  0  0  0
   -4.2068    1.2187    0.0000 N   0  0  0  0  0  0  0  0  0
  1  2  1  0  0  0  0
  2  3  4  0  0  0  0
  2 27  4  0  0  0  0
  3  4  1  0  0  0  0
  3 24  4  0  0  0  0
  4  5  1  0  0  0  0
  5  6  1  0  0  0  0
  6  7  1  0  0  0  0
  6 23  1  0  0  0  0
  7  8  1  0  0  0  0
  7 20  1  0  0  0  0
  8  9  1  0  0  0  0
  9 10  1  0  0  0  0
 10 11  4  0  0  0  0
 10 19  4  0  0  0  0
 11 12  4  0  0  0  0
 11 17  4  0  0  0  0
 12 13  4  0  0  0  0
 13 14  1  0  0  0  0
 13 15  4  0  0  0  0
 15 16  4  0  0  0  0
 16 17  4  0  0  0  0
 17 18  4  0  0  0  0
 18 19  4  0  0  0  0
 20 21  1  0  0  0  0
 21 22  1  0  0  0  0
 23 24  1  0  0  0  0
 24 25  4  0  0  0  0
 25 26  4  0  0  0  0
 25 28  1  0  0  0  0
 26 27  4  0  0  0  0
 28 29  2  0  0  0  0
 28 30  1  0  0  0  0
M  STY  1   1 DAT
M  SAL   1  1  18
M  SDT   1 MRV_IMPLICIT_H                                        
M  SDD   1     0.0000    0.0000    DR    ALL  0       0  
M  SED   1 IMPL_H1
M  END
>  <Name_Molregno>
353273

>  <5-HT1A>
7.75

$$$$
353308
  Marvin  02231216192D 0   1.00000     0.00000     0

 32 35  0  0  1  0  0  0  0  0999 V2000
   -0.0559    1.7919    0.0000 F   0  0  0  0  0  0  0  0  0
   -0.8660    1.9478    0.0000 C   0  0  0  0  0  0  0  0  0
   -1.4061    1.3242    0.0000 C   0  0  0  0  0  0  0  0  0
   -1.1361    0.5446    0.0000 O   0  0  0  0  0  0  0  0  0
   -1.6762   -0.0790    0.0000 C   0  0  0  0  0  0  0  0  0
   -2.4863    0.0769    0.0000 C   0  0  0  0  0  0  0  0  0
   -3.0264   -0.5467    0.0000 N   0  0  0  0  0  0  0  0  0
   -3.8365   -0.3908    0.0000 C   0  0  0  0  0  0  0  0  0
   -4.3766   -1.0145    0.0000 C   0  0  0  0  0  0  0  0  0
   -5.1868   -0.8586    0.0000 C   0  0  0  0  0  0  0  0  0
   -5.7269   -1.4822    0.0000 C   0  0  0  0  0  0  0  0  0
   -6.5370   -1.3263    0.0000 C   0  0  0  0  0  0  0  0  0
   -7.1393   -1.8901    0.0000 C   0  0  0  0  0  0  0  0  0
   -7.1234   -2.7149    0.0000 C   0  0  0  0  0  0  0  0  0
   -7.8297   -3.1411    0.0000 C   0  0  0  0  0  0  0  0  0
   -7.8138   -3.9660    0.0000 F   0  0  0  0  0  0  0  0  0
   -8.5520   -2.7425    0.0000 C   0  0  0  0  0  0  0  0  0
   -8.5680   -1.9177    0.0000 C   0  0  0  0  0  0  0  0  0
   -7.8616   -1.4914    0.0000 C   0  0  0  0  0  0  0  0  0
   -7.7057   -0.6813    0.0000 N   0  0  0  0  0  0  0  0  0
   -6.8870   -0.5792    0.0000 C   0  0  0  0  0  0  0  0  0
   -2.7564   -1.3263    0.0000 C   0  0  0  0  0  0  0  0  0
   -1.9462   -1.4822    0.0000 C   0  0  0  0  0  0  0  0  0
   -1.6762   -2.2618    0.0000 C   0  0  0  0  0  0  0  0  0
   -2.7564    0.8564    0.0000 C   0  0  0  0  0  0  0  0  0
   -2.2163    1.4801    0.0000 C   0  0  0  0  0  0  0  0  0
   -2.4863    2.2596    0.0000 C   0  0  0  0  0  0  0  0  0
   -1.9462    2.8833    0.0000 C   0  0  0  0  0  0  0  0  0
   -1.1361    2.7274    0.0000 C   0  0  0  0  0  0  0  0  0
   -3.2964    2.4156    0.0000 C   0  0  0  0  0  0  0  0  0
   -3.5665    3.1951    0.0000 O   0  0  0  0  0  0  0  0  0
   -3.8365    1.7919    0.0000 N   0  0  0  0  0  0  0  0  0
  1  2  1  0  0  0  0
  2  3  4  0  0  0  0
  2 29  4  0  0  0  0
  3  4  1  0  0  0  0
  3 26  4  0  0  0  0
  4  5  1  0  0  0  0
  5  6  1  0  0  0  0
  6  7  1  0  0  0  0
  6 25  1  0  0  0  0
  7  8  1  0  0  0  0
  7 22  1  0  0  0  0
  8  9  1  0  0  0  0
  9 10  1  0  0  0  0
 10 11  1  0  0  0  0
 11 12  1  0  0  0  0
 12 13  4  0  0  0  0
 12 21  4  0  0  0  0
 13 14  4  0  0  0  0
 13 19  4  0  0  0  0
 14 15  4  0  0  0  0
 15 16  1  0  0  0  0
 15 17  4  0  0  0  0
 17 18  4  0  0  0  0
 18 19  4  0  0  0  0
 19 20  4  0  0  0  0
 20 21  4  0  0  0  0
 22 23  1  0  0  0  0
 23 24  1  0  0  0  0
 25 26  1  0  0  0  0
 26 27  4  0  0  0  0
 27 28  4  0  0  0  0
 27 30  1  0  0  0  0
 28 29  4  0  0  0  0
 30 31  2  0  0  0  0
 30 32  1  0  0  0  0
M  STY  1   1 DAT
M  SAL   1  1  20
M  SDT   1 MRV_IMPLICIT_H                                        
M  SDD   1     0.0000    0.0000    DR    ALL  0       0  
M  SED   1 IMPL_H1
M  END
>  <Name_Molregno>
353308

>  <5-HT1A>
8.36

$$$$
353309
  Marvin  02231216192D 0   1.00000     0.00000     0

 31 35  0  0  1  0  0  0  0  0999 V2000
   -1.1197    0.8390    0.0000 F   0  0  0  0  0  0  0  0  0
   -1.1197    0.0140    0.0000 C   0  0  0  0  0  0  0  0  0
   -0.4052   -0.3985    0.0000 C   0  0  0  0  0  0  0  0  0
    0.3092    0.0140    0.0000 O   0  0  0  0  0  0  0  0  0
    1.0237   -0.3985    0.0000 C   0  0  0  0  0  0  0  0  0
    1.0237   -1.2235    0.0000 C   0  0  0  0  0  0  0  0  0
    1.7382   -1.6360    0.0000 N   0  0  0  0  0  0  0  0  0
    2.4527   -1.2235    0.0000 C   0  0  0  0  0  0  0  0  0
    3.1671   -1.6360    0.0000 C   0  0  0  0  0  0  0  0  0
    3.9921   -1.6360    0.0000 C   0  0  0  0  0  0  0  0  0
    3.5796   -2.3504    0.0000 C   0  0  0  0  0  0  0  0  0
    1.7382   -2.4610    0.0000 C   0  0  0  0  0  0  0  0  0
    2.4527   -2.8735    0.0000 C   0  0  0  0  0  0  0  0  0
    2.4527   -3.6985    0.0000 C   0  0  0  0  0  0  0  0  0
    3.1201   -4.1834    0.0000 C   0  0  0  0  0  0  0  0  0
    3.9271   -4.0119    0.0000 C   0  0  0  0  0  0  0  0  0
    4.4791   -4.6249    0.0000 C   0  0  0  0  0  0  0  0  0
    5.2861   -4.4534    0.0000 F   0  0  0  0  0  0  0  0  0
    4.2242   -5.4096    0.0000 C   0  0  0  0  0  0  0  0  0
    3.4172   -5.5811    0.0000 C   0  0  0  0  0  0  0  0  0
    2.8652   -4.9680    0.0000 C   0  0  0  0  0  0  0  0  0
    2.0402   -4.9680    0.0000 N   0  0  0  0  0  0  0  0  0
    1.7852   -4.1834    0.0000 C   0  0  0  0  0  0  0  0  0
    0.3092   -1.6360    0.0000 C   0  0  0  0  0  0  0  0  0
   -0.4052   -1.2235    0.0000 C   0  0  0  0  0  0  0  0  0
   -1.1197   -1.6360    0.0000 C   0  0  0  0  0  0  0  0  0
   -1.8342   -1.2235    0.0000 C   0  0  0  0  0  0  0  0  0
   -1.8342   -0.3985    0.0000 C   0  0  0  0  0  0  0  0  0
   -1.1197   -2.4610    0.0000 C   0  0  0  0  0  0  0  0  0
   -1.8342   -2.8735    0.0000 O   0  0  0  0  0  0  0  0  0
   -0.4052   -2.8735    0.0000 N   0  0  0  0  0  0  0  0  0
  1  2  1  0  0  0  0
  2  3  4  0  0  0  0
  2 28  4  0  0  0  0
  3  4  1  0  0  0  0
  3 25  4  0  0  0  0
  4  5  1  0  0  0  0
  5  6  1  0  0  0  0
  6  7  1  0  0  0  0
  6 24  1  0  0  0  0
  7  8  1  0  0  0  0
  7 12  1  0  0  0  0
  8  9  1  0  0  0  0
  9 10  1  0  0  0  0
  9 11  1  0  0  0  0
 10 11  1  0  0  0  0
 12 13  1  0  0  0  0
 13 14  1  0  0  0  0
 14 15  4  0  0  0  0
 14 23  4  0  0  0  0
 15 16  4  0  0  0  0
 15 21  4  0  0  0  0
 16 17  4  0  0  0  0
 17 18  1  0  0  0  0
 17 19  4  0  0  0  0
 19 20  4  0  0  0  0
 20 21  4  0  0  0  0
 21 22  4  0  0  0  0
 22 23  4  0  0  0  0
 24 25  1  0  0  0  0
 25 26  4  0  0  0  0
 26 27  4  0  0  0  0
 26 29  1  0  0  0  0
 27 28  4  0  0  0  0
 29 30  2  0  0  0  0
 29 31  1  0  0  0  0
M  STY  1   1 DAT
M  SAL   1  1  22
M  SDT   1 MRV_IMPLICIT_H                                        
M  SDD   1     0.0000    0.0000    DR    ALL  0       0  
M  SED   1 IMPL_H1
M  END
>  <Name_Molregno>
353309

>  <5-HT1A>
8.14

$$$$
353362
  Marvin  02231216192D 0   1.00000     0.00000     0

 33 37  0  0  1  0  0  0  0  0999 V2000
   -2.7303   -2.8068    0.0000 F   0  0  0  0  0  0  0  0  0
   -2.0158   -3.2193    0.0000 C   0  0  0  0  0  0  0  0  0
   -1.3013   -2.8068    0.0000 C   0  0  0  0  0  0  0  0  0
   -1.3013   -1.9818    0.0000 O   0  0  0  0  0  0  0  0  0
   -0.5869   -1.5693    0.0000 C   0  0  0  0  0  0  0  0  0
    0.1276   -1.9818    0.0000 C   0  0  0  0  0  0  0  0  0
    0.8421   -1.5693    0.0000 N   0  0  0  0  0  0  0  0  0
    0.8421   -0.7443    0.0000 C   0  0  0  0  0  0  0  0  0
    1.5565   -0.3318    0.0000 C   0  0  0  0  0  0  0  0  0
    1.9690    0.3827    0.0000 C   0  0  0  0  0  0  0  0  0
    2.3815   -0.3318    0.0000 C   0  0  0  0  0  0  0  0  0
    1.5565   -1.9818    0.0000 C   0  0  0  0  0  0  0  0  0
    2.2710   -1.5693    0.0000 C   0  0  0  0  0  0  0  0  0
    2.9855   -1.9818    0.0000 C   0  0  0  0  0  0  0  0  0
    3.7000   -1.5693    0.0000 C   0  0  0  0  0  0  0  0  0
    4.4144   -1.9818    0.0000 C   0  0  0  0  0  0  0  0  0
    5.1681   -1.6462    0.0000 C   0  0  0  0  0  0  0  0  0
    5.4230   -0.8616    0.0000 C   0  0  0  0  0  0  0  0  0
    6.2300   -0.6901    0.0000 C   0  0  0  0  0  0  0  0  0
    6.4849    0.0946    0.0000 F   0  0  0  0  0  0  0  0  0
    6.7820   -1.3032    0.0000 C   0  0  0  0  0  0  0  0  0
    6.5271   -2.0878    0.0000 C   0  0  0  0  0  0  0  0  0
    5.7201   -2.2593    0.0000 C   0  0  0  0  0  0  0  0  0
    5.3076   -2.9738    0.0000 N   0  0  0  0  0  0  0  0  0
    4.5007   -2.8023    0.0000 C   0  0  0  0  0  0  0  0  0
    0.1276   -2.8068    0.0000 C   0  0  0  0  0  0  0  0  0
   -0.5869   -3.2193    0.0000 C   0  0  0  0  0  0  0  0  0
   -0.5869   -4.0443    0.0000 C   0  0  0  0  0  0  0  0  0
   -1.3013   -4.4568    0.0000 C   0  0  0  0  0  0  0  0  0
   -2.0158   -4.0443    0.0000 C   0  0  0  0  0  0  0  0  0
    0.1276   -4.4568    0.0000 C   0  0  0  0  0  0  0  0  0
    0.1276   -5.2818    0.0000 O   0  0  0  0  0  0  0  0  0
    0.8421   -4.0443    0.0000 N   0  0  0  0  0  0  0  0  0
  1  2  1  0  0  0  0
  2  3  4  0  0  0  0
  2 30  4  0  0  0  0
  3  4  1  0  0  0  0
  3 27  4  0  0  0  0
  4  5  1  0  0  0  0
  5  6  1  0  0  0  0
  6  7  1  0  0  0  0
  6 26  1  0  0  0  0
  7  8  1  0  0  0  0
  7 12  1  0  0  0  0
  8  9  1  0  0  0  0
  9 10  1  0  0  0  0
  9 11  1  0  0  0  0
 10 11  1  0  0  0  0
 12 13  1  0  0  0  0
 13 14  1  0  0  0  0
 14 15  1  0  0  0  0
 15 16  1  0  0  0  0
 16 17  4  0  0  0  0
 16 25  4  0  0  0  0
 17 18  4  0  0  0  0
 17 23  4  0  0  0  0
 18 19  4  0  0  0  0
 19 20  1  0  0  0  0
 19 21  4  0  0  0  0
 21 22  4  0  0  0  0
 22 23  4  0  0  0  0
 23 24  4  0  0  0  0
 24 25  4  0  0  0  0
 26 27  1  0  0  0  0
 27 28  4  0  0  0  0
 28 29  4  0  0  0  0
 28 31  1  0  0  0  0
 29 30  4  0  0  0  0
 31 32  2  0  0  0  0
 31 33  1  0  0  0  0
M  STY  1   1 DAT
M  SAL   1  1  24
M  SDT   1 MRV_IMPLICIT_H                                        
M  SDD   1     0.0000    0.0000    DR    ALL  0       0  
M  SED   1 IMPL_H1
M  END
>  <Name_Molregno>
353362

>  <5-HT1A>
8.68

$$$$
353363
  Marvin  02231216192D 0   1.00000     0.00000     0

 33 37  0  0  1  0  0  0  0  0999 V2000
    1.3262    1.9161    0.0000 F   0  0  0  0  0  0  0  0  0
    1.3262    1.0911    0.0000 C   0  0  0  0  0  0  0  0  0
    2.0407    0.6786    0.0000 C   0  0  0  0  0  0  0  0  0
    2.7551    1.0911    0.0000 O   0  0  0  0  0  0  0  0  0
    3.4696    0.6786    0.0000 C   0  0  0  0  0  0  0  0  0
    3.4696   -0.1464    0.0000 C   0  0  0  0  0  0  0  0  0
    4.1841   -0.5589    0.0000 N   0  0  0  0  0  0  0  0  0
    4.1841   -1.3839    0.0000 C   0  0  0  0  0  0  0  0  0
    4.8985   -1.7964    0.0000 C   0  0  0  0  0  0  0  0  0
    4.8985   -2.6214    0.0000 C   0  0  0  0  0  0  0  0  0
    5.6130   -3.0339    0.0000 C   0  0  0  0  0  0  0  0  0
    5.6130   -3.8589    0.0000 C   0  0  0  0  0  0  0  0  0
    6.2805   -4.3438    0.0000 C   0  0  0  0  0  0  0  0  0
    7.0874   -4.1723    0.0000 C   0  0  0  0  0  0  0  0  0
    7.6395   -4.7854    0.0000 C   0  0  0  0  0  0  0  0  0
    8.4464   -4.6139    0.0000 F   0  0  0  0  0  0  0  0  0
    7.3845   -5.5700    0.0000 C   0  0  0  0  0  0  0  0  0
    6.5775   -5.7415    0.0000 C   0  0  0  0  0  0  0  0  0
    6.0255   -5.1285    0.0000 C   0  0  0  0  0  0  0  0  0
    5.2005   -5.1285    0.0000 N   0  0  0  0  0  0  0  0  0
    4.9456   -4.3438    0.0000 C   0  0  0  0  0  0  0  0  0
    4.8985   -0.1464    0.0000 C   0  0  0  0  0  0  0  0  0
    5.1121    0.6505    0.0000 C   0  0  0  0  0  0  0  0  0
    5.9090    0.4370    0.0000 C   0  0  0  0  0  0  0  0  0
    5.6954   -0.3599    0.0000 C   0  0  0  0  0  0  0  0  0
    2.7551   -0.5589    0.0000 C   0  0  0  0  0  0  0  0  0
    2.0407   -0.1464    0.0000 C   0  0  0  0  0  0  0  0  0
    1.3262   -0.5589    0.0000 C   0  0  0  0  0  0  0  0  0
    0.6117   -0.1464    0.0000 C   0  0  0  0  0  0  0  0  0
    0.6117    0.6786    0.0000 C   0  0  0  0  0  0  0  0  0
    1.3262   -1.3839    0.0000 C   0  0  0  0  0  0  0  0  0
    0.6117   -1.7964    0.0000 O   0  0  0  0  0  0  0  0  0
    2.0407   -1.7964    0.0000 N   0  0  0  0  0  0  0  0  0
  1  2  1  0  0  0  0
  2  3  4  0  0  0  0
  2 30  4  0  0  0  0
  3  4  1  0  0  0  0
  3 27  4  0  0  0  0
  4  5  1  0  0  0  0
  5  6  1  0  0  0  0
  6  7  1  0  0  0  0
  6 26  1  0  0  0  0
  7  8  1  0  0  0  0
  7 22  1  0  0  0  0
  8  9  1  0  0  0  0
  9 10  1  0  0  0  0
 10 11  1  0  0  0  0
 11 12  1  0  0  0  0
 12 13  4  0  0  0  0
 12 21  4  0  0  0  0
 13 14  4  0  0  0  0
 13 19  4  0  0  0  0
 14 15  4  0  0  0  0
 15 16  1  0  0  0  0
 15 17  4  0  0  0  0
 17 18  4  0  0  0  0
 18 19  4  0  0  0  0
 19 20  4  0  0  0  0
 20 21  4  0  0  0  0
 22 23  1  0  0  0  0
 22 25  1  0  0  0  0
 23 24  1  0  0  0  0
 24 25  1  0  0  0  0
 26 27  1  0  0  0  0
 27 28  4  0  0  0  0
 28 29  4  0  0  0  0
 28 31  1  0  0  0  0
 29 30  4  0  0  0  0
 31 32  2  0  0  0  0
 31 33  1  0  0  0  0
M  STY  1   1 DAT
M  SAL   1  1  20
M  SDT   1 MRV_IMPLICIT_H                                        
M  SDD   1     0.0000    0.0000    DR    ALL  0       0  
M  SED   1 IMPL_H1
M  END
>  <Name_Molregno>
353363

>  <5-HT1A>
8.32

$$$$
353433
  Marvin  02231216192D 0   1.00000     0.00000     0

 29 32  0  0  1  0  0  0  0  0999 V2000
   -0.0751    0.0708    0.0000 F   0  0  0  0  0  0  0  0  0
   -0.0751   -0.7542    0.0000 C   0  0  0  0  0  0  0  0  0
    0.6394   -1.1667    0.0000 C   0  0  0  0  0  0  0  0  0
    1.3539   -0.7542    0.0000 O   0  0  0  0  0  0  0  0  0
    2.0683   -1.1667    0.0000 C   0  0  0  0  0  0  0  0  0
    2.0683   -1.9917    0.0000 C   0  0  0  0  0  0  0  0  0
    2.7828   -2.4042    0.0000 N   0  0  0  0  0  0  0  0  0
    3.4973   -1.9917    0.0000 C   0  0  0  0  0  0  0  0  0
    4.2117   -2.4042    0.0000 C   0  0  0  0  0  0  0  0  0
    4.9262   -1.9917    0.0000 C   0  0  0  0  0  0  0  0  0
    5.6407   -2.4042    0.0000 C   0  0  0  0  0  0  0  0  0
    6.3944   -2.0686    0.0000 C   0  0  0  0  0  0  0  0  0
    6.6493   -1.2840    0.0000 C   0  0  0  0  0  0  0  0  0
    7.4563   -1.1125    0.0000 C   0  0  0  0  0  0  0  0  0
    7.7112   -0.3278    0.0000 F   0  0  0  0  0  0  0  0  0
    8.0083   -1.7256    0.0000 C   0  0  0  0  0  0  0  0  0
    7.7534   -2.5102    0.0000 C   0  0  0  0  0  0  0  0  0
    6.9464   -2.6817    0.0000 C   0  0  0  0  0  0  0  0  0
    6.5339   -3.3962    0.0000 N   0  0  0  0  0  0  0  0  0
    5.7269   -3.2247    0.0000 C   0  0  0  0  0  0  0  0  0
    2.7828   -3.2292    0.0000 C   0  0  0  0  0  0  0  0  0
    1.3539   -2.4042    0.0000 C   0  0  0  0  0  0  0  0  0
    0.6394   -1.9917    0.0000 C   0  0  0  0  0  0  0  0  0
   -0.0751   -2.4042    0.0000 C   0  0  0  0  0  0  0  0  0
   -0.7896   -1.9917    0.0000 C   0  0  0  0  0  0  0  0  0
   -0.7896   -1.1667    0.0000 C   0  0  0  0  0  0  0  0  0
   -0.0751   -3.2292    0.0000 C   0  0  0  0  0  0  0  0  0
   -0.7896   -3.6417    0.0000 O   0  0  0  0  0  0  0  0  0
    0.6394   -3.6417    0.0000 N   0  0  0  0  0  0  0  0  0
  1  2  1  0  0  0  0
  2  3  4  0  0  0  0
  2 26  4  0  0  0  0
  3  4  1  0  0  0  0
  3 23  4  0  0  0  0
  4  5  1  0  0  0  0
  5  6  1  0  0  0  0
  6  7  1  0  0  0  0
  6 22  1  0  0  0  0
  7  8  1  0  0  0  0
  7 21  1  0  0  0  0
  8  9  1  0  0  0  0
  9 10  1  0  0  0  0
 10 11  1  0  0  0  0
 11 12  4  0  0  0  0
 11 20  4  0  0  0  0
 12 13  4  0  0  0  0
 12 18  4  0  0  0  0
 13 14  4  0  0  0  0
 14 15  1  0  0  0  0
 14 16  4  0  0  0  0
 16 17  4  0  0  0  0
 17 18  4  0  0  0  0
 18 19  4  0  0  0  0
 19 20  4  0  0  0  0
 22 23  1  0  0  0  0
 23 24  4  0  0  0  0
 24 25  4  0  0  0  0
 24 27  1  0  0  0  0
 25 26  4  0  0  0  0
 27 28  2  0  0  0  0
 27 29  1  0  0  0  0
M  STY  1   1 DAT
M  SAL   1  1  19
M  SDT   1 MRV_IMPLICIT_H                                        
M  SDD   1     0.0000    0.0000    DR    ALL  0       0  
M  SED   1 IMPL_H1
M  END
>  <Name_Molregno>
353433

>  <5-HT1A>
6.58

$$$$
353469
  Marvin  02231216192D 0   1.00000     0.00000     0

 30 33  0  0  1  0  0  0  0  0999 V2000
    4.9579   -5.5734    0.0000 F   0  0  0  0  0  0  0  0  0
    5.3704   -4.8590    0.0000 C   0  0  0  0  0  0  0  0  0
    4.9579   -4.1445    0.0000 C   0  0  0  0  0  0  0  0  0
    4.1329   -4.1445    0.0000 O   0  0  0  0  0  0  0  0  0
    3.7204   -3.4300    0.0000 C   0  0  0  0  0  0  0  0  0
    4.1329   -2.7156    0.0000 C   0  0  0  0  0  0  0  0  0
    3.7204   -2.0011    0.0000 N   0  0  0  0  0  0  0  0  0
    2.8954   -2.0011    0.0000 C   0  0  0  0  0  0  0  0  0
    2.4829   -1.2866    0.0000 C   0  0  0  0  0  0  0  0  0
    1.6579   -1.2866    0.0000 C   0  0  0  0  0  0  0  0  0
    1.2454   -0.5721    0.0000 C   0  0  0  0  0  0  0  0  0
    0.4249   -0.4859    0.0000 C   0  0  0  0  0  0  0  0  0
   -0.1882   -1.0379    0.0000 C   0  0  0  0  0  0  0  0  0
   -0.9728   -0.7830    0.0000 C   0  0  0  0  0  0  0  0  0
   -1.5859   -1.3350    0.0000 F   0  0  0  0  0  0  0  0  0
   -1.1443    0.0240    0.0000 C   0  0  0  0  0  0  0  0  0
   -0.5312    0.5760    0.0000 C   0  0  0  0  0  0  0  0  0
    0.2534    0.3211    0.0000 C   0  0  0  0  0  0  0  0  0
    0.9679    0.7336    0.0000 N   0  0  0  0  0  0  0  0  0
    1.5809    0.1815    0.0000 C   0  0  0  0  0  0  0  0  0
    4.1329   -1.2866    0.0000 C   0  0  0  0  0  0  0  0  0
    4.9579   -1.2866    0.0000 C   0  0  0  0  0  0  0  0  0
    4.9579   -2.7156    0.0000 C   0  0  0  0  0  0  0  0  0
    5.3704   -3.4300    0.0000 C   0  0  0  0  0  0  0  0  0
    6.1954   -3.4300    0.0000 C   0  0  0  0  0  0  0  0  0
    6.6079   -4.1445    0.0000 C   0  0  0  0  0  0  0  0  0
    6.1954   -4.8590    0.0000 C   0  0  0  0  0  0  0  0  0
    6.6079   -2.7156    0.0000 C   0  0  0  0  0  0  0  0  0
    7.4329   -2.7156    0.0000 O   0  0  0  0  0  0  0  0  0
    6.1954   -2.0011    0.0000 N   0  0  0  0  0  0  0  0  0
  1  2  1  0  0  0  0
  2  3  4  0  0  0  0
  2 27  4  0  0  0  0
  3  4  1  0  0  0  0
  3 24  4  0  0  0  0
  4  5  1  0  0  0  0
  5  6  1  0  0  0  0
  6  7  1  0  0  0  0
  6 23  1  0  0  0  0
  7  8  1  0  0  0  0
  7 21  1  0  0  0  0
  8  9  1  0  0  0  0
  9 10  1  0  0  0  0
 10 11  1  0  0  0  0
 11 12  4  0  0  0  0
 11 20  4  0  0  0  0
 12 13  4  0  0  0  0
 12 18  4  0  0  0  0
 13 14  4  0  0  0  0
 14 15  1  0  0  0  0
 14 16  4  0  0  0  0
 16 17  4  0  0  0  0
 17 18  4  0  0  0  0
 18 19  4  0  0  0  0
 19 20  4  0  0  0  0
 21 22  1  0  0  0  0
 23 24  1  0  0  0  0
 24 25  4  0  0  0  0
 25 26  4  0  0  0  0
 25 28  1  0  0  0  0
 26 27  4  0  0  0  0
 28 29  2  0  0  0  0
 28 30  1  0  0  0  0
M  STY  1   1 DAT
M  SAL   1  1  19
M  SDT   1 MRV_IMPLICIT_H                                        
M  SDD   1     0.0000    0.0000    DR    ALL  0       0  
M  SED   1 IMPL_H1
M  END
>  <Name_Molregno>
353469

>  <5-HT1A>
7.6

$$$$
353497
  Marvin  02231216192D 0   1.00000     0.00000     0

 31 34  0  0  1  0  0  0  0  0999 V2000
    3.5902   -4.2850    0.0000 F   0  0  0  0  0  0  0  0  0
    4.3047   -3.8725    0.0000 C   0  0  0  0  0  0  0  0  0
    4.3047   -3.0475    0.0000 C   0  0  0  0  0  0  0  0  0
    3.5902   -2.6350    0.0000 O   0  0  0  0  0  0  0  0  0
    3.5902   -1.8100    0.0000 C   0  0  0  0  0  0  0  0  0
    4.3047   -1.3975    0.0000 C   0  0  0  0  0  0  0  0  0
    4.3047   -0.5725    0.0000 N   0  0  0  0  0  0  0  0  0
    3.5902   -0.1600    0.0000 C   0  0  0  0  0  0  0  0  0
    3.5902    0.6650    0.0000 C   0  0  0  0  0  0  0  0  0
    2.8757    1.0775    0.0000 C   0  0  0  0  0  0  0  0  0
    2.8757    1.9025    0.0000 C   0  0  0  0  0  0  0  0  0
    2.2083    2.3875    0.0000 C   0  0  0  0  0  0  0  0  0
    1.4013    2.2159    0.0000 C   0  0  0  0  0  0  0  0  0
    0.8493    2.8290    0.0000 C   0  0  0  0  0  0  0  0  0
    0.0423    2.6575    0.0000 F   0  0  0  0  0  0  0  0  0
    1.1042    3.6136    0.0000 C   0  0  0  0  0  0  0  0  0
    1.9112    3.7852    0.0000 C   0  0  0  0  0  0  0  0  0
    2.4632    3.1721    0.0000 C   0  0  0  0  0  0  0  0  0
    3.2882    3.1721    0.0000 N   0  0  0  0  0  0  0  0  0
    3.5432    2.3875    0.0000 C   0  0  0  0  0  0  0  0  0
    5.0191   -0.1600    0.0000 C   0  0  0  0  0  0  0  0  0
    5.0191    0.6650    0.0000 C   0  0  0  0  0  0  0  0  0
    5.7336    1.0775    0.0000 C   0  0  0  0  0  0  0  0  0
    5.0191   -1.8100    0.0000 C   0  0  0  0  0  0  0  0  0
    5.0191   -2.6350    0.0000 C   0  0  0  0  0  0  0  0  0
    5.7336   -3.0475    0.0000 C   0  0  0  0  0  0  0  0  0
    5.7336   -3.8725    0.0000 C   0  0  0  0  0  0  0  0  0
    5.0191   -4.2850    0.0000 C   0  0  0  0  0  0  0  0  0
    6.4481   -2.6350    0.0000 C   0  0  0  0  0  0  0  0  0
    7.1625   -3.0475    0.0000 O   0  0  0  0  0  0  0  0  0
    6.4481   -1.8100    0.0000 N   0  0  0  0  0  0  0  0  0
  1  2  1  0  0  0  0
  2  3  4  0  0  0  0
  2 28  4  0  0  0  0
  3  4  1  0  0  0  0
  3 25  4  0  0  0  0
  4  5  1  0  0  0  0
  5  6  1  0  0  0  0
  6  7  1  0  0  0  0
  6 24  1  0  0  0  0
  7  8  1  0  0  0  0
  7 21  1  0  0  0  0
  8  9  1  0  0  0  0
  9 10  1  0  0  0  0
 10 11  1  0  0  0  0
 11 12  4  0  0  0  0
 11 20  4  0  0  0  0
 12 13  4  0  0  0  0
 12 18  4  0  0  0  0
 13 14  4  0  0  0  0
 14 15  1  0  0  0  0
 14 16  4  0  0  0  0
 16 17  4  0  0  0  0
 17 18  4  0  0  0  0
 18 19  4  0  0  0  0
 19 20  4  0  0  0  0
 21 22  1  0  0  0  0
 22 23  1  0  0  0  0
 24 25  1  0  0  0  0
 25 26  4  0  0  0  0
 26 27  4  0  0  0  0
 26 29  1  0  0  0  0
 27 28  4  0  0  0  0
 29 30  2  0  0  0  0
 29 31  1  0  0  0  0
M  STY  1   1 DAT
M  SAL   1  1  19
M  SDT   1 MRV_IMPLICIT_H                                        
M  SDD   1     0.0000    0.0000    DR    ALL  0       0  
M  SED   1 IMPL_H1
M  END
>  <Name_Molregno>
353497

>  <5-HT1A>
8.59

$$$$
353530
  Marvin  02231216192D 0   1.00000     0.00000     0

 32 36  0  0  1  0  0  0  0  0999 V2000
    0.6086    0.6476    0.0000 F   0  0  0  0  0  0  0  0  0
    0.6086   -0.1774    0.0000 C   0  0  0  0  0  0  0  0  0
    1.3231   -0.5899    0.0000 C   0  0  0  0  0  0  0  0  0
    2.0376   -0.1774    0.0000 O   0  0  0  0  0  0  0  0  0
    2.7520   -0.5899    0.0000 C   0  0  0  0  0  0  0  0  0
    2.7520   -1.4149    0.0000 C   0  0  0  0  0  0  0  0  0
    3.4665   -1.8274    0.0000 N   0  0  0  0  0  0  0  0  0
    3.4665   -2.6524    0.0000 C   0  0  0  0  0  0  0  0  0
    2.7520   -3.0649    0.0000 C   0  0  0  0  0  0  0  0  0
    2.3395   -3.7793    0.0000 C   0  0  0  0  0  0  0  0  0
    1.9270   -3.0649    0.0000 C   0  0  0  0  0  0  0  0  0
    4.1810   -1.4149    0.0000 C   0  0  0  0  0  0  0  0  0
    4.8955   -1.8274    0.0000 C   0  0  0  0  0  0  0  0  0
    5.6099   -1.4149    0.0000 C   0  0  0  0  0  0  0  0  0
    6.3244   -1.8274    0.0000 C   0  0  0  0  0  0  0  0  0
    7.0781   -1.4918    0.0000 C   0  0  0  0  0  0  0  0  0
    7.3330   -0.7072    0.0000 C   0  0  0  0  0  0  0  0  0
    8.1400   -0.5357    0.0000 C   0  0  0  0  0  0  0  0  0
    8.3949    0.2490    0.0000 F   0  0  0  0  0  0  0  0  0
    8.6920   -1.1487    0.0000 C   0  0  0  0  0  0  0  0  0
    8.4371   -1.9334    0.0000 C   0  0  0  0  0  0  0  0  0
    7.6301   -2.1049    0.0000 C   0  0  0  0  0  0  0  0  0
    7.2176   -2.8194    0.0000 N   0  0  0  0  0  0  0  0  0
    6.4106   -2.6478    0.0000 C   0  0  0  0  0  0  0  0  0
    2.0376   -1.8274    0.0000 C   0  0  0  0  0  0  0  0  0
    1.3231   -1.4149    0.0000 C   0  0  0  0  0  0  0  0  0
    0.6086   -1.8274    0.0000 C   0  0  0  0  0  0  0  0  0
   -0.1058   -1.4149    0.0000 C   0  0  0  0  0  0  0  0  0
   -0.1058   -0.5899    0.0000 C   0  0  0  0  0  0  0  0  0
    0.6086   -2.6524    0.0000 C   0  0  0  0  0  0  0  0  0
   -0.1058   -3.0649    0.0000 O   0  0  0  0  0  0  0  0  0
    1.3231   -3.0649    0.0000 N   0  0  0  0  0  0  0  0  0
  1  2  1  0  0  0  0
  2  3  4  0  0  0  0
  2 29  4  0  0  0  0
  3  4  1  0  0  0  0
  3 26  4  0  0  0  0
  4  5  1  0  0  0  0
  5  6  1  0  0  0  0
  6  7  1  0  0  0  0
  6 25  1  0  0  0  0
  7  8  1  0  0  0  0
  7 12  1  0  0  0  0
  8  9  1  0  0  0  0
  9 10  1  0  0  0  0
  9 11  1  0  0  0  0
 10 11  1  0  0  0  0
 12 13  1  0  0  0  0
 13 14  1  0  0  0  0
 14 15  1  0  0  0  0
 15 16  4  0  0  0  0
 15 24  4  0  0  0  0
 16 17  4  0  0  0  0
 16 22  4  0  0  0  0
 17 18  4  0  0  0  0
 18 19  1  0  0  0  0
 18 20  4  0  0  0  0
 20 21  4  0  0  0  0
 21 22  4  0  0  0  0
 22 23  4  0  0  0  0
 23 24  4  0  0  0  0
 25 26  1  0  0  0  0
 26 27  4  0  0  0  0
 27 28  4  0  0  0  0
 27 30  1  0  0  0  0
 28 29  4  0  0  0  0
 30 31  2  0  0  0  0
 30 32  1  0  0  0  0
M  STY  1   1 DAT
M  SAL   1  1  23
M  SDT   1 MRV_IMPLICIT_H                                        
M  SDD   1     0.0000    0.0000    DR    ALL  0       0  
M  SED   1 IMPL_H1
M  END
>  <Name_Molregno>
353530

>  <5-HT1A>
9.11

$$$$
353672
  Marvin  02231216192D 0   1.00000     0.00000     0

 32 36  0  0  1  0  0  0  0  0999 V2000
    0.6038    0.6317    0.0000 F   0  0  0  0  0  0  0  0  0
    0.6038   -0.1933    0.0000 C   0  0  0  0  0  0  0  0  0
    1.3183   -0.6058    0.0000 C   0  0  0  0  0  0  0  0  0
    2.0327   -0.1933    0.0000 O   0  0  0  0  0  0  0  0  0
    2.7472   -0.6058    0.0000 C   0  0  0  0  0  0  0  0  0
    2.7472   -1.4308    0.0000 C   0  0  0  0  0  0  0  0  0
    3.4617   -1.8433    0.0000 N   0  0  0  0  0  0  0  0  0
    4.1761   -1.4308    0.0000 C   0  0  0  0  0  0  0  0  0
    4.8906   -1.8433    0.0000 C   0  0  0  0  0  0  0  0  0
    5.6051   -1.4308    0.0000 C   0  0  0  0  0  0  0  0  0
    6.3196   -1.8433    0.0000 C   0  0  0  0  0  0  0  0  0
    7.0732   -1.5077    0.0000 C   0  0  0  0  0  0  0  0  0
    7.3282   -0.7231    0.0000 C   0  0  0  0  0  0  0  0  0
    8.1351   -0.5516    0.0000 C   0  0  0  0  0  0  0  0  0
    8.3901    0.2331    0.0000 F   0  0  0  0  0  0  0  0  0
    8.6872   -1.1646    0.0000 C   0  0  0  0  0  0  0  0  0
    8.4322   -1.9493    0.0000 C   0  0  0  0  0  0  0  0  0
    7.6253   -2.1208    0.0000 C   0  0  0  0  0  0  0  0  0
    7.2128   -2.8353    0.0000 N   0  0  0  0  0  0  0  0  0
    6.4058   -2.6637    0.0000 C   0  0  0  0  0  0  0  0  0
    3.4617   -2.6683    0.0000 C   0  0  0  0  0  0  0  0  0
    4.0450   -3.2516    0.0000 C   0  0  0  0  0  0  0  0  0
    3.4617   -3.8350    0.0000 C   0  0  0  0  0  0  0  0  0
    2.8783   -3.2516    0.0000 C   0  0  0  0  0  0  0  0  0
    2.0327   -1.8433    0.0000 C   0  0  0  0  0  0  0  0  0
    1.3183   -1.4308    0.0000 C   0  0  0  0  0  0  0  0  0
    0.6038   -1.8433    0.0000 C   0  0  0  0  0  0  0  0  0
   -0.1107   -1.4308    0.0000 C   0  0  0  0  0  0  0  0  0
   -0.1107   -0.6058    0.0000 C   0  0  0  0  0  0  0  0  0
    0.6038   -2.6683    0.0000 C   0  0  0  0  0  0  0  0  0
   -0.1107   -3.0808    0.0000 O   0  0  0  0  0  0  0  0  0
    1.3183   -3.0808    0.0000 N   0  0  0  0  0  0  0  0  0
  1  2  1  0  0  0  0
  2  3  4  0  0  0  0
  2 29  4  0  0  0  0
  3  4  1  0  0  0  0
  3 26  4  0  0  0  0
  4  5  1  0  0  0  0
  5  6  1  0  0  0  0
  6  7  1  0  0  0  0
  6 25  1  0  0  0  0
  7  8  1  0  0  0  0
  7 21  1  0  0  0  0
  8  9  1  0  0  0  0
  9 10  1  0  0  0  0
 10 11  1  0  0  0  0
 11 12  4  0  0  0  0
 11 20  4  0  0  0  0
 12 13  4  0  0  0  0
 12 18  4  0  0  0  0
 13 14  4  0  0  0  0
 14 15  1  0  0  0  0
 14 16  4  0  0  0  0
 16 17  4  0  0  0  0
 17 18  4  0  0  0  0
 18 19  4  0  0  0  0
 19 20  4  0  0  0  0
 21 22  1  0  0  0  0
 21 24  1  0  0  0  0
 22 23  1  0  0  0  0
 23 24  1  0  0  0  0
 25 26  1  0  0  0  0
 26 27  4  0  0  0  0
 27 28  4  0  0  0  0
 27 30  1  0  0  0  0
 28 29  4  0  0  0  0
 30 31  2  0  0  0  0
 30 32  1  0  0  0  0
M  STY  1   1 DAT
M  SAL   1  1  19
M  SDT   1 MRV_IMPLICIT_H                                        
M  SDD   1     0.0000    0.0000    DR    ALL  0       0  
M  SED   1 IMPL_H1
M  END
>  <Name_Molregno>
353672

>  <5-HT1A>
7.85

$$$$
353716
  Marvin  02231216192D 0   1.00000     0.00000     0

 27 30  0  0  1  0  0  0  0  0999 V2000
   -0.0183    0.2971    0.0000 F   0  0  0  0  0  0  0  0  0
    0.2366   -0.4875    0.0000 C   0  0  0  0  0  0  0  0  0
    1.0436   -0.6590    0.0000 C   0  0  0  0  0  0  0  0  0
    1.2985   -1.4436    0.0000 C   0  0  0  0  0  0  0  0  0
    0.7465   -2.0567    0.0000 C   0  0  0  0  0  0  0  0  0
    1.1590   -2.7712    0.0000 N   0  0  0  0  0  0  0  0  0
    1.9659   -2.5997    0.0000 C   0  0  0  0  0  0  0  0  0
    2.0522   -1.7792    0.0000 C   0  0  0  0  0  0  0  0  0
    2.7667   -1.3667    0.0000 C   0  0  0  0  0  0  0  0  0
    3.4811   -1.7792    0.0000 C   0  0  0  0  0  0  0  0  0
    4.1956   -1.3667    0.0000 C   0  0  0  0  0  0  0  0  0
    4.9101   -1.7792    0.0000 N   0  0  0  0  0  0  0  0  0
    4.9101   -2.6042    0.0000 C   0  0  0  0  0  0  0  0  0
    5.6245   -1.3667    0.0000 C   0  0  0  0  0  0  0  0  0
    6.3390   -1.7792    0.0000 C   0  0  0  0  0  0  0  0  0
    7.0535   -1.3667    0.0000 C   0  0  0  0  0  0  0  0  0
    7.0535   -0.5417    0.0000 C   0  0  0  0  0  0  0  0  0
    6.3390   -0.1292    0.0000 O   0  0  0  0  0  0  0  0  0
    5.6245   -0.5417    0.0000 C   0  0  0  0  0  0  0  0  0
    7.7679   -0.1292    0.0000 C   0  0  0  0  0  0  0  0  0
    8.4824   -0.5417    0.0000 C   0  0  0  0  0  0  0  0  0
    8.4824   -1.3667    0.0000 C   0  0  0  0  0  0  0  0  0
    7.7679   -1.7792    0.0000 C   0  0  0  0  0  0  0  0  0
    7.7679   -2.6042    0.0000 O   0  0  0  0  0  0  0  0  0
    8.4824   -3.0167    0.0000 C   0  0  0  0  0  0  0  0  0
   -0.0605   -1.8852    0.0000 C   0  0  0  0  0  0  0  0  0
   -0.3154   -1.1006    0.0000 C   0  0  0  0  0  0  0  0  0
  1  2  1  0  0  0  0
  2  3  4  0  0  0  0
  2 27  4  0  0  0  0
  3  4  4  0  0  0  0
  4  5  4  0  0  0  0
  4  8  4  0  0  0  0
  5  6  4  0  0  0  0
  5 26  4  0  0  0  0
  6  7  4  0  0  0  0
  7  8  4  0  0  0  0
  8  9  1  0  0  0  0
  9 10  1  0  0  0  0
 10 11  1  0  0  0  0
 11 12  1  0  0  0  0
 12 13  1  0  0  0  0
 12 14  1  0  0  0  0
 14 15  1  0  0  0  0
 14 19  1  0  0  0  0
 15 16  1  0  0  0  0
 16 17  4  0  0  0  0
 16 23  4  0  0  0  0
 17 18  1  0  0  0  0
 17 20  4  0  0  0  0
 18 19  1  0  0  0  0
 20 21  4  0  0  0  0
 21 22  4  0  0  0  0
 22 23  4  0  0  0  0
 23 24  1  0  0  0  0
 24 25  1  0  0  0  0
 26 27  4  0  0  0  0
M  STY  1   1 DAT
M  SAL   1  1   6
M  SDT   1 MRV_IMPLICIT_H                                        
M  SDD   1     0.0000    0.0000    DR    ALL  0       0  
M  SED   1 IMPL_H1
M  END
>  <Name_Molregno>
353716

>  <5-HT1A>
7.4

$$$$
353736
  Marvin  02231216192D 0   1.00000     0.00000     0

 28 31  0  0  1  0  0  0  0  0999 V2000
   -1.7677   -3.5725    0.0000 F   0  0  0  0  0  0  0  0  0
   -1.1546   -4.1245    0.0000 C   0  0  0  0  0  0  0  0  0
   -0.3700   -3.8696    0.0000 C   0  0  0  0  0  0  0  0  0
    0.2431   -4.4216    0.0000 C   0  0  0  0  0  0  0  0  0
    0.0716   -5.2286    0.0000 C   0  0  0  0  0  0  0  0  0
    0.7861   -5.6411    0.0000 N   0  0  0  0  0  0  0  0  0
    1.3992   -5.0891    0.0000 C   0  0  0  0  0  0  0  0  0
    1.0636   -4.3354    0.0000 C   0  0  0  0  0  0  0  0  0
    1.4761   -3.6209    0.0000 C   0  0  0  0  0  0  0  0  0
    2.3011   -3.6209    0.0000 C   0  0  0  0  0  0  0  0  0
    2.7136   -2.9065    0.0000 C   0  0  0  0  0  0  0  0  0
    3.5386   -2.9065    0.0000 N   0  0  0  0  0  0  0  0  0
    3.9511   -3.6209    0.0000 C   0  0  0  0  0  0  0  0  0
    3.5386   -4.3354    0.0000 C   0  0  0  0  0  0  0  0  0
    3.9511   -2.1920    0.0000 C   0  0  0  0  0  0  0  0  0
    4.7761   -2.1920    0.0000 C   0  0  0  0  0  0  0  0  0
    5.1886   -1.4775    0.0000 C   0  0  0  0  0  0  0  0  0
    4.7761   -0.7630    0.0000 C   0  0  0  0  0  0  0  0  0
    3.9511   -0.7630    0.0000 O   0  0  0  0  0  0  0  0  0
    3.5386   -1.4775    0.0000 C   0  0  0  0  0  0  0  0  0
    5.1886   -0.0486    0.0000 C   0  0  0  0  0  0  0  0  0
    6.0136   -0.0486    0.0000 C   0  0  0  0  0  0  0  0  0
    6.4261   -0.7630    0.0000 C   0  0  0  0  0  0  0  0  0
    6.0136   -1.4775    0.0000 C   0  0  0  0  0  0  0  0  0
    6.4261   -2.1920    0.0000 O   0  0  0  0  0  0  0  0  0
    7.2511   -2.1920    0.0000 C   0  0  0  0  0  0  0  0  0
   -0.7130   -5.4836    0.0000 C   0  0  0  0  0  0  0  0  0
   -1.3261   -4.9315    0.0000 C   0  0  0  0  0  0  0  0  0
  1  2  1  0  0  0  0
  2  3  4  0  0  0  0
  2 28  4  0  0  0  0
  3  4  4  0  0  0  0
  4  5  4  0  0  0  0
  4  8  4  0  0  0  0
  5  6  4  0  0  0  0
  5 27  4  0  0  0  0
  6  7  4  0  0  0  0
  7  8  4  0  0  0  0
  8  9  1  0  0  0  0
  9 10  1  0  0  0  0
 10 11  1  0  0  0  0
 11 12  1  0  0  0  0
 12 13  1  0  0  0  0
 12 15  1  0  0  0  0
 13 14  1  0  0  0  0
 15 16  1  0  0  0  0
 15 20  1  0  0  0  0
 16 17  1  0  0  0  0
 17 18  4  0  0  0  0
 17 24  4  0  0  0  0
 18 19  1  0  0  0  0
 18 21  4  0  0  0  0
 19 20  1  0  0  0  0
 21 22  4  0  0  0  0
 22 23  4  0  0  0  0
 23 24  4  0  0  0  0
 24 25  1  0  0  0  0
 25 26  1  0  0  0  0
 27 28  4  0  0  0  0
M  STY  1   1 DAT
M  SAL   1  1   6
M  SDT   1 MRV_IMPLICIT_H                                        
M  SDD   1     0.0000    0.0000    DR    ALL  0       0  
M  SED   1 IMPL_H1
M  END
>  <Name_Molregno>
353736

>  <5-HT1A>
8.64

$$$$
353737
  Marvin  02231216192D 0   1.00000     0.00000     0

 29 32  0  0  1  0  0  0  0  0999 V2000
   -1.8878   -3.6579    0.0000 F   0  0  0  0  0  0  0  0  0
   -1.2747   -4.2100    0.0000 C   0  0  0  0  0  0  0  0  0
   -0.4901   -3.9550    0.0000 C   0  0  0  0  0  0  0  0  0
    0.1230   -4.5071    0.0000 C   0  0  0  0  0  0  0  0  0
   -0.0485   -5.3140    0.0000 C   0  0  0  0  0  0  0  0  0
    0.6659   -5.7265    0.0000 N   0  0  0  0  0  0  0  0  0
    1.2790   -5.1745    0.0000 C   0  0  0  0  0  0  0  0  0
    0.9435   -4.4208    0.0000 C   0  0  0  0  0  0  0  0  0
    1.3560   -3.7064    0.0000 C   0  0  0  0  0  0  0  0  0
    2.1810   -3.7064    0.0000 C   0  0  0  0  0  0  0  0  0
    2.5935   -2.9919    0.0000 C   0  0  0  0  0  0  0  0  0
    3.4185   -2.9919    0.0000 N   0  0  0  0  0  0  0  0  0
    3.8310   -3.7064    0.0000 C   0  0  0  0  0  0  0  0  0
    4.6560   -3.7064    0.0000 C   0  0  0  0  0  0  0  0  0
    5.0685   -4.4208    0.0000 C   0  0  0  0  0  0  0  0  0
    3.8310   -2.2774    0.0000 C   0  0  0  0  0  0  0  0  0
    4.6560   -2.2774    0.0000 C   0  0  0  0  0  0  0  0  0
    5.0685   -1.5630    0.0000 C   0  0  0  0  0  0  0  0  0
    4.6560   -0.8485    0.0000 C   0  0  0  0  0  0  0  0  0
    3.8310   -0.8485    0.0000 O   0  0  0  0  0  0  0  0  0
    3.4185   -1.5630    0.0000 C   0  0  0  0  0  0  0  0  0
    5.0685   -0.1340    0.0000 C   0  0  0  0  0  0  0  0  0
    5.8935   -0.1340    0.0000 C   0  0  0  0  0  0  0  0  0
    6.3060   -0.8485    0.0000 C   0  0  0  0  0  0  0  0  0
    5.8935   -1.5630    0.0000 C   0  0  0  0  0  0  0  0  0
    6.3060   -2.2774    0.0000 O   0  0  0  0  0  0  0  0  0
    7.1310   -2.2774    0.0000 C   0  0  0  0  0  0  0  0  0
   -0.8331   -5.5690    0.0000 C   0  0  0  0  0  0  0  0  0
   -1.4462   -5.0170    0.0000 C   0  0  0  0  0  0  0  0  0
  1  2  1  0  0  0  0
  2  3  4  0  0  0  0
  2 29  4  0  0  0  0
  3  4  4  0  0  0  0
  4  5  4  0  0  0  0
  4  8  4  0  0  0  0
  5  6  4  0  0  0  0
  5 28  4  0  0  0  0
  6  7  4  0  0  0  0
  7  8  4  0  0  0  0
  8  9  1  0  0  0  0
  9 10  1  0  0  0  0
 10 11  1  0  0  0  0
 11 12  1  0  0  0  0
 12 13  1  0  0  0  0
 12 16  1  0  0  0  0
 13 14  1  0  0  0  0
 14 15  1  0  0  0  0
 16 17  1  0  0  0  0
 16 21  1  0  0  0  0
 17 18  1  0  0  0  0
 18 19  4  0  0  0  0
 18 25  4  0  0  0  0
 19 20  1  0  0  0  0
 19 22  4  0  0  0  0
 20 21  1  0  0  0  0
 22 23  4  0  0  0  0
 23 24  4  0  0  0  0
 24 25  4  0  0  0  0
 25 26  1  0  0  0  0
 26 27  1  0  0  0  0
 28 29  4  0  0  0  0
M  STY  1   1 DAT
M  SAL   1  1   6
M  SDT   1 MRV_IMPLICIT_H                                        
M  SDD   1     0.0000    0.0000    DR    ALL  0       0  
M  SED   1 IMPL_H1
M  END
>  <Name_Molregno>
353737

>  <5-HT1A>
7.8

$$$$
353738
  Marvin  02231216192D 0   1.00000     0.00000     0

 29 32  0  0  1  0  0  0  0  0999 V2000
    1.2313    2.8329    0.0000 F   0  0  0  0  0  0  0  0  0
    1.2313    2.0079    0.0000 C   0  0  0  0  0  0  0  0  0
    1.9457    1.5954    0.0000 C   0  0  0  0  0  0  0  0  0
    2.6602    2.0079    0.0000 O   0  0  0  0  0  0  0  0  0
    3.3747    1.5954    0.0000 C   0  0  0  0  0  0  0  0  0
    3.3747    0.7704    0.0000 C   0  0  0  0  0  0  0  0  0
    4.0891    0.3579    0.0000 N   0  0  0  0  0  0  0  0  0
    4.0891   -0.4671    0.0000 C   0  0  0  0  0  0  0  0  0
    4.8036   -0.8796    0.0000 C   0  0  0  0  0  0  0  0  0
    4.8036   -1.7046    0.0000 C   0  0  0  0  0  0  0  0  0
    5.4710   -2.1895    0.0000 C   0  0  0  0  0  0  0  0  0
    6.2780   -2.0180    0.0000 C   0  0  0  0  0  0  0  0  0
    6.8300   -2.6311    0.0000 C   0  0  0  0  0  0  0  0  0
    7.6370   -2.4596    0.0000 F   0  0  0  0  0  0  0  0  0
    6.5751   -3.4157    0.0000 C   0  0  0  0  0  0  0  0  0
    5.7681   -3.5873    0.0000 C   0  0  0  0  0  0  0  0  0
    5.2161   -2.9742    0.0000 C   0  0  0  0  0  0  0  0  0
    4.3911   -2.9742    0.0000 N   0  0  0  0  0  0  0  0  0
    4.1362   -2.1895    0.0000 C   0  0  0  0  0  0  0  0  0
    4.8036    0.7704    0.0000 C   0  0  0  0  0  0  0  0  0
    5.5181    0.3579    0.0000 C   0  0  0  0  0  0  0  0  0
    2.6602    0.3579    0.0000 C   0  0  0  0  0  0  0  0  0
    1.9457    0.7704    0.0000 C   0  0  0  0  0  0  0  0  0
    1.2313    0.3579    0.0000 C   0  0  0  0  0  0  0  0  0
    0.5168    0.7704    0.0000 C   0  0  0  0  0  0  0  0  0
    0.5168    1.5954    0.0000 C   0  0  0  0  0  0  0  0  0
    1.2313   -0.4671    0.0000 C   0  0  0  0  0  0  0  0  0
    0.5168   -0.8796    0.0000 O   0  0  0  0  0  0  0  0  0
    1.9457   -0.8796    0.0000 N   0  0  0  0  0  0  0  0  0
  1  2  1  0  0  0  0
  2  3  4  0  0  0  0
  2 26  4  0  0  0  0
  3  4  1  0  0  0  0
  3 23  4  0  0  0  0
  4  5  1  0  0  0  0
  5  6  1  0  0  0  0
  6  7  1  0  0  0  0
  6 22  1  0  0  0  0
  7  8  1  0  0  0  0
  7 20  1  0  0  0  0
  8  9  1  0  0  0  0
  9 10  1  0  0  0  0
 10 11  4  0  0  0  0
 10 19  4  0  0  0  0
 11 12  4  0  0  0  0
 11 17  4  0  0  0  0
 12 13  4  0  0  0  0
 13 14  1  0  0  0  0
 13 15  4  0  0  0  0
 15 16  4  0  0  0  0
 16 17  4  0  0  0  0
 17 18  4  0  0  0  0
 18 19  4  0  0  0  0
 20 21  1  0  0  0  0
 22 23  1  0  0  0  0
 23 24  4  0  0  0  0
 24 25  4  0  0  0  0
 24 27  1  0  0  0  0
 25 26  4  0  0  0  0
 27 28  2  0  0  0  0
 27 29  1  0  0  0  0
M  STY  1   1 DAT
M  SAL   1  1  18
M  SDT   1 MRV_IMPLICIT_H                                        
M  SDD   1     0.0000    0.0000    DR    ALL  0       0  
M  SED   1 IMPL_H1
M  END
>  <Name_Molregno>
353738

>  <5-HT1A>
7.48

$$$$
353739
  Marvin  02231216192D 0   1.00000     0.00000     0

 31 34  0  0  1  0  0  0  0  0999 V2000
   -0.3421    2.5634    0.0000 F   0  0  0  0  0  0  0  0  0
   -1.1671    2.5634    0.0000 C   0  0  0  0  0  0  0  0  0
   -1.5796    1.8490    0.0000 C   0  0  0  0  0  0  0  0  0
   -1.1671    1.1345    0.0000 O   0  0  0  0  0  0  0  0  0
   -1.5796    0.4200    0.0000 C   0  0  0  0  0  0  0  0  0
   -2.4046    0.4200    0.0000 C   0  0  0  0  0  0  0  0  0
   -2.8171   -0.2944    0.0000 N   0  0  0  0  0  0  0  0  0
   -3.6421   -0.2944    0.0000 C   0  0  0  0  0  0  0  0  0
   -4.0546   -1.0089    0.0000 C   0  0  0  0  0  0  0  0  0
   -4.8796   -1.0089    0.0000 C   0  0  0  0  0  0  0  0  0
   -5.2921   -1.7234    0.0000 C   0  0  0  0  0  0  0  0  0
   -6.1171   -1.7234    0.0000 C   0  0  0  0  0  0  0  0  0
   -6.6020   -2.3908    0.0000 C   0  0  0  0  0  0  0  0  0
   -6.4305   -3.1978    0.0000 C   0  0  0  0  0  0  0  0  0
   -7.0436   -3.7498    0.0000 C   0  0  0  0  0  0  0  0  0
   -6.8720   -4.5568    0.0000 F   0  0  0  0  0  0  0  0  0
   -7.8282   -3.4949    0.0000 C   0  0  0  0  0  0  0  0  0
   -7.9997   -2.6879    0.0000 C   0  0  0  0  0  0  0  0  0
   -7.3866   -2.1359    0.0000 C   0  0  0  0  0  0  0  0  0
   -7.3866   -1.3109    0.0000 N   0  0  0  0  0  0  0  0  0
   -6.6020   -1.0559    0.0000 C   0  0  0  0  0  0  0  0  0
   -2.4046   -1.0089    0.0000 C   0  0  0  0  0  0  0  0  0
   -2.8171   -1.7234    0.0000 C   0  0  0  0  0  0  0  0  0
   -2.8171    1.1345    0.0000 C   0  0  0  0  0  0  0  0  0
   -2.4046    1.8490    0.0000 C   0  0  0  0  0  0  0  0  0
   -2.8171    2.5634    0.0000 C   0  0  0  0  0  0  0  0  0
   -2.4046    3.2779    0.0000 C   0  0  0  0  0  0  0  0  0
   -1.5796    3.2779    0.0000 C   0  0  0  0  0  0  0  0  0
   -3.6421    2.5634    0.0000 C   0  0  0  0  0  0  0  0  0
   -4.0546    3.2779    0.0000 O   0  0  0  0  0  0  0  0  0
   -4.0546    1.8490    0.0000 N   0  0  0  0  0  0  0  0  0
  1  2  1  0  0  0  0
  2  3  4  0  0  0  0
  2 28  4  0  0  0  0
  3  4  1  0  0  0  0
  3 25  4  0  0  0  0
  4  5  1  0  0  0  0
  5  6  1  0  0  0  0
  6  7  1  0  0  0  0
  6 24  1  0  0  0  0
  7  8  1  0  0  0  0
  7 22  1  0  0  0  0
  8  9  1  0  0  0  0
  9 10  1  0  0  0  0
 10 11  1  0  0  0  0
 11 12  1  0  0  0  0
 12 13  4  0  0  0  0
 12 21  4  0  0  0  0
 13 14  4  0  0  0  0
 13 19  4  0  0  0  0
 14 15  4  0  0  0  0
 15 16  1  0  0  0  0
 15 17  4  0  0  0  0
 17 18  4  0  0  0  0
 18 19  4  0  0  0  0
 19 20  4  0  0  0  0
 20 21  4  0  0  0  0
 22 23  1  0  0  0  0
 24 25  1  0  0  0  0
 25 26  4  0  0  0  0
 26 27  4  0  0  0  0
 26 29  1  0  0  0  0
 27 28  4  0  0  0  0
 29 30  2  0  0  0  0
 29 31  1  0  0  0  0
M  STY  1   1 DAT
M  SAL   1  1  20
M  SDT   1 MRV_IMPLICIT_H                                        
M  SDD   1     0.0000    0.0000    DR    ALL  0       0  
M  SED   1 IMPL_H1
M  END
>  <Name_Molregno>
353739

>  <5-HT1A>
6.48

$$$$
353765
  Marvin  02231216192D 0   1.00000     0.00000     0

 30 34  0  0  1  0  0  0  0  0999 V2000
   -1.3466   -1.2681    0.0000 F   0  0  0  0  0  0  0  0  0
   -1.0917   -2.0527    0.0000 C   0  0  0  0  0  0  0  0  0
   -0.2847   -2.2243    0.0000 C   0  0  0  0  0  0  0  0  0
   -0.0298   -3.0089    0.0000 C   0  0  0  0  0  0  0  0  0
   -0.5818   -3.6220    0.0000 C   0  0  0  0  0  0  0  0  0
   -0.1693   -4.3364    0.0000 N   0  0  0  0  0  0  0  0  0
    0.6377   -4.1649    0.0000 C   0  0  0  0  0  0  0  0  0
    0.7239   -3.3444    0.0000 C   0  0  0  0  0  0  0  0  0
    1.4384   -2.9319    0.0000 C   0  0  0  0  0  0  0  0  0
    2.1528   -3.3444    0.0000 C   0  0  0  0  0  0  0  0  0
    2.8673   -2.9319    0.0000 C   0  0  0  0  0  0  0  0  0
    3.5818   -3.3444    0.0000 N   0  0  0  0  0  0  0  0  0
    3.5818   -4.1694    0.0000 C   0  0  0  0  0  0  0  0  0
    2.8673   -4.5819    0.0000 C   0  0  0  0  0  0  0  0  0
    2.4548   -5.2964    0.0000 C   0  0  0  0  0  0  0  0  0
    2.0423   -4.5819    0.0000 C   0  0  0  0  0  0  0  0  0
    4.2962   -2.9319    0.0000 C   0  0  0  0  0  0  0  0  0
    5.0107   -3.3444    0.0000 C   0  0  0  0  0  0  0  0  0
    5.7252   -2.9319    0.0000 C   0  0  0  0  0  0  0  0  0
    5.7252   -2.1069    0.0000 C   0  0  0  0  0  0  0  0  0
    5.0107   -1.6944    0.0000 O   0  0  0  0  0  0  0  0  0
    4.2962   -2.1069    0.0000 C   0  0  0  0  0  0  0  0  0
    6.4397   -1.6944    0.0000 C   0  0  0  0  0  0  0  0  0
    7.1541   -2.1069    0.0000 C   0  0  0  0  0  0  0  0  0
    7.1541   -2.9319    0.0000 C   0  0  0  0  0  0  0  0  0
    6.4397   -3.3444    0.0000 C   0  0  0  0  0  0  0  0  0
    6.4397   -4.1694    0.0000 O   0  0  0  0  0  0  0  0  0
    7.1541   -4.5819    0.0000 C   0  0  0  0  0  0  0  0  0
   -1.3888   -3.4504    0.0000 C   0  0  0  0  0  0  0  0  0
   -1.6437   -2.6658    0.0000 C   0  0  0  0  0  0  0  0  0
  1  2  1  0  0  0  0
  2  3  4  0  0  0  0
  2 30  4  0  0  0  0
  3  4  4  0  0  0  0
  4  5  4  0  0  0  0
  4  8  4  0  0  0  0
  5  6  4  0  0  0  0
  5 29  4  0  0  0  0
  6  7  4  0  0  0  0
  7  8  4  0  0  0  0
  8  9  1  0  0  0  0
  9 10  1  0  0  0  0
 10 11  1  0  0  0  0
 11 12  1  0  0  0  0
 12 13  1  0  0  0  0
 12 17  1  0  0  0  0
 13 14  1  0  0  0  0
 14 15  1  0  0  0  0
 14 16  1  0  0  0  0
 15 16  1  0  0  0  0
 17 18  1  0  0  0  0
 17 22  1  0  0  0  0
 18 19  1  0  0  0  0
 19 20  4  0  0  0  0
 19 26  4  0  0  0  0
 20 21  1  0  0  0  0
 20 23  4  0  0  0  0
 21 22  1  0  0  0  0
 23 24  4  0  0  0  0
 24 25  4  0  0  0  0
 25 26  4  0  0  0  0
 26 27  1  0  0  0  0
 27 28  1  0  0  0  0
 29 30  4  0  0  0  0
M  STY  1   1 DAT
M  SAL   1  1   6
M  SDT   1 MRV_IMPLICIT_H                                        
M  SDD   1     0.0000    0.0000    DR    ALL  0       0  
M  SED   1 IMPL_H1
M  END
>  <Name_Molregno>
353765

>  <5-HT1A>
8.77

$$$$
353766
  Marvin  02231216192D 0   1.00000     0.00000     0

 30 34  0  0  1  0  0  0  0  0999 V2000
   -8.8847    0.9976    0.0000 F   0  0  0  0  0  0  0  0  0
   -8.6297    0.2130    0.0000 C   0  0  0  0  0  0  0  0  0
   -7.8227    0.0415    0.0000 C   0  0  0  0  0  0  0  0  0
   -7.5678   -0.7431    0.0000 C   0  0  0  0  0  0  0  0  0
   -8.1198   -1.3562    0.0000 C   0  0  0  0  0  0  0  0  0
   -7.7073   -2.0707    0.0000 N   0  0  0  0  0  0  0  0  0
   -6.9004   -1.8992    0.0000 C   0  0  0  0  0  0  0  0  0
   -6.8141   -1.0787    0.0000 C   0  0  0  0  0  0  0  0  0
   -6.0997   -0.6662    0.0000 C   0  0  0  0  0  0  0  0  0
   -5.3852   -1.0787    0.0000 C   0  0  0  0  0  0  0  0  0
   -4.6707   -0.6662    0.0000 C   0  0  0  0  0  0  0  0  0
   -3.9562   -1.0787    0.0000 N   0  0  0  0  0  0  0  0  0
   -3.9562   -1.9037    0.0000 C   0  0  0  0  0  0  0  0  0
   -3.3729   -2.4871    0.0000 C   0  0  0  0  0  0  0  0  0
   -3.9562   -3.0704    0.0000 C   0  0  0  0  0  0  0  0  0
   -4.5396   -2.4871    0.0000 C   0  0  0  0  0  0  0  0  0
   -3.2418   -0.6662    0.0000 C   0  0  0  0  0  0  0  0  0
   -2.5273   -1.0787    0.0000 C   0  0  0  0  0  0  0  0  0
   -1.8128   -0.6662    0.0000 C   0  0  0  0  0  0  0  0  0
   -1.8128    0.1588    0.0000 C   0  0  0  0  0  0  0  0  0
   -2.5273    0.5713    0.0000 O   0  0  0  0  0  0  0  0  0
   -3.2418    0.1588    0.0000 C   0  0  0  0  0  0  0  0  0
   -1.0984    0.5713    0.0000 C   0  0  0  0  0  0  0  0  0
   -0.3839    0.1588    0.0000 C   0  0  0  0  0  0  0  0  0
   -0.3839   -0.6662    0.0000 C   0  0  0  0  0  0  0  0  0
   -1.0984   -1.0787    0.0000 C   0  0  0  0  0  0  0  0  0
   -1.0984   -1.9037    0.0000 O   0  0  0  0  0  0  0  0  0
   -0.3839   -2.3162    0.0000 C   0  0  0  0  0  0  0  0  0
   -8.9268   -1.1847    0.0000 C   0  0  0  0  0  0  0  0  0
   -9.1817   -0.4001    0.0000 C   0  0  0  0  0  0  0  0  0
  1  2  1  0  0  0  0
  2  3  4  0  0  0  0
  2 30  4  0  0  0  0
  3  4  4  0  0  0  0
  4  5  4  0  0  0  0
  4  8  4  0  0  0  0
  5  6  4  0  0  0  0
  5 29  4  0  0  0  0
  6  7  4  0  0  0  0
  7  8  4  0  0  0  0
  8  9  1  0  0  0  0
  9 10  1  0  0  0  0
 10 11  1  0  0  0  0
 11 12  1  0  0  0  0
 12 13  1  0  0  0  0
 12 17  1  0  0  0  0
 13 14  1  0  0  0  0
 13 16  1  0  0  0  0
 14 15  1  0  0  0  0
 15 16  1  0  0  0  0
 17 18  1  0  0  0  0
 17 22  1  0  0  0  0
 18 19  1  0  0  0  0
 19 20  4  0  0  0  0
 19 26  4  0  0  0  0
 20 21  1  0  0  0  0
 20 23  4  0  0  0  0
 21 22  1  0  0  0  0
 23 24  4  0  0  0  0
 24 25  4  0  0  0  0
 25 26  4  0  0  0  0
 26 27  1  0  0  0  0
 27 28  1  0  0  0  0
 29 30  4  0  0  0  0
M  STY  1   1 DAT
M  SAL   1  1   6
M  SDT   1 MRV_IMPLICIT_H                                        
M  SDD   1     0.0000    0.0000    DR    ALL  0       0  
M  SED   1 IMPL_H1
M  END
>  <Name_Molregno>
353766

>  <5-HT1A>
8.24

$$$$
353789
  Marvin  02231216192D 0   1.00000     0.00000     0

 28 31  0  0  1  0  0  0  0  0999 V2000
   -0.0714    0.0768    0.0000 F   0  0  0  0  0  0  0  0  0
   -0.0714   -0.7482    0.0000 C   0  0  0  0  0  0  0  0  0
    0.6431   -1.1607    0.0000 C   0  0  0  0  0  0  0  0  0
    1.3575   -0.7482    0.0000 O   0  0  0  0  0  0  0  0  0
    2.0720   -1.1607    0.0000 C   0  0  0  0  0  0  0  0  0
    2.0720   -1.9857    0.0000 C   0  0  0  0  0  0  0  0  0
    2.7865   -2.3982    0.0000 N   0  0  0  0  0  0  0  0  0
    3.5010   -1.9857    0.0000 C   0  0  0  0  0  0  0  0  0
    4.2154   -2.3982    0.0000 C   0  0  0  0  0  0  0  0  0
    4.9299   -1.9857    0.0000 C   0  0  0  0  0  0  0  0  0
    5.6444   -2.3982    0.0000 C   0  0  0  0  0  0  0  0  0
    6.3980   -2.0627    0.0000 C   0  0  0  0  0  0  0  0  0
    6.6530   -1.2780    0.0000 C   0  0  0  0  0  0  0  0  0
    7.4600   -1.1065    0.0000 C   0  0  0  0  0  0  0  0  0
    7.7149   -0.3219    0.0000 F   0  0  0  0  0  0  0  0  0
    8.0120   -1.7196    0.0000 C   0  0  0  0  0  0  0  0  0
    7.7571   -2.5042    0.0000 C   0  0  0  0  0  0  0  0  0
    6.9501   -2.6758    0.0000 C   0  0  0  0  0  0  0  0  0
    6.5376   -3.3902    0.0000 N   0  0  0  0  0  0  0  0  0
    5.7306   -3.2187    0.0000 C   0  0  0  0  0  0  0  0  0
    1.3575   -2.3982    0.0000 C   0  0  0  0  0  0  0  0  0
    0.6431   -1.9857    0.0000 C   0  0  0  0  0  0  0  0  0
   -0.0714   -2.3982    0.0000 C   0  0  0  0  0  0  0  0  0
   -0.7859   -1.9857    0.0000 C   0  0  0  0  0  0  0  0  0
   -0.7859   -1.1607    0.0000 C   0  0  0  0  0  0  0  0  0
   -0.0714   -3.2232    0.0000 C   0  0  0  0  0  0  0  0  0
   -0.7859   -3.6357    0.0000 O   0  0  0  0  0  0  0  0  0
    0.6431   -3.6357    0.0000 N   0  0  0  0  0  0  0  0  0
  1  2  1  0  0  0  0
  2  3  4  0  0  0  0
  2 25  4  0  0  0  0
  3  4  1  0  0  0  0
  3 22  4  0  0  0  0
  4  5  1  0  0  0  0
  5  6  1  0  0  0  0
  6  7  1  0  0  0  0
  6 21  1  0  0  0  0
  7  8  1  0  0  0  0
  8  9  1  0  0  0  0
  9 10  1  0  0  0  0
 10 11  1  0  0  0  0
 11 12  4  0  0  0  0
 11 20  4  0  0  0  0
 12 13  4  0  0  0  0
 12 18  4  0  0  0  0
 13 14  4  0  0  0  0
 14 15  1  0  0  0  0
 14 16  4  0  0  0  0
 16 17  4  0  0  0  0
 17 18  4  0  0  0  0
 18 19  4  0  0  0  0
 19 20  4  0  0  0  0
 21 22  1  0  0  0  0
 22 23  4  0  0  0  0
 23 24  4  0  0  0  0
 23 26  1  0  0  0  0
 24 25  4  0  0  0  0
 26 27  2  0  0  0  0
 26 28  1  0  0  0  0
M  STY  1   1 DAT
M  SAL   1  1  19
M  SDT   1 MRV_IMPLICIT_H                                        
M  SDD   1     0.0000    0.0000    DR    ALL  0       0  
M  SED   1 IMPL_H1
M  END
>  <Name_Molregno>
353789

>  <5-HT1A>
7.34

$$$$
354026
  Marvin  02231216192D 0   1.00000     0.00000     0

 31 34  0  0  0  0  0  0  0  0999 V2000
    5.2194    1.3362    0.0000 Cl  0  0  0  0  0  0  0  0  0
    4.5049    0.9237    0.0000 C   0  0  0  0  0  0  0  0  0
    4.5049    0.0987    0.0000 C   0  0  0  0  0  0  0  0  0
    3.7904   -0.3138    0.0000 C   0  0  0  0  0  0  0  0  0
    3.0759    0.0987    0.0000 C   0  0  0  0  0  0  0  0  0
    3.0759    0.9237    0.0000 C   0  0  0  0  0  0  0  0  0
    3.7904    1.3362    0.0000 C   0  0  0  0  0  0  0  0  0
    3.7904    2.1612    0.0000 Cl  0  0  0  0  0  0  0  0  0
    3.7904   -1.1388    0.0000 C   0  0  0  0  0  0  0  0  0
    4.4578   -1.6237    0.0000 C   0  0  0  0  0  0  0  0  0
    4.2029   -2.4084    0.0000 C   0  0  0  0  0  0  0  0  0
    3.3779   -2.4084    0.0000 N   0  0  0  0  0  0  0  0  0
    3.1230   -1.6237    0.0000 C   0  0  0  0  0  0  0  0  0
    2.3383   -1.3688    0.0000 O   0  0  0  0  0  0  0  0  0
    2.8930   -3.0758    0.0000 C   0  0  0  0  0  0  0  0  0
    3.2285   -3.8295    0.0000 C   0  0  0  0  0  0  0  0  0
    2.7436   -4.4969    0.0000 C   0  0  0  0  0  0  0  0  0
    3.0792   -5.2506    0.0000 O   0  0  0  0  0  0  0  0  0
    2.5943   -5.9180    0.0000 C   0  0  0  0  0  0  0  0  0
    2.9298   -6.6717    0.0000 C   0  0  0  0  0  0  0  0  0
    2.4449   -7.3391    0.0000 N   0  0  0  0  0  0  0  0  0
    2.7804   -8.0928    0.0000 C   0  0  0  0  0  0  0  0  0
    2.2955   -8.7602    0.0000 C   0  0  0  0  0  0  0  0  0
    1.4750   -8.6740    0.0000 C   0  0  0  0  0  0  0  0  0
    1.1395   -7.9203    0.0000 C   0  0  0  0  0  0  0  0  0
    1.6244   -7.2529    0.0000 C   0  0  0  0  0  0  0  0  0
    1.9231   -4.4107    0.0000 C   0  0  0  0  0  0  0  0  0
    1.4382   -5.0781    0.0000 O   0  0  0  0  0  0  0  0  0
    0.6177   -4.9919    0.0000 C   0  0  0  0  0  0  0  0  0
    1.5876   -3.6570    0.0000 C   0  0  0  0  0  0  0  0  0
    2.0725   -2.9896    0.0000 C   0  0  0  0  0  0  0  0  0
  1  2  1  0  0  0  0
  2  3  4  0  0  0  0
  2  7  4  0  0  0  0
  3  4  4  0  0  0  0
  4  5  4  0  0  0  0
  4  9  1  0  0  0  0
  5  6  4  0  0  0  0
  6  7  4  0  0  0  0
  7  8  1  0  0  0  0
  9 10  2  0  0  0  0
  9 13  1  0  0  0  0
 10 11  1  0  0  0  0
 11 12  1  0  0  0  0
 12 13  1  0  0  0  0
 12 15  1  0  0  0  0
 13 14  2  0  0  0  0
 15 16  4  0  0  0  0
 15 31  4  0  0  0  0
 16 17  4  0  0  0  0
 17 18  1  0  0  0  0
 17 27  4  0  0  0  0
 18 19  1  0  0  0  0
 19 20  1  0  0  0  0
 20 21  1  0  0  0  0
 21 22  1  0  0  0  0
 21 26  1  0  0  0  0
 22 23  1  0  0  0  0
 23 24  1  0  0  0  0
 24 25  1  0  0  0  0
 25 26  1  0  0  0  0
 27 28  1  0  0  0  0
 27 30  4  0  0  0  0
 28 29  1  0  0  0  0
 30 31  4  0  0  0  0
M  END
>  <Name_Molregno>
354026

>  <5-HT1A>
5.5

>  <5-HT1B>
5.5

>  <5-HT1D>
5.5

>  <5-HT2A>
6.2

>  <5-HT2C>
9.1

>  <5-HT6>
5.5

>  <5-HT7>
5.5

>  <Alpha-1A>
5.74

>  <Alpha-1B>
5.74

>  <DOPAMINE D3>
6.34

$$$$
360937
  Marvin  02231216192D 0   1.00000     0.00000     0

 22 24  0  0  0  0  0  0  0  0999 V2000
   -1.7129   -0.4546    0.0000 O   0  0  0  0  0  0  0  0  0
   -2.4274   -0.8671    0.0000 C   0  0  0  0  0  0  0  0  0
   -2.4274   -1.6921    0.0000 C   0  0  0  0  0  0  0  0  0
   -1.7129   -2.1046    0.0000 N   0  0  0  0  0  0  0  0  0
   -1.7129   -2.9296    0.0000 C   0  0  0  0  0  0  0  0  0
   -2.4274   -3.3421    0.0000 C   0  0  0  0  0  0  0  0  0
   -3.1418   -2.9296    0.0000 C   0  0  0  0  0  0  0  0  0
   -3.1418   -2.1046    0.0000 C   0  0  0  0  0  0  0  0  0
   -1.7129    0.3704    0.0000 C   0  0  0  0  0  0  0  0  0
   -2.4274    0.7829    0.0000 C   0  0  0  0  0  0  0  0  0
   -2.4274    1.6079    0.0000 C   0  0  0  0  0  0  0  0  0
   -1.7129    2.0204    0.0000 C   0  0  0  0  0  0  0  0  0
   -0.9984    1.6079    0.0000 C   0  0  0  0  0  0  0  0  0
   -0.9984    0.7829    0.0000 C   0  0  0  0  0  0  0  0  0
   -0.2840    0.3704    0.0000 C   0  0  0  0  0  0  0  0  0
    0.4305    0.7829    0.0000 C   0  0  0  0  0  0  0  0  0
    1.1450    0.3704    0.0000 C   0  0  0  0  0  0  0  0  0
    1.8595    0.7829    0.0000 C   0  0  0  0  0  0  0  0  0
    2.5739    0.3704    0.0000 C   0  0  0  0  0  0  0  0  0
    2.5739   -0.4546    0.0000 C   0  0  0  0  0  0  0  0  0
    1.8595   -0.8671    0.0000 C   0  0  0  0  0  0  0  0  0
    1.1450   -0.4546    0.0000 C   0  0  0  0  0  0  0  0  0
  1  2  1  0  0  0  0
  1  9  1  0  0  0  0
  2  3  1  0  0  0  0
  3  4  4  0  0  0  0
  3  8  4  0  0  0  0
  4  5  4  0  0  0  0
  5  6  4  0  0  0  0
  6  7  4  0  0  0  0
  7  8  4  0  0  0  0
  9 10  4  0  0  0  0
  9 14  4  0  0  0  0
 10 11  4  0  0  0  0
 11 12  4  0  0  0  0
 12 13  4  0  0  0  0
 13 14  4  0  0  0  0
 14 15  1  0  0  0  0
 15 16  1  0  0  0  0
 16 17  1  0  0  0  0
 17 18  4  0  0  0  0
 17 22  4  0  0  0  0
 18 19  4  0  0  0  0
 19 20  4  0  0  0  0
 20 21  4  0  0  0  0
 21 22  4  0  0  0  0
M  END
>  <Name_Molregno>
360937

>  <5-HT1A>
5.3

>  <DOPAMINE D2>
5.3

$$$$
360952
  Marvin  02231216192D 0   1.00000     0.00000     0

 24 26  0  0  0  0  0  0  0  0999 V2000
   -2.4359   -0.6460    0.0000 O   0  0  0  0  0  0  0  0  0
   -3.1504   -1.0585    0.0000 C   0  0  0  0  0  0  0  0  0
   -3.1504   -1.8835    0.0000 C   0  0  0  0  0  0  0  0  0
   -2.4359   -2.2960    0.0000 N   0  0  0  0  0  0  0  0  0
   -2.4359   -3.1210    0.0000 C   0  0  0  0  0  0  0  0  0
   -3.1504   -3.5335    0.0000 C   0  0  0  0  0  0  0  0  0
   -3.8649   -3.1210    0.0000 C   0  0  0  0  0  0  0  0  0
   -3.8649   -2.2960    0.0000 C   0  0  0  0  0  0  0  0  0
   -2.4359    0.1790    0.0000 C   0  0  0  0  0  0  0  0  0
   -3.1504    0.5915    0.0000 C   0  0  0  0  0  0  0  0  0
   -3.1504    1.4165    0.0000 C   0  0  0  0  0  0  0  0  0
   -2.4359    1.8290    0.0000 C   0  0  0  0  0  0  0  0  0
   -1.7214    1.4165    0.0000 C   0  0  0  0  0  0  0  0  0
   -1.7214    0.5915    0.0000 C   0  0  0  0  0  0  0  0  0
   -1.0070    0.1790    0.0000 C   0  0  0  0  0  0  0  0  0
   -0.2925    0.5915    0.0000 C   0  0  0  0  0  0  0  0  0
    0.4220    0.1790    0.0000 C   0  0  0  0  0  0  0  0  0
    1.1364    0.5915    0.0000 C   0  0  0  0  0  0  0  0  0
    1.8509    0.1790    0.0000 C   0  0  0  0  0  0  0  0  0
    2.5654    0.5915    0.0000 O   0  0  0  0  0  0  0  0  0
    3.2798    0.1790    0.0000 C   0  0  0  0  0  0  0  0  0
    1.8509   -0.6460    0.0000 C   0  0  0  0  0  0  0  0  0
    1.1364   -1.0585    0.0000 C   0  0  0  0  0  0  0  0  0
    0.4220   -0.6460    0.0000 C   0  0  0  0  0  0  0  0  0
  1  2  1  0  0  0  0
  1  9  1  0  0  0  0
  2  3  1  0  0  0  0
  3  4  4  0  0  0  0
  3  8  4  0  0  0  0
  4  5  4  0  0  0  0
  5  6  4  0  0  0  0
  6  7  4  0  0  0  0
  7  8  4  0  0  0  0
  9 10  4  0  0  0  0
  9 14  4  0  0  0  0
 10 11  4  0  0  0  0
 11 12  4  0  0  0  0
 12 13  4  0  0  0  0
 13 14  4  0  0  0  0
 14 15  1  0  0  0  0
 15 16  1  0  0  0  0
 16 17  1  0  0  0  0
 17 18  4  0  0  0  0
 17 24  4  0  0  0  0
 18 19  4  0  0  0  0
 19 20  1  0  0  0  0
 19 22  4  0  0  0  0
 20 21  1  0  0  0  0
 22 23  4  0  0  0  0
 23 24  4  0  0  0  0
M  END
>  <Name_Molregno>
360952

>  <5-HT1A>
5.3

>  <DOPAMINE D2>
5.3

$$$$
360967
  Marvin  02231216192D 0   1.00000     0.00000     0

 22 24  0  0  0  0  0  0  0  0999 V2000
   -1.7129   -0.4546    0.0000 O   0  0  0  0  0  0  0  0  0
   -2.4274   -0.8671    0.0000 C   0  0  0  0  0  0  0  0  0
   -2.4274   -1.6921    0.0000 C   0  0  0  0  0  0  0  0  0
   -1.7129   -2.1046    0.0000 C   0  0  0  0  0  0  0  0  0
   -1.7129   -2.9296    0.0000 C   0  0  0  0  0  0  0  0  0
   -2.4274   -3.3421    0.0000 C   0  0  0  0  0  0  0  0  0
   -3.1418   -2.9296    0.0000 N   0  0  0  0  0  0  0  0  0
   -3.1418   -2.1046    0.0000 C   0  0  0  0  0  0  0  0  0
   -1.7129    0.3704    0.0000 C   0  0  0  0  0  0  0  0  0
   -2.4274    0.7829    0.0000 C   0  0  0  0  0  0  0  0  0
   -2.4274    1.6079    0.0000 C   0  0  0  0  0  0  0  0  0
   -1.7129    2.0204    0.0000 C   0  0  0  0  0  0  0  0  0
   -0.9984    1.6079    0.0000 C   0  0  0  0  0  0  0  0  0
   -0.9984    0.7829    0.0000 C   0  0  0  0  0  0  0  0  0
   -0.2840    0.3704    0.0000 C   0  0  0  0  0  0  0  0  0
    0.4305    0.7829    0.0000 C   0  0  0  0  0  0  0  0  0
    1.1450    0.3704    0.0000 C   0  0  0  0  0  0  0  0  0
    1.8595    0.7829    0.0000 C   0  0  0  0  0  0  0  0  0
    2.5739    0.3704    0.0000 C   0  0  0  0  0  0  0  0  0
    2.5739   -0.4546    0.0000 C   0  0  0  0  0  0  0  0  0
    1.8595   -0.8671    0.0000 C   0  0  0  0  0  0  0  0  0
    1.1450   -0.4546    0.0000 C   0  0  0  0  0  0  0  0  0
  1  2  1  0  0  0  0
  1  9  1  0  0  0  0
  2  3  1  0  0  0  0
  3  4  4  0  0  0  0
  3  8  4  0  0  0  0
  4  5  4  0  0  0  0
  5  6  4  0  0  0  0
  6  7  4  0  0  0  0
  7  8  4  0  0  0  0
  9 10  4  0  0  0  0
  9 14  4  0  0  0  0
 10 11  4  0  0  0  0
 11 12  4  0  0  0  0
 12 13  4  0  0  0  0
 13 14  4  0  0  0  0
 14 15  1  0  0  0  0
 15 16  1  0  0  0  0
 16 17  1  0  0  0  0
 17 18  4  0  0  0  0
 17 22  4  0  0  0  0
 18 19  4  0  0  0  0
 19 20  4  0  0  0  0
 20 21  4  0  0  0  0
 21 22  4  0  0  0  0
M  END
>  <Name_Molregno>
360967

>  <5-HT1A>
5.3

>  <DOPAMINE D2>
5.3

$$$$
360980
  Marvin  02231216192D 0   1.00000     0.00000     0

 24 26  0  0  0  0  0  0  0  0999 V2000
   -2.4359   -0.6460    0.0000 O   0  0  0  0  0  0  0  0  0
   -3.1504   -1.0585    0.0000 C   0  0  0  0  0  0  0  0  0
   -3.1504   -1.8835    0.0000 C   0  0  0  0  0  0  0  0  0
   -2.4359   -2.2960    0.0000 C   0  0  0  0  0  0  0  0  0
   -2.4359   -3.1210    0.0000 C   0  0  0  0  0  0  0  0  0
   -3.1504   -3.5335    0.0000 C   0  0  0  0  0  0  0  0  0
   -3.8649   -3.1210    0.0000 N   0  0  0  0  0  0  0  0  0
   -3.8649   -2.2960    0.0000 C   0  0  0  0  0  0  0  0  0
   -2.4359    0.1790    0.0000 C   0  0  0  0  0  0  0  0  0
   -3.1504    0.5915    0.0000 C   0  0  0  0  0  0  0  0  0
   -3.1504    1.4165    0.0000 C   0  0  0  0  0  0  0  0  0
   -2.4359    1.8290    0.0000 C   0  0  0  0  0  0  0  0  0
   -1.7214    1.4165    0.0000 C   0  0  0  0  0  0  0  0  0
   -1.7214    0.5915    0.0000 C   0  0  0  0  0  0  0  0  0
   -1.0070    0.1790    0.0000 C   0  0  0  0  0  0  0  0  0
   -0.2925    0.5915    0.0000 C   0  0  0  0  0  0  0  0  0
    0.4220    0.1790    0.0000 C   0  0  0  0  0  0  0  0  0
    1.1364    0.5915    0.0000 C   0  0  0  0  0  0  0  0  0
    1.8509    0.1790    0.0000 C   0  0  0  0  0  0  0  0  0
    2.5654    0.5915    0.0000 O   0  0  0  0  0  0  0  0  0
    3.2798    0.1790    0.0000 C   0  0  0  0  0  0  0  0  0
    1.8509   -0.6460    0.0000 C   0  0  0  0  0  0  0  0  0
    1.1364   -1.0585    0.0000 C   0  0  0  0  0  0  0  0  0
    0.4220   -0.6460    0.0000 C   0  0  0  0  0  0  0  0  0
  1  2  1  0  0  0  0
  1  9  1  0  0  0  0
  2  3  1  0  0  0  0
  3  4  4  0  0  0  0
  3  8  4  0  0  0  0
  4  5  4  0  0  0  0
  5  6  4  0  0  0  0
  6  7  4  0  0  0  0
  7  8  4  0  0  0  0
  9 10  4  0  0  0  0
  9 14  4  0  0  0  0
 10 11  4  0  0  0  0
 11 12  4  0  0  0  0
 12 13  4  0  0  0  0
 13 14  4  0  0  0  0
 14 15  1  0  0  0  0
 15 16  1  0  0  0  0
 16 17  1  0  0  0  0
 17 18  4  0  0  0  0
 17 24  4  0  0  0  0
 18 19  4  0  0  0  0
 19 20  1  0  0  0  0
 19 22  4  0  0  0  0
 20 21  1  0  0  0  0
 22 23  4  0  0  0  0
 23 24  4  0  0  0  0
M  END
>  <Name_Molregno>
360980

>  <5-HT1A>
5.3

>  <DOPAMINE D2>
5.3

$$$$
360991
  Marvin  02231216192D 0   1.00000     0.00000     0

 22 24  0  0  0  0  0  0  0  0999 V2000
   -1.7129   -0.4546    0.0000 O   0  0  0  0  0  0  0  0  0
   -2.4274   -0.8671    0.0000 C   0  0  0  0  0  0  0  0  0
   -2.4274   -1.6921    0.0000 C   0  0  0  0  0  0  0  0  0
   -1.7129   -2.1046    0.0000 C   0  0  0  0  0  0  0  0  0
   -1.7129   -2.9296    0.0000 C   0  0  0  0  0  0  0  0  0
   -2.4274   -3.3421    0.0000 C   0  0  0  0  0  0  0  0  0
   -3.1418   -2.9296    0.0000 C   0  0  0  0  0  0  0  0  0
   -3.1418   -2.1046    0.0000 C   0  0  0  0  0  0  0  0  0
   -1.7129    0.3704    0.0000 C   0  0  0  0  0  0  0  0  0
   -2.4274    0.7829    0.0000 C   0  0  0  0  0  0  0  0  0
   -2.4274    1.6079    0.0000 C   0  0  0  0  0  0  0  0  0
   -1.7129    2.0204    0.0000 C   0  0  0  0  0  0  0  0  0
   -0.9984    1.6079    0.0000 C   0  0  0  0  0  0  0  0  0
   -0.9984    0.7829    0.0000 C   0  0  0  0  0  0  0  0  0
   -0.2840    0.3704    0.0000 C   0  0  0  0  0  0  0  0  0
    0.4305    0.7829    0.0000 C   0  0  0  0  0  0  0  0  0
    1.1450    0.3704    0.0000 C   0  0  0  0  0  0  0  0  0
    1.8595    0.7829    0.0000 C   0  0  0  0  0  0  0  0  0
    2.5739    0.3704    0.0000 C   0  0  0  0  0  0  0  0  0
    2.5739   -0.4546    0.0000 C   0  0  0  0  0  0  0  0  0
    1.8595   -0.8671    0.0000 C   0  0  0  0  0  0  0  0  0
    1.1450   -0.4546    0.0000 C   0  0  0  0  0  0  0  0  0
  1  2  1  0  0  0  0
  1  9  1  0  0  0  0
  2  3  1  0  0  0  0
  3  4  4  0  0  0  0
  3  8  4  0  0  0  0
  4  5  4  0  0  0  0
  5  6  4  0  0  0  0
  6  7  4  0  0  0  0
  7  8  4  0  0  0  0
  9 10  4  0  0  0  0
  9 14  4  0  0  0  0
 10 11  4  0  0  0  0
 11 12  4  0  0  0  0
 12 13  4  0  0  0  0
 13 14  4  0  0  0  0
 14 15  1  0  0  0  0
 15 16  1  0  0  0  0
 16 17  1  0  0  0  0
 17 18  4  0  0  0  0
 17 22  4  0  0  0  0
 18 19  4  0  0  0  0
 19 20  4  0  0  0  0
 20 21  4  0  0  0  0
 21 22  4  0  0  0  0
M  END
>  <Name_Molregno>
360991

>  <5-HT1A>
5.3

>  <DOPAMINE D2>
5.3

$$$$
361004
  Marvin  02231216192D 0   1.00000     0.00000     0

 24 26  0  0  0  0  0  0  0  0999 V2000
   -2.4359   -0.6460    0.0000 O   0  0  0  0  0  0  0  0  0
   -3.1504   -1.0585    0.0000 C   0  0  0  0  0  0  0  0  0
   -3.1504   -1.8835    0.0000 C   0  0  0  0  0  0  0  0  0
   -2.4359   -2.2960    0.0000 C   0  0  0  0  0  0  0  0  0
   -2.4359   -3.1210    0.0000 C   0  0  0  0  0  0  0  0  0
   -3.1504   -3.5335    0.0000 C   0  0  0  0  0  0  0  0  0
   -3.8649   -3.1210    0.0000 C   0  0  0  0  0  0  0  0  0
   -3.8649   -2.2960    0.0000 C   0  0  0  0  0  0  0  0  0
   -2.4359    0.1790    0.0000 C   0  0  0  0  0  0  0  0  0
   -3.1504    0.5915    0.0000 C   0  0  0  0  0  0  0  0  0
   -3.1504    1.4165    0.0000 C   0  0  0  0  0  0  0  0  0
   -2.4359    1.8290    0.0000 C   0  0  0  0  0  0  0  0  0
   -1.7214    1.4165    0.0000 C   0  0  0  0  0  0  0  0  0
   -1.7214    0.5915    0.0000 C   0  0  0  0  0  0  0  0  0
   -1.0070    0.1790    0.0000 C   0  0  0  0  0  0  0  0  0
   -0.2925    0.5915    0.0000 C   0  0  0  0  0  0  0  0  0
    0.4220    0.1790    0.0000 C   0  0  0  0  0  0  0  0  0
    1.1364    0.5915    0.0000 C   0  0  0  0  0  0  0  0  0
    1.8509    0.1790    0.0000 C   0  0  0  0  0  0  0  0  0
    2.5654    0.5915    0.0000 O   0  0  0  0  0  0  0  0  0
    3.2798    0.1790    0.0000 C   0  0  0  0  0  0  0  0  0
    1.8509   -0.6460    0.0000 C   0  0  0  0  0  0  0  0  0
    1.1364   -1.0585    0.0000 C   0  0  0  0  0  0  0  0  0
    0.4220   -0.6460    0.0000 C   0  0  0  0  0  0  0  0  0
  1  2  1  0  0  0  0
  1  9  1  0  0  0  0
  2  3  1  0  0  0  0
  3  4  4  0  0  0  0
  3  8  4  0  0  0  0
  4  5  4  0  0  0  0
  5  6  4  0  0  0  0
  6  7  4  0  0  0  0
  7  8  4  0  0  0  0
  9 10  4  0  0  0  0
  9 14  4  0  0  0  0
 10 11  4  0  0  0  0
 11 12  4  0  0  0  0
 12 13  4  0  0  0  0
 13 14  4  0  0  0  0
 14 15  1  0  0  0  0
 15 16  1  0  0  0  0
 16 17  1  0  0  0  0
 17 18  4  0  0  0  0
 17 24  4  0  0  0  0
 18 19  4  0  0  0  0
 19 20  1  0  0  0  0
 19 22  4  0  0  0  0
 20 21  1  0  0  0  0
 22 23  4  0  0  0  0
 23 24  4  0  0  0  0
M  END
>  <Name_Molregno>
361004

>  <5-HT1A>
5.3

>  <DOPAMINE D2>
5.3

$$$$
361021
  Marvin  02231216192D 0   1.00000     0.00000     0

 24 26  0  0  0  0  0  0  0  0999 V2000
   -0.9872    0.0811    0.0000 O   0  0  0  0  0  0  0  0  0
   -1.7016   -0.3314    0.0000 C   0  0  0  0  0  0  0  0  0
   -1.7016   -1.1564    0.0000 C   0  0  0  0  0  0  0  0  0
   -0.9872   -1.5689    0.0000 C   0  0  0  0  0  0  0  0  0
   -0.9872   -2.3939    0.0000 C   0  0  0  0  0  0  0  0  0
   -0.2727   -2.8064    0.0000 O   0  0  0  0  0  0  0  0  0
   -0.2727   -3.6314    0.0000 C   0  0  0  0  0  0  0  0  0
   -1.7016   -2.8064    0.0000 C   0  0  0  0  0  0  0  0  0
   -2.4161   -2.3939    0.0000 C   0  0  0  0  0  0  0  0  0
   -2.4161   -1.5689    0.0000 C   0  0  0  0  0  0  0  0  0
   -0.9872    0.9061    0.0000 C   0  0  0  0  0  0  0  0  0
   -1.7016    1.3186    0.0000 C   0  0  0  0  0  0  0  0  0
   -1.7016    2.1436    0.0000 C   0  0  0  0  0  0  0  0  0
   -0.9872    2.5561    0.0000 C   0  0  0  0  0  0  0  0  0
   -0.2727    2.1436    0.0000 C   0  0  0  0  0  0  0  0  0
   -0.2727    1.3186    0.0000 C   0  0  0  0  0  0  0  0  0
    0.4418    0.9061    0.0000 C   0  0  0  0  0  0  0  0  0
    1.1562    1.3186    0.0000 C   0  0  0  0  0  0  0  0  0
    1.1562    2.1436    0.0000 C   0  0  0  0  0  0  0  0  0
    0.4418    2.5561    0.0000 C   0  0  0  0  0  0  0  0  0
    0.4418    3.3811    0.0000 C   0  0  0  0  0  0  0  0  0
    1.1562    3.7936    0.0000 C   0  0  0  0  0  0  0  0  0
    1.8707    3.3811    0.0000 C   0  0  0  0  0  0  0  0  0
    1.8707    2.5561    0.0000 C   0  0  0  0  0  0  0  0  0
  1  2  1  0  0  0  0
  1 11  1  0  0  0  0
  2  3  1  0  0  0  0
  3  4  4  0  0  0  0
  3 10  4  0  0  0  0
  4  5  4  0  0  0  0
  5  6  1  0  0  0  0
  5  8  4  0  0  0  0
  6  7  1  0  0  0  0
  8  9  4  0  0  0  0
  9 10  4  0  0  0  0
 11 12  4  0  0  0  0
 11 16  4  0  0  0  0
 12 13  4  0  0  0  0
 13 14  4  0  0  0  0
 14 15  4  0  0  0  0
 15 16  4  0  0  0  0
 16 17  1  0  0  0  0
 17 18  1  0  0  0  0
 18 19  1  0  0  0  0
 19 20  4  0  0  0  0
 19 24  4  0  0  0  0
 20 21  4  0  0  0  0
 21 22  4  0  0  0  0
 22 23  4  0  0  0  0
 23 24  4  0  0  0  0
M  END
>  <Name_Molregno>
361021

>  <5-HT1A>
5.3

>  <DOPAMINE D2>
5.3

$$$$
361041
  Marvin  02231216192D 0   1.00000     0.00000     0

 26 28  0  0  0  0  0  0  0  0999 V2000
   -2.0402   -0.4778    0.0000 O   0  0  0  0  0  0  0  0  0
   -2.7546   -0.8903    0.0000 C   0  0  0  0  0  0  0  0  0
   -2.7546   -1.7153    0.0000 C   0  0  0  0  0  0  0  0  0
   -2.0402   -2.1278    0.0000 C   0  0  0  0  0  0  0  0  0
   -2.0402   -2.9528    0.0000 C   0  0  0  0  0  0  0  0  0
   -1.3257   -3.3653    0.0000 O   0  0  0  0  0  0  0  0  0
   -1.3257   -4.1903    0.0000 C   0  0  0  0  0  0  0  0  0
   -2.7546   -3.3653    0.0000 C   0  0  0  0  0  0  0  0  0
   -3.4691   -2.9528    0.0000 C   0  0  0  0  0  0  0  0  0
   -3.4691   -2.1278    0.0000 C   0  0  0  0  0  0  0  0  0
   -2.0402    0.3472    0.0000 C   0  0  0  0  0  0  0  0  0
   -2.7546    0.7597    0.0000 C   0  0  0  0  0  0  0  0  0
   -2.7546    1.5847    0.0000 C   0  0  0  0  0  0  0  0  0
   -2.0402    1.9972    0.0000 C   0  0  0  0  0  0  0  0  0
   -1.3257    1.5847    0.0000 C   0  0  0  0  0  0  0  0  0
   -1.3257    0.7597    0.0000 C   0  0  0  0  0  0  0  0  0
   -0.6112    0.3472    0.0000 C   0  0  0  0  0  0  0  0  0
    0.1033    0.7597    0.0000 C   0  0  0  0  0  0  0  0  0
    0.8177    0.3472    0.0000 C   0  0  0  0  0  0  0  0  0
    1.5322    0.7597    0.0000 C   0  0  0  0  0  0  0  0  0
    2.2467    0.3472    0.0000 C   0  0  0  0  0  0  0  0  0
    2.9611    0.7597    0.0000 O   0  0  0  0  0  0  0  0  0
    3.6756    0.3472    0.0000 C   0  0  0  0  0  0  0  0  0
    2.2467   -0.4778    0.0000 C   0  0  0  0  0  0  0  0  0
    1.5322   -0.8903    0.0000 C   0  0  0  0  0  0  0  0  0
    0.8177   -0.4778    0.0000 C   0  0  0  0  0  0  0  0  0
  1  2  1  0  0  0  0
  1 11  1  0  0  0  0
  2  3  1  0  0  0  0
  3  4  4  0  0  0  0
  3 10  4  0  0  0  0
  4  5  4  0  0  0  0
  5  6  1  0  0  0  0
  5  8  4  0  0  0  0
  6  7  1  0  0  0  0
  8  9  4  0  0  0  0
  9 10  4  0  0  0  0
 11 12  4  0  0  0  0
 11 16  4  0  0  0  0
 12 13  4  0  0  0  0
 13 14  4  0  0  0  0
 14 15  4  0  0  0  0
 15 16  4  0  0  0  0
 16 17  1  0  0  0  0
 17 18  1  0  0  0  0
 18 19  1  0  0  0  0
 19 20  4  0  0  0  0
 19 26  4  0  0  0  0
 20 21  4  0  0  0  0
 21 22  1  0  0  0  0
 21 24  4  0  0  0  0
 22 23  1  0  0  0  0
 24 25  4  0  0  0  0
 25 26  4  0  0  0  0
M  END
>  <Name_Molregno>
361041

>  <5-HT1A>
5.3

>  <DOPAMINE D2>
5.3

$$$$
367112
  Marvin  02231216192D 0   1.00000     0.00000     0

 34 37  0  0  0  0  0  0  0  0999 V2000
    1.3161    3.5718    0.0000 F   0  0  0  0  0  0  0  0  0
    1.3161    2.7468    0.0000 C   0  0  0  0  0  0  0  0  0
    2.0306    2.3343    0.0000 N   0  0  0  0  0  0  0  0  0
    2.0306    1.5093    0.0000 C   0  0  0  0  0  0  0  0  0
    1.3161    1.0968    0.0000 C   0  0  0  0  0  0  0  0  0
    0.6017    1.5093    0.0000 C   0  0  0  0  0  0  0  0  0
    0.6017    2.3343    0.0000 C   0  0  0  0  0  0  0  0  0
    2.7451    1.0968    0.0000 C   0  0  0  0  0  0  0  0  0
    3.4596    1.5093    0.0000 C   0  0  0  0  0  0  0  0  0
    4.1740    1.0968    0.0000 C   0  0  0  0  0  0  0  0  0
    4.1740    0.2718    0.0000 C   0  0  0  0  0  0  0  0  0
    3.4596   -0.1407    0.0000 C   0  0  0  0  0  0  0  0  0
    2.7451    0.2718    0.0000 C   0  0  0  0  0  0  0  0  0
    4.8885   -0.1407    0.0000 C   0  0  0  0  0  0  0  0  0
    4.8885   -0.9657    0.0000 O   0  0  0  0  0  0  0  0  0
    5.6030    0.2718    0.0000 N   0  0  0  0  0  0  0  0  0
    6.3174   -0.1407    0.0000 C   0  0  0  0  0  0  0  0  0
    7.0319    0.2718    0.0000 C   0  0  0  0  0  0  0  0  0
    7.7464   -0.1407    0.0000 C   0  0  0  0  0  0  0  0  0
    8.4609    0.2718    0.0000 C   0  0  0  0  0  0  0  0  0
    9.1753   -0.1407    0.0000 N   0  0  0  0  0  0  0  0  0
    9.8898    0.2718    0.0000 C   0  0  0  0  0  0  0  0  0
   10.6043   -0.1407    0.0000 C   0  0  0  0  0  0  0  0  0
   10.6043   -0.9657    0.0000 N   0  0  0  0  0  0  0  0  0
    9.8898   -1.3782    0.0000 C   0  0  0  0  0  0  0  0  0
    9.1753   -0.9657    0.0000 C   0  0  0  0  0  0  0  0  0
   11.3187   -1.3782    0.0000 C   0  0  0  0  0  0  0  0  0
   12.0332   -0.9657    0.0000 C   0  0  0  0  0  0  0  0  0
   12.7477   -1.3782    0.0000 C   0  0  0  0  0  0  0  0  0
   12.7477   -2.2032    0.0000 C   0  0  0  0  0  0  0  0  0
   12.0332   -2.6157    0.0000 C   0  0  0  0  0  0  0  0  0
   11.3187   -2.2032    0.0000 C   0  0  0  0  0  0  0  0  0
   10.6043   -2.6157    0.0000 O   0  0  0  0  0  0  0  0  0
   10.6043   -3.4407    0.0000 C   0  0  0  0  0  0  0  0  0
  1  2  1  0  0  0  0
  2  3  4  0  0  0  0
  2  7  4  0  0  0  0
  3  4  4  0  0  0  0
  4  5  4  0  0  0  0
  4  8  1  0  0  0  0
  5  6  4  0  0  0  0
  6  7  4  0  0  0  0
  8  9  4  0  0  0  0
  8 13  4  0  0  0  0
  9 10  4  0  0  0  0
 10 11  4  0  0  0  0
 11 12  4  0  0  0  0
 11 14  1  0  0  0  0
 12 13  4  0  0  0  0
 14 15  2  0  0  0  0
 14 16  1  0  0  0  0
 16 17  1  0  0  0  0
 17 18  1  0  0  0  0
 18 19  1  0  0  0  0
 19 20  1  0  0  0  0
 20 21  1  0  0  0  0
 21 22  1  0  0  0  0
 21 26  1  0  0  0  0
 22 23  1  0  0  0  0
 23 24  1  0  0  0  0
 24 25  1  0  0  0  0
 24 27  1  0  0  0  0
 25 26  1  0  0  0  0
 27 28  4  0  0  0  0
 27 32  4  0  0  0  0
 28 29  4  0  0  0  0
 29 30  4  0  0  0  0
 30 31  4  0  0  0  0
 31 32  4  0  0  0  0
 32 33  1  0  0  0  0
 33 34  1  0  0  0  0
M  END
>  <Name_Molregno>
367112

>  <5-HT1A>
7.8

>  <DOPAMINE D2>
7.69

>  <DOPAMINE D3>
9.43

>  <DOPAMINE D4>
7.55

$$$$
367119
  Marvin  02231216192D 0   1.00000     0.00000     0

 34 37  0  0  0  0  0  0  0  0999 V2000
    0.3186    3.6840    0.0000 F   0  0  0  0  0  0  0  0  0
    1.0331    3.2715    0.0000 C   0  0  0  0  0  0  0  0  0
    1.7475    3.6840    0.0000 N   0  0  0  0  0  0  0  0  0
    2.4620    3.2715    0.0000 C   0  0  0  0  0  0  0  0  0
    2.4620    2.4465    0.0000 C   0  0  0  0  0  0  0  0  0
    1.7475    2.0340    0.0000 C   0  0  0  0  0  0  0  0  0
    1.0331    2.4465    0.0000 C   0  0  0  0  0  0  0  0  0
    3.1765    2.0340    0.0000 C   0  0  0  0  0  0  0  0  0
    3.8909    2.4465    0.0000 C   0  0  0  0  0  0  0  0  0
    4.6054    2.0340    0.0000 C   0  0  0  0  0  0  0  0  0
    4.6054    1.2090    0.0000 C   0  0  0  0  0  0  0  0  0
    3.8909    0.7965    0.0000 C   0  0  0  0  0  0  0  0  0
    3.1765    1.2090    0.0000 C   0  0  0  0  0  0  0  0  0
    5.3199    0.7965    0.0000 C   0  0  0  0  0  0  0  0  0
    5.3199   -0.0285    0.0000 O   0  0  0  0  0  0  0  0  0
    6.0343    1.2090    0.0000 N   0  0  0  0  0  0  0  0  0
    6.7488    0.7965    0.0000 C   0  0  0  0  0  0  0  0  0
    7.4633    1.2090    0.0000 C   0  0  0  0  0  0  0  0  0
    8.1778    0.7965    0.0000 C   0  0  0  0  0  0  0  0  0
    8.8922    1.2090    0.0000 C   0  0  0  0  0  0  0  0  0
    9.6067    0.7965    0.0000 N   0  0  0  0  0  0  0  0  0
   10.3212    1.2090    0.0000 C   0  0  0  0  0  0  0  0  0
   11.0356    0.7965    0.0000 C   0  0  0  0  0  0  0  0  0
   11.0356   -0.0285    0.0000 N   0  0  0  0  0  0  0  0  0
   10.3212   -0.4410    0.0000 C   0  0  0  0  0  0  0  0  0
    9.6067   -0.0285    0.0000 C   0  0  0  0  0  0  0  0  0
   11.7501   -0.4410    0.0000 C   0  0  0  0  0  0  0  0  0
   12.4646   -0.0285    0.0000 C   0  0  0  0  0  0  0  0  0
   13.1791   -0.4410    0.0000 C   0  0  0  0  0  0  0  0  0
   13.1791   -1.2660    0.0000 C   0  0  0  0  0  0  0  0  0
   12.4646   -1.6785    0.0000 C   0  0  0  0  0  0  0  0  0
   11.7501   -1.2660    0.0000 C   0  0  0  0  0  0  0  0  0
   11.0356   -1.6785    0.0000 O   0  0  0  0  0  0  0  0  0
   11.0356   -2.5035    0.0000 C   0  0  0  0  0  0  0  0  0
  1  2  1  0  0  0  0
  2  3  4  0  0  0  0
  2  7  4  0  0  0  0
  3  4  4  0  0  0  0
  4  5  4  0  0  0  0
  5  6  4  0  0  0  0
  5  8  1  0  0  0  0
  6  7  4  0  0  0  0
  8  9  4  0  0  0  0
  8 13  4  0  0  0  0
  9 10  4  0  0  0  0
 10 11  4  0  0  0  0
 11 12  4  0  0  0  0
 11 14  1  0  0  0  0
 12 13  4  0  0  0  0
 14 15  2  0  0  0  0
 14 16  1  0  0  0  0
 16 17  1  0  0  0  0
 17 18  1  0  0  0  0
 18 19  1  0  0  0  0
 19 20  1  0  0  0  0
 20 21  1  0  0  0  0
 21 22  1  0  0  0  0
 21 26  1  0  0  0  0
 22 23  1  0  0  0  0
 23 24  1  0  0  0  0
 24 25  1  0  0  0  0
 24 27  1  0  0  0  0
 25 26  1  0  0  0  0
 27 28  4  0  0  0  0
 27 32  4  0  0  0  0
 28 29  4  0  0  0  0
 29 30  4  0  0  0  0
 30 31  4  0  0  0  0
 31 32  4  0  0  0  0
 32 33  1  0  0  0  0
 33 34  1  0  0  0  0
M  END
>  <Name_Molregno>
367119

>  <5-HT1A>
7.68

>  <DOPAMINE D2>
7.87

>  <DOPAMINE D3>
9.35

>  <DOPAMINE D4>
7.47

$$$$
367153
  Marvin  02231216192D 0   1.00000     0.00000     0

 30 34  0  0  0  0  0  0  0  0999 V2000
    4.4761    6.6520    0.0000 F   0  0  0  0  0  0  0  0  0
    4.4761    5.8270    0.0000 C   0  0  0  0  0  0  0  0  0
    5.1906    5.4145    0.0000 C   0  0  0  0  0  0  0  0  0
    5.1906    4.5895    0.0000 C   0  0  0  0  0  0  0  0  0
    4.4761    4.1770    0.0000 C   0  0  0  0  0  0  0  0  0
    3.7617    4.5895    0.0000 C   0  0  0  0  0  0  0  0  0
    3.7617    5.4145    0.0000 C   0  0  0  0  0  0  0  0  0
    4.4761    3.3520    0.0000 C   0  0  0  0  0  0  0  0  0
    5.1906    2.9395    0.0000 C   0  0  0  0  0  0  0  0  0
    5.1906    2.1145    0.0000 C   0  0  0  0  0  0  0  0  0
    4.4761    1.7020    0.0000 C   0  0  0  0  0  0  0  0  0
    3.7617    2.1145    0.0000 N   0  0  0  0  0  0  0  0  0
    3.7617    2.9395    0.0000 C   0  0  0  0  0  0  0  0  0
    5.9051    1.7020    0.0000 C   0  0  0  0  0  0  0  0  0
    5.9051    0.8770    0.0000 N   0  0  0  0  0  0  0  0  0
    6.6196    0.4645    0.0000 C   0  0  0  0  0  0  0  0  0
    6.6196   -0.3605    0.0000 C   0  0  0  0  0  0  0  0  0
    5.9051   -0.7730    0.0000 N   0  0  0  0  0  0  0  0  0
    5.1906   -0.3605    0.0000 C   0  0  0  0  0  0  0  0  0
    5.1906    0.4645    0.0000 C   0  0  0  0  0  0  0  0  0
    5.9051   -1.5980    0.0000 C   0  0  0  0  0  0  0  0  0
    6.6196   -2.0105    0.0000 C   0  0  0  0  0  0  0  0  0
    7.3340   -1.5980    0.0000 O   0  0  0  0  0  0  0  0  0
    8.0485   -2.0105    0.0000 C   0  0  0  0  0  0  0  0  0
    8.0485   -2.8355    0.0000 C   0  0  0  0  0  0  0  0  0
    7.3340   -3.2480    0.0000 O   0  0  0  0  0  0  0  0  0
    6.6196   -2.8355    0.0000 C   0  0  0  0  0  0  0  0  0
    5.9051   -3.2480    0.0000 C   0  0  0  0  0  0  0  0  0
    5.1906   -2.8355    0.0000 C   0  0  0  0  0  0  0  0  0
    5.1906   -2.0105    0.0000 C   0  0  0  0  0  0  0  0  0
  1  2  1  0  0  0  0
  2  3  4  0  0  0  0
  2  7  4  0  0  0  0
  3  4  4  0  0  0  0
  4  5  4  0  0  0  0
  5  6  4  0  0  0  0
  5  8  1  0  0  0  0
  6  7  4  0  0  0  0
  8  9  4  0  0  0  0
  8 13  4  0  0  0  0
  9 10  4  0  0  0  0
 10 11  4  0  0  0  0
 10 14  1  0  0  0  0
 11 12  4  0  0  0  0
 12 13  4  0  0  0  0
 14 15  1  0  0  0  0
 15 16  1  0  0  0  0
 15 20  1  0  0  0  0
 16 17  1  0  0  0  0
 17 18  1  0  0  0  0
 18 19  1  0  0  0  0
 18 21  1  0  0  0  0
 19 20  1  0  0  0  0
 21 22  4  0  0  0  0
 21 30  4  0  0  0  0
 22 23  1  0  0  0  0
 22 27  4  0  0  0  0
 23 24  1  0  0  0  0
 24 25  1  0  0  0  0
 25 26  1  0  0  0  0
 26 27  1  0  0  0  0
 27 28  4  0  0  0  0
 28 29  4  0  0  0  0
 29 30  4  0  0  0  0
M  END
>  <Name_Molregno>
367153

>  <5-HT1A>
9.1

>  <5-HT2A>
6.6

>  <5-HT7>
7.2

>  <DOPAMINE D3>
8.4

$$$$
373376
  Marvin  02231216192D 0   1.00000     0.00000     0

 20 22  0  0  1  0  0  0  0  0999 V2000
    2.1624   -5.2159    0.0000 Cl  0  0  0  0  0  0  0  0  0
    2.5756   -4.5019    0.0000 C   0  0  0  0  0  0  0  0  0
    2.1638   -3.7870    0.0000 C   0  0  0  0  0  0  0  0  0
    2.5770   -3.0729    0.0000 C   0  0  0  0  0  0  0  0  0
    3.4020   -3.0738    0.0000 C   0  0  0  0  0  0  0  0  0
    3.8138   -3.7886    0.0000 C   0  0  0  0  0  0  0  0  0
    4.6388   -3.7894    0.0000 Cl  0  0  0  0  0  0  0  0  0
    3.4006   -4.5027    0.0000 C   0  0  0  0  0  0  0  0  0
    2.1652   -2.3581    0.0000 C   0  0  0  0  0  0  0  0  0
    2.5784   -1.6440    0.0000 O   0  0  0  0  0  0  0  0  0
    2.1666   -0.9291    0.0000 C   0  0  0  0  0  0  0  0  0
    2.0284   -0.1117    0.0000 C   0  0  0  0  0  0  0  0  0
    1.0996   -0.1272    0.0000 C   0  0  0  0  0  0  0  0  0
    0.5390    0.3127    0.0000 N   0  0  0  0  0  0  0  0  0
    0.6787   -0.5004    0.0000 C   0  0  0  0  0  0  0  0  0
    1.6504   -0.5004    0.0000 C   0  0  0  0  0  0  0  0  0
    0.1588   -1.2127    0.0000 C   0  0  0  0  0  0  0  0  0
    0.7791   -0.8358    0.0000 C   0  0  0  0  0  0  0  0  0
    0.1164    1.0212    0.0000 C   0  0  0  0  0  0  0  0  0
    1.3402   -2.3573    0.0000 O   0  0  0  0  0  0  0  0  0
  1  2  1  0  0  0  0
  2  3  4  0  0  0  0
  2  8  4  0  0  0  0
  3  4  4  0  0  0  0
  4  5  4  0  0  0  0
  4  9  1  0  0  0  0
  5  6  4  0  0  0  0
  6  7  1  0  0  0  0
  6  8  4  0  0  0  0
  9 10  1  0  0  0  0
  9 20  2  0  0  0  0
 10 11  1  0  0  0  0
 11 12  1  0  0  0  0
 11 16  1  0  0  0  0
 12 13  1  0  0  0  0
 13 14  1  0  0  0  0
 13 18  1  0  0  0  0
 14 15  1  0  0  0  0
 14 19  1  0  0  0  0
 15 16  1  0  0  0  0
 15 17  1  0  0  0  0
 17 18  1  0  0  0  0
M  END
>  <Name_Molregno>
373376

>  <5-HT1A>
5

>  <5-HT1D>
5

>  <5-HT3>
8

>  <DOPAMINE D1>
5

>  <DOPAMINE D2>
5

$$$$
382415
  Marvin  02231216192D 0   1.00000     0.00000     0

 18 19  0  0  0  0  0  0  0  0999 V2000
   -0.7360    1.4792    0.0000 S   0  0  0  0  0  0  0  0  0
   -0.9909    0.6946    0.0000 C   0  0  0  0  0  0  0  0  0
   -1.8159    0.6946    0.0000 C   0  0  0  0  0  0  0  0  0
   -2.0709    1.4792    0.0000 N   0  0  0  0  0  0  0  0  0
   -1.4034    1.9642    0.0000 C   0  0  0  0  0  0  0  0  0
   -1.4034    2.7892    0.0000 C   0  0  0  0  0  0  0  0  0
   -0.6890    3.2017    0.0000 F   0  0  0  0  0  0  0  0  0
   -2.3008    0.0272    0.0000 C   0  0  0  0  0  0  0  0  0
   -2.7858   -0.6403    0.0000 C   0  0  0  0  0  0  0  0  0
   -3.2707   -1.3077    0.0000 C   0  0  0  0  0  0  0  0  0
   -2.9351   -2.0614    0.0000 C   0  0  0  0  0  0  0  0  0
   -3.4201   -2.7288    0.0000 C   0  0  0  0  0  0  0  0  0
   -4.2405   -2.6426    0.0000 C   0  0  0  0  0  0  0  0  0
   -4.5761   -1.8889    0.0000 C   0  0  0  0  0  0  0  0  0
   -5.3966   -1.8027    0.0000 F   0  0  0  0  0  0  0  0  0
   -4.0912   -1.2215    0.0000 C   0  0  0  0  0  0  0  0  0
   -3.0845   -3.4825    0.0000 C   0  0  0  0  0  0  0  0  0
   -2.7489   -4.2362    0.0000 N   0  0  0  0  0  0  0  0  0
  1  2  4  0  0  0  0
  1  5  4  0  0  0  0
  2  3  4  0  0  0  0
  3  4  4  0  0  0  0
  3  8  1  0  0  0  0
  4  5  4  0  0  0  0
  5  6  1  0  0  0  0
  6  7  1  0  0  0  0
  8  9  3  0  0  0  0
  9 10  1  0  0  0  0
 10 11  4  0  0  0  0
 10 16  4  0  0  0  0
 11 12  4  0  0  0  0
 12 13  4  0  0  0  0
 12 17  1  0  0  0  0
 13 14  4  0  0  0  0
 14 15  1  0  0  0  0
 14 16  4  0  0  0  0
 17 18  3  0  0  0  0
M  END
>  <Name_Molregno>
382415

>  <5-HT1A>
5

>  <5-HT1B>
5

>  <5-HT1D>
5

>  <5-HT1E>
5

>  <5-HT2A>
5

>  <5-HT2C>
5

>  <5-HT3>
5

>  <5-HT5>
5

>  <5-HT6>
5

>  <5-HT7>
5

>  <Alpha-1A>
5

>  <Alpha-1B>
5

>  <Alpha-2A>
5

>  <Alpha-2B>
5

>  <Alpha-2C>
5

>  <Beta-1>
5

>  <Beta-2>
5

>  <DOPAMINE D1>
5

>  <DOPAMINE D2>
5

>  <DOPAMINE D3>
5

>  <DOPAMINE D4>
5

>  <DOPAMINE D5>
5

>  <Dopamine transporter>
5

>  <HISTAMINE H1>
5

>  <HISTAMINE H2>
5

>  <HISTAMINE H3>
5

>  <HISTAMINE H4>
5

>  <Muscarinic acetylcholine receptor M1>
5

>  <Muscarinic acetylcholine receptor M2>
5

>  <Muscarinic acetylcholine receptor M3>
5

>  <Muscarinic acetylcholine receptor M4>
5

>  <Muscarinic acetylcholine receptor M5>
5

>  <Norepinephrine transporter>
5

>  <Serotonin transporter>
5

$$$$
387309
  Marvin  02231216192D 0   1.00000     0.00000     0

 32 35  0  0  1  0  0  0  0  0999 V2000
   -4.6104   -0.4748    0.0000 O   0  0  0  0  0  0  0  0  0
   -4.6104    0.3502    0.0000 C   0  0  0  0  0  0  0  0  0
   -5.3249    0.7627    0.0000 N   0  0  0  0  0  0  0  0  0
   -6.0393    0.3502    0.0000 C   0  0  0  0  0  0  0  0  0
   -6.7538    0.7627    0.0000 C   0  0  0  0  0  0  0  0  0
   -7.4683    0.3502    0.0000 C   0  0  0  0  0  0  0  0  0
   -7.4683   -0.4748    0.0000 C   0  0  0  0  0  0  0  0  0
   -6.7538   -0.8873    0.0000 C   0  0  0  0  0  0  0  0  0
   -6.0393   -0.4748    0.0000 C   0  0  0  0  0  0  0  0  0
   -5.3249   -0.8873    0.0000 C   0  0  0  0  0  0  0  0  0
   -5.3249   -1.7123    0.0000 C   0  0  0  0  0  0  0  0  0
   -6.0393   -2.1248    0.0000 C   0  0  0  0  0  0  0  0  0
   -6.7538   -1.7123    0.0000 C   0  0  0  0  0  0  0  0  0
   -3.8959    0.7627    0.0000 C   0  0  0  0  0  0  0  0  0
   -3.1815    0.3502    0.0000 C   0  0  0  0  0  0  0  0  0
   -2.4670    0.7627    0.0000 C   0  0  0  0  0  0  0  0  0
   -1.7525    0.3502    0.0000 C   0  0  0  0  0  0  0  0  0
   -1.0380    0.7627    0.0000 C   0  0  0  0  0  0  0  0  0
   -0.3236    0.3502    0.0000 N   0  0  0  0  0  0  0  0  0
    0.3909    0.7627    0.0000 C   0  0  0  0  0  0  0  0  0
    1.1054    0.3502    0.0000 C   0  0  0  0  0  0  0  0  0
    1.1054   -0.4748    0.0000 N   0  0  0  0  0  0  0  0  0
    0.3909   -0.8873    0.0000 C   0  0  0  0  0  0  0  0  0
   -0.3236   -0.4748    0.0000 C   0  0  0  0  0  0  0  0  0
    1.8198   -0.8873    0.0000 C   0  0  0  0  0  0  0  0  0
    2.5343   -0.4748    0.0000 C   0  0  0  0  0  0  0  0  0
    3.2488   -0.8873    0.0000 C   0  0  0  0  0  0  0  0  0
    3.2488   -1.7123    0.0000 C   0  0  0  0  0  0  0  0  0
    2.5343   -2.1248    0.0000 C   0  0  0  0  0  0  0  0  0
    1.8198   -1.7123    0.0000 C   0  0  0  0  0  0  0  0  0
    1.1054   -2.1248    0.0000 C   0  0  0  0  0  0  0  0  0
    1.1054   -2.9498    0.0000 C   0  0  0  0  0  0  0  0  0
  1  2  2  0  0  0  0
  2  3  1  0  0  0  0
  2 14  1  0  0  0  0
  3  4  1  0  0  0  0
  4  5  1  0  0  0  0
  4  9  1  0  0  0  0
  5  6  1  0  0  0  0
  6  7  1  0  0  0  0
  7  8  1  0  0  0  0
  8  9  4  0  0  0  0
  8 13  4  0  0  0  0
  9 10  4  0  0  0  0
 10 11  4  0  0  0  0
 11 12  4  0  0  0  0
 12 13  4  0  0  0  0
 14 15  1  0  0  0  0
 15 16  1  0  0  0  0
 16 17  1  0  0  0  0
 17 18  1  0  0  0  0
 18 19  1  0  0  0  0
 19 20  1  0  0  0  0
 19 24  1  0  0  0  0
 20 21  1  0  0  0  0
 21 22  1  0  0  0  0
 22 23  1  0  0  0  0
 22 25  1  0  0  0  0
 23 24  1  0  0  0  0
 25 26  4  0  0  0  0
 25 30  4  0  0  0  0
 26 27  4  0  0  0  0
 27 28  4  0  0  0  0
 28 29  4  0  0  0  0
 29 30  4  0  0  0  0
 30 31  1  0  0  0  0
 31 32  1  0  0  0  0
M  END
>  <Name_Molregno>
387309

>  <5-HT1A>
7.1

$$$$
387310
  Marvin  02231216192D 0   1.00000     0.00000     0

 33 36  0  0  1  0  0  0  0  0999 V2000
   -0.2328   -0.2030    0.0000 O   0  0  0  0  0  0  0  0  0
   -0.2328    0.6220    0.0000 C   0  0  0  0  0  0  0  0  0
   -0.9473    1.0345    0.0000 N   0  0  0  0  0  0  0  0  0
   -1.6617    0.6220    0.0000 C   0  0  0  0  0  0  0  0  0
   -2.3762    1.0345    0.0000 C   0  0  0  0  0  0  0  0  0
   -3.0907    0.6220    0.0000 C   0  0  0  0  0  0  0  0  0
   -3.0907   -0.2030    0.0000 C   0  0  0  0  0  0  0  0  0
   -2.3762   -0.6155    0.0000 C   0  0  0  0  0  0  0  0  0
   -1.6617   -0.2030    0.0000 C   0  0  0  0  0  0  0  0  0
   -0.9473   -0.6155    0.0000 C   0  0  0  0  0  0  0  0  0
   -0.9473   -1.4405    0.0000 C   0  0  0  0  0  0  0  0  0
   -1.6617   -1.8530    0.0000 C   0  0  0  0  0  0  0  0  0
   -2.3762   -1.4405    0.0000 C   0  0  0  0  0  0  0  0  0
    0.4817    1.0345    0.0000 C   0  0  0  0  0  0  0  0  0
    1.1961    0.6220    0.0000 C   0  0  0  0  0  0  0  0  0
    1.9106    1.0345    0.0000 C   0  0  0  0  0  0  0  0  0
    2.6251    0.6220    0.0000 C   0  0  0  0  0  0  0  0  0
    3.3396    1.0345    0.0000 C   0  0  0  0  0  0  0  0  0
    4.0540    0.6220    0.0000 N   0  0  0  0  0  0  0  0  0
    4.7685    1.0345    0.0000 C   0  0  0  0  0  0  0  0  0
    5.4830    0.6220    0.0000 C   0  0  0  0  0  0  0  0  0
    5.4830   -0.2030    0.0000 N   0  0  0  0  0  0  0  0  0
    4.7685   -0.6155    0.0000 C   0  0  0  0  0  0  0  0  0
    4.0540   -0.2030    0.0000 C   0  0  0  0  0  0  0  0  0
    6.1974   -0.6155    0.0000 C   0  0  0  0  0  0  0  0  0
    6.9119   -0.2030    0.0000 C   0  0  0  0  0  0  0  0  0
    7.6264   -0.6155    0.0000 C   0  0  0  0  0  0  0  0  0
    7.6264   -1.4405    0.0000 C   0  0  0  0  0  0  0  0  0
    6.9119   -1.8530    0.0000 C   0  0  0  0  0  0  0  0  0
    6.1974   -1.4405    0.0000 C   0  0  0  0  0  0  0  0  0
    5.4830   -1.8530    0.0000 C   0  0  0  0  0  0  0  0  0
    4.7685   -1.4405    0.0000 C   0  0  0  0  0  0  0  0  0
    4.0540   -1.8530    0.0000 C   0  0  0  0  0  0  0  0  0
  1  2  2  0  0  0  0
  2  3  1  0  0  0  0
  2 14  1  0  0  0  0
  3  4  1  0  0  0  0
  4  5  1  0  0  0  0
  4  9  1  0  0  0  0
  5  6  1  0  0  0  0
  6  7  1  0  0  0  0
  7  8  1  0  0  0  0
  8  9  4  0  0  0  0
  8 13  4  0  0  0  0
  9 10  4  0  0  0  0
 10 11  4  0  0  0  0
 11 12  4  0  0  0  0
 12 13  4  0  0  0  0
 14 15  1  0  0  0  0
 15 16  1  0  0  0  0
 16 17  1  0  0  0  0
 17 18  1  0  0  0  0
 18 19  1  0  0  0  0
 19 20  1  0  0  0  0
 19 24  1  0  0  0  0
 20 21  1  0  0  0  0
 21 22  1  0  0  0  0
 22 23  1  0  0  0  0
 22 25  1  0  0  0  0
 23 24  1  0  0  0  0
 25 26  4  0  0  0  0
 25 30  4  0  0  0  0
 26 27  4  0  0  0  0
 27 28  4  0  0  0  0
 28 29  4  0  0  0  0
 29 30  4  0  0  0  0
 30 31  1  0  0  0  0
 31 32  1  0  0  0  0
 32 33  1  0  0  0  0
M  END
>  <Name_Molregno>
387310

>  <5-HT1A>
6.77

$$$$
387311
  Marvin  02231216192D 0   1.00000     0.00000     0

 34 37  0  0  1  0  0  0  0  0999 V2000
   -0.3750    0.0795    0.0000 O   0  0  0  0  0  0  0  0  0
   -0.3750    0.9045    0.0000 C   0  0  0  0  0  0  0  0  0
   -1.0895    1.3170    0.0000 N   0  0  0  0  0  0  0  0  0
   -1.8040    0.9045    0.0000 C   0  0  0  0  0  0  0  0  0
   -2.5184    1.3170    0.0000 C   0  0  0  0  0  0  0  0  0
   -3.2329    0.9045    0.0000 C   0  0  0  0  0  0  0  0  0
   -3.2329    0.0795    0.0000 C   0  0  0  0  0  0  0  0  0
   -2.5184   -0.3330    0.0000 C   0  0  0  0  0  0  0  0  0
   -1.8040    0.0795    0.0000 C   0  0  0  0  0  0  0  0  0
   -1.0895   -0.3330    0.0000 C   0  0  0  0  0  0  0  0  0
   -1.0895   -1.1580    0.0000 C   0  0  0  0  0  0  0  0  0
   -1.8040   -1.5705    0.0000 C   0  0  0  0  0  0  0  0  0
   -2.5184   -1.1580    0.0000 C   0  0  0  0  0  0  0  0  0
    0.3395    1.3170    0.0000 C   0  0  0  0  0  0  0  0  0
    1.0539    0.9045    0.0000 C   0  0  0  0  0  0  0  0  0
    1.7684    1.3170    0.0000 C   0  0  0  0  0  0  0  0  0
    2.4829    0.9045    0.0000 C   0  0  0  0  0  0  0  0  0
    3.1973    1.3170    0.0000 C   0  0  0  0  0  0  0  0  0
    3.9118    0.9045    0.0000 N   0  0  0  0  0  0  0  0  0
    4.6263    1.3170    0.0000 C   0  0  0  0  0  0  0  0  0
    5.3408    0.9045    0.0000 C   0  0  0  0  0  0  0  0  0
    5.3408    0.0795    0.0000 N   0  0  0  0  0  0  0  0  0
    4.6263   -0.3330    0.0000 C   0  0  0  0  0  0  0  0  0
    3.9118    0.0795    0.0000 C   0  0  0  0  0  0  0  0  0
    6.0552   -0.3330    0.0000 C   0  0  0  0  0  0  0  0  0
    6.7697    0.0795    0.0000 C   0  0  0  0  0  0  0  0  0
    7.4842   -0.3330    0.0000 C   0  0  0  0  0  0  0  0  0
    7.4842   -1.1580    0.0000 C   0  0  0  0  0  0  0  0  0
    6.7697   -1.5705    0.0000 C   0  0  0  0  0  0  0  0  0
    6.0552   -1.1580    0.0000 C   0  0  0  0  0  0  0  0  0
    5.3408   -1.5705    0.0000 C   0  0  0  0  0  0  0  0  0
    5.3408   -2.3955    0.0000 C   0  0  0  0  0  0  0  0  0
    6.0552   -2.8080    0.0000 C   0  0  0  0  0  0  0  0  0
    6.7697   -2.3955    0.0000 C   0  0  0  0  0  0  0  0  0
  1  2  2  0  0  0  0
  2  3  1  0  0  0  0
  2 14  1  0  0  0  0
  3  4  1  0  0  0  0
  4  5  1  0  0  0  0
  4  9  1  0  0  0  0
  5  6  1  0  0  0  0
  6  7  1  0  0  0  0
  7  8  1  0  0  0  0
  8  9  4  0  0  0  0
  8 13  4  0  0  0  0
  9 10  4  0  0  0  0
 10 11  4  0  0  0  0
 11 12  4  0  0  0  0
 12 13  4  0  0  0  0
 14 15  1  0  0  0  0
 15 16  1  0  0  0  0
 16 17  1  0  0  0  0
 17 18  1  0  0  0  0
 18 19  1  0  0  0  0
 19 20  1  0  0  0  0
 19 24  1  0  0  0  0
 20 21  1  0  0  0  0
 21 22  1  0  0  0  0
 22 23  1  0  0  0  0
 22 25  1  0  0  0  0
 23 24  1  0  0  0  0
 25 26  4  0  0  0  0
 25 30  4  0  0  0  0
 26 27  4  0  0  0  0
 27 28  4  0  0  0  0
 28 29  4  0  0  0  0
 29 30  4  0  0  0  0
 30 31  1  0  0  0  0
 31 32  1  0  0  0  0
 32 33  1  0  0  0  0
 33 34  1  0  0  0  0
M  END
>  <Name_Molregno>
387311

>  <5-HT1A>
7.22

$$$$
387312
  Marvin  02231216192D 0   1.00000     0.00000     0

 33 36  0  0  1  0  0  0  0  0999 V2000
   -4.8081   -0.4767    0.0000 O   0  0  0  0  0  0  0  0  0
   -4.8081    0.3483    0.0000 C   0  0  0  0  0  0  0  0  0
   -5.5226    0.7608    0.0000 N   0  0  0  0  0  0  0  0  0
   -6.2370    0.3483    0.0000 C   0  0  0  0  0  0  0  0  0
   -6.9515    0.7608    0.0000 C   0  0  0  0  0  0  0  0  0
   -7.6660    0.3483    0.0000 C   0  0  0  0  0  0  0  0  0
   -7.6660   -0.4767    0.0000 C   0  0  0  0  0  0  0  0  0
   -6.9515   -0.8892    0.0000 C   0  0  0  0  0  0  0  0  0
   -6.2370   -0.4767    0.0000 C   0  0  0  0  0  0  0  0  0
   -5.5226   -0.8892    0.0000 C   0  0  0  0  0  0  0  0  0
   -5.5226   -1.7142    0.0000 C   0  0  0  0  0  0  0  0  0
   -6.2370   -2.1267    0.0000 C   0  0  0  0  0  0  0  0  0
   -6.9515   -1.7142    0.0000 C   0  0  0  0  0  0  0  0  0
   -4.0936    0.7608    0.0000 C   0  0  0  0  0  0  0  0  0
   -3.3792    0.3483    0.0000 C   0  0  0  0  0  0  0  0  0
   -2.6647    0.7608    0.0000 C   0  0  0  0  0  0  0  0  0
   -1.9502    0.3483    0.0000 C   0  0  0  0  0  0  0  0  0
   -1.2358    0.7608    0.0000 C   0  0  0  0  0  0  0  0  0
   -0.5213    0.3483    0.0000 N   0  0  0  0  0  0  0  0  0
    0.1932    0.7608    0.0000 C   0  0  0  0  0  0  0  0  0
    0.9077    0.3483    0.0000 C   0  0  0  0  0  0  0  0  0
    0.9077   -0.4767    0.0000 N   0  0  0  0  0  0  0  0  0
    0.1932   -0.8892    0.0000 C   0  0  0  0  0  0  0  0  0
   -0.5213   -0.4767    0.0000 C   0  0  0  0  0  0  0  0  0
    1.6221   -0.8892    0.0000 C   0  0  0  0  0  0  0  0  0
    2.3366   -0.4767    0.0000 C   0  0  0  0  0  0  0  0  0
    3.0511   -0.8892    0.0000 C   0  0  0  0  0  0  0  0  0
    3.0511   -1.7142    0.0000 C   0  0  0  0  0  0  0  0  0
    2.3366   -2.1267    0.0000 C   0  0  0  0  0  0  0  0  0
    1.6221   -1.7142    0.0000 C   0  0  0  0  0  0  0  0  0
    0.9077   -2.1267    0.0000 C   0  0  0  0  0  0  0  0  0
    0.9077   -2.9517    0.0000 C   0  0  0  0  0  0  0  0  0
    0.1932   -1.7142    0.0000 C   0  0  0  0  0  0  0  0  0
  1  2  2  0  0  0  0
  2  3  1  0  0  0  0
  2 14  1  0  0  0  0
  3  4  1  0  0  0  0
  4  5  1  0  0  0  0
  4  9  1  0  0  0  0
  5  6  1  0  0  0  0
  6  7  1  0  0  0  0
  7  8  1  0  0  0  0
  8  9  4  0  0  0  0
  8 13  4  0  0  0  0
  9 10  4  0  0  0  0
 10 11  4  0  0  0  0
 11 12  4  0  0  0  0
 12 13  4  0  0  0  0
 14 15  1  0  0  0  0
 15 16  1  0  0  0  0
 16 17  1  0  0  0  0
 17 18  1  0  0  0  0
 18 19  1  0  0  0  0
 19 20  1  0  0  0  0
 19 24  1  0  0  0  0
 20 21  1  0  0  0  0
 21 22  1  0  0  0  0
 22 23  1  0  0  0  0
 22 25  1  0  0  0  0
 23 24  1  0  0  0  0
 25 26  4  0  0  0  0
 25 30  4  0  0  0  0
 26 27  4  0  0  0  0
 27 28  4  0  0  0  0
 28 29  4  0  0  0  0
 29 30  4  0  0  0  0
 30 31  1  0  0  0  0
 31 32  1  0  0  0  0
 31 33  1  0  0  0  0
M  END
>  <Name_Molregno>
387312

>  <5-HT1A>
6.78

$$$$
387314
  Marvin  02231216192D 0   1.00000     0.00000     0

 34 37  0  0  1  0  0  0  0  0999 V2000
   -5.3457   -0.9934    0.0000 O   0  0  0  0  0  0  0  0  0
   -5.3457   -0.1684    0.0000 C   0  0  0  0  0  0  0  0  0
   -6.0602    0.2441    0.0000 N   0  0  0  0  0  0  0  0  0
   -6.7747   -0.1684    0.0000 C   0  0  0  0  0  0  0  0  0
   -7.4892    0.2441    0.0000 C   0  0  0  0  0  0  0  0  0
   -8.2036   -0.1684    0.0000 C   0  0  0  0  0  0  0  0  0
   -8.2036   -0.9934    0.0000 C   0  0  0  0  0  0  0  0  0
   -7.4892   -1.4059    0.0000 C   0  0  0  0  0  0  0  0  0
   -6.7747   -0.9934    0.0000 C   0  0  0  0  0  0  0  0  0
   -6.0602   -1.4059    0.0000 C   0  0  0  0  0  0  0  0  0
   -6.0602   -2.2309    0.0000 C   0  0  0  0  0  0  0  0  0
   -6.7747   -2.6434    0.0000 C   0  0  0  0  0  0  0  0  0
   -7.4892   -2.2309    0.0000 C   0  0  0  0  0  0  0  0  0
   -4.6313    0.2441    0.0000 C   0  0  0  0  0  0  0  0  0
   -3.9168   -0.1684    0.0000 C   0  0  0  0  0  0  0  0  0
   -3.2023    0.2441    0.0000 C   0  0  0  0  0  0  0  0  0
   -2.4879   -0.1684    0.0000 C   0  0  0  0  0  0  0  0  0
   -1.7734    0.2441    0.0000 C   0  0  0  0  0  0  0  0  0
   -1.0589   -0.1684    0.0000 N   0  0  0  0  0  0  0  0  0
   -0.3445    0.2441    0.0000 C   0  0  0  0  0  0  0  0  0
    0.3700   -0.1684    0.0000 C   0  0  0  0  0  0  0  0  0
    0.3700   -0.9934    0.0000 N   0  0  0  0  0  0  0  0  0
   -0.3445   -1.4059    0.0000 C   0  0  0  0  0  0  0  0  0
   -1.0589   -0.9934    0.0000 C   0  0  0  0  0  0  0  0  0
    1.0845   -1.4059    0.0000 C   0  0  0  0  0  0  0  0  0
    1.7990   -0.9934    0.0000 C   0  0  0  0  0  0  0  0  0
    2.5134   -1.4059    0.0000 C   0  0  0  0  0  0  0  0  0
    2.5134   -2.2309    0.0000 C   0  0  0  0  0  0  0  0  0
    1.7990   -2.6434    0.0000 C   0  0  0  0  0  0  0  0  0
    1.0845   -2.2309    0.0000 C   0  0  0  0  0  0  0  0  0
    0.3700   -2.6434    0.0000 C   0  0  0  0  0  0  0  0  0
   -0.3445   -3.0559    0.0000 C   0  0  0  0  0  0  0  0  0
    0.7825   -3.3579    0.0000 C   0  0  0  0  0  0  0  0  0
   -0.0425   -1.9289    0.0000 C   0  0  0  0  0  0  0  0  0
  1  2  2  0  0  0  0
  2  3  1  0  0  0  0
  2 14  1  0  0  0  0
  3  4  1  0  0  0  0
  4  5  1  0  0  0  0
  4  9  1  0  0  0  0
  5  6  1  0  0  0  0
  6  7  1  0  0  0  0
  7  8  1  0  0  0  0
  8  9  4  0  0  0  0
  8 13  4  0  0  0  0
  9 10  4  0  0  0  0
 10 11  4  0  0  0  0
 11 12  4  0  0  0  0
 12 13  4  0  0  0  0
 14 15  1  0  0  0  0
 15 16  1  0  0  0  0
 16 17  1  0  0  0  0
 17 18  1  0  0  0  0
 18 19  1  0  0  0  0
 19 20  1  0  0  0  0
 19 24  1  0  0  0  0
 20 21  1  0  0  0  0
 21 22  1  0  0  0  0
 22 23  1  0  0  0  0
 22 25  1  0  0  0  0
 23 24  1  0  0  0  0
 25 26  4  0  0  0  0
 25 30  4  0  0  0  0
 26 27  4  0  0  0  0
 27 28  4  0  0  0  0
 28 29  4  0  0  0  0
 29 30  4  0  0  0  0
 30 31  1  0  0  0  0
 31 32  1  0  0  0  0
 31 33  1  0  0  0  0
 31 34  1  0  0  0  0
M  END
>  <Name_Molregno>
387314

>  <5-HT1A>
5.92

$$$$
387316
  Marvin  02231216192D 0   1.00000     0.00000     0

 36 40  0  0  1  0  0  0  0  0999 V2000
   -4.6480   -2.9034    0.0000 O   0  0  0  0  0  0  0  0  0
   -4.6480   -2.0784    0.0000 C   0  0  0  0  0  0  0  0  0
   -5.3624   -1.6659    0.0000 N   0  0  0  0  0  0  0  0  0
   -6.0769   -2.0784    0.0000 C   0  0  0  0  0  0  0  0  0
   -6.7914   -1.6659    0.0000 C   0  0  0  0  0  0  0  0  0
   -7.5059   -2.0784    0.0000 C   0  0  0  0  0  0  0  0  0
   -7.5059   -2.9034    0.0000 C   0  0  0  0  0  0  0  0  0
   -6.7914   -3.3159    0.0000 C   0  0  0  0  0  0  0  0  0
   -6.0769   -2.9034    0.0000 C   0  0  0  0  0  0  0  0  0
   -5.3624   -3.3159    0.0000 C   0  0  0  0  0  0  0  0  0
   -5.3624   -4.1409    0.0000 C   0  0  0  0  0  0  0  0  0
   -6.0769   -4.5534    0.0000 C   0  0  0  0  0  0  0  0  0
   -6.7914   -4.1409    0.0000 C   0  0  0  0  0  0  0  0  0
   -3.9335   -1.6659    0.0000 C   0  0  0  0  0  0  0  0  0
   -3.2190   -2.0784    0.0000 C   0  0  0  0  0  0  0  0  0
   -2.5046   -1.6659    0.0000 C   0  0  0  0  0  0  0  0  0
   -1.7901   -2.0784    0.0000 C   0  0  0  0  0  0  0  0  0
   -1.0756   -1.6659    0.0000 C   0  0  0  0  0  0  0  0  0
   -1.0756   -0.8409    0.0000 N   0  0  0  0  0  0  0  0  0
   -1.7901   -0.4284    0.0000 C   0  0  0  0  0  0  0  0  0
   -1.7901    0.3966    0.0000 C   0  0  0  0  0  0  0  0  0
   -1.0756    0.8091    0.0000 N   0  0  0  0  0  0  0  0  0
   -0.3611    0.3966    0.0000 C   0  0  0  0  0  0  0  0  0
   -0.3611   -0.4284    0.0000 C   0  0  0  0  0  0  0  0  0
   -1.0756    1.6341    0.0000 C   0  0  0  0  0  0  0  0  0
   -1.7901    2.0466    0.0000 C   0  0  0  0  0  0  0  0  0
   -1.7901    2.8716    0.0000 C   0  0  0  0  0  0  0  0  0
   -1.0756    3.2841    0.0000 C   0  0  0  0  0  0  0  0  0
   -0.3611    2.8716    0.0000 C   0  0  0  0  0  0  0  0  0
   -0.3611    2.0466    0.0000 C   0  0  0  0  0  0  0  0  0
    0.3533    1.6341    0.0000 C   0  0  0  0  0  0  0  0  0
    1.0678    2.0466    0.0000 C   0  0  0  0  0  0  0  0  0
    1.7823    1.6341    0.0000 C   0  0  0  0  0  0  0  0  0
    1.7823    0.8091    0.0000 C   0  0  0  0  0  0  0  0  0
    1.0678    0.3966    0.0000 C   0  0  0  0  0  0  0  0  0
    0.3533    0.8091    0.0000 C   0  0  0  0  0  0  0  0  0
  1  2  2  0  0  0  0
  2  3  1  0  0  0  0
  2 14  1  0  0  0  0
  3  4  1  0  0  0  0
  4  5  1  0  0  0  0
  4  9  1  0  0  0  0
  5  6  1  0  0  0  0
  6  7  1  0  0  0  0
  7  8  1  0  0  0  0
  8  9  4  0  0  0  0
  8 13  4  0  0  0  0
  9 10  4  0  0  0  0
 10 11  4  0  0  0  0
 11 12  4  0  0  0  0
 12 13  4  0  0  0  0
 14 15  1  0  0  0  0
 15 16  1  0  0  0  0
 16 17  1  0  0  0  0
 17 18  1  0  0  0  0
 18 19  1  0  0  0  0
 19 20  1  0  0  0  0
 19 24  1  0  0  0  0
 20 21  1  0  0  0  0
 21 22  1  0  0  0  0
 22 23  1  0  0  0  0
 22 25  1  0  0  0  0
 23 24  1  0  0  0  0
 25 26  4  0  0  0  0
 25 30  4  0  0  0  0
 26 27  4  0  0  0  0
 27 28  4  0  0  0  0
 28 29  4  0  0  0  0
 29 30  4  0  0  0  0
 30 31  1  0  0  0  0
 31 32  4  0  0  0  0
 31 36  4  0  0  0  0
 32 33  4  0  0  0  0
 33 34  4  0  0  0  0
 34 35  4  0  0  0  0
 35 36  4  0  0  0  0
M  END
>  <Name_Molregno>
387316

>  <5-HT1A>
7.22

$$$$
387317
  Marvin  02231216192D 0   1.00000     0.00000     0

 33 36  0  0  1  0  0  0  0  0999 V2000
   -4.8081   -0.4767    0.0000 O   0  0  0  0  0  0  0  0  0
   -4.8081    0.3483    0.0000 C   0  0  0  0  0  0  0  0  0
   -5.5226    0.7608    0.0000 N   0  0  0  0  0  0  0  0  0
   -6.2370    0.3483    0.0000 C   0  0  0  0  0  0  0  0  0
   -6.9515    0.7608    0.0000 C   0  0  0  0  0  0  0  0  0
   -7.6660    0.3483    0.0000 C   0  0  0  0  0  0  0  0  0
   -7.6660   -0.4767    0.0000 C   0  0  0  0  0  0  0  0  0
   -6.9515   -0.8892    0.0000 C   0  0  0  0  0  0  0  0  0
   -6.2370   -0.4767    0.0000 C   0  0  0  0  0  0  0  0  0
   -5.5226   -0.8892    0.0000 C   0  0  0  0  0  0  0  0  0
   -5.5226   -1.7142    0.0000 C   0  0  0  0  0  0  0  0  0
   -6.2370   -2.1267    0.0000 C   0  0  0  0  0  0  0  0  0
   -6.9515   -1.7142    0.0000 C   0  0  0  0  0  0  0  0  0
   -4.0936    0.7608    0.0000 C   0  0  0  0  0  0  0  0  0
   -3.3792    0.3483    0.0000 C   0  0  0  0  0  0  0  0  0
   -2.6647    0.7608    0.0000 C   0  0  0  0  0  0  0  0  0
   -1.9502    0.3483    0.0000 C   0  0  0  0  0  0  0  0  0
   -1.2358    0.7608    0.0000 C   0  0  0  0  0  0  0  0  0
   -0.5213    0.3483    0.0000 N   0  0  0  0  0  0  0  0  0
    0.1932    0.7608    0.0000 C   0  0  0  0  0  0  0  0  0
    0.9077    0.3483    0.0000 C   0  0  0  0  0  0  0  0  0
    0.9077   -0.4767    0.0000 N   0  0  0  0  0  0  0  0  0
    0.1932   -0.8892    0.0000 C   0  0  0  0  0  0  0  0  0
   -0.5213   -0.4767    0.0000 C   0  0  0  0  0  0  0  0  0
    1.6221   -0.8892    0.0000 C   0  0  0  0  0  0  0  0  0
    2.3366   -0.4767    0.0000 C   0  0  0  0  0  0  0  0  0
    3.0511   -0.8892    0.0000 C   0  0  0  0  0  0  0  0  0
    3.0511   -1.7142    0.0000 C   0  0  0  0  0  0  0  0  0
    2.3366   -2.1267    0.0000 C   0  0  0  0  0  0  0  0  0
    1.6221   -1.7142    0.0000 C   0  0  0  0  0  0  0  0  0
    0.9077   -2.1267    0.0000 N   0  0  0  0  0  0  0  0  0
    0.9077   -2.9517    0.0000 C   0  0  0  0  0  0  0  0  0
    0.1932   -1.7142    0.0000 C   0  0  0  0  0  0  0  0  0
  1  2  2  0  0  0  0
  2  3  1  0  0  0  0
  2 14  1  0  0  0  0
  3  4  1  0  0  0  0
  4  5  1  0  0  0  0
  4  9  1  0  0  0  0
  5  6  1  0  0  0  0
  6  7  1  0  0  0  0
  7  8  1  0  0  0  0
  8  9  4  0  0  0  0
  8 13  4  0  0  0  0
  9 10  4  0  0  0  0
 10 11  4  0  0  0  0
 11 12  4  0  0  0  0
 12 13  4  0  0  0  0
 14 15  1  0  0  0  0
 15 16  1  0  0  0  0
 16 17  1  0  0  0  0
 17 18  1  0  0  0  0
 18 19  1  0  0  0  0
 19 20  1  0  0  0  0
 19 24  1  0  0  0  0
 20 21  1  0  0  0  0
 21 22  1  0  0  0  0
 22 23  1  0  0  0  0
 22 25  1  0  0  0  0
 23 24  1  0  0  0  0
 25 26  4  0  0  0  0
 25 30  4  0  0  0  0
 26 27  4  0  0  0  0
 27 28  4  0  0  0  0
 28 29  4  0  0  0  0
 29 30  4  0  0  0  0
 30 31  1  0  0  0  0
 31 32  1  0  0  0  0
 31 33  1  0  0  0  0
M  END
>  <Name_Molregno>
387317

>  <5-HT1A>
6.95

$$$$
387318
  Marvin  02231216192D 0   1.00000     0.00000     0

 32 35  0  0  1  0  0  0  0  0999 V2000
   -4.6104   -0.4748    0.0000 O   0  0  0  0  0  0  0  0  0
   -4.6104    0.3502    0.0000 C   0  0  0  0  0  0  0  0  0
   -5.3249    0.7627    0.0000 N   0  0  0  0  0  0  0  0  0
   -6.0393    0.3502    0.0000 C   0  0  0  0  0  0  0  0  0
   -6.7538    0.7627    0.0000 C   0  0  0  0  0  0  0  0  0
   -7.4683    0.3502    0.0000 C   0  0  0  0  0  0  0  0  0
   -7.4683   -0.4748    0.0000 C   0  0  0  0  0  0  0  0  0
   -6.7538   -0.8873    0.0000 C   0  0  0  0  0  0  0  0  0
   -6.0393   -0.4748    0.0000 C   0  0  0  0  0  0  0  0  0
   -5.3249   -0.8873    0.0000 C   0  0  0  0  0  0  0  0  0
   -5.3249   -1.7123    0.0000 C   0  0  0  0  0  0  0  0  0
   -6.0393   -2.1248    0.0000 C   0  0  0  0  0  0  0  0  0
   -6.7538   -1.7123    0.0000 C   0  0  0  0  0  0  0  0  0
   -3.8959    0.7627    0.0000 C   0  0  0  0  0  0  0  0  0
   -3.1815    0.3502    0.0000 C   0  0  0  0  0  0  0  0  0
   -2.4670    0.7627    0.0000 C   0  0  0  0  0  0  0  0  0
   -1.7525    0.3502    0.0000 C   0  0  0  0  0  0  0  0  0
   -1.0380    0.7627    0.0000 C   0  0  0  0  0  0  0  0  0
   -0.3236    0.3502    0.0000 N   0  0  0  0  0  0  0  0  0
    0.3909    0.7627    0.0000 C   0  0  0  0  0  0  0  0  0
    1.1054    0.3502    0.0000 C   0  0  0  0  0  0  0  0  0
    1.1054   -0.4748    0.0000 N   0  0  0  0  0  0  0  0  0
    0.3909   -0.8873    0.0000 C   0  0  0  0  0  0  0  0  0
   -0.3236   -0.4748    0.0000 C   0  0  0  0  0  0  0  0  0
    1.8198   -0.8873    0.0000 C   0  0  0  0  0  0  0  0  0
    2.5343   -0.4748    0.0000 C   0  0  0  0  0  0  0  0  0
    3.2488   -0.8873    0.0000 C   0  0  0  0  0  0  0  0  0
    3.2488   -1.7123    0.0000 C   0  0  0  0  0  0  0  0  0
    2.5343   -2.1248    0.0000 C   0  0  0  0  0  0  0  0  0
    1.8198   -1.7123    0.0000 C   0  0  0  0  0  0  0  0  0
    1.1054   -2.1248    0.0000 N   0  0  0  0  0  0  0  0  0
    1.1054   -2.9498    0.0000 C   0  0  0  0  0  0  0  0  0
  1  2  2  0  0  0  0
  2  3  1  0  0  0  0
  2 14  1  0  0  0  0
  3  4  1  0  0  0  0
  4  5  1  0  0  0  0
  4  9  1  0  0  0  0
  5  6  1  0  0  0  0
  6  7  1  0  0  0  0
  7  8  1  0  0  0  0
  8  9  4  0  0  0  0
  8 13  4  0  0  0  0
  9 10  4  0  0  0  0
 10 11  4  0  0  0  0
 11 12  4  0  0  0  0
 12 13  4  0  0  0  0
 14 15  1  0  0  0  0
 15 16  1  0  0  0  0
 16 17  1  0  0  0  0
 17 18  1  0  0  0  0
 18 19  1  0  0  0  0
 19 20  1  0  0  0  0
 19 24  1  0  0  0  0
 20 21  1  0  0  0  0
 21 22  1  0  0  0  0
 22 23  1  0  0  0  0
 22 25  1  0  0  0  0
 23 24  1  0  0  0  0
 25 26  4  0  0  0  0
 25 30  4  0  0  0  0
 26 27  4  0  0  0  0
 27 28  4  0  0  0  0
 28 29  4  0  0  0  0
 29 30  4  0  0  0  0
 30 31  1  0  0  0  0
 31 32  1  0  0  0  0
M  END
>  <Name_Molregno>
387318

>  <5-HT1A>
6.88

$$$$
387319
  Marvin  02231216192D 0   1.00000     0.00000     0

 31 34  0  0  1  0  0  0  0  0999 V2000
   -0.2357   -0.5324    0.0000 O   0  0  0  0  0  0  0  0  0
   -0.2357    0.2926    0.0000 C   0  0  0  0  0  0  0  0  0
   -0.9501    0.7051    0.0000 N   0  0  0  0  0  0  0  0  0
   -1.6646    0.2926    0.0000 C   0  0  0  0  0  0  0  0  0
   -2.3791    0.7051    0.0000 C   0  0  0  0  0  0  0  0  0
   -3.0936    0.2926    0.0000 C   0  0  0  0  0  0  0  0  0
   -3.0936   -0.5324    0.0000 C   0  0  0  0  0  0  0  0  0
   -2.3791   -0.9449    0.0000 C   0  0  0  0  0  0  0  0  0
   -1.6646   -0.5324    0.0000 C   0  0  0  0  0  0  0  0  0
   -0.9501   -0.9449    0.0000 C   0  0  0  0  0  0  0  0  0
   -0.9501   -1.7699    0.0000 C   0  0  0  0  0  0  0  0  0
   -1.6646   -2.1824    0.0000 C   0  0  0  0  0  0  0  0  0
   -2.3791   -1.7699    0.0000 C   0  0  0  0  0  0  0  0  0
    0.4788    0.7051    0.0000 C   0  0  0  0  0  0  0  0  0
    1.1933    0.2926    0.0000 C   0  0  0  0  0  0  0  0  0
    1.9077    0.7051    0.0000 C   0  0  0  0  0  0  0  0  0
    2.6222    0.2926    0.0000 C   0  0  0  0  0  0  0  0  0
    3.3367    0.7051    0.0000 C   0  0  0  0  0  0  0  0  0
    4.0512    0.2926    0.0000 N   0  0  0  0  0  0  0  0  0
    4.7656    0.7051    0.0000 C   0  0  0  0  0  0  0  0  0
    5.4801    0.2926    0.0000 C   0  0  0  0  0  0  0  0  0
    5.4801   -0.5324    0.0000 N   0  0  0  0  0  0  0  0  0
    4.7656   -0.9449    0.0000 C   0  0  0  0  0  0  0  0  0
    4.0512   -0.5324    0.0000 C   0  0  0  0  0  0  0  0  0
    6.1946   -0.9449    0.0000 C   0  0  0  0  0  0  0  0  0
    6.9090   -0.5324    0.0000 C   0  0  0  0  0  0  0  0  0
    7.6235   -0.9449    0.0000 C   0  0  0  0  0  0  0  0  0
    7.6235   -1.7699    0.0000 C   0  0  0  0  0  0  0  0  0
    6.9090   -2.1824    0.0000 C   0  0  0  0  0  0  0  0  0
    6.1946   -1.7699    0.0000 C   0  0  0  0  0  0  0  0  0
    5.4801   -2.1824    0.0000 N   0  0  0  0  0  0  0  0  0
  1  2  2  0  0  0  0
  2  3  1  0  0  0  0
  2 14  1  0  0  0  0
  3  4  1  0  0  0  0
  4  5  1  0  0  0  0
  4  9  1  0  0  0  0
  5  6  1  0  0  0  0
  6  7  1  0  0  0  0
  7  8  1  0  0  0  0
  8  9  4  0  0  0  0
  8 13  4  0  0  0  0
  9 10  4  0  0  0  0
 10 11  4  0  0  0  0
 11 12  4  0  0  0  0
 12 13  4  0  0  0  0
 14 15  1  0  0  0  0
 15 16  1  0  0  0  0
 16 17  1  0  0  0  0
 17 18  1  0  0  0  0
 18 19  1  0  0  0  0
 19 20  1  0  0  0  0
 19 24  1  0  0  0  0
 20 21  1  0  0  0  0
 21 22  1  0  0  0  0
 22 23  1  0  0  0  0
 22 25  1  0  0  0  0
 23 24  1  0  0  0  0
 25 26  4  0  0  0  0
 25 30  4  0  0  0  0
 26 27  4  0  0  0  0
 27 28  4  0  0  0  0
 28 29  4  0  0  0  0
 29 30  4  0  0  0  0
 30 31  1  0  0  0  0
M  END
>  <Name_Molregno>
387319

>  <5-HT1A>
6.38

$$$$
387320
  Marvin  02231216192D 0   1.00000     0.00000     0

 34 37  0  0  1  0  0  0  0  0999 V2000
   -0.0241   -0.3633    0.0000 O   0  0  0  0  0  0  0  0  0
   -0.0241    0.4617    0.0000 C   0  0  0  0  0  0  0  0  0
   -0.7385    0.8742    0.0000 N   0  0  0  0  0  0  0  0  0
   -1.4530    0.4617    0.0000 C   0  0  0  0  0  0  0  0  0
   -2.1675    0.8742    0.0000 C   0  0  0  0  0  0  0  0  0
   -2.8819    0.4617    0.0000 C   0  0  0  0  0  0  0  0  0
   -2.8819   -0.3633    0.0000 C   0  0  0  0  0  0  0  0  0
   -2.1675   -0.7758    0.0000 C   0  0  0  0  0  0  0  0  0
   -1.4530   -0.3633    0.0000 C   0  0  0  0  0  0  0  0  0
   -0.7385   -0.7758    0.0000 C   0  0  0  0  0  0  0  0  0
   -0.7385   -1.6008    0.0000 C   0  0  0  0  0  0  0  0  0
   -1.4530   -2.0133    0.0000 C   0  0  0  0  0  0  0  0  0
   -2.1675   -1.6008    0.0000 C   0  0  0  0  0  0  0  0  0
    0.6904    0.8742    0.0000 C   0  0  0  0  0  0  0  0  0
    1.4049    0.4617    0.0000 C   0  0  0  0  0  0  0  0  0
    2.1194    0.8742    0.0000 C   0  0  0  0  0  0  0  0  0
    2.8338    0.4617    0.0000 C   0  0  0  0  0  0  0  0  0
    3.5483    0.8742    0.0000 C   0  0  0  0  0  0  0  0  0
    4.2628    0.4617    0.0000 N   0  0  0  0  0  0  0  0  0
    4.9772    0.8742    0.0000 C   0  0  0  0  0  0  0  0  0
    5.6917    0.4617    0.0000 C   0  0  0  0  0  0  0  0  0
    5.6917   -0.3633    0.0000 N   0  0  0  0  0  0  0  0  0
    4.9772   -0.7758    0.0000 C   0  0  0  0  0  0  0  0  0
    4.2628   -0.3633    0.0000 C   0  0  0  0  0  0  0  0  0
    6.4062   -0.7758    0.0000 C   0  0  0  0  0  0  0  0  0
    7.1207   -0.3633    0.0000 C   0  0  0  0  0  0  0  0  0
    7.8351   -0.7758    0.0000 C   0  0  0  0  0  0  0  0  0
    7.8351   -1.6008    0.0000 C   0  0  0  0  0  0  0  0  0
    7.1207   -2.0133    0.0000 C   0  0  0  0  0  0  0  0  0
    6.4062   -1.6008    0.0000 C   0  0  0  0  0  0  0  0  0
    5.6917   -2.0133    0.0000 N   0  0  0  0  0  0  0  0  0
    5.6917   -2.8383    0.0000 C   0  0  0  0  0  0  0  0  0
    6.4062   -3.2508    0.0000 O   0  0  0  0  0  0  0  0  0
    4.9772   -3.2508    0.0000 C   0  0  0  0  0  0  0  0  0
  1  2  2  0  0  0  0
  2  3  1  0  0  0  0
  2 14  1  0  0  0  0
  3  4  1  0  0  0  0
  4  5  1  0  0  0  0
  4  9  1  0  0  0  0
  5  6  1  0  0  0  0
  6  7  1  0  0  0  0
  7  8  1  0  0  0  0
  8  9  4  0  0  0  0
  8 13  4  0  0  0  0
  9 10  4  0  0  0  0
 10 11  4  0  0  0  0
 11 12  4  0  0  0  0
 12 13  4  0  0  0  0
 14 15  1  0  0  0  0
 15 16  1  0  0  0  0
 16 17  1  0  0  0  0
 17 18  1  0  0  0  0
 18 19  1  0  0  0  0
 19 20  1  0  0  0  0
 19 24  1  0  0  0  0
 20 21  1  0  0  0  0
 21 22  1  0  0  0  0
 22 23  1  0  0  0  0
 22 25  1  0  0  0  0
 23 24  1  0  0  0  0
 25 26  4  0  0  0  0
 25 30  4  0  0  0  0
 26 27  4  0  0  0  0
 27 28  4  0  0  0  0
 28 29  4  0  0  0  0
 29 30  4  0  0  0  0
 30 31  1  0  0  0  0
 31 32  1  0  0  0  0
 32 33  2  0  0  0  0
 32 34  1  0  0  0  0
M  END
>  <Name_Molregno>
387320

>  <5-HT1A>
5.6

$$$$
387327
  Marvin  02231216192D 0   1.00000     0.00000     0

 31 34  0  0  1  0  0  0  0  0999 V2000
    1.2535   -2.3558    0.0000 F   0  0  0  0  0  0  0  0  0
    0.5390   -1.9433    0.0000 C   0  0  0  0  0  0  0  0  0
   -0.1754   -2.3558    0.0000 C   0  0  0  0  0  0  0  0  0
   -0.8899   -1.9433    0.0000 C   0  0  0  0  0  0  0  0  0
   -0.8899   -1.1183    0.0000 C   0  0  0  0  0  0  0  0  0
   -0.1754   -0.7058    0.0000 C   0  0  0  0  0  0  0  0  0
    0.5390   -1.1183    0.0000 C   0  0  0  0  0  0  0  0  0
    1.2535   -0.7058    0.0000 N   0  0  0  0  0  0  0  0  0
    1.2535    0.1192    0.0000 C   0  0  0  0  0  0  0  0  0
    1.9680    0.5317    0.0000 C   0  0  0  0  0  0  0  0  0
    2.6825    0.1192    0.0000 N   0  0  0  0  0  0  0  0  0
    2.6825   -0.7058    0.0000 C   0  0  0  0  0  0  0  0  0
    1.9680   -1.1183    0.0000 C   0  0  0  0  0  0  0  0  0
    3.3969    0.5317    0.0000 C   0  0  0  0  0  0  0  0  0
    4.1114    0.1192    0.0000 C   0  0  0  0  0  0  0  0  0
    4.8259    0.5317    0.0000 C   0  0  0  0  0  0  0  0  0
    5.5403    0.1192    0.0000 C   0  0  0  0  0  0  0  0  0
    6.2548    0.5317    0.0000 C   0  0  0  0  0  0  0  0  0
    6.9693    0.1192    0.0000 C   0  0  0  0  0  0  0  0  0
    6.9693   -0.7058    0.0000 O   0  0  0  0  0  0  0  0  0
    7.6838    0.5317    0.0000 N   0  0  0  0  0  0  0  0  0
    8.3982    0.1192    0.0000 C   0  0  0  0  0  0  0  0  0
    8.3982   -0.7058    0.0000 C   0  0  0  0  0  0  0  0  0
    9.1127   -1.1183    0.0000 C   0  0  0  0  0  0  0  0  0
    9.8272   -0.7058    0.0000 C   0  0  0  0  0  0  0  0  0
    9.8272    0.1192    0.0000 C   0  0  0  0  0  0  0  0  0
    9.1127    0.5317    0.0000 C   0  0  0  0  0  0  0  0  0
    9.1127    1.3567    0.0000 C   0  0  0  0  0  0  0  0  0
    9.8272    1.7692    0.0000 C   0  0  0  0  0  0  0  0  0
   10.5416    1.3567    0.0000 C   0  0  0  0  0  0  0  0  0
   10.5416    0.5317    0.0000 C   0  0  0  0  0  0  0  0  0
  1  2  1  0  0  0  0
  2  3  4  0  0  0  0
  2  7  4  0  0  0  0
  3  4  4  0  0  0  0
  4  5  4  0  0  0  0
  5  6  4  0  0  0  0
  6  7  4  0  0  0  0
  7  8  1  0  0  0  0
  8  9  1  0  0  0  0
  8 13  1  0  0  0  0
  9 10  1  0  0  0  0
 10 11  1  0  0  0  0
 11 12  1  0  0  0  0
 11 14  1  0  0  0  0
 12 13  1  0  0  0  0
 14 15  1  0  0  0  0
 15 16  1  0  0  0  0
 16 17  1  0  0  0  0
 17 18  1  0  0  0  0
 18 19  1  0  0  0  0
 19 20  2  0  0  0  0
 19 21  1  0  0  0  0
 21 22  1  0  0  0  0
 22 23  1  0  0  0  0
 22 27  1  0  0  0  0
 23 24  1  0  0  0  0
 24 25  1  0  0  0  0
 25 26  1  0  0  0  0
 26 27  4  0  0  0  0
 26 31  4  0  0  0  0
 27 28  4  0  0  0  0
 28 29  4  0  0  0  0
 29 30  4  0  0  0  0
 30 31  4  0  0  0  0
M  END
>  <Name_Molregno>
387327

>  <5-HT1A>
7.53

$$$$
387332
  Marvin  02231216192D 0   1.00000     0.00000     0

 30 33  0  0  1  0  0  0  0  0999 V2000
   -0.2912   -0.6030    0.0000 O   0  0  0  0  0  0  0  0  0
   -0.2912    0.2220    0.0000 C   0  0  0  0  0  0  0  0  0
   -1.0056    0.6345    0.0000 N   0  0  0  0  0  0  0  0  0
   -1.7201    0.2220    0.0000 C   0  0  0  0  0  0  0  0  0
   -2.4346    0.6345    0.0000 C   0  0  0  0  0  0  0  0  0
   -3.1491    0.2220    0.0000 C   0  0  0  0  0  0  0  0  0
   -3.1491   -0.6030    0.0000 C   0  0  0  0  0  0  0  0  0
   -2.4346   -1.0155    0.0000 C   0  0  0  0  0  0  0  0  0
   -1.7201   -0.6030    0.0000 C   0  0  0  0  0  0  0  0  0
   -1.0056   -1.0155    0.0000 C   0  0  0  0  0  0  0  0  0
   -1.0056   -1.8405    0.0000 C   0  0  0  0  0  0  0  0  0
   -1.7201   -2.2530    0.0000 C   0  0  0  0  0  0  0  0  0
   -2.4346   -1.8405    0.0000 C   0  0  0  0  0  0  0  0  0
    0.4233    0.6345    0.0000 C   0  0  0  0  0  0  0  0  0
    1.1378    0.2220    0.0000 C   0  0  0  0  0  0  0  0  0
    1.8522    0.6345    0.0000 C   0  0  0  0  0  0  0  0  0
    2.5667    0.2220    0.0000 C   0  0  0  0  0  0  0  0  0
    3.2812    0.6345    0.0000 C   0  0  0  0  0  0  0  0  0
    3.9957    0.2220    0.0000 N   0  0  0  0  0  0  0  0  0
    4.7101    0.6345    0.0000 C   0  0  0  0  0  0  0  0  0
    5.4246    0.2220    0.0000 C   0  0  0  0  0  0  0  0  0
    5.4246   -0.6030    0.0000 N   0  0  0  0  0  0  0  0  0
    4.7101   -1.0155    0.0000 C   0  0  0  0  0  0  0  0  0
    3.9957   -0.6030    0.0000 C   0  0  0  0  0  0  0  0  0
    6.1391   -1.0155    0.0000 C   0  0  0  0  0  0  0  0  0
    6.8535   -0.6030    0.0000 N   0  0  0  0  0  0  0  0  0
    7.5680   -1.0155    0.0000 C   0  0  0  0  0  0  0  0  0
    7.5680   -1.8405    0.0000 C   0  0  0  0  0  0  0  0  0
    6.8535   -2.2530    0.0000 C   0  0  0  0  0  0  0  0  0
    6.1391   -1.8405    0.0000 C   0  0  0  0  0  0  0  0  0
  1  2  2  0  0  0  0
  2  3  1  0  0  0  0
  2 14  1  0  0  0  0
  3  4  1  0  0  0  0
  4  5  1  0  0  0  0
  4  9  1  0  0  0  0
  5  6  1  0  0  0  0
  6  7  1  0  0  0  0
  7  8  1  0  0  0  0
  8  9  4  0  0  0  0
  8 13  4  0  0  0  0
  9 10  4  0  0  0  0
 10 11  4  0  0  0  0
 11 12  4  0  0  0  0
 12 13  4  0  0  0  0
 14 15  1  0  0  0  0
 15 16  1  0  0  0  0
 16 17  1  0  0  0  0
 17 18  1  0  0  0  0
 18 19  1  0  0  0  0
 19 20  1  0  0  0  0
 19 24  1  0  0  0  0
 20 21  1  0  0  0  0
 21 22  1  0  0  0  0
 22 23  1  0  0  0  0
 22 25  1  0  0  0  0
 23 24  1  0  0  0  0
 25 26  4  0  0  0  0
 25 30  4  0  0  0  0
 26 27  4  0  0  0  0
 27 28  4  0  0  0  0
 28 29  4  0  0  0  0
 29 30  4  0  0  0  0
M  END
>  <Name_Molregno>
387332

>  <5-HT1A>
7.44

$$$$
387333
  Marvin  02231216192D 0   1.00000     0.00000     0

 31 34  0  0  1  0  0  0  0  0999 V2000
   -0.2818   -0.6122    0.0000 O   0  0  0  0  0  0  0  0  0
   -0.2818    0.2128    0.0000 C   0  0  0  0  0  0  0  0  0
   -0.9962    0.6253    0.0000 N   0  0  0  0  0  0  0  0  0
   -1.7107    0.2128    0.0000 C   0  0  0  0  0  0  0  0  0
   -2.4252    0.6253    0.0000 C   0  0  0  0  0  0  0  0  0
   -3.1396    0.2128    0.0000 C   0  0  0  0  0  0  0  0  0
   -3.1396   -0.6122    0.0000 C   0  0  0  0  0  0  0  0  0
   -2.4252   -1.0247    0.0000 C   0  0  0  0  0  0  0  0  0
   -1.7107   -0.6122    0.0000 C   0  0  0  0  0  0  0  0  0
   -0.9962   -1.0247    0.0000 C   0  0  0  0  0  0  0  0  0
   -0.9962   -1.8497    0.0000 C   0  0  0  0  0  0  0  0  0
   -1.7107   -2.2622    0.0000 C   0  0  0  0  0  0  0  0  0
   -2.4252   -1.8497    0.0000 C   0  0  0  0  0  0  0  0  0
    0.4327    0.6253    0.0000 C   0  0  0  0  0  0  0  0  0
    1.1472    0.2128    0.0000 C   0  0  0  0  0  0  0  0  0
    1.8617    0.6253    0.0000 C   0  0  0  0  0  0  0  0  0
    2.5761    0.2128    0.0000 C   0  0  0  0  0  0  0  0  0
    3.2906    0.6253    0.0000 C   0  0  0  0  0  0  0  0  0
    4.0051    0.2128    0.0000 N   0  0  0  0  0  0  0  0  0
    4.7195    0.6253    0.0000 C   0  0  0  0  0  0  0  0  0
    5.4340    0.2128    0.0000 C   0  0  0  0  0  0  0  0  0
    5.4340   -0.6122    0.0000 N   0  0  0  0  0  0  0  0  0
    4.7195   -1.0247    0.0000 C   0  0  0  0  0  0  0  0  0
    4.0051   -0.6122    0.0000 C   0  0  0  0  0  0  0  0  0
    6.1485   -1.0247    0.0000 C   0  0  0  0  0  0  0  0  0
    6.8629   -0.6122    0.0000 N   0  3  0  0  0  0  0  0  0
    6.8629    0.2128    0.0000 O   0  5  0  0  0  0  0  0  0
    7.5774   -1.0247    0.0000 C   0  0  0  0  0  0  0  0  0
    7.5774   -1.8497    0.0000 C   0  0  0  0  0  0  0  0  0
    6.8629   -2.2622    0.0000 C   0  0  0  0  0  0  0  0  0
    6.1485   -1.8497    0.0000 C   0  0  0  0  0  0  0  0  0
  1  2  2  0  0  0  0
  2  3  1  0  0  0  0
  2 14  1  0  0  0  0
  3  4  1  0  0  0  0
  4  5  1  0  0  0  0
  4  9  1  0  0  0  0
  5  6  1  0  0  0  0
  6  7  1  0  0  0  0
  7  8  1  0  0  0  0
  8  9  4  0  0  0  0
  8 13  4  0  0  0  0
  9 10  4  0  0  0  0
 10 11  4  0  0  0  0
 11 12  4  0  0  0  0
 12 13  4  0  0  0  0
 14 15  1  0  0  0  0
 15 16  1  0  0  0  0
 16 17  1  0  0  0  0
 17 18  1  0  0  0  0
 18 19  1  0  0  0  0
 19 20  1  0  0  0  0
 19 24  1  0  0  0  0
 20 21  1  0  0  0  0
 21 22  1  0  0  0  0
 22 23  1  0  0  0  0
 22 25  1  0  0  0  0
 23 24  1  0  0  0  0
 25 26  4  0  0  0  0
 25 31  4  0  0  0  0
 26 27  1  0  0  0  0
 26 28  4  0  0  0  0
 28 29  4  0  0  0  0
 29 30  4  0  0  0  0
 30 31  4  0  0  0  0
M  CHG  2  26   1  27  -1
M  END
>  <Name_Molregno>
387333

>  <5-HT1A>
6.71

$$$$
388319
  Marvin  02231216192D 0   1.00000     0.00000     0

 33 36  0  0  0  0  0  0  0  0999 V2000
  -10.0001    0.3660    0.0000 O   0  0  0  0  0  0  0  0  0
  -10.7146   -0.0465    0.0000 C   0  0  0  0  0  0  0  0  0
  -10.0001    1.1910    0.0000 C   0  0  0  0  0  0  0  0  0
  -10.7146    1.6035    0.0000 C   0  0  0  0  0  0  0  0  0
  -10.7146    2.4285    0.0000 C   0  0  0  0  0  0  0  0  0
  -10.0001    2.8410    0.0000 C   0  0  0  0  0  0  0  0  0
   -9.2857    2.4285    0.0000 C   0  0  0  0  0  0  0  0  0
   -9.2857    1.6035    0.0000 C   0  0  0  0  0  0  0  0  0
   -8.5712    1.1910    0.0000 N   0  0  0  0  0  0  0  0  0
   -7.8567    1.6035    0.0000 C   0  0  0  0  0  0  0  0  0
   -7.1423    1.1910    0.0000 C   0  0  0  0  0  0  0  0  0
   -7.1423    0.3660    0.0000 N   0  0  0  0  0  0  0  0  0
   -7.8567   -0.0465    0.0000 C   0  0  0  0  0  0  0  0  0
   -8.5712    0.3660    0.0000 C   0  0  0  0  0  0  0  0  0
   -6.4278   -0.0465    0.0000 C   0  0  0  0  0  0  0  0  0
   -5.7133    0.3660    0.0000 C   0  0  0  0  0  0  0  0  0
   -4.9988   -0.0465    0.0000 C   0  0  0  0  0  0  0  0  0
   -4.2844    0.3660    0.0000 C   0  0  0  0  0  0  0  0  0
   -3.5699   -0.0465    0.0000 N   0  0  0  0  0  0  0  0  0
   -2.8554    0.3660    0.0000 C   0  0  0  0  0  0  0  0  0
   -2.8554    1.1910    0.0000 O   0  0  0  0  0  0  0  0  0
   -2.1410   -0.0465    0.0000 C   0  0  0  0  0  0  0  0  0
   -1.4265    0.3660    0.0000 C   0  0  0  0  0  0  0  0  0
   -0.7120   -0.0465    0.0000 C   0  0  0  0  0  0  0  0  0
   -0.7120   -0.8715    0.0000 C   0  0  0  0  0  0  0  0  0
   -1.4265   -1.2840    0.0000 C   0  0  0  0  0  0  0  0  0
   -2.1410   -0.8715    0.0000 C   0  0  0  0  0  0  0  0  0
    0.0024   -1.2840    0.0000 C   0  0  0  0  0  0  0  0  0
    0.7169   -0.8715    0.0000 N   0  0  0  0  0  0  0  0  0
    1.4314   -1.2840    0.0000 C   0  0  0  0  0  0  0  0  0
    1.4314   -2.1090    0.0000 C   0  0  0  0  0  0  0  0  0
    0.7169   -2.5215    0.0000 C   0  0  0  0  0  0  0  0  0
    0.0024   -2.1090    0.0000 C   0  0  0  0  0  0  0  0  0
  1  2  1  0  0  0  0
  1  3  1  0  0  0  0
  3  4  4  0  0  0  0
  3  8  4  0  0  0  0
  4  5  4  0  0  0  0
  5  6  4  0  0  0  0
  6  7  4  0  0  0  0
  7  8  4  0  0  0  0
  8  9  1  0  0  0  0
  9 10  1  0  0  0  0
  9 14  1  0  0  0  0
 10 11  1  0  0  0  0
 11 12  1  0  0  0  0
 12 13  1  0  0  0  0
 12 15  1  0  0  0  0
 13 14  1  0  0  0  0
 15 16  1  0  0  0  0
 16 17  1  0  0  0  0
 17 18  1  0  0  0  0
 18 19  1  0  0  0  0
 19 20  1  0  0  0  0
 20 21  2  0  0  0  0
 20 22  1  0  0  0  0
 22 23  4  0  0  0  0
 22 27  4  0  0  0  0
 23 24  4  0  0  0  0
 24 25  4  0  0  0  0
 25 26  4  0  0  0  0
 25 28  1  0  0  0  0
 26 27  4  0  0  0  0
 28 29  4  0  0  0  0
 28 33  4  0  0  0  0
 29 30  4  0  0  0  0
 30 31  4  0  0  0  0
 31 32  4  0  0  0  0
 32 33  4  0  0  0  0
M  END
>  <Name_Molregno>
388319

>  <5-HT1A>
8.17

>  <5-HT2A>
6.64

>  <5-HT2C>
6.13

>  <DOPAMINE D2>
7.55

>  <DOPAMINE D3>
9.4

$$$$
388321
  Marvin  02231216192D 0   1.00000     0.00000     0

 34 37  0  0  0  0  0  0  0  0999 V2000
   -8.6886    2.9310    0.0000 Cl  0  0  0  0  0  0  0  0  0
   -8.6886    2.1060    0.0000 C   0  0  0  0  0  0  0  0  0
   -7.9741    1.6935    0.0000 C   0  0  0  0  0  0  0  0  0
   -7.2596    2.1060    0.0000 N   0  0  0  0  0  0  0  0  0
   -7.2596    2.9310    0.0000 C   0  0  0  0  0  0  0  0  0
   -6.5451    3.3435    0.0000 C   0  0  0  0  0  0  0  0  0
   -5.8307    2.9310    0.0000 N   0  0  0  0  0  0  0  0  0
   -5.8307    2.1060    0.0000 C   0  0  0  0  0  0  0  0  0
   -6.5451    1.6935    0.0000 C   0  0  0  0  0  0  0  0  0
   -5.1162    3.3435    0.0000 C   0  0  0  0  0  0  0  0  0
   -4.4017    2.9310    0.0000 C   0  0  0  0  0  0  0  0  0
   -4.4017    2.1060    0.0000 C   0  0  0  0  0  0  0  0  0
   -3.6873    1.6935    0.0000 C   0  0  0  0  0  0  0  0  0
   -3.6873    0.8685    0.0000 N   0  0  0  0  0  0  0  0  0
   -2.9728    0.4560    0.0000 C   0  0  0  0  0  0  0  0  0
   -2.2583    0.8685    0.0000 O   0  0  0  0  0  0  0  0  0
   -2.9728   -0.3690    0.0000 C   0  0  0  0  0  0  0  0  0
   -2.2583   -0.7815    0.0000 C   0  0  0  0  0  0  0  0  0
   -2.2583   -1.6065    0.0000 C   0  0  0  0  0  0  0  0  0
   -2.9728   -2.0190    0.0000 C   0  0  0  0  0  0  0  0  0
   -3.6873   -1.6065    0.0000 C   0  0  0  0  0  0  0  0  0
   -3.6873   -0.7815    0.0000 C   0  0  0  0  0  0  0  0  0
   -2.9728   -2.8440    0.0000 C   0  0  0  0  0  0  0  0  0
   -2.2583   -3.2565    0.0000 N   0  0  0  0  0  0  0  0  0
   -2.2583   -4.0815    0.0000 C   0  0  0  0  0  0  0  0  0
   -1.5438   -4.4940    0.0000 O   0  0  0  0  0  0  0  0  0
   -2.9728   -4.4940    0.0000 C   0  0  0  0  0  0  0  0  0
   -3.6873   -4.0815    0.0000 C   0  0  0  0  0  0  0  0  0
   -3.6873   -3.2565    0.0000 C   0  0  0  0  0  0  0  0  0
   -7.9741    0.8685    0.0000 C   0  0  0  0  0  0  0  0  0
   -8.6886    0.4560    0.0000 C   0  0  0  0  0  0  0  0  0
   -9.4030    0.8685    0.0000 C   0  0  0  0  0  0  0  0  0
   -9.4030    1.6935    0.0000 C   0  0  0  0  0  0  0  0  0
  -10.1175    2.1060    0.0000 Cl  0  0  0  0  0  0  0  0  0
  1  2  1  0  0  0  0
  2  3  4  0  0  0  0
  2 33  4  0  0  0  0
  3  4  1  0  0  0  0
  3 30  4  0  0  0  0
  4  5  1  0  0  0  0
  4  9  1  0  0  0  0
  5  6  1  0  0  0  0
  6  7  1  0  0  0  0
  7  8  1  0  0  0  0
  7 10  1  0  0  0  0
  8  9  1  0  0  0  0
 10 11  1  0  0  0  0
 11 12  2  0  0  0  0
 12 13  1  0  0  0  0
 13 14  1  0  0  0  0
 14 15  1  0  0  0  0
 15 16  2  0  0  0  0
 15 17  1  0  0  0  0
 17 18  4  0  0  0  0
 17 22  4  0  0  0  0
 18 19  4  0  0  0  0
 19 20  4  0  0  0  0
 20 21  4  0  0  0  0
 20 23  1  0  0  0  0
 21 22  4  0  0  0  0
 23 24  1  0  0  0  0
 23 29  2  0  0  0  0
 24 25  1  0  0  0  0
 25 26  2  0  0  0  0
 25 27  1  0  0  0  0
 27 28  2  0  0  0  0
 28 29  1  0  0  0  0
 30 31  4  0  0  0  0
 31 32  4  0  0  0  0
 32 33  4  0  0  0  0
 33 34  1  0  0  0  0
M  END
>  <Name_Molregno>
388321

>  <5-HT1A>
7.53

>  <5-HT2A>
7.81

>  <5-HT2C>
7.97

>  <DOPAMINE D2>
7.63

>  <DOPAMINE D3>
9.22

$$$$
388322
  Marvin  02231216192D 0   1.00000     0.00000     0

 34 37  0  0  0  0  0  0  0  0999 V2000
   -8.6886    2.9310    0.0000 Cl  0  0  0  0  0  0  0  0  0
   -8.6886    2.1060    0.0000 C   0  0  0  0  0  0  0  0  0
   -7.9741    1.6935    0.0000 C   0  0  0  0  0  0  0  0  0
   -7.2596    2.1060    0.0000 N   0  0  0  0  0  0  0  0  0
   -7.2596    2.9310    0.0000 C   0  0  0  0  0  0  0  0  0
   -6.5451    3.3435    0.0000 C   0  0  0  0  0  0  0  0  0
   -5.8307    2.9310    0.0000 N   0  0  0  0  0  0  0  0  0
   -5.8307    2.1060    0.0000 C   0  0  0  0  0  0  0  0  0
   -6.5451    1.6935    0.0000 C   0  0  0  0  0  0  0  0  0
   -5.1162    3.3435    0.0000 C   0  0  0  0  0  0  0  0  0
   -4.4017    2.9310    0.0000 C   0  0  0  0  0  0  0  0  0
   -4.4017    2.1060    0.0000 C   0  0  0  0  0  0  0  0  0
   -3.6873    1.6935    0.0000 C   0  0  0  0  0  0  0  0  0
   -3.6873    0.8685    0.0000 N   0  0  0  0  0  0  0  0  0
   -2.9728    0.4560    0.0000 C   0  0  0  0  0  0  0  0  0
   -2.2583    0.8685    0.0000 O   0  0  0  0  0  0  0  0  0
   -2.9728   -0.3690    0.0000 C   0  0  0  0  0  0  0  0  0
   -2.2583   -0.7815    0.0000 C   0  0  0  0  0  0  0  0  0
   -2.2583   -1.6065    0.0000 C   0  0  0  0  0  0  0  0  0
   -2.9728   -2.0190    0.0000 C   0  0  0  0  0  0  0  0  0
   -3.6873   -1.6065    0.0000 C   0  0  0  0  0  0  0  0  0
   -3.6873   -0.7815    0.0000 C   0  0  0  0  0  0  0  0  0
   -2.9728   -2.8440    0.0000 C   0  0  0  0  0  0  0  0  0
   -2.2583   -3.2565    0.0000 N   0  0  0  0  0  0  0  0  0
   -2.2583   -4.0815    0.0000 C   0  0  0  0  0  0  0  0  0
   -2.9728   -4.4940    0.0000 C   0  0  0  0  0  0  0  0  0
   -3.6873   -4.0815    0.0000 C   0  0  0  0  0  0  0  0  0
   -3.6873   -3.2565    0.0000 C   0  0  0  0  0  0  0  0  0
   -1.5438   -4.4940    0.0000 C   0  0  0  0  0  0  0  0  0
   -7.9741    0.8685    0.0000 C   0  0  0  0  0  0  0  0  0
   -8.6886    0.4560    0.0000 C   0  0  0  0  0  0  0  0  0
   -9.4030    0.8685    0.0000 C   0  0  0  0  0  0  0  0  0
   -9.4030    1.6935    0.0000 C   0  0  0  0  0  0  0  0  0
  -10.1175    2.1060    0.0000 Cl  0  0  0  0  0  0  0  0  0
  1  2  1  0  0  0  0
  2  3  4  0  0  0  0
  2 33  4  0  0  0  0
  3  4  1  0  0  0  0
  3 30  4  0  0  0  0
  4  5  1  0  0  0  0
  4  9  1  0  0  0  0
  5  6  1  0  0  0  0
  6  7  1  0  0  0  0
  7  8  1  0  0  0  0
  7 10  1  0  0  0  0
  8  9  1  0  0  0  0
 10 11  1  0  0  0  0
 11 12  2  0  0  0  0
 12 13  1  0  0  0  0
 13 14  1  0  0  0  0
 14 15  1  0  0  0  0
 15 16  2  0  0  0  0
 15 17  1  0  0  0  0
 17 18  4  0  0  0  0
 17 22  4  0  0  0  0
 18 19  4  0  0  0  0
 19 20  4  0  0  0  0
 20 21  4  0  0  0  0
 20 23  1  0  0  0  0
 21 22  4  0  0  0  0
 23 24  4  0  0  0  0
 23 28  4  0  0  0  0
 24 25  4  0  0  0  0
 25 26  4  0  0  0  0
 25 29  1  0  0  0  0
 26 27  4  0  0  0  0
 27 28  4  0  0  0  0
 30 31  4  0  0  0  0
 31 32  4  0  0  0  0
 32 33  4  0  0  0  0
 33 34  1  0  0  0  0
M  END
>  <Name_Molregno>
388322

>  <5-HT1A>
6.51

>  <5-HT2A>
7.03

>  <5-HT2C>
7.02

>  <DOPAMINE D2>
6.98

>  <DOPAMINE D3>
8.85

$$$$
388323
  Marvin  02231216192D 0   1.00000     0.00000     0

 34 37  0  0  0  0  0  0  0  0999 V2000
    1.5867    2.8685    0.0000 Cl  0  0  0  0  0  0  0  0  0
    1.5867    2.0435    0.0000 C   0  0  0  0  0  0  0  0  0
    2.3012    1.6310    0.0000 C   0  0  0  0  0  0  0  0  0
    3.0157    2.0435    0.0000 N   0  0  0  0  0  0  0  0  0
    3.0157    2.8685    0.0000 C   0  0  0  0  0  0  0  0  0
    3.7301    3.2810    0.0000 C   0  0  0  0  0  0  0  0  0
    4.4446    2.8685    0.0000 N   0  0  0  0  0  0  0  0  0
    4.4446    2.0435    0.0000 C   0  0  0  0  0  0  0  0  0
    3.7301    1.6310    0.0000 C   0  0  0  0  0  0  0  0  0
    5.1591    3.2810    0.0000 C   0  0  0  0  0  0  0  0  0
    5.8736    2.8685    0.0000 C   0  0  0  0  0  0  0  0  0
    5.8736    2.0435    0.0000 C   0  0  0  0  0  0  0  0  0
    6.5880    1.6310    0.0000 C   0  0  0  0  0  0  0  0  0
    6.5880    0.8060    0.0000 N   0  0  0  0  0  0  0  0  0
    7.3025    0.3935    0.0000 C   0  0  0  0  0  0  0  0  0
    8.0170    0.8060    0.0000 O   0  0  0  0  0  0  0  0  0
    7.3025   -0.4315    0.0000 C   0  0  0  0  0  0  0  0  0
    8.0170   -0.8440    0.0000 C   0  0  0  0  0  0  0  0  0
    8.0170   -1.6690    0.0000 C   0  0  0  0  0  0  0  0  0
    7.3025   -2.0815    0.0000 C   0  0  0  0  0  0  0  0  0
    6.5880   -1.6690    0.0000 C   0  0  0  0  0  0  0  0  0
    6.5880   -0.8440    0.0000 C   0  0  0  0  0  0  0  0  0
    7.3025   -2.9065    0.0000 C   0  0  0  0  0  0  0  0  0
    8.0170   -3.3190    0.0000 N   0  0  0  0  0  0  0  0  0
    8.0170   -4.1440    0.0000 C   0  0  0  0  0  0  0  0  0
    7.3025   -4.5565    0.0000 C   0  0  0  0  0  0  0  0  0
    6.5880   -4.1440    0.0000 C   0  0  0  0  0  0  0  0  0
    6.5880   -3.3190    0.0000 C   0  0  0  0  0  0  0  0  0
    5.8736   -2.9065    0.0000 C   0  0  0  0  0  0  0  0  0
    2.3012    0.8060    0.0000 C   0  0  0  0  0  0  0  0  0
    1.5867    0.3935    0.0000 C   0  0  0  0  0  0  0  0  0
    0.8723    0.8060    0.0000 C   0  0  0  0  0  0  0  0  0
    0.8723    1.6310    0.0000 C   0  0  0  0  0  0  0  0  0
    0.1578    2.0435    0.0000 Cl  0  0  0  0  0  0  0  0  0
  1  2  1  0  0  0  0
  2  3  4  0  0  0  0
  2 33  4  0  0  0  0
  3  4  1  0  0  0  0
  3 30  4  0  0  0  0
  4  5  1  0  0  0  0
  4  9  1  0  0  0  0
  5  6  1  0  0  0  0
  6  7  1  0  0  0  0
  7  8  1  0  0  0  0
  7 10  1  0  0  0  0
  8  9  1  0  0  0  0
 10 11  1  0  0  0  0
 11 12  2  0  0  0  0
 12 13  1  0  0  0  0
 13 14  1  0  0  0  0
 14 15  1  0  0  0  0
 15 16  2  0  0  0  0
 15 17  1  0  0  0  0
 17 18  4  0  0  0  0
 17 22  4  0  0  0  0
 18 19  4  0  0  0  0
 19 20  4  0  0  0  0
 20 21  4  0  0  0  0
 20 23  1  0  0  0  0
 21 22  4  0  0  0  0
 23 24  4  0  0  0  0
 23 28  4  0  0  0  0
 24 25  4  0  0  0  0
 25 26  4  0  0  0  0
 26 27  4  0  0  0  0
 27 28  4  0  0  0  0
 28 29  1  0  0  0  0
 30 31  4  0  0  0  0
 31 32  4  0  0  0  0
 32 33  4  0  0  0  0
 33 34  1  0  0  0  0
M  END
>  <Name_Molregno>
388323

>  <5-HT1A>
7.04

>  <5-HT2A>
7.33

>  <5-HT2C>
7.51

>  <DOPAMINE D2>
7.04

>  <DOPAMINE D3>
8.8

$$$$
388324
  Marvin  02231216192D 0   1.00000     0.00000     0

 34 37  0  0  0  0  0  0  0  0999 V2000
   -8.6474    2.8685    0.0000 Cl  0  0  0  0  0  0  0  0  0
   -8.6474    2.0435    0.0000 C   0  0  0  0  0  0  0  0  0
   -7.9329    1.6310    0.0000 C   0  0  0  0  0  0  0  0  0
   -7.2184    2.0435    0.0000 N   0  0  0  0  0  0  0  0  0
   -7.2184    2.8685    0.0000 C   0  0  0  0  0  0  0  0  0
   -6.5040    3.2810    0.0000 C   0  0  0  0  0  0  0  0  0
   -5.7895    2.8685    0.0000 N   0  0  0  0  0  0  0  0  0
   -5.7895    2.0435    0.0000 C   0  0  0  0  0  0  0  0  0
   -6.5040    1.6310    0.0000 C   0  0  0  0  0  0  0  0  0
   -5.0750    3.2810    0.0000 C   0  0  0  0  0  0  0  0  0
   -4.3606    2.8685    0.0000 C   0  0  0  0  0  0  0  0  0
   -4.3606    2.0435    0.0000 C   0  0  0  0  0  0  0  0  0
   -3.6461    1.6310    0.0000 C   0  0  0  0  0  0  0  0  0
   -3.6461    0.8060    0.0000 N   0  0  0  0  0  0  0  0  0
   -2.9316    0.3935    0.0000 C   0  0  0  0  0  0  0  0  0
   -2.2171    0.8060    0.0000 O   0  0  0  0  0  0  0  0  0
   -2.9316   -0.4315    0.0000 C   0  0  0  0  0  0  0  0  0
   -2.2171   -0.8440    0.0000 C   0  0  0  0  0  0  0  0  0
   -2.2171   -1.6690    0.0000 C   0  0  0  0  0  0  0  0  0
   -2.9316   -2.0815    0.0000 C   0  0  0  0  0  0  0  0  0
   -3.6461   -1.6690    0.0000 C   0  0  0  0  0  0  0  0  0
   -3.6461   -0.8440    0.0000 C   0  0  0  0  0  0  0  0  0
   -2.9316   -2.9065    0.0000 C   0  0  0  0  0  0  0  0  0
   -2.2171   -3.3190    0.0000 N   0  3  0  0  0  0  0  0  0
   -1.5027   -2.9065    0.0000 O   0  5  0  0  0  0  0  0  0
   -2.2171   -4.1440    0.0000 C   0  0  0  0  0  0  0  0  0
   -2.9316   -4.5565    0.0000 C   0  0  0  0  0  0  0  0  0
   -3.6461   -4.1440    0.0000 C   0  0  0  0  0  0  0  0  0
   -3.6461   -3.3190    0.0000 C   0  0  0  0  0  0  0  0  0
   -7.9329    0.8060    0.0000 C   0  0  0  0  0  0  0  0  0
   -8.6474    0.3935    0.0000 C   0  0  0  0  0  0  0  0  0
   -9.3619    0.8060    0.0000 C   0  0  0  0  0  0  0  0  0
   -9.3619    1.6310    0.0000 C   0  0  0  0  0  0  0  0  0
  -10.0763    2.0435    0.0000 Cl  0  0  0  0  0  0  0  0  0
  1  2  1  0  0  0  0
  2  3  4  0  0  0  0
  2 33  4  0  0  0  0
  3  4  1  0  0  0  0
  3 30  4  0  0  0  0
  4  5  1  0  0  0  0
  4  9  1  0  0  0  0
  5  6  1  0  0  0  0
  6  7  1  0  0  0  0
  7  8  1  0  0  0  0
  7 10  1  0  0  0  0
  8  9  1  0  0  0  0
 10 11  1  0  0  0  0
 11 12  2  0  0  0  0
 12 13  1  0  0  0  0
 13 14  1  0  0  0  0
 14 15  1  0  0  0  0
 15 16  2  0  0  0  0
 15 17  1  0  0  0  0
 17 18  4  0  0  0  0
 17 22  4  0  0  0  0
 18 19  4  0  0  0  0
 19 20  4  0  0  0  0
 20 21  4  0  0  0  0
 20 23  1  0  0  0  0
 21 22  4  0  0  0  0
 23 24  4  0  0  0  0
 23 29  4  0  0  0  0
 24 25  1  0  0  0  0
 24 26  4  0  0  0  0
 26 27  4  0  0  0  0
 27 28  4  0  0  0  0
 28 29  4  0  0  0  0
 30 31  4  0  0  0  0
 31 32  4  0  0  0  0
 32 33  4  0  0  0  0
 33 34  1  0  0  0  0
M  CHG  2  24   1  25  -1
M  END
>  <Name_Molregno>
388324

>  <5-HT1A>
7.22

>  <5-HT2A>
7.24

>  <5-HT2C>
7.13

>  <DOPAMINE D2>
7.59

>  <DOPAMINE D3>
8.96

$$$$
388325
  Marvin  02231216192D 0   1.00000     0.00000     0

 34 37  0  0  0  0  0  0  0  0999 V2000
   -0.2676   -1.5508    0.0000 Cl  0  0  0  0  0  0  0  0  0
   -0.2676   -2.3758    0.0000 C   0  0  0  0  0  0  0  0  0
    0.4469   -2.7883    0.0000 C   0  0  0  0  0  0  0  0  0
    1.1613   -2.3758    0.0000 N   0  0  0  0  0  0  0  0  0
    1.1613   -1.5508    0.0000 C   0  0  0  0  0  0  0  0  0
    1.8758   -1.1383    0.0000 C   0  0  0  0  0  0  0  0  0
    2.5903   -1.5508    0.0000 N   0  3  0  0  0  0  0  0  0
    2.8725   -0.7755    0.0000 O   0  5  0  0  0  0  0  0  0
    2.5903   -2.3758    0.0000 C   0  0  0  0  0  0  0  0  0
    1.8758   -2.7883    0.0000 C   0  0  0  0  0  0  0  0  0
    3.4028   -1.6940    0.0000 C   0  0  0  0  0  0  0  0  0
    3.9331   -1.0620    0.0000 C   0  0  0  0  0  0  0  0  0
    4.7455   -1.2053    0.0000 C   0  0  0  0  0  0  0  0  0
    5.2758   -0.5733    0.0000 C   0  0  0  0  0  0  0  0  0
    6.0883   -0.7166    0.0000 N   0  0  0  0  0  0  0  0  0
    6.6186   -0.0846    0.0000 C   0  0  0  0  0  0  0  0  0
    6.3364    0.6907    0.0000 O   0  0  0  0  0  0  0  0  0
    7.4311   -0.2278    0.0000 C   0  0  0  0  0  0  0  0  0
    7.9614    0.4042    0.0000 C   0  0  0  0  0  0  0  0  0
    8.7738    0.2609    0.0000 C   0  0  0  0  0  0  0  0  0
    9.0560   -0.5144    0.0000 C   0  0  0  0  0  0  0  0  0
    8.5257   -1.1463    0.0000 C   0  0  0  0  0  0  0  0  0
    7.7132   -1.0031    0.0000 C   0  0  0  0  0  0  0  0  0
    9.8685   -0.6576    0.0000 C   0  0  0  0  0  0  0  0  0
   10.3988   -0.0256    0.0000 N   0  0  0  0  0  0  0  0  0
   11.2112   -0.1689    0.0000 C   0  0  0  0  0  0  0  0  0
   11.4934   -0.9441    0.0000 C   0  0  0  0  0  0  0  0  0
   10.9631   -1.5761    0.0000 C   0  0  0  0  0  0  0  0  0
   10.1506   -1.4329    0.0000 C   0  0  0  0  0  0  0  0  0
    0.4469   -3.6133    0.0000 C   0  0  0  0  0  0  0  0  0
   -0.2676   -4.0258    0.0000 C   0  0  0  0  0  0  0  0  0
   -0.9821   -3.6133    0.0000 C   0  0  0  0  0  0  0  0  0
   -0.9821   -2.7883    0.0000 C   0  0  0  0  0  0  0  0  0
   -1.6965   -2.3758    0.0000 Cl  0  0  0  0  0  0  0  0  0
  1  2  1  0  0  0  0
  2  3  4  0  0  0  0
  2 33  4  0  0  0  0
  3  4  1  0  0  0  0
  3 30  4  0  0  0  0
  4  5  1  0  0  0  0
  4 10  1  0  0  0  0
  5  6  1  0  0  0  0
  6  7  1  0  0  0  0
  7  8  1  0  0  0  0
  7  9  1  0  0  0  0
  7 11  1  0  0  0  0
  9 10  1  0  0  0  0
 11 12  1  0  0  0  0
 12 13  2  0  0  0  0
 13 14  1  0  0  0  0
 14 15  1  0  0  0  0
 15 16  1  0  0  0  0
 16 17  2  0  0  0  0
 16 18  1  0  0  0  0
 18 19  4  0  0  0  0
 18 23  4  0  0  0  0
 19 20  4  0  0  0  0
 20 21  4  0  0  0  0
 21 22  4  0  0  0  0
 21 24  1  0  0  0  0
 22 23  4  0  0  0  0
 24 25  4  0  0  0  0
 24 29  4  0  0  0  0
 25 26  4  0  0  0  0
 26 27  4  0  0  0  0
 27 28  4  0  0  0  0
 28 29  4  0  0  0  0
 30 31  4  0  0  0  0
 31 32  4  0  0  0  0
 32 33  4  0  0  0  0
 33 34  1  0  0  0  0
M  CHG  2   7   1   8  -1
M  END
>  <Name_Molregno>
388325

>  <5-HT1A>
6.18

>  <5-HT2A>
6.98

>  <5-HT2C>
6.95

>  <DOPAMINE D2>
5.94

>  <DOPAMINE D3>
7.31

$$$$
388326
  Marvin  02231216192D 0   1.00000     0.00000     0

 33 36  0  0  0  0  0  0  0  0999 V2000
    0.1324    0.0160    0.0000 O   0  0  0  0  0  0  0  0  0
    0.8468    0.4285    0.0000 C   0  0  0  0  0  0  0  0  0
    0.1324   -0.8090    0.0000 C   0  0  0  0  0  0  0  0  0
    0.8468   -1.2215    0.0000 C   0  0  0  0  0  0  0  0  0
    0.8468   -2.0465    0.0000 C   0  0  0  0  0  0  0  0  0
    0.1324   -2.4590    0.0000 C   0  0  0  0  0  0  0  0  0
   -0.5821   -2.0465    0.0000 C   0  0  0  0  0  0  0  0  0
   -0.5821   -1.2215    0.0000 C   0  0  0  0  0  0  0  0  0
   -1.2966   -0.8090    0.0000 N   0  0  0  0  0  0  0  0  0
   -2.0111   -1.2215    0.0000 C   0  0  0  0  0  0  0  0  0
   -2.7255   -0.8090    0.0000 C   0  0  0  0  0  0  0  0  0
   -2.7255    0.0160    0.0000 N   0  0  0  0  0  0  0  0  0
   -2.0111    0.4285    0.0000 C   0  0  0  0  0  0  0  0  0
   -1.2966    0.0160    0.0000 C   0  0  0  0  0  0  0  0  0
   -3.4400    0.4285    0.0000 C   0  0  0  0  0  0  0  0  0
   -4.1545    0.0160    0.0000 C   0  0  0  0  0  0  0  0  0
   -4.8689    0.4285    0.0000 C   0  0  0  0  0  0  0  0  0
   -5.5834    0.0160    0.0000 C   0  0  0  0  0  0  0  0  0
   -6.2979    0.4285    0.0000 N   0  0  0  0  0  0  0  0  0
   -7.0124    0.0160    0.0000 C   0  0  0  0  0  0  0  0  0
   -7.0124   -0.8090    0.0000 O   0  0  0  0  0  0  0  0  0
   -7.7268    0.4285    0.0000 C   0  0  0  0  0  0  0  0  0
   -8.4413    0.0160    0.0000 C   0  0  0  0  0  0  0  0  0
   -9.1558    0.4285    0.0000 C   0  0  0  0  0  0  0  0  0
   -9.1558    1.2535    0.0000 C   0  0  0  0  0  0  0  0  0
   -8.4413    1.6660    0.0000 C   0  0  0  0  0  0  0  0  0
   -7.7268    1.2535    0.0000 C   0  0  0  0  0  0  0  0  0
   -9.8702    1.6660    0.0000 C   0  0  0  0  0  0  0  0  0
  -10.5847    1.2535    0.0000 N   0  0  0  0  0  0  0  0  0
  -11.2992    1.6660    0.0000 C   0  0  0  0  0  0  0  0  0
  -11.2992    2.4910    0.0000 C   0  0  0  0  0  0  0  0  0
  -10.5847    2.9035    0.0000 C   0  0  0  0  0  0  0  0  0
   -9.8702    2.4910    0.0000 C   0  0  0  0  0  0  0  0  0
  1  2  1  0  0  0  0
  1  3  1  0  0  0  0
  3  4  4  0  0  0  0
  3  8  4  0  0  0  0
  4  5  4  0  0  0  0
  5  6  4  0  0  0  0
  6  7  4  0  0  0  0
  7  8  4  0  0  0  0
  8  9  1  0  0  0  0
  9 10  1  0  0  0  0
  9 14  1  0  0  0  0
 10 11  1  0  0  0  0
 11 12  1  0  0  0  0
 12 13  1  0  0  0  0
 12 15  1  0  0  0  0
 13 14  1  0  0  0  0
 15 16  1  0  0  0  0
 16 17  2  0  0  0  0
 17 18  1  0  0  0  0
 18 19  1  0  0  0  0
 19 20  1  0  0  0  0
 20 21  2  0  0  0  0
 20 22  1  0  0  0  0
 22 23  4  0  0  0  0
 22 27  4  0  0  0  0
 23 24  4  0  0  0  0
 24 25  4  0  0  0  0
 25 26  4  0  0  0  0
 25 28  1  0  0  0  0
 26 27  4  0  0  0  0
 28 29  4  0  0  0  0
 28 33  4  0  0  0  0
 29 30  4  0  0  0  0
 30 31  4  0  0  0  0
 31 32  4  0  0  0  0
 32 33  4  0  0  0  0
M  END
>  <Name_Molregno>
388326

>  <5-HT1A>
7.66

>  <5-HT2A>
7.12

>  <5-HT2C>
6.59

>  <DOPAMINE D2>
7.16

>  <DOPAMINE D3>
8.54

$$$$
388327
  Marvin  02231216192D 0   1.00000     0.00000     0

 34 38  0  0  0  0  0  0  0  0999 V2000
   -8.4799   -3.3542    0.0000 O   0  0  0  0  0  0  0  0  0
   -8.7349   -4.1389    0.0000 C   0  0  0  0  0  0  0  0  0
   -9.0320   -2.7411    0.0000 C   0  0  0  0  0  0  0  0  0
   -9.8389   -2.9127    0.0000 C   0  0  0  0  0  0  0  0  0
  -10.3910   -2.2996    0.0000 C   0  0  0  0  0  0  0  0  0
  -10.1360   -1.5150    0.0000 C   0  0  0  0  0  0  0  0  0
   -9.3291   -1.3434    0.0000 C   0  0  0  0  0  0  0  0  0
   -8.7770   -1.9565    0.0000 C   0  0  0  0  0  0  0  0  0
   -7.9700   -1.7850    0.0000 N   0  0  0  0  0  0  0  0  0
   -7.7151   -1.0004    0.0000 C   0  0  0  0  0  0  0  0  0
   -6.9081   -0.8288    0.0000 C   0  0  0  0  0  0  0  0  0
   -6.3561   -1.4419    0.0000 N   0  0  0  0  0  0  0  0  0
   -6.6110   -2.2266    0.0000 C   0  0  0  0  0  0  0  0  0
   -7.4180   -2.3981    0.0000 C   0  0  0  0  0  0  0  0  0
   -5.5491   -1.2704    0.0000 C   0  0  0  0  0  0  0  0  0
   -5.2942   -0.4858    0.0000 C   0  0  0  0  0  0  0  0  0
   -4.4872   -0.3143    0.0000 C   0  0  0  0  0  0  0  0  0
   -4.2323    0.4704    0.0000 C   0  0  0  0  0  0  0  0  0
   -4.7843    1.0834    0.0000 N   0  0  0  0  0  0  0  0  0
   -4.5294    1.8681    0.0000 C   0  0  0  0  0  0  0  0  0
   -5.0814    2.4812    0.0000 O   0  0  0  0  0  0  0  0  0
   -3.7224    2.0396    0.0000 C   0  0  0  0  0  0  0  0  0
   -3.1704    1.4265    0.0000 C   0  0  0  0  0  0  0  0  0
   -2.3634    1.5980    0.0000 C   0  0  0  0  0  0  0  0  0
   -1.6960    1.1131    0.0000 C   0  0  0  0  0  0  0  0  0
   -1.0285    1.5980    0.0000 C   0  0  0  0  0  0  0  0  0
   -1.2835    2.3827    0.0000 C   0  0  0  0  0  0  0  0  0
   -2.1085    2.3827    0.0000 C   0  0  0  0  0  0  0  0  0
   -2.6605    2.9957    0.0000 C   0  0  0  0  0  0  0  0  0
   -3.4675    2.8242    0.0000 C   0  0  0  0  0  0  0  0  0
   -0.7314    2.9957    0.0000 C   0  0  0  0  0  0  0  0  0
    0.0755    2.8242    0.0000 C   0  0  0  0  0  0  0  0  0
    0.3305    2.0396    0.0000 C   0  0  0  0  0  0  0  0  0
   -0.2216    1.4265    0.0000 C   0  0  0  0  0  0  0  0  0
  1  2  1  0  0  0  0
  1  3  1  0  0  0  0
  3  4  4  0  0  0  0
  3  8  4  0  0  0  0
  4  5  4  0  0  0  0
  5  6  4  0  0  0  0
  6  7  4  0  0  0  0
  7  8  4  0  0  0  0
  8  9  1  0  0  0  0
  9 10  1  0  0  0  0
  9 14  1  0  0  0  0
 10 11  1  0  0  0  0
 11 12  1  0  0  0  0
 12 13  1  0  0  0  0
 12 15  1  0  0  0  0
 13 14  1  0  0  0  0
 15 16  1  0  0  0  0
 16 17  2  0  0  0  0
 17 18  1  0  0  0  0
 18 19  1  0  0  0  0
 19 20  1  0  0  0  0
 20 21  2  0  0  0  0
 20 22  1  0  0  0  0
 22 23  4  0  0  0  0
 22 30  4  0  0  0  0
 23 24  4  0  0  0  0
 24 25  1  0  0  0  0
 24 28  4  0  0  0  0
 25 26  1  0  0  0  0
 26 27  4  0  0  0  0
 26 34  4  0  0  0  0
 27 28  1  0  0  0  0
 27 31  4  0  0  0  0
 28 29  4  0  0  0  0
 29 30  4  0  0  0  0
 31 32  4  0  0  0  0
 32 33  4  0  0  0  0
 33 34  4  0  0  0  0
M  END
>  <Name_Molregno>
388327

>  <5-HT1A>
7.14

>  <5-HT2A>
7.18

>  <5-HT2C>
6.75

>  <DOPAMINE D2>
7.32

>  <DOPAMINE D3>
8.92

$$$$
388328
  Marvin  02231216192D 0   1.00000     0.00000     0

 34 37  0  0  1  0  0  0  0  0999 V2000
   -0.1300   -0.0292    0.0000 Cl  0  0  0  0  0  0  0  0  0
   -0.1300   -0.8542    0.0000 C   0  0  0  0  0  0  0  0  0
    0.5845   -1.2667    0.0000 C   0  0  0  0  0  0  0  0  0
    1.2990   -0.8542    0.0000 N   0  0  0  0  0  0  0  0  0
    1.2990   -0.0292    0.0000 C   0  0  0  0  0  0  0  0  0
    2.0134    0.3833    0.0000 C   0  0  0  0  0  0  0  0  0
    2.7279   -0.0292    0.0000 N   0  0  0  0  0  0  0  0  0
    2.7279   -0.8542    0.0000 C   0  0  0  0  0  0  0  0  0
    2.0134   -1.2667    0.0000 C   0  0  0  0  0  0  0  0  0
    3.4424    0.3833    0.0000 C   0  0  0  0  0  0  0  0  0
    4.1568   -0.0292    0.0000 C   0  0  0  0  0  0  0  0  0
    4.1568   -0.8542    0.0000 O   0  0  0  0  0  0  0  0  0
    4.8713    0.3833    0.0000 C   0  0  0  0  0  0  0  0  0
    5.5858   -0.0292    0.0000 C   0  0  0  0  0  0  0  0  0
    6.3003    0.3833    0.0000 N   0  0  0  0  0  0  0  0  0
    7.0147   -0.0292    0.0000 C   0  0  0  0  0  0  0  0  0
    7.0147   -0.8542    0.0000 O   0  0  0  0  0  0  0  0  0
    7.7292    0.3833    0.0000 C   0  0  0  0  0  0  0  0  0
    7.7292    1.2083    0.0000 C   0  0  0  0  0  0  0  0  0
    8.4437    1.6208    0.0000 C   0  0  0  0  0  0  0  0  0
    9.1581    1.2083    0.0000 C   0  0  0  0  0  0  0  0  0
    9.1581    0.3833    0.0000 C   0  0  0  0  0  0  0  0  0
    8.4437   -0.0292    0.0000 C   0  0  0  0  0  0  0  0  0
    9.8726    1.6208    0.0000 C   0  0  0  0  0  0  0  0  0
    9.8726    2.4458    0.0000 N   0  0  0  0  0  0  0  0  0
   10.5871    2.8583    0.0000 C   0  0  0  0  0  0  0  0  0
   11.3016    2.4458    0.0000 C   0  0  0  0  0  0  0  0  0
   11.3016    1.6208    0.0000 C   0  0  0  0  0  0  0  0  0
   10.5871    1.2083    0.0000 C   0  0  0  0  0  0  0  0  0
    0.5845   -2.0917    0.0000 C   0  0  0  0  0  0  0  0  0
   -0.1300   -2.5042    0.0000 C   0  0  0  0  0  0  0  0  0
   -0.8444   -2.0917    0.0000 C   0  0  0  0  0  0  0  0  0
   -0.8444   -1.2667    0.0000 C   0  0  0  0  0  0  0  0  0
   -1.5589   -0.8542    0.0000 Cl  0  0  0  0  0  0  0  0  0
  1  2  1  0  0  0  0
  2  3  4  0  0  0  0
  2 33  4  0  0  0  0
  3  4  1  0  0  0  0
  3 30  4  0  0  0  0
  4  5  1  0  0  0  0
  4  9  1  0  0  0  0
  5  6  1  0  0  0  0
  6  7  1  0  0  0  0
  7  8  1  0  0  0  0
  7 10  1  0  0  0  0
  8  9  1  0  0  0  0
 10 11  1  0  0  0  0
 11 12  1  0  0  0  0
 11 13  1  0  0  0  0
 13 14  1  0  0  0  0
 14 15  1  0  0  0  0
 15 16  1  0  0  0  0
 16 17  2  0  0  0  0
 16 18  1  0  0  0  0
 18 19  4  0  0  0  0
 18 23  4  0  0  0  0
 19 20  4  0  0  0  0
 20 21  4  0  0  0  0
 21 22  4  0  0  0  0
 21 24  1  0  0  0  0
 22 23  4  0  0  0  0
 24 25  4  0  0  0  0
 24 29  4  0  0  0  0
 25 26  4  0  0  0  0
 26 27  4  0  0  0  0
 27 28  4  0  0  0  0
 28 29  4  0  0  0  0
 30 31  4  0  0  0  0
 31 32  4  0  0  0  0
 32 33  4  0  0  0  0
 33 34  1  0  0  0  0
M  END
>  <Name_Molregno>
388328

>  <5-HT1A>
7.46

>  <5-HT2A>
7.37

>  <5-HT2C>
6.94

>  <DOPAMINE D2>
6.57

>  <DOPAMINE D3>
8.52

>  <DOPAMINE D4>
5.34

$$$$
388330
  Marvin  02231216192D 0   1.00000     0.00000     0

 35 39  0  0  1  0  0  0  0  0999 V2000
  -10.2586   -0.0048    0.0000 Cl  0  0  0  0  0  0  0  0  0
  -10.2586   -0.8298    0.0000 C   0  0  0  0  0  0  0  0  0
   -9.5441   -1.2423    0.0000 C   0  0  0  0  0  0  0  0  0
   -8.8297   -0.8298    0.0000 N   0  0  0  0  0  0  0  0  0
   -8.8297   -0.0048    0.0000 C   0  0  0  0  0  0  0  0  0
   -8.1152    0.4077    0.0000 C   0  0  0  0  0  0  0  0  0
   -7.4007   -0.0048    0.0000 N   0  0  0  0  0  0  0  0  0
   -7.4007   -0.8298    0.0000 C   0  0  0  0  0  0  0  0  0
   -8.1152   -1.2423    0.0000 C   0  0  0  0  0  0  0  0  0
   -6.6862    0.4077    0.0000 C   0  0  0  0  0  0  0  0  0
   -5.9718   -0.0048    0.0000 C   0  0  0  0  0  0  0  0  0
   -5.9718   -0.8298    0.0000 O   0  0  0  0  0  0  0  0  0
   -5.2573    0.4077    0.0000 C   0  0  0  0  0  0  0  0  0
   -4.5428   -0.0048    0.0000 C   0  0  0  0  0  0  0  0  0
   -3.8284    0.4077    0.0000 N   0  0  0  0  0  0  0  0  0
   -3.1139   -0.0048    0.0000 C   0  0  0  0  0  0  0  0  0
   -3.1139   -0.8298    0.0000 O   0  0  0  0  0  0  0  0  0
   -2.3994    0.4077    0.0000 C   0  0  0  0  0  0  0  0  0
   -1.6850   -0.0048    0.0000 C   0  0  0  0  0  0  0  0  0
   -0.9705    0.4077    0.0000 C   0  0  0  0  0  0  0  0  0
   -0.1859    0.1527    0.0000 C   0  0  0  0  0  0  0  0  0
    0.2991    0.8202    0.0000 C   0  0  0  0  0  0  0  0  0
   -0.1859    1.4876    0.0000 C   0  0  0  0  0  0  0  0  0
   -0.9705    1.2327    0.0000 C   0  0  0  0  0  0  0  0  0
   -1.6850    1.6452    0.0000 C   0  0  0  0  0  0  0  0  0
   -2.3994    1.2327    0.0000 C   0  0  0  0  0  0  0  0  0
    0.1497    2.2413    0.0000 C   0  0  0  0  0  0  0  0  0
    0.9702    2.3275    0.0000 C   0  0  0  0  0  0  0  0  0
    1.4551    1.6601    0.0000 C   0  0  0  0  0  0  0  0  0
    1.1195    0.9064    0.0000 C   0  0  0  0  0  0  0  0  0
   -9.5441   -2.0673    0.0000 C   0  0  0  0  0  0  0  0  0
  -10.2586   -2.4798    0.0000 C   0  0  0  0  0  0  0  0  0
  -10.9731   -2.0673    0.0000 C   0  0  0  0  0  0  0  0  0
  -10.9731   -1.2423    0.0000 C   0  0  0  0  0  0  0  0  0
  -11.6875   -0.8298    0.0000 Cl  0  0  0  0  0  0  0  0  0
  1  2  1  0  0  0  0
  2  3  4  0  0  0  0
  2 34  4  0  0  0  0
  3  4  1  0  0  0  0
  3 31  4  0  0  0  0
  4  5  1  0  0  0  0
  4  9  1  0  0  0  0
  5  6  1  0  0  0  0
  6  7  1  0  0  0  0
  7  8  1  0  0  0  0
  7 10  1  0  0  0  0
  8  9  1  0  0  0  0
 10 11  1  0  0  0  0
 11 12  1  0  0  0  0
 11 13  1  0  0  0  0
 13 14  1  0  0  0  0
 14 15  1  0  0  0  0
 15 16  1  0  0  0  0
 16 17  2  0  0  0  0
 16 18  1  0  0  0  0
 18 19  4  0  0  0  0
 18 26  4  0  0  0  0
 19 20  4  0  0  0  0
 20 21  1  0  0  0  0
 20 24  4  0  0  0  0
 21 22  1  0  0  0  0
 22 23  4  0  0  0  0
 22 30  4  0  0  0  0
 23 24  1  0  0  0  0
 23 27  4  0  0  0  0
 24 25  4  0  0  0  0
 25 26  4  0  0  0  0
 27 28  4  0  0  0  0
 28 29  4  0  0  0  0
 29 30  4  0  0  0  0
 31 32  4  0  0  0  0
 32 33  4  0  0  0  0
 33 34  4  0  0  0  0
 34 35  1  0  0  0  0
M  END
>  <Name_Molregno>
388330

>  <5-HT1A>
5.74

>  <5-HT2A>
6.26

>  <5-HT2C>
5.55

>  <DOPAMINE D2>
6.5

>  <DOPAMINE D3>
8.74

$$$$
388332
  Marvin  02231216192D 0   1.00000     0.00000     0

 34 37  0  0  1  0  0  0  0  0999 V2000
   -9.9552    0.3013    0.0000 O   0  0  0  0  0  0  0  0  0
  -10.6697   -0.1112    0.0000 C   0  0  0  0  0  0  0  0  0
   -9.9552    1.1263    0.0000 C   0  0  0  0  0  0  0  0  0
  -10.6697    1.5388    0.0000 C   0  0  0  0  0  0  0  0  0
  -10.6697    2.3638    0.0000 C   0  0  0  0  0  0  0  0  0
   -9.9552    2.7763    0.0000 C   0  0  0  0  0  0  0  0  0
   -9.2407    2.3638    0.0000 C   0  0  0  0  0  0  0  0  0
   -9.2407    1.5388    0.0000 C   0  0  0  0  0  0  0  0  0
   -8.5263    1.1263    0.0000 N   0  0  0  0  0  0  0  0  0
   -7.8118    1.5388    0.0000 C   0  0  0  0  0  0  0  0  0
   -7.0973    1.1263    0.0000 C   0  0  0  0  0  0  0  0  0
   -7.0973    0.3013    0.0000 N   0  0  0  0  0  0  0  0  0
   -7.8118   -0.1112    0.0000 C   0  0  0  0  0  0  0  0  0
   -8.5263    0.3013    0.0000 C   0  0  0  0  0  0  0  0  0
   -6.3828   -0.1112    0.0000 C   0  0  0  0  0  0  0  0  0
   -5.6684    0.3013    0.0000 C   0  0  0  0  0  0  0  0  0
   -5.6684    1.1263    0.0000 O   0  0  0  0  0  0  0  0  0
   -4.9539   -0.1112    0.0000 C   0  0  0  0  0  0  0  0  0
   -4.2394    0.3013    0.0000 C   0  0  0  0  0  0  0  0  0
   -3.5250   -0.1112    0.0000 N   0  0  0  0  0  0  0  0  0
   -2.8105    0.3013    0.0000 C   0  0  0  0  0  0  0  0  0
   -2.8105    1.1263    0.0000 O   0  0  0  0  0  0  0  0  0
   -2.0960   -0.1112    0.0000 C   0  0  0  0  0  0  0  0  0
   -1.3815    0.3013    0.0000 C   0  0  0  0  0  0  0  0  0
   -0.6671   -0.1112    0.0000 C   0  0  0  0  0  0  0  0  0
   -0.6671   -0.9362    0.0000 C   0  0  0  0  0  0  0  0  0
   -1.3815   -1.3487    0.0000 C   0  0  0  0  0  0  0  0  0
   -2.0960   -0.9362    0.0000 C   0  0  0  0  0  0  0  0  0
    0.0474   -1.3487    0.0000 C   0  0  0  0  0  0  0  0  0
    0.7619   -0.9362    0.0000 N   0  0  0  0  0  0  0  0  0
    1.4763   -1.3487    0.0000 C   0  0  0  0  0  0  0  0  0
    1.4763   -2.1737    0.0000 C   0  0  0  0  0  0  0  0  0
    0.7619   -2.5862    0.0000 C   0  0  0  0  0  0  0  0  0
    0.0474   -2.1737    0.0000 C   0  0  0  0  0  0  0  0  0
  1  2  1  0  0  0  0
  1  3  1  0  0  0  0
  3  4  4  0  0  0  0
  3  8  4  0  0  0  0
  4  5  4  0  0  0  0
  5  6  4  0  0  0  0
  6  7  4  0  0  0  0
  7  8  4  0  0  0  0
  8  9  1  0  0  0  0
  9 10  1  0  0  0  0
  9 14  1  0  0  0  0
 10 11  1  0  0  0  0
 11 12  1  0  0  0  0
 12 13  1  0  0  0  0
 12 15  1  0  0  0  0
 13 14  1  0  0  0  0
 15 16  1  0  0  0  0
 16 17  1  0  0  0  0
 16 18  1  0  0  0  0
 18 19  1  0  0  0  0
 19 20  1  0  0  0  0
 20 21  1  0  0  0  0
 21 22  2  0  0  0  0
 21 23  1  0  0  0  0
 23 24  4  0  0  0  0
 23 28  4  0  0  0  0
 24 25  4  0  0  0  0
 25 26  4  0  0  0  0
 26 27  4  0  0  0  0
 26 29  1  0  0  0  0
 27 28  4  0  0  0  0
 29 30  4  0  0  0  0
 29 34  4  0  0  0  0
 30 31  4  0  0  0  0
 31 32  4  0  0  0  0
 32 33  4  0  0  0  0
 33 34  4  0  0  0  0
M  END
>  <Name_Molregno>
388332

>  <5-HT1A>
7.44

>  <5-HT2A>
6.16

>  <5-HT2C>
5.4

>  <DOPAMINE D2>
6.55

>  <DOPAMINE D3>
8.55

>  <DOPAMINE D4>
5.83

$$$$
388337
  Marvin  02231216192D 0   1.00000     0.00000     0

 37 40  0  0  1  0  0  0  0  0999 V2000
   -7.2387    2.0399    0.0000 Cl  0  0  0  0  0  0  0  0  0
   -7.6512    1.3254    0.0000 C   0  0  0  0  0  0  0  0  0
   -7.2387    0.6109    0.0000 C   0  0  0  0  0  0  0  0  0
   -6.4137    0.6109    0.0000 N   0  0  0  0  0  0  0  0  0
   -6.0012    1.3254    0.0000 C   0  0  0  0  0  0  0  0  0
   -5.1762    1.3254    0.0000 C   0  0  0  0  0  0  0  0  0
   -4.7637    0.6109    0.0000 N   0  0  0  0  0  0  0  0  0
   -5.1762   -0.1036    0.0000 C   0  0  0  0  0  0  0  0  0
   -6.0012   -0.1036    0.0000 C   0  0  0  0  0  0  0  0  0
   -3.9387    0.6109    0.0000 C   0  0  0  0  0  0  0  0  0
   -3.5262   -0.1036    0.0000 C   0  0  0  0  0  0  0  0  0
   -3.9387   -0.8180    0.0000 O   0  0  0  0  0  0  0  0  0
   -3.5262   -1.5325    0.0000 C   0  0  0  0  0  0  0  0  0
   -2.7012   -1.5325    0.0000 O   0  0  0  0  0  0  0  0  0
   -3.9387   -2.2470    0.0000 C   0  0  0  0  0  0  0  0  0
   -2.7012   -0.1036    0.0000 C   0  0  0  0  0  0  0  0  0
   -2.2887   -0.8180    0.0000 C   0  0  0  0  0  0  0  0  0
   -1.4637   -0.8180    0.0000 N   0  0  0  0  0  0  0  0  0
   -1.0512   -1.5325    0.0000 C   0  0  0  0  0  0  0  0  0
   -0.2262   -1.5325    0.0000 O   0  0  0  0  0  0  0  0  0
   -1.4637   -2.2470    0.0000 C   0  0  0  0  0  0  0  0  0
   -1.0512   -2.9614    0.0000 C   0  0  0  0  0  0  0  0  0
   -1.4637   -3.6759    0.0000 C   0  0  0  0  0  0  0  0  0
   -2.2887   -3.6759    0.0000 C   0  0  0  0  0  0  0  0  0
   -2.7012   -2.9614    0.0000 C   0  0  0  0  0  0  0  0  0
   -2.2887   -2.2470    0.0000 C   0  0  0  0  0  0  0  0  0
   -2.7012   -4.3904    0.0000 C   0  0  0  0  0  0  0  0  0
   -2.2887   -5.1049    0.0000 N   0  0  0  0  0  0  0  0  0
   -2.7012   -5.8193    0.0000 C   0  0  0  0  0  0  0  0  0
   -3.5262   -5.8193    0.0000 C   0  0  0  0  0  0  0  0  0
   -3.9387   -5.1049    0.0000 C   0  0  0  0  0  0  0  0  0
   -3.5262   -4.3904    0.0000 C   0  0  0  0  0  0  0  0  0
   -7.6512   -0.1036    0.0000 C   0  0  0  0  0  0  0  0  0
   -8.4762   -0.1036    0.0000 C   0  0  0  0  0  0  0  0  0
   -8.8887    0.6109    0.0000 C   0  0  0  0  0  0  0  0  0
   -8.4762    1.3254    0.0000 C   0  0  0  0  0  0  0  0  0
   -8.8887    2.0399    0.0000 Cl  0  0  0  0  0  0  0  0  0
  1  2  1  0  0  0  0
  2  3  4  0  0  0  0
  2 36  4  0  0  0  0
  3  4  1  0  0  0  0
  3 33  4  0  0  0  0
  4  5  1  0  0  0  0
  4  9  1  0  0  0  0
  5  6  1  0  0  0  0
  6  7  1  0  0  0  0
  7  8  1  0  0  0  0
  7 10  1  0  0  0  0
  8  9  1  0  0  0  0
 10 11  1  0  0  0  0
 11 12  1  0  0  0  0
 11 16  1  0  0  0  0
 12 13  1  0  0  0  0
 13 14  2  0  0  0  0
 13 15  1  0  0  0  0
 16 17  1  0  0  0  0
 17 18  1  0  0  0  0
 18 19  1  0  0  0  0
 19 20  2  0  0  0  0
 19 21  1  0  0  0  0
 21 22  4  0  0  0  0
 21 26  4  0  0  0  0
 22 23  4  0  0  0  0
 23 24  4  0  0  0  0
 24 25  4  0  0  0  0
 24 27  1  0  0  0  0
 25 26  4  0  0  0  0
 27 28  4  0  0  0  0
 27 32  4  0  0  0  0
 28 29  4  0  0  0  0
 29 30  4  0  0  0  0
 30 31  4  0  0  0  0
 31 32  4  0  0  0  0
 33 34  4  0  0  0  0
 34 35  4  0  0  0  0
 35 36  4  0  0  0  0
 36 37  1  0  0  0  0
M  END
>  <Name_Molregno>
388337

>  <5-HT1A>
6.93

>  <5-HT2A>
7.05

>  <5-HT2C>
7.07

>  <DOPAMINE D2>
6.87

>  <DOPAMINE D3>
7.93

$$$$
388338
  Marvin  02231216192D 0   1.00000     0.00000     0

 34 37  0  0  1  0  0  0  0  0999 V2000
   -9.9564   -0.0271    0.0000 Cl  0  0  0  0  0  0  0  0  0
   -9.9564   -0.8521    0.0000 C   0  0  0  0  0  0  0  0  0
   -9.2419   -1.2646    0.0000 C   0  0  0  0  0  0  0  0  0
   -8.5275   -0.8521    0.0000 N   0  0  0  0  0  0  0  0  0
   -8.5275   -0.0271    0.0000 C   0  0  0  0  0  0  0  0  0
   -7.8130    0.3854    0.0000 C   0  0  0  0  0  0  0  0  0
   -7.0985   -0.0271    0.0000 N   0  0  0  0  0  0  0  0  0
   -7.0985   -0.8521    0.0000 C   0  0  0  0  0  0  0  0  0
   -7.8130   -1.2646    0.0000 C   0  0  0  0  0  0  0  0  0
   -6.3841    0.3854    0.0000 C   0  0  0  0  0  0  0  0  0
   -5.6696   -0.0271    0.0000 C   0  0  0  0  0  0  0  0  0
   -4.9551    0.3854    0.0000 C   0  0  0  0  0  0  0  0  0
   -4.9551    1.2104    0.0000 O   0  0  0  0  0  0  0  0  0
   -4.2406   -0.0271    0.0000 C   0  0  0  0  0  0  0  0  0
   -3.5262    0.3854    0.0000 N   0  0  0  0  0  0  0  0  0
   -2.8117   -0.0271    0.0000 C   0  0  0  0  0  0  0  0  0
   -2.8117   -0.8521    0.0000 O   0  0  0  0  0  0  0  0  0
   -2.0972    0.3854    0.0000 C   0  0  0  0  0  0  0  0  0
   -2.0972    1.2104    0.0000 C   0  0  0  0  0  0  0  0  0
   -1.3828    1.6229    0.0000 C   0  0  0  0  0  0  0  0  0
   -0.6683    1.2104    0.0000 C   0  0  0  0  0  0  0  0  0
   -0.6683    0.3854    0.0000 C   0  0  0  0  0  0  0  0  0
   -1.3828   -0.0271    0.0000 C   0  0  0  0  0  0  0  0  0
    0.0462    1.6229    0.0000 C   0  0  0  0  0  0  0  0  0
    0.0462    2.4479    0.0000 N   0  0  0  0  0  0  0  0  0
    0.7607    2.8604    0.0000 C   0  0  0  0  0  0  0  0  0
    1.4751    2.4479    0.0000 C   0  0  0  0  0  0  0  0  0
    1.4751    1.6229    0.0000 C   0  0  0  0  0  0  0  0  0
    0.7607    1.2104    0.0000 C   0  0  0  0  0  0  0  0  0
   -9.2419   -2.0896    0.0000 C   0  0  0  0  0  0  0  0  0
   -9.9564   -2.5021    0.0000 C   0  0  0  0  0  0  0  0  0
  -10.6709   -2.0896    0.0000 C   0  0  0  0  0  0  0  0  0
  -10.6709   -1.2646    0.0000 C   0  0  0  0  0  0  0  0  0
  -11.3853   -0.8521    0.0000 Cl  0  0  0  0  0  0  0  0  0
  1  2  1  0  0  0  0
  2  3  4  0  0  0  0
  2 33  4  0  0  0  0
  3  4  1  0  0  0  0
  3 30  4  0  0  0  0
  4  5  1  0  0  0  0
  4  9  1  0  0  0  0
  5  6  1  0  0  0  0
  6  7  1  0  0  0  0
  7  8  1  0  0  0  0
  7 10  1  0  0  0  0
  8  9  1  0  0  0  0
 10 11  1  0  0  0  0
 11 12  1  0  0  0  0
 12 13  1  0  0  0  0
 12 14  1  0  0  0  0
 14 15  1  0  0  0  0
 15 16  1  0  0  0  0
 16 17  2  0  0  0  0
 16 18  1  0  0  0  0
 18 19  4  0  0  0  0
 18 23  4  0  0  0  0
 19 20  4  0  0  0  0
 20 21  4  0  0  0  0
 21 22  4  0  0  0  0
 21 24  1  0  0  0  0
 22 23  4  0  0  0  0
 24 25  4  0  0  0  0
 24 29  4  0  0  0  0
 25 26  4  0  0  0  0
 26 27  4  0  0  0  0
 27 28  4  0  0  0  0
 28 29  4  0  0  0  0
 30 31  4  0  0  0  0
 31 32  4  0  0  0  0
 32 33  4  0  0  0  0
 33 34  1  0  0  0  0
M  END
>  <Name_Molregno>
388338

>  <5-HT1A>
7.82

>  <5-HT2A>
7.81

>  <5-HT2C>
7.6

>  <DOPAMINE D2>
7.55

>  <DOPAMINE D3>
9.3

$$$$
388343
  Marvin  02231216192D 0   1.00000     0.00000     0

 34 38  0  0  1  0  0  0  0  0999 V2000
    4.7092    4.0677    0.0000 Cl  0  0  0  0  0  0  0  0  0
    3.9947    3.6552    0.0000 C   0  0  0  0  0  0  0  0  0
    3.9947    2.8302    0.0000 C   0  0  0  0  0  0  0  0  0
    4.7092    2.4177    0.0000 N   0  0  0  0  0  0  0  0  0
    5.4236    2.8302    0.0000 C   0  0  0  0  0  0  0  0  0
    6.1381    2.4177    0.0000 C   0  0  0  0  0  0  0  0  0
    6.1381    1.5927    0.0000 N   0  0  0  0  0  0  0  0  0
    5.4236    1.1802    0.0000 C   0  0  0  0  0  0  0  0  0
    4.7092    1.5927    0.0000 C   0  0  0  0  0  0  0  0  0
    6.8526    1.1802    0.0000 C   0  0  0  0  0  0  0  0  0
    6.8526    0.3552    0.0000 C   0  0  0  0  0  0  0  0  0
    7.2651   -0.3592    0.0000 C   0  0  0  0  0  0  0  0  0
    6.4401   -0.3592    0.0000 C   0  0  0  0  0  0  0  0  0
    5.7256   -0.7717    0.0000 C   0  0  0  0  0  0  0  0  0
    5.7256   -1.5967    0.0000 N   0  0  0  0  0  0  0  0  0
    5.0111   -2.0092    0.0000 C   0  0  0  0  0  0  0  0  0
    4.2967   -1.5967    0.0000 O   0  0  0  0  0  0  0  0  0
    5.0111   -2.8342    0.0000 C   0  0  0  0  0  0  0  0  0
    5.7256   -3.2467    0.0000 C   0  0  0  0  0  0  0  0  0
    5.7256   -4.0717    0.0000 C   0  0  0  0  0  0  0  0  0
    5.0111   -4.4842    0.0000 C   0  0  0  0  0  0  0  0  0
    4.2967   -4.0717    0.0000 C   0  0  0  0  0  0  0  0  0
    4.2967   -3.2467    0.0000 C   0  0  0  0  0  0  0  0  0
    5.0111   -5.3092    0.0000 C   0  0  0  0  0  0  0  0  0
    5.7256   -5.7217    0.0000 N   0  0  0  0  0  0  0  0  0
    5.7256   -6.5467    0.0000 C   0  0  0  0  0  0  0  0  0
    5.0111   -6.9592    0.0000 C   0  0  0  0  0  0  0  0  0
    4.2967   -6.5467    0.0000 C   0  0  0  0  0  0  0  0  0
    4.2967   -5.7217    0.0000 C   0  0  0  0  0  0  0  0  0
    3.2802    2.4177    0.0000 C   0  0  0  0  0  0  0  0  0
    2.5658    2.8302    0.0000 C   0  0  0  0  0  0  0  0  0
    2.5658    3.6552    0.0000 C   0  0  0  0  0  0  0  0  0
    3.2802    4.0677    0.0000 C   0  0  0  0  0  0  0  0  0
    3.2802    4.8927    0.0000 Cl  0  0  0  0  0  0  0  0  0
  1  2  1  0  0  0  0
  2  3  4  0  0  0  0
  2 33  4  0  0  0  0
  3  4  1  0  0  0  0
  3 30  4  0  0  0  0
  4  5  1  0  0  0  0
  4  9  1  0  0  0  0
  5  6  1  0  0  0  0
  6  7  1  0  0  0  0
  7  8  1  0  0  0  0
  7 10  1  0  0  0  0
  8  9  1  0  0  0  0
 10 11  1  0  0  0  0
 11 12  1  0  0  0  0
 11 13  1  0  0  0  0
 12 13  1  0  0  0  0
 13 14  1  0  0  0  0
 14 15  1  0  0  0  0
 15 16  1  0  0  0  0
 16 17  2  0  0  0  0
 16 18  1  0  0  0  0
 18 19  4  0  0  0  0
 18 23  4  0  0  0  0
 19 20  4  0  0  0  0
 20 21  4  0  0  0  0
 21 22  4  0  0  0  0
 21 24  1  0  0  0  0
 22 23  4  0  0  0  0
 24 25  4  0  0  0  0
 24 29  4  0  0  0  0
 25 26  4  0  0  0  0
 26 27  4  0  0  0  0
 27 28  4  0  0  0  0
 28 29  4  0  0  0  0
 30 31  4  0  0  0  0
 31 32  4  0  0  0  0
 32 33  4  0  0  0  0
 33 34  1  0  0  0  0
M  END
>  <Name_Molregno>
388343

>  <5-HT1A>
6.62

>  <5-HT2A>
6.69

>  <5-HT2C>
6.65

>  <DOPAMINE D2>
6.63

>  <DOPAMINE D3>
7.9

>  <DOPAMINE D4>
5.84

$$$$
389011
  Marvin  02231216192D 0   1.00000     0.00000     0

 25 26  0  0  1  0  0  0  0  0999 V2000
   -2.9244    1.8604    0.0000 S   0  0  0  0  0  0  0  0  0
   -3.7494    1.8604    0.0000 O   0  0  0  0  0  0  0  0  0
   -2.0994    1.8604    0.0000 O   0  0  0  0  0  0  0  0  0
   -2.9244    2.6854    0.0000 C   0  0  0  0  0  0  0  0  0
   -3.6388    3.0979    0.0000 C   0  0  0  0  0  0  0  0  0
   -2.9244    1.0354    0.0000 C   0  0  0  0  0  0  0  0  0
   -2.2099    0.6229    0.0000 C   0  0  0  0  0  0  0  0  0
   -2.2099   -0.2021    0.0000 C   0  0  0  0  0  0  0  0  0
   -1.4954   -0.6146    0.0000 C   0  0  0  0  0  0  0  0  0
   -0.7810   -0.2021    0.0000 O   0  0  0  0  0  0  0  0  0
   -1.4954   -1.4396    0.0000 N   0  0  0  0  0  0  0  0  0
   -0.7810   -1.8521    0.0000 C   0  0  0  0  0  0  0  0  0
   -0.7810   -2.6771    0.0000 C   0  0  0  0  0  0  0  0  0
   -0.1135   -3.1620    0.0000 N   0  0  0  0  0  0  0  0  0
   -0.3685   -3.9466    0.0000 C   0  0  0  0  0  0  0  0  0
   -1.1935   -3.9466    0.0000 C   0  0  0  0  0  0  0  0  0
   -1.4484   -3.1620    0.0000 C   0  0  0  0  0  0  0  0  0
    0.6711   -2.9071    0.0000 C   0  0  0  0  0  0  0  0  0
    1.2842   -3.4591    0.0000 C   0  0  0  0  0  0  0  0  0
   -2.9244   -0.6146    0.0000 C   0  0  0  0  0  0  0  0  0
   -2.9244   -1.4396    0.0000 O   0  0  0  0  0  0  0  0  0
   -3.6388   -1.8521    0.0000 C   0  0  0  0  0  0  0  0  0
   -3.6388   -0.2021    0.0000 C   0  0  0  0  0  0  0  0  0
   -3.6388    0.6229    0.0000 C   0  0  0  0  0  0  0  0  0
   -4.3533    1.0354    0.0000 N   0  0  0  0  0  0  0  0  0
  1  2  2  0  0  0  0
  1  3  2  0  0  0  0
  1  4  1  0  0  0  0
  1  6  1  0  0  0  0
  4  5  1  0  0  0  0
  6  7  4  0  0  0  0
  6 24  4  0  0  0  0
  7  8  4  0  0  0  0
  8  9  1  0  0  0  0
  8 20  4  0  0  0  0
  9 10  2  0  0  0  0
  9 11  1  0  0  0  0
 11 12  1  0  0  0  0
 12 13  1  0  0  0  0
 13 14  1  0  0  0  0
 13 17  1  0  0  0  0
 14 15  1  0  0  0  0
 14 18  1  0  0  0  0
 15 16  1  0  0  0  0
 16 17  1  0  0  0  0
 18 19  1  0  0  0  0
 20 21  1  0  0  0  0
 20 23  4  0  0  0  0
 21 22  1  0  0  0  0
 23 24  4  0  0  0  0
 24 25  1  0  0  0  0
M  END
>  <Name_Molregno>
389011

>  <5-HT1A>
5

>  <5-HT1B>
5.76

>  <5-HT1D>
5.87

>  <5-HT1E>
5

>  <5-HT2A>
5.64

>  <5-HT2C>
5

>  <5-HT3>
5

>  <5-HT5>
5

>  <5-HT6>
5.38

>  <5-HT7>
7.47

>  <Alpha-1A>
5

>  <Alpha-1B>
5

>  <Alpha-2A>
5.95

>  <Alpha-2C>
5.81

>  <Beta-1>
5

>  <Beta-2>
5

>  <DOPAMINE D1>
5

>  <DOPAMINE D2>
8.71

>  <DOPAMINE D3>
8.51

>  <DOPAMINE D4>
5.63

>  <DOPAMINE D5>
5

>  <Dopamine transporter>
5

>  <HISTAMINE H1>
5

>  <HISTAMINE H2>
5

>  <HISTAMINE H4>
5

>  <Muscarinic acetylcholine receptor M1>
5

>  <Muscarinic acetylcholine receptor M2>
5

>  <Muscarinic acetylcholine receptor M3>
5

>  <Muscarinic acetylcholine receptor M4>
5

>  <Muscarinic acetylcholine receptor M5>
5

>  <Norepinephrine transporter>
5

>  <Serotonin transporter>
5

$$$$
390008
  Marvin  02231216192D 0   1.00000     0.00000     0

 39 44  0  0  0  0  0  0  0  0999 V2000
    0.3222    0.7886    0.0000 S   0  0  0  0  0  0  0  0  0
   -0.0134    0.0349    0.0000 C   0  0  0  0  0  0  0  0  0
    0.4715   -0.6325    0.0000 C   0  0  0  0  0  0  0  0  0
    0.1360   -1.3862    0.0000 C   0  0  0  0  0  0  0  0  0
    0.6209   -2.0537    0.0000 N   0  0  0  0  0  0  0  0  0
    1.4326   -1.9063    0.0000 C   0  0  0  0  0  0  0  0  0
    2.0539   -2.4491    0.0000 C   0  0  0  0  0  0  0  0  0
    2.0169   -3.2733    0.0000 C   0  0  0  0  0  0  0  0  0
    2.7706   -3.6089    0.0000 C   0  0  0  0  0  0  0  0  0
    2.8568   -4.4294    0.0000 C   0  0  0  0  0  0  0  0  0
    2.1894   -4.9143    0.0000 C   0  0  0  0  0  0  0  0  0
    1.4357   -4.5787    0.0000 C   0  0  0  0  0  0  0  0  0
    1.3495   -3.7582    0.0000 C   0  0  0  0  0  0  0  0  0
    0.5542   -3.5388    0.0000 C   0  0  0  0  0  0  0  0  0
    0.2299   -2.7801    0.0000 C   0  0  0  0  0  0  0  0  0
    3.6105   -4.7649    0.0000 C   0  0  0  0  0  0  0  0  0
    4.3250   -4.3524    0.0000 N   0  0  0  0  0  0  0  0  0
    4.9380   -4.9044    0.0000 N   0  0  0  0  0  0  0  0  0
    4.6025   -5.6581    0.0000 C   0  0  0  0  0  0  0  0  0
    3.7820   -5.5719    0.0000 C   0  0  0  0  0  0  0  0  0
    5.0150   -6.3726    0.0000 C   0  0  0  0  0  0  0  0  0
    4.4112   -3.5319    0.0000 C   0  0  0  0  0  0  0  0  0
   -0.1628    1.4560    0.0000 C   0  0  0  0  0  0  0  0  0
   -0.9878    1.4560    0.0000 N   0  0  0  0  0  0  0  0  0
   -1.2427    2.2406    0.0000 N   0  0  0  0  0  0  0  0  0
   -0.5753    2.7256    0.0000 C   0  0  0  0  0  0  0  0  0
    0.0922    2.2406    0.0000 N   0  0  0  0  0  0  0  0  0
    0.8768    2.4956    0.0000 C   0  0  0  0  0  0  0  0  0
   -0.5753    3.5506    0.0000 C   0  0  0  0  0  0  0  0  0
    0.1392    3.9631    0.0000 C   0  0  0  0  0  0  0  0  0
    0.1392    4.7881    0.0000 C   0  0  0  0  0  0  0  0  0
    0.8537    5.2006    0.0000 N   0  0  0  0  0  0  0  0  0
    1.5681    4.7881    0.0000 C   0  0  0  0  0  0  0  0  0
    1.5681    3.9631    0.0000 C   0  0  0  0  0  0  0  0  0
    0.8537    3.5506    0.0000 C   0  0  0  0  0  0  0  0  0
    2.2826    5.2006    0.0000 C   0  0  0  0  0  0  0  0  0
   -0.5753    5.2006    0.0000 C   0  0  0  0  0  0  0  0  0
   -1.2897    4.7881    0.0000 C   0  0  0  0  0  0  0  0  0
   -1.2897    3.9631    0.0000 C   0  0  0  0  0  0  0  0  0
  1  2  1  0  0  0  0
  1 23  1  0  0  0  0
  2  3  1  0  0  0  0
  3  4  1  0  0  0  0
  4  5  1  0  0  0  0
  5  6  1  0  0  0  0
  5 15  1  0  0  0  0
  6  7  1  0  0  0  0
  7  8  1  0  0  0  0
  8  9  4  0  0  0  0
  8 13  4  0  0  0  0
  9 10  4  0  0  0  0
 10 11  4  0  0  0  0
 10 16  1  0  0  0  0
 11 12  4  0  0  0  0
 12 13  4  0  0  0  0
 13 14  1  0  0  0  0
 14 15  1  0  0  0  0
 16 17  4  0  0  0  0
 16 20  4  0  0  0  0
 17 18  4  0  0  0  0
 17 22  1  0  0  0  0
 18 19  4  0  0  0  0
 19 20  4  0  0  0  0
 19 21  1  0  0  0  0
 23 24  4  0  0  0  0
 23 27  4  0  0  0  0
 24 25  4  0  0  0  0
 25 26  4  0  0  0  0
 26 27  4  0  0  0  0
 26 29  1  0  0  0  0
 27 28  1  0  0  0  0
 29 30  4  0  0  0  0
 29 39  4  0  0  0  0
 30 31  4  0  0  0  0
 30 35  4  0  0  0  0
 31 32  4  0  0  0  0
 31 37  4  0  0  0  0
 32 33  4  0  0  0  0
 33 34  4  0  0  0  0
 33 36  1  0  0  0  0
 34 35  4  0  0  0  0
 37 38  4  0  0  0  0
 38 39  4  0  0  0  0
M  END
>  <Name_Molregno>
390008

>  <5-HT1A>
6.2

>  <5-HT1B>
6.3

>  <5-HT1D>
6.7

>  <5-HT2A>
5.4

>  <5-HT2C>
5.4

>  <5-HT6>
5.9

>  <5-HT7>
5.7

>  <Alpha-1A>
6.2

>  <Alpha-1B>
5.7

>  <DOPAMINE D2>
6.25

>  <DOPAMINE D3>
8.7

>  <HISTAMINE H3>
6.5

$$$$
395931
  Marvin  02231216192D 0   1.00000     0.00000     0

 33 37  0  0  1  0  0  0  0  0999 V2000
    6.8150    3.3661    0.0000 F   0  0  0  0  0  0  0  0  0
    6.1005    2.9536    0.0000 C   0  0  0  0  0  0  0  0  0
    5.3860    3.3661    0.0000 C   0  0  0  0  0  0  0  0  0
    4.6715    2.9536    0.0000 C   0  0  0  0  0  0  0  0  0
    4.6715    2.1286    0.0000 C   0  0  0  0  0  0  0  0  0
    5.3860    1.7161    0.0000 C   0  0  0  0  0  0  0  0  0
    6.1005    2.1286    0.0000 C   0  0  0  0  0  0  0  0  0
    3.9571    1.7161    0.0000 C   0  0  0  0  0  0  0  0  0
    3.9571    0.8911    0.0000 N   0  0  0  0  0  0  0  0  0
    4.6715    0.4786    0.0000 C   0  0  0  0  0  0  0  0  0
    4.6715   -0.3464    0.0000 C   0  0  0  0  0  0  0  0  0
    3.9571   -0.7589    0.0000 N   0  0  0  0  0  0  0  0  0
    3.2426   -0.3464    0.0000 C   0  0  0  0  0  0  0  0  0
    3.2426    0.4786    0.0000 C   0  0  0  0  0  0  0  0  0
    3.9571   -1.5839    0.0000 C   0  0  0  0  0  0  0  0  0
    4.6715   -1.9964    0.0000 C   0  0  0  0  0  0  0  0  0
    4.6715   -2.8214    0.0000 C   0  0  0  0  0  0  0  0  0
    3.9571   -3.2339    0.0000 O   0  0  0  0  0  0  0  0  0
    3.9571   -4.0589    0.0000 C   0  0  0  0  0  0  0  0  0
    4.6715   -4.4714    0.0000 C   0  0  0  0  0  0  0  0  0
    5.3860   -4.0589    0.0000 C   0  0  0  0  0  0  0  0  0
    5.3860   -3.2339    0.0000 C   0  0  0  0  0  0  0  0  0
    6.1005   -2.8214    0.0000 C   0  0  0  0  0  0  0  0  0
    6.8150   -3.2339    0.0000 C   0  0  0  0  0  0  0  0  0
    6.8150   -4.0589    0.0000 C   0  0  0  0  0  0  0  0  0
    6.1005   -4.4714    0.0000 C   0  0  0  0  0  0  0  0  0
    7.5294   -4.4714    0.0000 C   0  0  0  0  0  0  0  0  0
    8.2439   -4.0589    0.0000 O   0  0  0  0  0  0  0  0  0
    7.5294   -5.2964    0.0000 N   0  0  0  0  0  0  0  0  0
    5.3860   -0.7589    0.0000 C   0  0  0  0  0  0  0  0  0
    3.2426    2.1286    0.0000 C   0  0  0  0  0  0  0  0  0
    3.2426    2.9536    0.0000 C   0  0  0  0  0  0  0  0  0
    3.9571    3.3661    0.0000 C   0  0  0  0  0  0  0  0  0
  1  2  1  0  0  0  0
  2  3  4  0  0  0  0
  2  7  4  0  0  0  0
  3  4  4  0  0  0  0
  4  5  4  0  0  0  0
  4 33  4  0  0  0  0
  5  6  4  0  0  0  0
  5  8  4  0  0  0  0
  6  7  4  0  0  0  0
  8  9  1  0  0  0  0
  8 31  4  0  0  0  0
  9 10  1  0  0  0  0
  9 14  1  0  0  0  0
 10 11  1  0  0  0  0
 11 12  1  0  0  0  0
 11 30  1  0  0  0  0
 12 13  1  0  0  0  0
 12 15  1  0  0  0  0
 13 14  1  0  0  0  0
 15 16  1  0  0  0  0
 16 17  1  0  0  0  0
 17 18  1  0  0  0  0
 17 22  1  0  0  0  0
 18 19  1  0  0  0  0
 19 20  1  0  0  0  0
 20 21  1  0  0  0  0
 21 22  4  0  0  0  0
 21 26  4  0  0  0  0
 22 23  4  0  0  0  0
 23 24  4  0  0  0  0
 24 25  4  0  0  0  0
 25 26  4  0  0  0  0
 25 27  1  0  0  0  0
 27 28  2  0  0  0  0
 27 29  1  0  0  0  0
 31 32  4  0  0  0  0
 32 33  4  0  0  0  0
M  END
>  <Name_Molregno>
395931

>  <5-HT1A>
6.96

>  <5-HT1B>
6.86

>  <5-HT1D>
7.49

>  <Serotonin transporter>
8.58

$$$$
395934
  Marvin  02231216192D 0   1.00000     0.00000     0

 33 37  0  0  1  0  0  0  0  0999 V2000
    5.5365    7.2538    0.0000 F   0  0  0  0  0  0  0  0  0
    5.5365    6.4288    0.0000 C   0  0  0  0  0  0  0  0  0
    4.8220    6.0163    0.0000 C   0  0  0  0  0  0  0  0  0
    4.8220    5.1913    0.0000 C   0  0  0  0  0  0  0  0  0
    5.5365    4.7788    0.0000 C   0  0  0  0  0  0  0  0  0
    5.5365    3.9538    0.0000 C   0  0  0  0  0  0  0  0  0
    4.8220    3.5413    0.0000 C   0  0  0  0  0  0  0  0  0
    4.8220    2.7163    0.0000 N   0  0  0  0  0  0  0  0  0
    5.5365    2.3038    0.0000 C   0  0  0  0  0  0  0  0  0
    5.5365    1.4788    0.0000 C   0  0  0  0  0  0  0  0  0
    4.8220    1.0663    0.0000 N   0  0  0  0  0  0  0  0  0
    4.1076    1.4788    0.0000 C   0  0  0  0  0  0  0  0  0
    4.1076    2.3038    0.0000 C   0  0  0  0  0  0  0  0  0
    4.8220    0.2413    0.0000 C   0  0  0  0  0  0  0  0  0
    5.5365   -0.1712    0.0000 C   0  0  0  0  0  0  0  0  0
    5.5365   -0.9962    0.0000 C   0  0  0  0  0  0  0  0  0
    4.8220   -1.4087    0.0000 O   0  0  0  0  0  0  0  0  0
    4.8220   -2.2337    0.0000 C   0  0  0  0  0  0  0  0  0
    5.5365   -2.6462    0.0000 C   0  0  0  0  0  0  0  0  0
    6.2510   -2.2337    0.0000 C   0  0  0  0  0  0  0  0  0
    6.2510   -1.4087    0.0000 C   0  0  0  0  0  0  0  0  0
    6.9654   -0.9962    0.0000 C   0  0  0  0  0  0  0  0  0
    7.6799   -1.4087    0.0000 C   0  0  0  0  0  0  0  0  0
    7.6799   -2.2337    0.0000 C   0  0  0  0  0  0  0  0  0
    6.9654   -2.6462    0.0000 C   0  0  0  0  0  0  0  0  0
    8.3944   -2.6462    0.0000 C   0  0  0  0  0  0  0  0  0
    9.1089   -2.2337    0.0000 O   0  0  0  0  0  0  0  0  0
    8.3944   -3.4712    0.0000 N   0  0  0  0  0  0  0  0  0
    6.2510    1.0663    0.0000 C   0  0  0  0  0  0  0  0  0
    4.1076    3.9538    0.0000 C   0  0  0  0  0  0  0  0  0
    4.1076    4.7788    0.0000 C   0  0  0  0  0  0  0  0  0
    6.2510    5.1913    0.0000 C   0  0  0  0  0  0  0  0  0
    6.2510    6.0163    0.0000 C   0  0  0  0  0  0  0  0  0
  1  2  1  0  0  0  0
  2  3  4  0  0  0  0
  2 33  4  0  0  0  0
  3  4  4  0  0  0  0
  4  5  4  0  0  0  0
  4 31  4  0  0  0  0
  5  6  4  0  0  0  0
  5 32  4  0  0  0  0
  6  7  4  0  0  0  0
  7  8  1  0  0  0  0
  7 30  4  0  0  0  0
  8  9  1  0  0  0  0
  8 13  1  0  0  0  0
  9 10  1  0  0  0  0
 10 11  1  0  0  0  0
 10 29  1  0  0  0  0
 11 12  1  0  0  0  0
 11 14  1  0  0  0  0
 12 13  1  0  0  0  0
 14 15  1  0  0  0  0
 15 16  1  0  0  0  0
 16 17  1  0  0  0  0
 16 21  1  0  0  0  0
 17 18  1  0  0  0  0
 18 19  1  0  0  0  0
 19 20  1  0  0  0  0
 20 21  4  0  0  0  0
 20 25  4  0  0  0  0
 21 22  4  0  0  0  0
 22 23  4  0  0  0  0
 23 24  4  0  0  0  0
 24 25  4  0  0  0  0
 24 26  1  0  0  0  0
 26 27  2  0  0  0  0
 26 28  1  0  0  0  0
 30 31  4  0  0  0  0
 32 33  4  0  0  0  0
M  END
>  <Name_Molregno>
395934

>  <5-HT1A>
6.51

>  <5-HT1B>
6

>  <5-HT1D>
7.85

>  <Serotonin transporter>
8.68

$$$$
395936
  Marvin  02231216192D 0   1.00000     0.00000     0

 34 38  0  0  1  0  0  0  0  0999 V2000
   -3.7500   -2.2869    0.0000 O   0  0  0  0  0  0  0  0  0
   -3.7500   -3.1119    0.0000 C   0  0  0  0  0  0  0  0  0
   -3.0355   -3.5244    0.0000 C   0  0  0  0  0  0  0  0  0
   -2.3210   -3.1119    0.0000 C   0  0  0  0  0  0  0  0  0
   -2.3210   -2.2869    0.0000 C   0  0  0  0  0  0  0  0  0
   -1.6066   -1.8744    0.0000 C   0  0  0  0  0  0  0  0  0
   -0.8921   -2.2869    0.0000 C   0  0  0  0  0  0  0  0  0
   -0.8921   -3.1119    0.0000 C   0  0  0  0  0  0  0  0  0
   -1.6066   -3.5244    0.0000 C   0  0  0  0  0  0  0  0  0
   -0.1776   -3.5244    0.0000 C   0  0  0  0  0  0  0  0  0
   -0.1776   -4.3494    0.0000 O   0  0  0  0  0  0  0  0  0
    0.5368   -3.1119    0.0000 N   0  0  0  0  0  0  0  0  0
   -3.0355   -1.8744    0.0000 C   0  0  0  0  0  0  0  0  0
   -3.0355   -1.0494    0.0000 C   0  0  0  0  0  0  0  0  0
   -3.7500   -0.6369    0.0000 C   0  0  0  0  0  0  0  0  0
   -3.7500    0.1881    0.0000 N   0  0  0  0  0  0  0  0  0
   -4.4645    0.6006    0.0000 C   0  0  0  0  0  0  0  0  0
   -4.4645    1.4256    0.0000 C   0  0  0  0  0  0  0  0  0
   -3.7500    1.8381    0.0000 N   0  0  0  0  0  0  0  0  0
   -3.0355    1.4256    0.0000 C   0  0  0  0  0  0  0  0  0
   -3.0355    0.6006    0.0000 C   0  0  0  0  0  0  0  0  0
   -2.3210    0.1881    0.0000 C   0  0  0  0  0  0  0  0  0
   -3.7500    2.6631    0.0000 C   0  0  0  0  0  0  0  0  0
   -3.0355    3.0756    0.0000 C   0  0  0  0  0  0  0  0  0
   -3.0355    3.9006    0.0000 C   0  0  0  0  0  0  0  0  0
   -2.3210    4.3131    0.0000 C   0  0  0  0  0  0  0  0  0
   -1.6066    3.9006    0.0000 C   0  0  0  0  0  0  0  0  0
   -1.6066    3.0756    0.0000 C   0  0  0  0  0  0  0  0  0
   -2.3210    2.6631    0.0000 C   0  0  0  0  0  0  0  0  0
   -0.8921    4.3131    0.0000 C   0  0  0  0  0  0  0  0  0
   -0.1776    4.7256    0.0000 N   0  0  0  0  0  0  0  0  0
   -3.7500    4.3131    0.0000 C   0  0  0  0  0  0  0  0  0
   -4.4645    3.9006    0.0000 C   0  0  0  0  0  0  0  0  0
   -4.4645    3.0756    0.0000 C   0  0  0  0  0  0  0  0  0
  1  2  1  0  0  0  0
  1 13  1  0  0  0  0
  2  3  1  0  0  0  0
  3  4  1  0  0  0  0
  4  5  4  0  0  0  0
  4  9  4  0  0  0  0
  5  6  4  0  0  0  0
  5 13  1  0  0  0  0
  6  7  4  0  0  0  0
  7  8  4  0  0  0  0
  8  9  4  0  0  0  0
  8 10  1  0  0  0  0
 10 11  2  0  0  0  0
 10 12  1  0  0  0  0
 13 14  1  0  0  0  0
 14 15  1  0  0  0  0
 15 16  1  0  0  0  0
 16 17  1  0  0  0  0
 16 21  1  0  0  0  0
 17 18  1  0  0  0  0
 18 19  1  0  0  0  0
 19 20  1  0  0  0  0
 19 23  1  0  0  0  0
 20 21  1  0  0  0  0
 21 22  1  0  0  0  0
 23 24  4  0  0  0  0
 23 34  4  0  0  0  0
 24 25  4  0  0  0  0
 24 29  4  0  0  0  0
 25 26  4  0  0  0  0
 25 32  4  0  0  0  0
 26 27  4  0  0  0  0
 27 28  4  0  0  0  0
 27 30  1  0  0  0  0
 28 29  4  0  0  0  0
 30 31  3  0  0  0  0
 32 33  4  0  0  0  0
 33 34  4  0  0  0  0
M  END
>  <Name_Molregno>
395936

>  <5-HT1A>
7.59

>  <5-HT1B>
7.68

>  <5-HT1D>
9.05

>  <Serotonin transporter>
8.66

$$$$
395937
  Marvin  02231216192D 0   1.00000     0.00000     0

 33 37  0  0  1  0  0  0  0  0999 V2000
   -3.7423   -2.9963    0.0000 O   0  0  0  0  0  0  0  0  0
   -3.7423   -3.8213    0.0000 C   0  0  0  0  0  0  0  0  0
   -3.0278   -4.2338    0.0000 C   0  0  0  0  0  0  0  0  0
   -2.3134   -3.8213    0.0000 C   0  0  0  0  0  0  0  0  0
   -2.3134   -2.9963    0.0000 C   0  0  0  0  0  0  0  0  0
   -1.5989   -2.5838    0.0000 C   0  0  0  0  0  0  0  0  0
   -0.8844   -2.9963    0.0000 C   0  0  0  0  0  0  0  0  0
   -0.8844   -3.8213    0.0000 C   0  0  0  0  0  0  0  0  0
   -1.5989   -4.2338    0.0000 C   0  0  0  0  0  0  0  0  0
   -0.1700   -4.2338    0.0000 C   0  0  0  0  0  0  0  0  0
   -0.1700   -5.0588    0.0000 O   0  0  0  0  0  0  0  0  0
    0.5445   -3.8213    0.0000 N   0  0  0  0  0  0  0  0  0
   -3.0278   -2.5838    0.0000 C   0  0  0  0  0  0  0  0  0
   -3.0278   -1.7588    0.0000 C   0  0  0  0  0  0  0  0  0
   -3.7423   -1.3463    0.0000 C   0  0  0  0  0  0  0  0  0
   -3.7423   -0.5213    0.0000 N   0  0  0  0  0  0  0  0  0
   -4.4568   -0.1088    0.0000 C   0  0  0  0  0  0  0  0  0
   -4.4568    0.7162    0.0000 C   0  0  0  0  0  0  0  0  0
   -3.7423    1.1287    0.0000 N   0  0  0  0  0  0  0  0  0
   -3.0278    0.7162    0.0000 C   0  0  0  0  0  0  0  0  0
   -3.0278   -0.1088    0.0000 C   0  0  0  0  0  0  0  0  0
   -3.7423    1.9537    0.0000 C   0  0  0  0  0  0  0  0  0
   -3.0278    2.3662    0.0000 C   0  0  0  0  0  0  0  0  0
   -3.0278    3.1912    0.0000 C   0  0  0  0  0  0  0  0  0
   -2.3134    3.6037    0.0000 C   0  0  0  0  0  0  0  0  0
   -1.5989    3.1912    0.0000 C   0  0  0  0  0  0  0  0  0
   -1.5989    2.3662    0.0000 C   0  0  0  0  0  0  0  0  0
   -2.3134    1.9537    0.0000 C   0  0  0  0  0  0  0  0  0
   -0.8844    3.6037    0.0000 C   0  0  0  0  0  0  0  0  0
   -0.1700    4.0162    0.0000 N   0  0  0  0  0  0  0  0  0
   -3.7423    3.6037    0.0000 C   0  0  0  0  0  0  0  0  0
   -4.4568    3.1912    0.0000 C   0  0  0  0  0  0  0  0  0
   -4.4568    2.3662    0.0000 C   0  0  0  0  0  0  0  0  0
  1  2  1  0  0  0  0
  1 13  1  0  0  0  0
  2  3  1  0  0  0  0
  3  4  1  0  0  0  0
  4  5  4  0  0  0  0
  4  9  4  0  0  0  0
  5  6  4  0  0  0  0
  5 13  1  0  0  0  0
  6  7  4  0  0  0  0
  7  8  4  0  0  0  0
  8  9  4  0  0  0  0
  8 10  1  0  0  0  0
 10 11  2  0  0  0  0
 10 12  1  0  0  0  0
 13 14  1  0  0  0  0
 14 15  1  0  0  0  0
 15 16  1  0  0  0  0
 16 17  1  0  0  0  0
 16 21  1  0  0  0  0
 17 18  1  0  0  0  0
 18 19  1  0  0  0  0
 19 20  1  0  0  0  0
 19 22  1  0  0  0  0
 20 21  1  0  0  0  0
 22 23  4  0  0  0  0
 22 33  4  0  0  0  0
 23 24  4  0  0  0  0
 23 28  4  0  0  0  0
 24 25  4  0  0  0  0
 24 31  4  0  0  0  0
 25 26  4  0  0  0  0
 26 27  4  0  0  0  0
 26 29  1  0  0  0  0
 27 28  4  0  0  0  0
 29 30  3  0  0  0  0
 31 32  4  0  0  0  0
 32 33  4  0  0  0  0
M  END
>  <Name_Molregno>
395937

>  <5-HT1A>
7.8

>  <5-HT1B>
7.82

>  <5-HT1D>
9

>  <Serotonin transporter>
8.24

$$$$
395938
  Marvin  02231216192D 0   1.00000     0.00000     0

 32 36  0  0  1  0  0  0  0  0999 V2000
    5.4737    5.2206    0.0000 F   0  0  0  0  0  0  0  0  0
    4.9217    4.6075    0.0000 C   0  0  0  0  0  0  0  0  0
    4.1147    4.7790    0.0000 C   0  0  0  0  0  0  0  0  0
    3.5627    4.1659    0.0000 C   0  0  0  0  0  0  0  0  0
    3.8176    3.3813    0.0000 C   0  0  0  0  0  0  0  0  0
    4.6246    3.2098    0.0000 C   0  0  0  0  0  0  0  0  0
    5.1766    3.8229    0.0000 C   0  0  0  0  0  0  0  0  0
    3.2656    2.7682    0.0000 C   0  0  0  0  0  0  0  0  0
    3.5205    1.9836    0.0000 N   0  0  0  0  0  0  0  0  0
    4.3275    1.8120    0.0000 C   0  0  0  0  0  0  0  0  0
    4.5825    1.0274    0.0000 C   0  0  0  0  0  0  0  0  0
    4.0304    0.4143    0.0000 N   0  0  0  0  0  0  0  0  0
    3.2235    0.5859    0.0000 C   0  0  0  0  0  0  0  0  0
    2.9685    1.3705    0.0000 C   0  0  0  0  0  0  0  0  0
    4.2854   -0.3703    0.0000 C   0  0  0  0  0  0  0  0  0
    5.0923   -0.5418    0.0000 C   0  0  0  0  0  0  0  0  0
    5.3473   -1.3264    0.0000 C   0  0  0  0  0  0  0  0  0
    4.8624   -1.9939    0.0000 O   0  0  0  0  0  0  0  0  0
    5.3473   -2.6613    0.0000 C   0  0  0  0  0  0  0  0  0
    6.1319   -2.4064    0.0000 C   0  0  0  0  0  0  0  0  0
    6.1319   -1.5814    0.0000 C   0  0  0  0  0  0  0  0  0
    6.8464   -1.1689    0.0000 C   0  0  0  0  0  0  0  0  0
    7.5608   -1.5814    0.0000 C   0  0  0  0  0  0  0  0  0
    7.5608   -2.4064    0.0000 C   0  0  0  0  0  0  0  0  0
    6.8464   -2.8189    0.0000 C   0  0  0  0  0  0  0  0  0
    8.2753   -2.8189    0.0000 C   0  0  0  0  0  0  0  0  0
    8.9898   -2.4064    0.0000 O   0  0  0  0  0  0  0  0  0
    8.2753   -3.6439    0.0000 N   0  0  0  0  0  0  0  0  0
    5.3894    0.8559    0.0000 C   0  0  0  0  0  0  0  0  0
    2.4586    2.9397    0.0000 C   0  0  0  0  0  0  0  0  0
    2.2037    3.7243    0.0000 C   0  0  0  0  0  0  0  0  0
    2.7557    4.3374    0.0000 C   0  0  0  0  0  0  0  0  0
  1  2  1  0  0  0  0
  2  3  4  0  0  0  0
  2  7  4  0  0  0  0
  3  4  4  0  0  0  0
  4  5  4  0  0  0  0
  4 32  4  0  0  0  0
  5  6  4  0  0  0  0
  5  8  4  0  0  0  0
  6  7  4  0  0  0  0
  8  9  1  0  0  0  0
  8 30  4  0  0  0  0
  9 10  1  0  0  0  0
  9 14  1  0  0  0  0
 10 11  1  0  0  0  0
 11 12  1  0  0  0  0
 11 29  1  0  0  0  0
 12 13  1  0  0  0  0
 12 15  1  0  0  0  0
 13 14  1  0  0  0  0
 15 16  1  0  0  0  0
 16 17  1  0  0  0  0
 17 18  1  0  0  0  0
 17 21  1  0  0  0  0
 18 19  1  0  0  0  0
 19 20  1  0  0  0  0
 20 21  1  0  0  0  0
 20 25  2  0  0  0  0
 21 22  1  0  0  0  0
 22 23  1  0  0  0  0
 23 24  2  0  0  0  0
 24 25  1  0  0  0  0
 24 26  1  0  0  0  0
 26 27  2  0  0  0  0
 26 28  1  0  0  0  0
 30 31  4  0  0  0  0
 31 32  4  0  0  0  0
M  END
>  <Name_Molregno>
395938

>  <5-HT1A>
7.89

>  <5-HT1B>
6.47

>  <5-HT1D>
7.51

>  <Serotonin transporter>
8.48

$$$$
395963
  Marvin  02231216192D 0   1.00000     0.00000     0

 26 29  0  0  1  0  0  0  0  0999 V2000
   -8.6589    0.9592    0.0000 F   0  0  0  0  0  0  0  0  0
   -8.4039    0.1746    0.0000 C   0  0  0  0  0  0  0  0  0
   -7.5970    0.0031    0.0000 C   0  0  0  0  0  0  0  0  0
   -7.3420   -0.7816    0.0000 C   0  0  0  0  0  0  0  0  0
   -7.8941   -1.3947    0.0000 C   0  0  0  0  0  0  0  0  0
   -7.4816   -2.1091    0.0000 N   0  0  0  0  0  0  0  0  0
   -6.6746   -1.9376    0.0000 C   0  0  0  0  0  0  0  0  0
   -6.5883   -1.1171    0.0000 C   0  0  0  0  0  0  0  0  0
   -5.8739   -0.7046    0.0000 C   0  0  0  0  0  0  0  0  0
   -5.1594   -1.1171    0.0000 C   0  0  0  0  0  0  0  0  0
   -4.4449   -0.7046    0.0000 C   0  0  0  0  0  0  0  0  0
   -3.7305   -1.1171    0.0000 N   0  0  0  0  0  0  0  0  0
   -3.0160   -0.7046    0.0000 C   0  0  0  0  0  0  0  0  0
   -2.3015   -1.1171    0.0000 C   0  0  0  0  0  0  0  0  0
   -1.5870   -0.7046    0.0000 C   0  0  0  0  0  0  0  0  0
   -1.5870    0.1204    0.0000 C   0  0  0  0  0  0  0  0  0
   -2.3015    0.5329    0.0000 O   0  0  0  0  0  0  0  0  0
   -3.0160    0.1204    0.0000 C   0  0  0  0  0  0  0  0  0
   -0.8726    0.5329    0.0000 C   0  0  0  0  0  0  0  0  0
   -0.1581    0.1204    0.0000 C   0  0  0  0  0  0  0  0  0
   -0.1581   -0.7046    0.0000 C   0  0  0  0  0  0  0  0  0
   -0.8726   -1.1171    0.0000 C   0  0  0  0  0  0  0  0  0
   -0.8726   -1.9421    0.0000 O   0  0  0  0  0  0  0  0  0
   -0.1581   -2.3546    0.0000 C   0  0  0  0  0  0  0  0  0
   -8.7010   -1.2231    0.0000 C   0  0  0  0  0  0  0  0  0
   -8.9560   -0.4385    0.0000 C   0  0  0  0  0  0  0  0  0
  1  2  1  0  0  0  0
  2  3  4  0  0  0  0
  2 26  4  0  0  0  0
  3  4  4  0  0  0  0
  4  5  4  0  0  0  0
  4  8  4  0  0  0  0
  5  6  4  0  0  0  0
  5 25  4  0  0  0  0
  6  7  4  0  0  0  0
  7  8  4  0  0  0  0
  8  9  1  0  0  0  0
  9 10  1  0  0  0  0
 10 11  1  0  0  0  0
 11 12  1  0  0  0  0
 12 13  1  0  0  0  0
 13 14  1  0  0  0  0
 13 18  1  0  0  0  0
 14 15  1  0  0  0  0
 15 16  4  0  0  0  0
 15 22  4  0  0  0  0
 16 17  1  0  0  0  0
 16 19  4  0  0  0  0
 17 18  1  0  0  0  0
 19 20  4  0  0  0  0
 20 21  4  0  0  0  0
 21 22  4  0  0  0  0
 22 23  1  0  0  0  0
 23 24  1  0  0  0  0
 25 26  4  0  0  0  0
M  STY  1   1 DAT
M  SAL   1  1   6
M  SDT   1 MRV_IMPLICIT_H                                        
M  SDD   1     0.0000    0.0000    DR    ALL  0       0  
M  SED   1 IMPL_H1
M  END
>  <Name_Molregno>
395963

>  <5-HT1A>
7.15

$$$$
395964
  Marvin  02231216192D 0   1.00000     0.00000     0

 28 32  0  0  1  0  0  0  0  0999 V2000
   -9.5896    0.0415    0.0000 F   0  0  0  0  0  0  0  0  0
   -8.9765   -0.5105    0.0000 C   0  0  0  0  0  0  0  0  0
   -8.1918   -0.2556    0.0000 C   0  0  0  0  0  0  0  0  0
   -7.5787   -0.8076    0.0000 C   0  0  0  0  0  0  0  0  0
   -7.7503   -1.6146    0.0000 C   0  0  0  0  0  0  0  0  0
   -7.0358   -2.0271    0.0000 N   0  0  0  0  0  0  0  0  0
   -6.4227   -1.4751    0.0000 C   0  0  0  0  0  0  0  0  0
   -6.7583   -0.7214    0.0000 C   0  0  0  0  0  0  0  0  0
   -6.3458   -0.0069    0.0000 C   0  0  0  0  0  0  0  0  0
   -5.5208   -0.0069    0.0000 C   0  0  0  0  0  0  0  0  0
   -5.1083    0.7075    0.0000 C   0  0  0  0  0  0  0  0  0
   -4.2833    0.7075    0.0000 N   0  0  0  0  0  0  0  0  0
   -3.8708    1.4220    0.0000 C   0  0  0  0  0  0  0  0  0
   -3.0458    1.4220    0.0000 C   0  0  0  0  0  0  0  0  0
   -2.6333    2.1365    0.0000 C   0  0  0  0  0  0  0  0  0
   -1.8083    2.1365    0.0000 C   0  0  0  0  0  0  0  0  0
   -1.3958    2.8509    0.0000 C   0  0  0  0  0  0  0  0  0
   -0.5708    2.8509    0.0000 N   0  0  0  0  0  0  0  0  0
   -0.1583    2.1365    0.0000 C   0  0  0  0  0  0  0  0  0
   -0.5708    1.4220    0.0000 C   0  0  0  0  0  0  0  0  0
   -1.3958    1.4220    0.0000 C   0  0  0  0  0  0  0  0  0
   -1.8083    3.5654    0.0000 C   0  0  0  0  0  0  0  0  0
   -2.6333    3.5654    0.0000 C   0  0  0  0  0  0  0  0  0
   -3.0458    2.8509    0.0000 C   0  0  0  0  0  0  0  0  0
   -3.8708    2.8509    0.0000 O   0  0  0  0  0  0  0  0  0
   -4.2833    2.1365    0.0000 C   0  0  0  0  0  0  0  0  0
   -8.5349   -1.8696    0.0000 C   0  0  0  0  0  0  0  0  0
   -9.1480   -1.3175    0.0000 C   0  0  0  0  0  0  0  0  0
  1  2  1  0  0  0  0
  2  3  4  0  0  0  0
  2 28  4  0  0  0  0
  3  4  4  0  0  0  0
  4  5  4  0  0  0  0
  4  8  4  0  0  0  0
  5  6  4  0  0  0  0
  5 27  4  0  0  0  0
  6  7  4  0  0  0  0
  7  8  4  0  0  0  0
  8  9  1  0  0  0  0
  9 10  1  0  0  0  0
 10 11  1  0  0  0  0
 11 12  1  0  0  0  0
 12 13  1  0  0  0  0
 13 14  1  0  0  0  0
 13 26  1  0  0  0  0
 14 15  1  0  0  0  0
 15 16  4  0  0  0  0
 15 24  4  0  0  0  0
 16 17  4  0  0  0  0
 16 21  4  0  0  0  0
 17 18  4  0  0  0  0
 17 22  4  0  0  0  0
 18 19  4  0  0  0  0
 19 20  4  0  0  0  0
 20 21  4  0  0  0  0
 22 23  4  0  0  0  0
 23 24  4  0  0  0  0
 24 25  1  0  0  0  0
 25 26  1  0  0  0  0
 27 28  4  0  0  0  0
M  STY  1   1 DAT
M  SAL   1  1   6
M  SDT   1 MRV_IMPLICIT_H                                        
M  SDD   1     0.0000    0.0000    DR    ALL  0       0  
M  SED   1 IMPL_H1
M  END
>  <Name_Molregno>
395964

>  <5-HT1A>
7.11

$$$$
395968
  Marvin  02231216192D 0   1.00000     0.00000     0

 31 35  0  0  1  0  0  0  0  0999 V2000
   -1.9531   -3.7014    0.0000 F   0  0  0  0  0  0  0  0  0
   -1.3400   -4.2535    0.0000 C   0  0  0  0  0  0  0  0  0
   -0.5554   -3.9985    0.0000 C   0  0  0  0  0  0  0  0  0
    0.0577   -4.5505    0.0000 C   0  0  0  0  0  0  0  0  0
   -0.1138   -5.3575    0.0000 C   0  0  0  0  0  0  0  0  0
    0.6006   -5.7700    0.0000 N   0  0  0  0  0  0  0  0  0
    1.2137   -5.2180    0.0000 C   0  0  0  0  0  0  0  0  0
    0.8782   -4.4643    0.0000 C   0  0  0  0  0  0  0  0  0
    1.2907   -3.7498    0.0000 C   0  0  0  0  0  0  0  0  0
    2.1157   -3.7498    0.0000 C   0  0  0  0  0  0  0  0  0
    2.5282   -3.0354    0.0000 C   0  0  0  0  0  0  0  0  0
    3.3532   -3.0354    0.0000 N   0  0  0  0  0  0  0  0  0
    3.7657   -3.7498    0.0000 C   0  0  0  0  0  0  0  0  0
    4.5907   -3.7498    0.0000 C   0  0  0  0  0  0  0  0  0
    5.0032   -4.4643    0.0000 C   0  0  0  0  0  0  0  0  0
    3.7657   -2.3209    0.0000 C   0  0  0  0  0  0  0  0  0
    4.5907   -2.3209    0.0000 C   0  0  0  0  0  0  0  0  0
    5.0032   -1.6064    0.0000 C   0  0  0  0  0  0  0  0  0
    5.8282   -1.6064    0.0000 C   0  0  0  0  0  0  0  0  0
    6.2407   -0.8920    0.0000 C   0  0  0  0  0  0  0  0  0
    7.0657   -0.8920    0.0000 N   0  0  0  0  0  0  0  0  0
    7.4782   -1.6064    0.0000 C   0  0  0  0  0  0  0  0  0
    7.0657   -2.3209    0.0000 C   0  0  0  0  0  0  0  0  0
    6.2407   -2.3209    0.0000 C   0  0  0  0  0  0  0  0  0
    5.8282   -0.1775    0.0000 C   0  0  0  0  0  0  0  0  0
    5.0032   -0.1775    0.0000 C   0  0  0  0  0  0  0  0  0
    4.5907   -0.8920    0.0000 C   0  0  0  0  0  0  0  0  0
    3.7657   -0.8920    0.0000 O   0  0  0  0  0  0  0  0  0
    3.3532   -1.6064    0.0000 C   0  0  0  0  0  0  0  0  0
   -0.8985   -5.6125    0.0000 C   0  0  0  0  0  0  0  0  0
   -1.5116   -5.0604    0.0000 C   0  0  0  0  0  0  0  0  0
  1  2  1  0  0  0  0
  2  3  4  0  0  0  0
  2 31  4  0  0  0  0
  3  4  4  0  0  0  0
  4  5  4  0  0  0  0
  4  8  4  0  0  0  0
  5  6  4  0  0  0  0
  5 30  4  0  0  0  0
  6  7  4  0  0  0  0
  7  8  4  0  0  0  0
  8  9  1  0  0  0  0
  9 10  1  0  0  0  0
 10 11  1  0  0  0  0
 11 12  1  0  0  0  0
 12 13  1  0  0  0  0
 12 16  1  0  0  0  0
 13 14  1  0  0  0  0
 14 15  1  0  0  0  0
 16 17  1  0  0  0  0
 16 29  1  0  0  0  0
 17 18  1  0  0  0  0
 18 19  4  0  0  0  0
 18 27  4  0  0  0  0
 19 20  4  0  0  0  0
 19 24  4  0  0  0  0
 20 21  4  0  0  0  0
 20 25  4  0  0  0  0
 21 22  4  0  0  0  0
 22 23  4  0  0  0  0
 23 24  4  0  0  0  0
 25 26  4  0  0  0  0
 26 27  4  0  0  0  0
 27 28  1  0  0  0  0
 28 29  1  0  0  0  0
 30 31  4  0  0  0  0
M  STY  1   1 DAT
M  SAL   1  1   6
M  SDT   1 MRV_IMPLICIT_H                                        
M  SDD   1     0.0000    0.0000    DR    ALL  0       0  
M  SED   1 IMPL_H1
M  END
>  <Name_Molregno>
395968

>  <5-HT1A>
7.04

$$$$
395974
  Marvin  02231216192D 0   1.00000     0.00000     0

 30 34  0  0  1  0  0  0  0  0999 V2000
   -7.1982    2.0452    0.0000 F   0  0  0  0  0  0  0  0  0
   -7.3697    1.2382    0.0000 C   0  0  0  0  0  0  0  0  0
   -6.7566    0.6862    0.0000 C   0  0  0  0  0  0  0  0  0
   -6.9282   -0.1208    0.0000 C   0  0  0  0  0  0  0  0  0
   -7.7128   -0.3757    0.0000 C   0  0  0  0  0  0  0  0  0
   -7.7128   -1.2007    0.0000 N   0  0  0  0  0  0  0  0  0
   -6.9282   -1.4557    0.0000 C   0  0  0  0  0  0  0  0  0
   -6.4432   -0.7882    0.0000 C   0  0  0  0  0  0  0  0  0
   -5.6182   -0.7882    0.0000 C   0  0  0  0  0  0  0  0  0
   -5.2057   -0.0738    0.0000 C   0  0  0  0  0  0  0  0  0
   -4.3807   -0.0738    0.0000 N   0  0  0  0  0  0  0  0  0
   -3.9682   -0.7882    0.0000 C   0  0  0  0  0  0  0  0  0
   -3.1432   -0.7882    0.0000 C   0  0  0  0  0  0  0  0  0
   -2.7307   -1.5027    0.0000 C   0  0  0  0  0  0  0  0  0
   -3.9682    0.6407    0.0000 C   0  0  0  0  0  0  0  0  0
   -3.1432    0.6407    0.0000 C   0  0  0  0  0  0  0  0  0
   -2.7307    1.3552    0.0000 C   0  0  0  0  0  0  0  0  0
   -1.9057    1.3552    0.0000 C   0  0  0  0  0  0  0  0  0
   -1.4932    2.0696    0.0000 C   0  0  0  0  0  0  0  0  0
   -0.6682    2.0696    0.0000 N   0  0  0  0  0  0  0  0  0
   -0.2557    1.3552    0.0000 C   0  0  0  0  0  0  0  0  0
   -0.6682    0.6407    0.0000 C   0  0  0  0  0  0  0  0  0
   -1.4932    0.6407    0.0000 C   0  0  0  0  0  0  0  0  0
   -1.9057    2.7841    0.0000 C   0  0  0  0  0  0  0  0  0
   -2.7307    2.7841    0.0000 C   0  0  0  0  0  0  0  0  0
   -3.1432    2.0696    0.0000 C   0  0  0  0  0  0  0  0  0
   -3.9682    2.0696    0.0000 O   0  0  0  0  0  0  0  0  0
   -4.3807    1.3552    0.0000 C   0  0  0  0  0  0  0  0  0
   -8.3259    0.1763    0.0000 C   0  0  0  0  0  0  0  0  0
   -8.1543    0.9833    0.0000 C   0  0  0  0  0  0  0  0  0
  1  2  1  0  0  0  0
  2  3  4  0  0  0  0
  2 30  4  0  0  0  0
  3  4  4  0  0  0  0
  4  5  4  0  0  0  0
  4  8  4  0  0  0  0
  5  6  4  0  0  0  0
  5 29  4  0  0  0  0
  6  7  4  0  0  0  0
  7  8  4  0  0  0  0
  8  9  1  0  0  0  0
  9 10  1  0  0  0  0
 10 11  1  0  0  0  0
 11 12  1  0  0  0  0
 11 15  1  0  0  0  0
 12 13  1  0  0  0  0
 13 14  1  0  0  0  0
 15 16  1  0  0  0  0
 15 28  1  0  0  0  0
 16 17  1  0  0  0  0
 17 18  4  0  0  0  0
 17 26  4  0  0  0  0
 18 19  4  0  0  0  0
 18 23  4  0  0  0  0
 19 20  4  0  0  0  0
 19 24  4  0  0  0  0
 20 21  4  0  0  0  0
 21 22  4  0  0  0  0
 22 23  4  0  0  0  0
 24 25  4  0  0  0  0
 25 26  4  0  0  0  0
 26 27  1  0  0  0  0
 27 28  1  0  0  0  0
 29 30  4  0  0  0  0
M  STY  1   1 DAT
M  SAL   1  1   6
M  SDT   1 MRV_IMPLICIT_H                                        
M  SDD   1     0.0000    0.0000    DR    ALL  0       0  
M  SED   1 IMPL_H1
M  END
>  <Name_Molregno>
395974

>  <5-HT1A>
6.32

$$$$
395986
  Marvin  02231216192D 0   1.00000     0.00000     0

 28 32  0  0  1  0  0  0  0  0999 V2000
   -1.0850   -3.0518    0.0000 F   0  0  0  0  0  0  0  0  0
   -0.9135   -2.2448    0.0000 C   0  0  0  0  0  0  0  0  0
   -1.5266   -1.6928    0.0000 C   0  0  0  0  0  0  0  0  0
   -1.3550   -0.8858    0.0000 C   0  0  0  0  0  0  0  0  0
   -0.5704   -0.6309    0.0000 C   0  0  0  0  0  0  0  0  0
   -0.5704    0.1941    0.0000 N   0  0  0  0  0  0  0  0  0
   -1.3550    0.4490    0.0000 C   0  0  0  0  0  0  0  0  0
   -1.8400   -0.2184    0.0000 C   0  0  0  0  0  0  0  0  0
   -2.6650   -0.2184    0.0000 C   0  0  0  0  0  0  0  0  0
   -3.0775   -0.9329    0.0000 C   0  0  0  0  0  0  0  0  0
   -3.9025   -0.9329    0.0000 C   0  0  0  0  0  0  0  0  0
   -4.3150   -1.6473    0.0000 N   0  0  0  0  0  0  0  0  0
   -5.1400   -1.6473    0.0000 C   0  0  0  0  0  0  0  0  0
   -5.5525   -2.3618    0.0000 C   0  0  0  0  0  0  0  0  0
   -6.3775   -2.3618    0.0000 C   0  0  0  0  0  0  0  0  0
   -6.7900   -1.6473    0.0000 C   0  0  0  0  0  0  0  0  0
   -6.3775   -0.9329    0.0000 O   0  0  0  0  0  0  0  0  0
   -5.5525   -0.9329    0.0000 C   0  0  0  0  0  0  0  0  0
   -7.6150   -1.6473    0.0000 C   0  0  0  0  0  0  0  0  0
   -8.0275   -2.3618    0.0000 C   0  0  0  0  0  0  0  0  0
   -8.8525   -2.3618    0.0000 N   0  0  0  0  0  0  0  0  0
   -9.2650   -1.6473    0.0000 C   0  0  0  0  0  0  0  0  0
   -8.8525   -0.9329    0.0000 C   0  0  0  0  0  0  0  0  0
   -8.0275   -0.9329    0.0000 C   0  0  0  0  0  0  0  0  0
   -7.6150   -3.0763    0.0000 C   0  0  0  0  0  0  0  0  0
   -6.7900   -3.0763    0.0000 C   0  0  0  0  0  0  0  0  0
    0.0427   -1.1829    0.0000 C   0  0  0  0  0  0  0  0  0
   -0.1289   -1.9899    0.0000 C   0  0  0  0  0  0  0  0  0
  1  2  1  0  0  0  0
  2  3  4  0  0  0  0
  2 28  4  0  0  0  0
  3  4  4  0  0  0  0
  4  5  4  0  0  0  0
  4  8  4  0  0  0  0
  5  6  4  0  0  0  0
  5 27  4  0  0  0  0
  6  7  4  0  0  0  0
  7  8  4  0  0  0  0
  8  9  1  0  0  0  0
  9 10  1  0  0  0  0
 10 11  1  0  0  0  0
 11 12  1  0  0  0  0
 12 13  1  0  0  0  0
 13 14  1  0  0  0  0
 13 18  1  0  0  0  0
 14 15  1  0  0  0  0
 15 16  4  0  0  0  0
 15 26  4  0  0  0  0
 16 17  1  0  0  0  0
 16 19  4  0  0  0  0
 17 18  1  0  0  0  0
 19 20  4  0  0  0  0
 19 24  4  0  0  0  0
 20 21  4  0  0  0  0
 20 25  4  0  0  0  0
 21 22  4  0  0  0  0
 22 23  4  0  0  0  0
 23 24  4  0  0  0  0
 25 26  4  0  0  0  0
 27 28  4  0  0  0  0
M  STY  1   1 DAT
M  SAL   1  1   6
M  SDT   1 MRV_IMPLICIT_H                                        
M  SDD   1     0.0000    0.0000    DR    ALL  0       0  
M  SED   1 IMPL_H1
M  END
>  <Name_Molregno>
395986

>  <5-HT1A>
6.85

$$$$
398438
  Marvin  02231216192D 0   1.00000     0.00000     0

 21 23  0  0  1  0  0  0  0  0999 V2000
   -0.0258   -0.0044    0.0000 O   0  0  0  0  0  0  0  0  0
    0.6886    0.4081    0.0000 C   0  0  0  0  0  0  0  0  0
    1.4031   -0.0044    0.0000 C   0  0  0  0  0  0  0  0  0
    1.4031   -0.8294    0.0000 O   0  0  0  0  0  0  0  0  0
    2.1176    0.4081    0.0000 C   0  0  0  0  0  0  0  0  0
    2.8321   -0.0044    0.0000 N   0  0  0  0  0  0  0  0  0
    3.5465    0.4081    0.0000 C   0  0  0  0  0  0  0  0  0
    3.5465    1.2331    0.0000 C   0  0  0  0  0  0  0  0  0
    4.2610    1.6456    0.0000 C   0  0  0  0  0  0  0  0  0
    4.9755    1.2331    0.0000 C   0  0  0  0  0  0  0  0  0
    4.9755    0.4081    0.0000 C   0  0  0  0  0  0  0  0  0
    4.2610   -0.0044    0.0000 C   0  0  0  0  0  0  0  0  0
   -0.7403    0.4081    0.0000 C   0  0  0  0  0  0  0  0  0
   -1.4548   -0.0044    0.0000 C   0  0  0  0  0  0  0  0  0
   -2.1692    0.4081    0.0000 C   0  0  0  0  0  0  0  0  0
   -2.7823   -0.1439    0.0000 N   0  0  0  0  0  0  0  0  0
   -2.4468   -0.8976    0.0000 C   0  0  0  0  0  0  0  0  0
   -1.6263   -0.8114    0.0000 C   0  0  0  0  0  0  0  0  0
   -2.1692    1.2331    0.0000 C   0  0  0  0  0  0  0  0  0
   -1.4548    1.6456    0.0000 C   0  0  0  0  0  0  0  0  0
   -0.7403    1.2331    0.0000 C   0  0  0  0  0  0  0  0  0
  1  2  1  0  0  0  0
  1 13  1  0  0  0  0
  2  3  1  0  0  0  0
  3  4  1  0  0  0  0
  3  5  1  0  0  0  0
  5  6  1  0  0  0  0
  6  7  1  0  0  0  0
  7  8  1  0  0  0  0
  7 12  1  0  0  0  0
  8  9  1  0  0  0  0
  9 10  1  0  0  0  0
 10 11  1  0  0  0  0
 11 12  1  0  0  0  0
 13 14  4  0  0  0  0
 13 21  4  0  0  0  0
 14 15  4  0  0  0  0
 14 18  4  0  0  0  0
 15 16  4  0  0  0  0
 15 19  4  0  0  0  0
 16 17  4  0  0  0  0
 17 18  4  0  0  0  0
 19 20  4  0  0  0  0
 20 21  4  0  0  0  0
M  STY  1   1 DAT
M  SAL   1  1  16
M  SDT   1 MRV_IMPLICIT_H                                        
M  SDD   1     0.0000    0.0000    DR    ALL  0       0  
M  SED   1 IMPL_H1
M  END
>  <Name_Molregno>
398438

>  <5-HT1A>
8.07

>  <Beta-1>
8.63

>  <Beta-2>
8.43

$$$$
398439
  Marvin  02231216192D 0   1.00000     0.00000     0

 25 29  0  0  1  0  0  0  0  0999 V2000
    1.0630   -0.9321    0.0000 O   0  0  0  0  0  0  0  0  0
    1.0630   -0.1071    0.0000 C   0  0  0  0  0  0  0  0  0
    1.7774    0.3054    0.0000 C   0  0  0  0  0  0  0  0  0
    2.4919   -0.1070    0.0000 O   0  0  0  0  0  0  0  0  0
    1.7774    1.1304    0.0000 C   0  0  0  0  0  0  0  0  0
    2.4918    1.5430    0.0000 N   0  0  0  0  0  0  0  0  0
    2.4918    2.3680    0.0000 C   0  0  0  0  0  0  0  0  0
    1.7564    1.9943    0.0000 C   0  0  0  0  0  0  0  0  0
    2.2058    2.7846    0.0000 C   0  0  0  0  0  0  0  0  0
    2.2058    3.5320    0.0000 C   0  0  0  0  0  0  0  0  0
    2.9413    3.9057    0.0000 C   0  0  0  0  0  0  0  0  0
    2.4918    3.1154    0.0000 C   0  0  0  0  0  0  0  0  0
    3.6769    3.5320    0.0000 C   0  0  0  0  0  0  0  0  0
    3.6769    2.7846    0.0000 C   0  0  0  0  0  0  0  0  0
    3.2274    1.9943    0.0000 C   0  0  0  0  0  0  0  0  0
    2.9413    2.4109    0.0000 C   0  0  0  0  0  0  0  0  0
    0.3486   -1.3447    0.0000 C   0  0  0  0  0  0  0  0  0
    0.3486   -2.1697    0.0000 C   0  0  0  0  0  0  0  0  0
   -0.3658   -2.5822    0.0000 C   0  0  0  0  0  0  0  0  0
   -0.1942   -3.3892    0.0000 N   0  0  0  0  0  0  0  0  0
    0.6262   -3.4754    0.0000 C   0  0  0  0  0  0  0  0  0
    0.9618   -2.7217    0.0000 C   0  0  0  0  0  0  0  0  0
   -1.0803   -2.1697    0.0000 C   0  0  0  0  0  0  0  0  0
   -1.0804   -1.3447    0.0000 C   0  0  0  0  0  0  0  0  0
   -0.3659   -0.9322    0.0000 C   0  0  0  0  0  0  0  0  0
  1  2  1  0  0  0  0
  1 17  1  0  0  0  0
  2  3  1  0  0  0  0
  3  4  1  0  0  0  0
  3  5  1  0  0  0  0
  5  6  1  0  0  0  0
  6  7  1  0  0  0  0
  7  8  1  0  0  0  0
 14 16  1  0  0  0  0
  7 15  1  0  0  0  0
  8  9  1  0  0  0  0
 14 15  1  0  0  0  0
  9 16  1  0  0  0  0
 10 11  1  0  0  0  0
 11 12  1  0  0  0  0
 11 13  1  0  0  0  0
 13 14  1  0  0  0  0
  9 10  1  0  0  0  0
  7 12  1  0  0  0  0
 17 18  4  0  0  0  0
 17 25  4  0  0  0  0
 18 19  4  0  0  0  0
 18 22  4  0  0  0  0
 19 20  4  0  0  0  0
 19 23  4  0  0  0  0
 20 21  4  0  0  0  0
 21 22  4  0  0  0  0
 23 24  4  0  0  0  0
 24 25  4  0  0  0  0
M  STY  1   1 DAT
M  SAL   1  1  20
M  SDT   1 MRV_IMPLICIT_H                                        
M  SDD   1     0.0000    0.0000    DR    ALL  0       0  
M  SED   1 IMPL_H1
M  END
>  <Name_Molregno>
398439

>  <5-HT1A>
8.02

>  <Beta-1>
8.1

>  <Beta-2>
8.18

$$$$
398440
  Marvin  02231216192D 0   1.00000     0.00000     0

 20 22  0  0  1  0  0  0  0  0999 V2000
   -0.0192   -0.0072    0.0000 O   0  0  0  0  0  0  0  0  0
    0.6952    0.4053    0.0000 C   0  0  0  0  0  0  0  0  0
    1.4097   -0.0072    0.0000 C   0  0  0  0  0  0  0  0  0
    1.4097   -0.8322    0.0000 O   0  0  0  0  0  0  0  0  0
    2.1242    0.4053    0.0000 C   0  0  0  0  0  0  0  0  0
    2.8386   -0.0072    0.0000 N   0  0  0  0  0  0  0  0  0
    3.5531    0.4053    0.0000 C   0  0  0  0  0  0  0  0  0
    3.6393    1.2258    0.0000 C   0  0  0  0  0  0  0  0  0
    4.4463    1.3973    0.0000 C   0  0  0  0  0  0  0  0  0
    4.8588    0.6829    0.0000 C   0  0  0  0  0  0  0  0  0
    4.3068    0.0698    0.0000 C   0  0  0  0  0  0  0  0  0
   -0.7337    0.4053    0.0000 C   0  0  0  0  0  0  0  0  0
   -1.4482   -0.0072    0.0000 C   0  0  0  0  0  0  0  0  0
   -2.1627    0.4053    0.0000 C   0  0  0  0  0  0  0  0  0
   -2.7757   -0.1467    0.0000 N   0  0  0  0  0  0  0  0  0
   -2.4402   -0.9004    0.0000 C   0  0  0  0  0  0  0  0  0
   -1.6197   -0.8141    0.0000 C   0  0  0  0  0  0  0  0  0
   -2.1627    1.2303    0.0000 C   0  0  0  0  0  0  0  0  0
   -1.4482    1.6428    0.0000 C   0  0  0  0  0  0  0  0  0
   -0.7337    1.2303    0.0000 C   0  0  0  0  0  0  0  0  0
  1  2  1  0  0  0  0
  1 12  1  0  0  0  0
  2  3  1  0  0  0  0
  3  4  1  0  0  0  0
  3  5  1  0  0  0  0
  5  6  1  0  0  0  0
  6  7  1  0  0  0  0
  7  8  1  0  0  0  0
  7 11  1  0  0  0  0
  8  9  1  0  0  0  0
  9 10  1  0  0  0  0
 10 11  1  0  0  0  0
 12 13  4  0  0  0  0
 12 20  4  0  0  0  0
 13 14  4  0  0  0  0
 13 17  4  0  0  0  0
 14 15  4  0  0  0  0
 14 18  4  0  0  0  0
 15 16  4  0  0  0  0
 16 17  4  0  0  0  0
 18 19  4  0  0  0  0
 19 20  4  0  0  0  0
M  STY  1   1 DAT
M  SAL   1  1  15
M  SDT   1 MRV_IMPLICIT_H                                        
M  SDD   1     0.0000    0.0000    DR    ALL  0       0  
M  SED   1 IMPL_H1
M  END
>  <Name_Molregno>
398440

>  <5-HT1A>
7.71

$$$$
398441
  Marvin  02231216192D 0   1.00000     0.00000     0

 22 24  0  0  1  0  0  0  0  0999 V2000
   -0.0256   -0.8298    0.0000 O   0  0  0  0  0  0  0  0  0
    0.6888   -0.4173    0.0000 C   0  0  0  0  0  0  0  0  0
    1.4033   -0.8298    0.0000 C   0  0  0  0  0  0  0  0  0
    1.4033   -1.6548    0.0000 O   0  0  0  0  0  0  0  0  0
    2.1178   -0.4173    0.0000 C   0  0  0  0  0  0  0  0  0
    2.8322   -0.8298    0.0000 N   0  0  0  0  0  0  0  0  0
    3.5467   -0.4173    0.0000 C   0  0  0  0  0  0  0  0  0
    3.4851    0.4054    0.0000 C   0  0  0  0  0  0  0  0  0
    4.0898    0.9666    0.0000 C   0  0  0  0  0  0  0  0  0
    4.9056    0.8436    0.0000 C   0  0  0  0  0  0  0  0  0
    5.3181    0.1292    0.0000 C   0  0  0  0  0  0  0  0  0
    5.0167   -0.6388    0.0000 C   0  0  0  0  0  0  0  0  0
    4.2284   -0.8820    0.0000 C   0  0  0  0  0  0  0  0  0
   -0.7401   -0.4173    0.0000 C   0  0  0  0  0  0  0  0  0
   -1.4546   -0.8298    0.0000 C   0  0  0  0  0  0  0  0  0
   -2.1691   -0.4173    0.0000 C   0  0  0  0  0  0  0  0  0
   -2.7821   -0.9693    0.0000 N   0  0  0  0  0  0  0  0  0
   -2.4466   -1.7230    0.0000 C   0  0  0  0  0  0  0  0  0
   -1.6261   -1.6367    0.0000 C   0  0  0  0  0  0  0  0  0
   -2.1691    0.4077    0.0000 C   0  0  0  0  0  0  0  0  0
   -1.4546    0.8202    0.0000 C   0  0  0  0  0  0  0  0  0
   -0.7401    0.4077    0.0000 C   0  0  0  0  0  0  0  0  0
  1  2  1  0  0  0  0
  1 14  1  0  0  0  0
  2  3  1  0  0  0  0
  3  4  1  0  0  0  0
  3  5  1  0  0  0  0
  5  6  1  0  0  0  0
  6  7  1  0  0  0  0
  7  8  1  0  0  0  0
  7 13  1  0  0  0  0
  8  9  1  0  0  0  0
  9 10  1  0  0  0  0
 10 11  1  0  0  0  0
 11 12  1  0  0  0  0
 12 13  1  0  0  0  0
 14 15  4  0  0  0  0
 14 22  4  0  0  0  0
 15 16  4  0  0  0  0
 15 19  4  0  0  0  0
 16 17  4  0  0  0  0
 16 20  4  0  0  0  0
 17 18  4  0  0  0  0
 18 19  4  0  0  0  0
 20 21  4  0  0  0  0
 21 22  4  0  0  0  0
M  STY  1   1 DAT
M  SAL   1  1  17
M  SDT   1 MRV_IMPLICIT_H                                        
M  SDD   1     0.0000    0.0000    DR    ALL  0       0  
M  SED   1 IMPL_H1
M  END
>  <Name_Molregno>
398441

>  <5-HT1A>
8.06

$$$$
398442
  Marvin  02231216192D 0   1.00000     0.00000     0

 20 21  0  0  1  0  0  0  0  0999 V2000
   -0.1247    0.1742    0.0000 O   0  0  0  0  0  0  0  0  0
    0.6855    0.3301    0.0000 C   0  0  0  0  0  0  0  0  0
    1.2256   -0.2936    0.0000 C   0  0  0  0  0  0  0  0  0
    0.9555   -1.0731    0.0000 O   0  0  0  0  0  0  0  0  0
    2.0357   -0.1377    0.0000 C   0  0  0  0  0  0  0  0  0
    2.5758   -0.7613    0.0000 N   0  0  0  0  0  0  0  0  0
    3.3859   -0.6054    0.0000 C   0  0  0  0  0  0  0  0  0
    3.9260   -1.2290    0.0000 C   0  0  0  0  0  0  0  0  0
    4.7362   -1.0731    0.0000 C   0  0  0  0  0  0  0  0  0
    3.6560    0.1742    0.0000 C   0  0  0  0  0  0  0  0  0
    4.4661    0.3301    0.0000 C   0  0  0  0  0  0  0  0  0
   -0.6647    0.7978    0.0000 C   0  0  0  0  0  0  0  0  0
   -1.4749    0.6419    0.0000 C   0  0  0  0  0  0  0  0  0
   -2.0150    1.2655    0.0000 C   0  0  0  0  0  0  0  0  0
   -2.7750    0.9446    0.0000 N   0  0  0  0  0  0  0  0  0
   -2.7046    0.1226    0.0000 C   0  0  0  0  0  0  0  0  0
   -1.9011   -0.0645    0.0000 C   0  0  0  0  0  0  0  0  0
   -1.7449    2.0451    0.0000 C   0  0  0  0  0  0  0  0  0
   -0.9348    2.2010    0.0000 C   0  0  0  0  0  0  0  0  0
   -0.3947    1.5774    0.0000 C   0  0  0  0  0  0  0  0  0
  1  2  1  0  0  0  0
  1 12  1  0  0  0  0
  2  3  1  0  0  0  0
  3  4  1  0  0  0  0
  3  5  1  0  0  0  0
  5  6  1  0  0  0  0
  6  7  1  0  0  0  0
  7  8  1  0  0  0  0
  7 10  1  0  0  0  0
  8  9  1  0  0  0  0
 10 11  1  0  0  0  0
 12 13  4  0  0  0  0
 12 20  4  0  0  0  0
 13 14  4  0  0  0  0
 13 17  4  0  0  0  0
 14 15  4  0  0  0  0
 14 18  4  0  0  0  0
 15 16  4  0  0  0  0
 16 17  4  0  0  0  0
 18 19  4  0  0  0  0
 19 20  4  0  0  0  0
M  STY  1   1 DAT
M  SAL   1  1  15
M  SDT   1 MRV_IMPLICIT_H                                        
M  SDD   1     0.0000    0.0000    DR    ALL  0       0  
M  SED   1 IMPL_H1
M  END
>  <Name_Molregno>
398442

>  <5-HT1A>
7.42

$$$$
398443
  Marvin  02231216192D 0   1.00000     0.00000     0

 20 22  0  0  0  0  0  0  0  0999 V2000
   -0.0237   -0.0097    0.0000 O   0  0  0  0  0  0  0  0  0
    0.6907    0.4028    0.0000 C   0  0  0  0  0  0  0  0  0
    1.4052   -0.0097    0.0000 C   0  0  0  0  0  0  0  0  0
    2.1197    0.4028    0.0000 C   0  0  0  0  0  0  0  0  0
    2.8342   -0.0097    0.0000 N   0  0  0  0  0  0  0  0  0
    3.5486    0.4028    0.0000 C   0  0  0  0  0  0  0  0  0
    3.5486    1.2278    0.0000 C   0  0  0  0  0  0  0  0  0
    4.2631    1.6403    0.0000 C   0  0  0  0  0  0  0  0  0
    4.9776    1.2278    0.0000 C   0  0  0  0  0  0  0  0  0
    4.9776    0.4028    0.0000 C   0  0  0  0  0  0  0  0  0
    4.2631   -0.0097    0.0000 C   0  0  0  0  0  0  0  0  0
   -0.7382    0.4028    0.0000 C   0  0  0  0  0  0  0  0  0
   -1.4527   -0.0097    0.0000 C   0  0  0  0  0  0  0  0  0
   -2.1671    0.4028    0.0000 C   0  0  0  0  0  0  0  0  0
   -2.7802   -0.1493    0.0000 N   0  0  0  0  0  0  0  0  0
   -2.4447   -0.9029    0.0000 C   0  0  0  0  0  0  0  0  0
   -1.6242   -0.8167    0.0000 C   0  0  0  0  0  0  0  0  0
   -2.1671    1.2278    0.0000 C   0  0  0  0  0  0  0  0  0
   -1.4527    1.6403    0.0000 C   0  0  0  0  0  0  0  0  0
   -0.7382    1.2278    0.0000 C   0  0  0  0  0  0  0  0  0
  1  2  1  0  0  0  0
  1 12  1  0  0  0  0
  2  3  1  0  0  0  0
  3  4  1  0  0  0  0
  4  5  1  0  0  0  0
  5  6  1  0  0  0  0
  6  7  1  0  0  0  0
  6 11  1  0  0  0  0
  7  8  1  0  0  0  0
  8  9  1  0  0  0  0
  9 10  1  0  0  0  0
 10 11  1  0  0  0  0
 12 13  4  0  0  0  0
 12 20  4  0  0  0  0
 13 14  4  0  0  0  0
 13 17  4  0  0  0  0
 14 15  4  0  0  0  0
 14 18  4  0  0  0  0
 15 16  4  0  0  0  0
 16 17  4  0  0  0  0
 18 19  4  0  0  0  0
 19 20  4  0  0  0  0
M  STY  1   1 DAT
M  SAL   1  1  15
M  SDT   1 MRV_IMPLICIT_H                                        
M  SDD   1     0.0000    0.0000    DR    ALL  0       0  
M  SED   1 IMPL_H1
M  END
>  <Name_Molregno>
398443

>  <5-HT1A>
7.11

$$$$
398444
  Marvin  02231216192D 0   1.00000     0.00000     0

 19 21  0  0  0  0  0  0  0  0999 V2000
   -0.0157   -0.0134    0.0000 O   0  0  0  0  0  0  0  0  0
    0.6988    0.3991    0.0000 C   0  0  0  0  0  0  0  0  0
    1.4133   -0.0134    0.0000 C   0  0  0  0  0  0  0  0  0
    2.1277    0.3991    0.0000 C   0  0  0  0  0  0  0  0  0
    2.8422   -0.0134    0.0000 N   0  0  0  0  0  0  0  0  0
    3.5567    0.3991    0.0000 C   0  0  0  0  0  0  0  0  0
    3.6429    1.2196    0.0000 C   0  0  0  0  0  0  0  0  0
    4.4499    1.3911    0.0000 C   0  0  0  0  0  0  0  0  0
    4.8624    0.6767    0.0000 C   0  0  0  0  0  0  0  0  0
    4.3104    0.0636    0.0000 C   0  0  0  0  0  0  0  0  0
   -0.7301    0.3991    0.0000 C   0  0  0  0  0  0  0  0  0
   -1.4446   -0.0134    0.0000 C   0  0  0  0  0  0  0  0  0
   -2.1591    0.3991    0.0000 C   0  0  0  0  0  0  0  0  0
   -2.7722   -0.1529    0.0000 N   0  0  0  0  0  0  0  0  0
   -2.4366   -0.9066    0.0000 C   0  0  0  0  0  0  0  0  0
   -1.6161   -0.8203    0.0000 C   0  0  0  0  0  0  0  0  0
   -2.1591    1.2241    0.0000 C   0  0  0  0  0  0  0  0  0
   -1.4446    1.6366    0.0000 C   0  0  0  0  0  0  0  0  0
   -0.7301    1.2241    0.0000 C   0  0  0  0  0  0  0  0  0
  1  2  1  0  0  0  0
  1 11  1  0  0  0  0
  2  3  1  0  0  0  0
  3  4  1  0  0  0  0
  4  5  1  0  0  0  0
  5  6  1  0  0  0  0
  6  7  1  0  0  0  0
  6 10  1  0  0  0  0
  7  8  1  0  0  0  0
  8  9  1  0  0  0  0
  9 10  1  0  0  0  0
 11 12  4  0  0  0  0
 11 19  4  0  0  0  0
 12 13  4  0  0  0  0
 12 16  4  0  0  0  0
 13 14  4  0  0  0  0
 13 17  4  0  0  0  0
 14 15  4  0  0  0  0
 15 16  4  0  0  0  0
 17 18  4  0  0  0  0
 18 19  4  0  0  0  0
M  STY  1   1 DAT
M  SAL   1  1  14
M  SDT   1 MRV_IMPLICIT_H                                        
M  SDD   1     0.0000    0.0000    DR    ALL  0       0  
M  SED   1 IMPL_H1
M  END
>  <Name_Molregno>
398444

>  <5-HT1A>
6.83

$$$$
398445
  Marvin  02231216192D 0   1.00000     0.00000     0

 22 24  0  0  1  0  0  0  0  0999 V2000
   -0.0257   -0.0056    0.0000 O   0  0  0  0  0  0  0  0  0
    0.6887    0.4069    0.0000 C   0  0  0  0  0  0  0  0  0
    1.4032   -0.0056    0.0000 C   0  0  0  0  0  0  0  0  0
    1.4032   -0.8306    0.0000 O   0  0  0  0  0  0  0  0  0
    2.1177   -1.2431    0.0000 C   0  0  0  0  0  0  0  0  0
    2.1177    0.4069    0.0000 C   0  0  0  0  0  0  0  0  0
    2.8322   -0.0056    0.0000 N   0  0  0  0  0  0  0  0  0
    3.5466    0.4069    0.0000 C   0  0  0  0  0  0  0  0  0
    3.5466    1.2319    0.0000 C   0  0  0  0  0  0  0  0  0
    4.2611    1.6444    0.0000 C   0  0  0  0  0  0  0  0  0
    4.9756    1.2319    0.0000 C   0  0  0  0  0  0  0  0  0
    4.9756    0.4069    0.0000 C   0  0  0  0  0  0  0  0  0
    4.2611   -0.0056    0.0000 C   0  0  0  0  0  0  0  0  0
   -0.7402    0.4069    0.0000 C   0  0  0  0  0  0  0  0  0
   -1.4547   -0.0056    0.0000 C   0  0  0  0  0  0  0  0  0
   -2.1691    0.4069    0.0000 C   0  0  0  0  0  0  0  0  0
   -2.7822   -0.1451    0.0000 N   0  0  0  0  0  0  0  0  0
   -2.4467   -0.8988    0.0000 C   0  0  0  0  0  0  0  0  0
   -1.6262   -0.8125    0.0000 C   0  0  0  0  0  0  0  0  0
   -2.1691    1.2319    0.0000 C   0  0  0  0  0  0  0  0  0
   -1.4547    1.6444    0.0000 C   0  0  0  0  0  0  0  0  0
   -0.7402    1.2319    0.0000 C   0  0  0  0  0  0  0  0  0
  1  2  1  0  0  0  0
  1 14  1  0  0  0  0
  2  3  1  0  0  0  0
  3  4  1  0  0  0  0
  3  6  1  0  0  0  0
  4  5  1  0  0  0  0
  6  7  1  0  0  0  0
  7  8  1  0  0  0  0
  8  9  1  0  0  0  0
  8 13  1  0  0  0  0
  9 10  1  0  0  0  0
 10 11  1  0  0  0  0
 11 12  1  0  0  0  0
 12 13  1  0  0  0  0
 14 15  4  0  0  0  0
 14 22  4  0  0  0  0
 15 16  4  0  0  0  0
 15 19  4  0  0  0  0
 16 17  4  0  0  0  0
 16 20  4  0  0  0  0
 17 18  4  0  0  0  0
 18 19  4  0  0  0  0
 20 21  4  0  0  0  0
 21 22  4  0  0  0  0
M  STY  1   1 DAT
M  SAL   1  1  17
M  SDT   1 MRV_IMPLICIT_H                                        
M  SDD   1     0.0000    0.0000    DR    ALL  0       0  
M  SED   1 IMPL_H1
M  END
>  <Name_Molregno>
398445

>  <5-HT1A>
7.39

$$$$
398446
  Marvin  02231216192D 0   1.00000     0.00000     0

 26 30  0  0  1  0  0  0  0  0999 V2000
    0.9895   -1.7908    0.0000 O   0  0  0  0  0  0  0  0  0
    0.9894   -0.9658    0.0000 C   0  0  0  0  0  0  0  0  0
    1.7039   -0.5532    0.0000 C   0  0  0  0  0  0  0  0  0
    2.4184   -0.9657    0.0000 O   0  0  0  0  0  0  0  0  0
    3.1328   -0.5531    0.0000 C   0  0  0  0  0  0  0  0  0
    1.7038    0.2718    0.0000 C   0  0  0  0  0  0  0  0  0
    2.4183    0.6843    0.0000 N   0  0  0  0  0  0  0  0  0
    2.4182    1.5093    0.0000 C   0  0  0  0  0  0  0  0  0
    1.6828    1.1356    0.0000 C   0  0  0  0  0  0  0  0  0
    2.1322    1.9259    0.0000 C   0  0  0  0  0  0  0  0  0
    2.1322    2.6733    0.0000 C   0  0  0  0  0  0  0  0  0
    2.8677    3.0470    0.0000 C   0  0  0  0  0  0  0  0  0
    2.4182    2.2567    0.0000 C   0  0  0  0  0  0  0  0  0
    3.6033    2.6733    0.0000 C   0  0  0  0  0  0  0  0  0
    3.6033    1.9259    0.0000 C   0  0  0  0  0  0  0  0  0
    3.1538    1.1356    0.0000 C   0  0  0  0  0  0  0  0  0
    2.8677    1.5522    0.0000 C   0  0  0  0  0  0  0  0  0
    0.2750   -2.2033    0.0000 C   0  0  0  0  0  0  0  0  0
    0.2751   -3.0283    0.0000 C   0  0  0  0  0  0  0  0  0
   -0.4394   -3.4408    0.0000 C   0  0  0  0  0  0  0  0  0
   -0.2678   -4.2478    0.0000 N   0  0  0  0  0  0  0  0  0
    0.5527   -4.3340    0.0000 C   0  0  0  0  0  0  0  0  0
    0.8882   -3.5803    0.0000 C   0  0  0  0  0  0  0  0  0
   -1.1539   -3.0284    0.0000 C   0  0  0  0  0  0  0  0  0
   -1.1539   -2.2034    0.0000 C   0  0  0  0  0  0  0  0  0
   -0.4395   -1.7908    0.0000 C   0  0  0  0  0  0  0  0  0
  1  2  1  0  0  0  0
  1 18  1  0  0  0  0
  2  3  1  0  0  0  0
  3  4  1  0  0  0  0
  3  6  1  0  0  0  0
  4  5  1  0  0  0  0
  6  7  1  0  0  0  0
  7  8  1  0  0  0  0
  8  9  1  0  0  0  0
 15 17  1  0  0  0  0
  8 16  1  0  0  0  0
  9 10  1  0  0  0  0
 15 16  1  0  0  0  0
 10 17  1  0  0  0  0
 11 12  1  0  0  0  0
 12 13  1  0  0  0  0
 12 14  1  0  0  0  0
 14 15  1  0  0  0  0
 10 11  1  0  0  0  0
  8 13  1  0  0  0  0
 18 19  4  0  0  0  0
 18 26  4  0  0  0  0
 19 20  4  0  0  0  0
 19 23  4  0  0  0  0
 20 21  4  0  0  0  0
 20 24  4  0  0  0  0
 21 22  4  0  0  0  0
 22 23  4  0  0  0  0
 24 25  4  0  0  0  0
 25 26  4  0  0  0  0
M  STY  1   1 DAT
M  SAL   1  1  21
M  SDT   1 MRV_IMPLICIT_H                                        
M  SDD   1     0.0000    0.0000    DR    ALL  0       0  
M  SED   1 IMPL_H1
M  END
>  <Name_Molregno>
398446

>  <5-HT1A>
7.49

$$$$
398449
  Marvin  02231216192D 0   1.00000     0.00000     0

 25 29  0  0  1  0  0  0  0  0999 V2000
    0.1418   -1.4187    0.0000 O   0  0  0  0  0  0  0  0  0
    0.7387   -0.8491    0.0000 C   0  0  0  0  0  0  0  0  0
    1.5304   -1.0813    0.0000 C   0  0  0  0  0  0  0  0  0
    1.7252   -1.8830    0.0000 O   0  0  0  0  0  0  0  0  0
    2.1273   -0.5118    0.0000 C   0  0  0  0  0  0  0  0  0
    2.9189   -0.7439    0.0000 N   0  0  0  0  0  0  0  0  0
    3.5158   -0.1744    0.0000 C   0  0  0  0  0  0  0  0  0
    4.2512    0.1993    0.0000 C   0  0  0  0  0  0  0  0  0
    4.2512    0.9467    0.0000 C   0  0  0  0  0  0  0  0  0
    4.7007    1.7370    0.0000 C   0  0  0  0  0  0  0  0  0
    3.9652    1.3633    0.0000 C   0  0  0  0  0  0  0  0  0
    3.9652    0.6159    0.0000 C   0  0  0  0  0  0  0  0  0
    4.7007    0.2422    0.0000 C   0  0  0  0  0  0  0  0  0
    5.4363    0.6159    0.0000 C   0  0  0  0  0  0  0  0  0
    4.9868   -0.1744    0.0000 C   0  0  0  0  0  0  0  0  0
    5.4363    1.3633    0.0000 C   0  0  0  0  0  0  0  0  0
   -0.6498   -1.1865    0.0000 C   0  0  0  0  0  0  0  0  0
   -1.2467   -1.7560    0.0000 C   0  0  0  0  0  0  0  0  0
   -2.0384   -1.5239    0.0000 C   0  0  0  0  0  0  0  0  0
   -2.5038   -2.2051    0.0000 N   0  0  0  0  0  0  0  0  0
   -1.9998   -2.8582    0.0000 C   0  0  0  0  0  0  0  0  0
   -1.2229   -2.5807    0.0000 C   0  0  0  0  0  0  0  0  0
   -2.2332   -0.7222    0.0000 C   0  0  0  0  0  0  0  0  0
   -1.6363   -0.1527    0.0000 C   0  0  0  0  0  0  0  0  0
   -0.8446   -0.3848    0.0000 C   0  0  0  0  0  0  0  0  0
  1  2  1  0  0  0  0
  1 17  1  0  0  0  0
  2  3  1  0  0  0  0
  3  4  1  0  0  0  0
  3  5  1  0  0  0  0
  5  6  1  0  0  0  0
  6  7  1  0  0  0  0
  7  8  1  0  0  0  0
  7 12  1  0  0  0  0
 14 15  1  0  0  0  0
  8 15  1  0  0  0  0
  9 10  1  0  0  0  0
 10 11  1  0  0  0  0
 10 16  1  0  0  0  0
 13 14  1  0  0  0  0
 12 13  1  0  0  0  0
 11 12  1  0  0  0  0
  8  9  1  0  0  0  0
 14 16  1  0  0  0  0
 17 18  4  0  0  0  0
 17 25  4  0  0  0  0
 18 19  4  0  0  0  0
 18 22  4  0  0  0  0
 19 20  4  0  0  0  0
 19 23  4  0  0  0  0
 20 21  4  0  0  0  0
 21 22  4  0  0  0  0
 23 24  4  0  0  0  0
 24 25  4  0  0  0  0
M  STY  1   1 DAT
M  SAL   1  1  20
M  SDT   1 MRV_IMPLICIT_H                                        
M  SDD   1     0.0000    0.0000    DR    ALL  0       0  
M  SED   1 IMPL_H1
M  END
>  <Name_Molregno>
398449

>  <5-HT1A>
7.78

$$$$
398452
  Marvin  02231216192D 0   1.00000     0.00000     0

 22 24  0  0  1  0  0  0  0  0999 V2000
   -0.0244   -0.0018    0.0000 O   0  0  0  0  0  0  0  0  0
    0.6900    0.4107    0.0000 C   0  0  0  0  0  0  0  0  0
    1.4045   -0.0018    0.0000 C   0  0  0  0  0  0  0  0  0
    0.9920   -0.7163    0.0000 O   0  0  0  0  0  0  0  0  0
    2.1190   -0.4143    0.0000 C   0  0  0  0  0  0  0  0  0
    2.8334   -0.0018    0.0000 N   0  0  0  0  0  0  0  0  0
    3.5479   -0.4143    0.0000 C   0  0  0  0  0  0  0  0  0
    4.2624   -0.0018    0.0000 C   0  0  0  0  0  0  0  0  0
    4.9769   -0.4143    0.0000 C   0  0  0  0  0  0  0  0  0
    4.9769   -1.2393    0.0000 C   0  0  0  0  0  0  0  0  0
    4.2624   -1.6518    0.0000 C   0  0  0  0  0  0  0  0  0
    3.5479   -1.2393    0.0000 C   0  0  0  0  0  0  0  0  0
    1.8170    0.7127    0.0000 C   0  0  0  0  0  0  0  0  0
   -0.7389    0.4107    0.0000 C   0  0  0  0  0  0  0  0  0
   -1.4534   -0.0018    0.0000 C   0  0  0  0  0  0  0  0  0
   -2.1679    0.4107    0.0000 C   0  0  0  0  0  0  0  0  0
   -2.7809   -0.1413    0.0000 N   0  0  0  0  0  0  0  0  0
   -2.4454   -0.8950    0.0000 C   0  0  0  0  0  0  0  0  0
   -1.6249   -0.8088    0.0000 C   0  0  0  0  0  0  0  0  0
   -2.1679    1.2357    0.0000 C   0  0  0  0  0  0  0  0  0
   -1.4534    1.6482    0.0000 C   0  0  0  0  0  0  0  0  0
   -0.7389    1.2357    0.0000 C   0  0  0  0  0  0  0  0  0
  1  2  1  0  0  0  0
  1 14  1  0  0  0  0
  2  3  1  0  0  0  0
  3  4  1  0  0  0  0
  3  5  1  0  0  0  0
  3 13  1  0  0  0  0
  5  6  1  0  0  0  0
  6  7  1  0  0  0  0
  7  8  1  0  0  0  0
  7 12  1  0  0  0  0
  8  9  1  0  0  0  0
  9 10  1  0  0  0  0
 10 11  1  0  0  0  0
 11 12  1  0  0  0  0
 14 15  4  0  0  0  0
 14 22  4  0  0  0  0
 15 16  4  0  0  0  0
 15 19  4  0  0  0  0
 16 17  4  0  0  0  0
 16 20  4  0  0  0  0
 17 18  4  0  0  0  0
 18 19  4  0  0  0  0
 20 21  4  0  0  0  0
 21 22  4  0  0  0  0
M  STY  1   1 DAT
M  SAL   1  1  17
M  SDT   1 MRV_IMPLICIT_H                                        
M  SDD   1     0.0000    0.0000    DR    ALL  0       0  
M  SED   1 IMPL_H1
M  END
>  <Name_Molregno>
398452

>  <5-HT1A>
5.84

$$$$
398453
  Marvin  02231216192D 0   1.00000     0.00000     0

 26 30  0  0  1  0  0  0  0  0999 V2000
    1.9409   -1.0542    0.0000 O   0  0  0  0  0  0  0  0  0
    1.2264   -0.6417    0.0000 C   0  0  0  0  0  0  0  0  0
    1.2263    0.1833    0.0000 C   0  0  0  0  0  0  0  0  0
    2.0513    0.1833    0.0000 O   0  0  0  0  0  0  0  0  0
    1.2263    1.0083    0.0000 C   0  0  0  0  0  0  0  0  0
    0.5118    1.4207    0.0000 N   0  0  0  0  0  0  0  0  0
    0.5117    2.2457    0.0000 C   0  0  0  0  0  0  0  0  0
   -0.2237    1.8720    0.0000 C   0  0  0  0  0  0  0  0  0
    0.2257    2.6623    0.0000 C   0  0  0  0  0  0  0  0  0
    0.2257    3.4097    0.0000 C   0  0  0  0  0  0  0  0  0
    0.9612    3.7834    0.0000 C   0  0  0  0  0  0  0  0  0
    0.5117    2.9931    0.0000 C   0  0  0  0  0  0  0  0  0
    1.6968    3.4097    0.0000 C   0  0  0  0  0  0  0  0  0
    1.6968    2.6623    0.0000 C   0  0  0  0  0  0  0  0  0
    1.2473    1.8720    0.0000 C   0  0  0  0  0  0  0  0  0
    0.9612    2.2886    0.0000 C   0  0  0  0  0  0  0  0  0
    0.4013    0.1832    0.0000 C   0  0  0  0  0  0  0  0  0
    1.9409   -1.8792    0.0000 C   0  0  0  0  0  0  0  0  0
    2.6554   -2.2917    0.0000 C   0  0  0  0  0  0  0  0  0
    2.6555   -3.1167    0.0000 C   0  0  0  0  0  0  0  0  0
    3.4401   -3.3716    0.0000 N   0  0  0  0  0  0  0  0  0
    3.9250   -2.7041    0.0000 C   0  0  0  0  0  0  0  0  0
    3.4400   -2.0367    0.0000 C   0  0  0  0  0  0  0  0  0
    1.9410   -3.5292    0.0000 C   0  0  0  0  0  0  0  0  0
    1.2265   -3.1167    0.0000 C   0  0  0  0  0  0  0  0  0
    1.2265   -2.2917    0.0000 C   0  0  0  0  0  0  0  0  0
  1  2  1  0  0  0  0
  1 18  1  0  0  0  0
  2  3  1  0  0  0  0
  3  4  1  0  0  0  0
  3  5  1  0  0  0  0
  3 17  1  0  0  0  0
  5  6  1  0  0  0  0
  6  7  1  0  0  0  0
  7  8  1  0  0  0  0
 14 16  1  0  0  0  0
  7 15  1  0  0  0  0
  8  9  1  0  0  0  0
 14 15  1  0  0  0  0
  9 16  1  0  0  0  0
 10 11  1  0  0  0  0
 11 12  1  0  0  0  0
 11 13  1  0  0  0  0
 13 14  1  0  0  0  0
  9 10  1  0  0  0  0
  7 12  1  0  0  0  0
 18 19  4  0  0  0  0
 18 26  4  0  0  0  0
 19 20  4  0  0  0  0
 19 23  4  0  0  0  0
 20 21  4  0  0  0  0
 20 24  4  0  0  0  0
 21 22  4  0  0  0  0
 22 23  4  0  0  0  0
 24 25  4  0  0  0  0
 25 26  4  0  0  0  0
M  STY  1   1 DAT
M  SAL   1  1  21
M  SDT   1 MRV_IMPLICIT_H                                        
M  SDD   1     0.0000    0.0000    DR    ALL  0       0  
M  SED   1 IMPL_H1
M  END
>  <Name_Molregno>
398453

>  <5-HT1A>
6.06

$$$$
398454
  Marvin  02231216192D 0   1.00000     0.00000     0

 19 20  0  0  1  0  0  0  0  0999 V2000
   -0.0165   -0.0044    0.0000 O   0  0  0  0  0  0  0  0  0
    0.6980    0.4081    0.0000 C   0  0  0  0  0  0  0  0  0
    1.4125   -0.0044    0.0000 C   0  0  0  0  0  0  0  0  0
    2.1270    0.4081    0.0000 C   0  0  0  0  0  0  0  0  0
    2.1270    1.2331    0.0000 O   0  0  0  0  0  0  0  0  0
    2.8414   -0.0044    0.0000 C   0  0  0  0  0  0  0  0  0
    3.5559    0.4081    0.0000 N   0  0  0  0  0  0  0  0  0
    4.2704   -0.0044    0.0000 C   0  0  0  0  0  0  0  0  0
    4.9848    0.4081    0.0000 C   0  0  0  0  0  0  0  0  0
    4.2704   -0.8294    0.0000 C   0  0  0  0  0  0  0  0  0
   -0.7309    0.4081    0.0000 C   0  0  0  0  0  0  0  0  0
   -1.4454   -0.0044    0.0000 C   0  0  0  0  0  0  0  0  0
   -2.1599    0.4081    0.0000 C   0  0  0  0  0  0  0  0  0
   -2.7730   -0.1439    0.0000 N   0  0  0  0  0  0  0  0  0
   -2.4374   -0.8976    0.0000 C   0  0  0  0  0  0  0  0  0
   -1.6169   -0.8113    0.0000 C   0  0  0  0  0  0  0  0  0
   -2.1599    1.2331    0.0000 C   0  0  0  0  0  0  0  0  0
   -1.4454    1.6456    0.0000 C   0  0  0  0  0  0  0  0  0
   -0.7309    1.2331    0.0000 C   0  0  0  0  0  0  0  0  0
  1  2  1  0  0  0  0
  1 11  1  0  0  0  0
  2  3  1  0  0  0  0
  3  4  1  0  0  0  0
  4  5  1  0  0  0  0
  4  6  1  0  0  0  0
  6  7  1  0  0  0  0
  7  8  1  0  0  0  0
  8  9  1  0  0  0  0
  8 10  1  0  0  0  0
 11 12  4  0  0  0  0
 11 19  4  0  0  0  0
 12 13  4  0  0  0  0
 12 16  4  0  0  0  0
 13 14  4  0  0  0  0
 13 17  4  0  0  0  0
 14 15  4  0  0  0  0
 15 16  4  0  0  0  0
 17 18  4  0  0  0  0
 18 19  4  0  0  0  0
M  STY  1   1 DAT
M  SAL   1  1  14
M  SDT   1 MRV_IMPLICIT_H                                        
M  SDD   1     0.0000    0.0000    DR    ALL  0       0  
M  SED   1 IMPL_H1
M  END
>  <Name_Molregno>
398454

>  <5-HT1A>
5.75

$$$$
398455
  Marvin  02231216192D 0   1.00000     0.00000     0

 22 24  0  0  1  0  0  0  0  0999 V2000
   -0.0320   -0.0082    0.0000 O   0  0  0  0  0  0  0  0  0
    0.6825    0.4043    0.0000 C   0  0  0  0  0  0  0  0  0
    1.3970   -0.0082    0.0000 C   0  0  0  0  0  0  0  0  0
    2.1115    0.4043    0.0000 C   0  0  0  0  0  0  0  0  0
    2.1115    1.2293    0.0000 O   0  0  0  0  0  0  0  0  0
    2.8259   -0.0082    0.0000 C   0  0  0  0  0  0  0  0  0
    3.5404    0.4043    0.0000 N   0  0  0  0  0  0  0  0  0
    4.2549   -0.0082    0.0000 C   0  0  0  0  0  0  0  0  0
    4.9693    0.4043    0.0000 C   0  0  0  0  0  0  0  0  0
    5.6838   -0.0082    0.0000 C   0  0  0  0  0  0  0  0  0
    5.6838   -0.8332    0.0000 C   0  0  0  0  0  0  0  0  0
    4.9693   -1.2457    0.0000 C   0  0  0  0  0  0  0  0  0
    4.2549   -0.8332    0.0000 C   0  0  0  0  0  0  0  0  0
   -0.7464    0.4043    0.0000 C   0  0  0  0  0  0  0  0  0
   -1.4609   -0.0082    0.0000 C   0  0  0  0  0  0  0  0  0
   -2.1754    0.4043    0.0000 C   0  0  0  0  0  0  0  0  0
   -2.7885   -0.1477    0.0000 N   0  0  0  0  0  0  0  0  0
   -2.4529   -0.9014    0.0000 C   0  0  0  0  0  0  0  0  0
   -1.6324   -0.8152    0.0000 C   0  0  0  0  0  0  0  0  0
   -2.1754    1.2293    0.0000 C   0  0  0  0  0  0  0  0  0
   -1.4609    1.6418    0.0000 C   0  0  0  0  0  0  0  0  0
   -0.7464    1.2293    0.0000 C   0  0  0  0  0  0  0  0  0
  1  2  1  0  0  0  0
  1 14  1  0  0  0  0
  2  3  1  0  0  0  0
  3  4  1  0  0  0  0
  4  5  1  0  0  0  0
  4  6  1  0  0  0  0
  6  7  1  0  0  0  0
  7  8  1  0  0  0  0
  8  9  1  0  0  0  0
  8 13  1  0  0  0  0
  9 10  1  0  0  0  0
 10 11  1  0  0  0  0
 11 12  1  0  0  0  0
 12 13  1  0  0  0  0
 14 15  4  0  0  0  0
 14 22  4  0  0  0  0
 15 16  4  0  0  0  0
 15 19  4  0  0  0  0
 16 17  4  0  0  0  0
 16 20  4  0  0  0  0
 17 18  4  0  0  0  0
 18 19  4  0  0  0  0
 20 21  4  0  0  0  0
 21 22  4  0  0  0  0
M  STY  1   1 DAT
M  SAL   1  1  17
M  SDT   1 MRV_IMPLICIT_H                                        
M  SDD   1     0.0000    0.0000    DR    ALL  0       0  
M  SED   1 IMPL_H1
M  END
>  <Name_Molregno>
398455

>  <5-HT1A>
6.06

$$$$
398456
  Marvin  02231216192D 0   1.00000     0.00000     0

 26 30  0  0  1  0  0  0  0  0999 V2000
    2.7284   -1.4946    0.0000 O   0  0  0  0  0  0  0  0  0
    2.0139   -1.0821    0.0000 C   0  0  0  0  0  0  0  0  0
    2.0138   -0.2571    0.0000 C   0  0  0  0  0  0  0  0  0
    1.2994    0.1554    0.0000 C   0  0  0  0  0  0  0  0  0
    0.5849   -0.2572    0.0000 O   0  0  0  0  0  0  0  0  0
    1.2993    0.9804    0.0000 C   0  0  0  0  0  0  0  0  0
    0.5848    1.3928    0.0000 N   0  0  0  0  0  0  0  0  0
    0.5848    2.2178    0.0000 C   0  0  0  0  0  0  0  0  0
   -0.1506    1.8441    0.0000 C   0  0  0  0  0  0  0  0  0
    0.2988    2.6344    0.0000 C   0  0  0  0  0  0  0  0  0
    0.2988    3.3818    0.0000 C   0  0  0  0  0  0  0  0  0
    1.0343    3.7555    0.0000 C   0  0  0  0  0  0  0  0  0
    0.5848    2.9652    0.0000 C   0  0  0  0  0  0  0  0  0
    1.7699    3.3818    0.0000 C   0  0  0  0  0  0  0  0  0
    1.7699    2.6344    0.0000 C   0  0  0  0  0  0  0  0  0
    1.3204    1.8441    0.0000 C   0  0  0  0  0  0  0  0  0
    1.0343    2.2607    0.0000 C   0  0  0  0  0  0  0  0  0
    2.7284   -2.3196    0.0000 C   0  0  0  0  0  0  0  0  0
    3.4429   -2.7320    0.0000 C   0  0  0  0  0  0  0  0  0
    3.4430   -3.5570    0.0000 C   0  0  0  0  0  0  0  0  0
    4.2276   -3.8119    0.0000 N   0  0  0  0  0  0  0  0  0
    4.7125   -3.1444    0.0000 C   0  0  0  0  0  0  0  0  0
    4.2275   -2.4770    0.0000 C   0  0  0  0  0  0  0  0  0
    2.7285   -3.9696    0.0000 C   0  0  0  0  0  0  0  0  0
    2.0140   -3.5571    0.0000 C   0  0  0  0  0  0  0  0  0
    2.0140   -2.7321    0.0000 C   0  0  0  0  0  0  0  0  0
  1  2  1  0  0  0  0
  1 18  1  0  0  0  0
  2  3  1  0  0  0  0
  3  4  1  0  0  0  0
  4  5  1  0  0  0  0
  4  6  1  0  0  0  0
  6  7  1  0  0  0  0
  7  8  1  0  0  0  0
  8  9  1  0  0  0  0
 15 17  1  0  0  0  0
  8 16  1  0  0  0  0
  9 10  1  0  0  0  0
 15 16  1  0  0  0  0
 10 17  1  0  0  0  0
 11 12  1  0  0  0  0
 12 13  1  0  0  0  0
 12 14  1  0  0  0  0
 14 15  1  0  0  0  0
 10 11  1  0  0  0  0
  8 13  1  0  0  0  0
 18 19  4  0  0  0  0
 18 26  4  0  0  0  0
 19 20  4  0  0  0  0
 19 23  4  0  0  0  0
 20 21  4  0  0  0  0
 20 24  4  0  0  0  0
 21 22  4  0  0  0  0
 22 23  4  0  0  0  0
 24 25  4  0  0  0  0
 25 26  4  0  0  0  0
M  STY  1   1 DAT
M  SAL   1  1  21
M  SDT   1 MRV_IMPLICIT_H                                        
M  SDD   1     0.0000    0.0000    DR    ALL  0       0  
M  SED   1 IMPL_H1
M  END
>  <Name_Molregno>
398456

>  <5-HT1A>
6.26

$$$$
398465
  Marvin  02231216192D 0   1.00000     0.00000     0

 22 24  0  0  1  0  0  0  0  0999 V2000
   -0.0318    0.0029    0.0000 O   0  0  0  0  0  0  0  0  0
    0.6826    0.4154    0.0000 C   0  0  0  0  0  0  0  0  0
    1.3971    0.0029    0.0000 C   0  0  0  0  0  0  0  0  0
    1.3971   -0.8221    0.0000 O   0  0  0  0  0  0  0  0  0
    2.1116    0.4154    0.0000 C   0  0  0  0  0  0  0  0  0
    2.8260    0.0029    0.0000 C   0  0  0  0  0  0  0  0  0
    3.5405    0.4154    0.0000 N   0  0  0  0  0  0  0  0  0
    4.2550    0.0029    0.0000 C   0  0  0  0  0  0  0  0  0
    4.9695    0.4154    0.0000 C   0  0  0  0  0  0  0  0  0
    5.6839    0.0029    0.0000 C   0  0  0  0  0  0  0  0  0
    5.6839   -0.8221    0.0000 C   0  0  0  0  0  0  0  0  0
    4.9695   -1.2346    0.0000 C   0  0  0  0  0  0  0  0  0
    4.2550   -0.8221    0.0000 C   0  0  0  0  0  0  0  0  0
   -0.7463    0.4154    0.0000 C   0  0  0  0  0  0  0  0  0
   -1.4608    0.0029    0.0000 C   0  0  0  0  0  0  0  0  0
   -2.1753    0.4154    0.0000 C   0  0  0  0  0  0  0  0  0
   -2.7884   -0.1367    0.0000 N   0  0  0  0  0  0  0  0  0
   -2.4528   -0.8903    0.0000 C   0  0  0  0  0  0  0  0  0
   -1.6323   -0.8041    0.0000 C   0  0  0  0  0  0  0  0  0
   -2.1753    1.2404    0.0000 C   0  0  0  0  0  0  0  0  0
   -1.4608    1.6529    0.0000 C   0  0  0  0  0  0  0  0  0
   -0.7463    1.2404    0.0000 C   0  0  0  0  0  0  0  0  0
  1  2  1  0  0  0  0
  1 14  1  0  0  0  0
  2  3  1  0  0  0  0
  3  4  1  0  0  0  0
  3  5  1  0  0  0  0
  5  6  1  0  0  0  0
  6  7  1  0  0  0  0
  7  8  1  0  0  0  0
  8  9  1  0  0  0  0
  8 13  1  0  0  0  0
  9 10  1  0  0  0  0
 10 11  1  0  0  0  0
 11 12  1  0  0  0  0
 12 13  1  0  0  0  0
 14 15  4  0  0  0  0
 14 22  4  0  0  0  0
 15 16  4  0  0  0  0
 15 19  4  0  0  0  0
 16 17  4  0  0  0  0
 16 20  4  0  0  0  0
 17 18  4  0  0  0  0
 18 19  4  0  0  0  0
 20 21  4  0  0  0  0
 21 22  4  0  0  0  0
M  STY  1   1 DAT
M  SAL   1  1  17
M  SDT   1 MRV_IMPLICIT_H                                        
M  SDD   1     0.0000    0.0000    DR    ALL  0       0  
M  SED   1 IMPL_H1
M  END
>  <Name_Molregno>
398465

>  <5-HT1A>
6.9

$$$$
398496
  Marvin  02231216192D 0   1.00000     0.00000     0

 21 23  0  0  1  0  0  0  0  0999 V2000
   -0.0225   -0.0124    0.0000 O   0  0  0  0  0  0  0  0  0
    0.6920    0.4001    0.0000 C   0  0  0  0  0  0  0  0  0
    1.4064   -0.0124    0.0000 C   0  0  0  0  0  0  0  0  0
    1.4064   -0.8374    0.0000 O   0  0  0  0  0  0  0  0  0
    2.1209    0.4001    0.0000 C   0  0  0  0  0  0  0  0  0
    2.8354   -0.0124    0.0000 N   0  0  0  0  0  0  0  0  0
    3.5498    0.4001    0.0000 C   0  0  0  0  0  0  0  0  0
    3.5498    1.2251    0.0000 C   0  0  0  0  0  0  0  0  0
    4.2643    1.6376    0.0000 C   0  0  0  0  0  0  0  0  0
    4.9788    1.2251    0.0000 C   0  0  0  0  0  0  0  0  0
    4.9788    0.4001    0.0000 C   0  0  0  0  0  0  0  0  0
    4.2643   -0.0124    0.0000 C   0  0  0  0  0  0  0  0  0
   -0.7370    0.4001    0.0000 C   0  0  0  0  0  0  0  0  0
   -1.4514   -0.0124    0.0000 C   0  0  0  0  0  0  0  0  0
   -2.1659    0.4001    0.0000 C   0  0  0  0  0  0  0  0  0
   -2.1659    1.2251    0.0000 C   0  0  0  0  0  0  0  0  0
   -2.9505    1.4800    0.0000 N   0  0  0  0  0  0  0  0  0
   -3.4355    0.8126    0.0000 C   0  0  0  0  0  0  0  0  0
   -2.9505    0.1451    0.0000 C   0  0  0  0  0  0  0  0  0
   -1.4514    1.6376    0.0000 C   0  0  0  0  0  0  0  0  0
   -0.7370    1.2251    0.0000 C   0  0  0  0  0  0  0  0  0
  1  2  1  0  0  0  0
  1 13  1  0  0  0  0
  2  3  1  0  0  0  0
  3  4  1  0  0  0  0
  3  5  1  0  0  0  0
  5  6  1  0  0  0  0
  6  7  1  0  0  0  0
  7  8  1  0  0  0  0
  7 12  1  0  0  0  0
  8  9  1  0  0  0  0
  9 10  1  0  0  0  0
 10 11  1  0  0  0  0
 11 12  1  0  0  0  0
 13 14  4  0  0  0  0
 13 21  4  0  0  0  0
 14 15  4  0  0  0  0
 15 16  4  0  0  0  0
 15 19  4  0  0  0  0
 16 17  4  0  0  0  0
 16 20  4  0  0  0  0
 17 18  4  0  0  0  0
 18 19  4  0  0  0  0
 20 21  4  0  0  0  0
M  STY  1   1 DAT
M  SAL   1  1  17
M  SDT   1 MRV_IMPLICIT_H                                        
M  SDD   1     0.0000    0.0000    DR    ALL  0       0  
M  SED   1 IMPL_H1
M  END
>  <Name_Molregno>
398496

>  <5-HT1A>
5.52

$$$$
398497
  Marvin  02231216192D 0   1.00000     0.00000     0

 25 29  0  0  1  0  0  0  0  0999 V2000
    1.1654   -0.7634    0.0000 O   0  0  0  0  0  0  0  0  0
    1.1654    0.0616    0.0000 C   0  0  0  0  0  0  0  0  0
    1.8798    0.4742    0.0000 C   0  0  0  0  0  0  0  0  0
    2.5943    0.0617    0.0000 O   0  0  0  0  0  0  0  0  0
    1.8798    1.2992    0.0000 C   0  0  0  0  0  0  0  0  0
    2.5943    1.7117    0.0000 N   0  0  0  0  0  0  0  0  0
    2.5942    2.5367    0.0000 C   0  0  0  0  0  0  0  0  0
    1.8588    2.1630    0.0000 C   0  0  0  0  0  0  0  0  0
    2.3082    2.9533    0.0000 C   0  0  0  0  0  0  0  0  0
    2.3082    3.7007    0.0000 C   0  0  0  0  0  0  0  0  0
    3.0437    4.0744    0.0000 C   0  0  0  0  0  0  0  0  0
    2.5942    3.2841    0.0000 C   0  0  0  0  0  0  0  0  0
    3.7793    3.7007    0.0000 C   0  0  0  0  0  0  0  0  0
    3.7793    2.9533    0.0000 C   0  0  0  0  0  0  0  0  0
    3.3298    2.1630    0.0000 C   0  0  0  0  0  0  0  0  0
    3.0437    2.5796    0.0000 C   0  0  0  0  0  0  0  0  0
    0.4510   -1.1759    0.0000 C   0  0  0  0  0  0  0  0  0
    0.4510   -2.0009    0.0000 C   0  0  0  0  0  0  0  0  0
   -0.2634   -2.4135    0.0000 C   0  0  0  0  0  0  0  0  0
   -0.9779   -2.0010    0.0000 C   0  0  0  0  0  0  0  0  0
   -1.5910   -2.5531    0.0000 N   0  0  0  0  0  0  0  0  0
   -1.2554   -3.3067    0.0000 C   0  0  0  0  0  0  0  0  0
   -0.4349   -3.2204    0.0000 C   0  0  0  0  0  0  0  0  0
   -0.9779   -1.1760    0.0000 C   0  0  0  0  0  0  0  0  0
   -0.2635   -0.7635    0.0000 C   0  0  0  0  0  0  0  0  0
  1  2  1  0  0  0  0
  1 17  1  0  0  0  0
  2  3  1  0  0  0  0
  3  4  1  0  0  0  0
  3  5  1  0  0  0  0
  5  6  1  0  0  0  0
  6  7  1  0  0  0  0
  7  8  1  0  0  0  0
 14 16  1  0  0  0  0
  7 15  1  0  0  0  0
  8  9  1  0  0  0  0
 14 15  1  0  0  0  0
  9 16  1  0  0  0  0
 10 11  1  0  0  0  0
 11 12  1  0  0  0  0
 11 13  1  0  0  0  0
 13 14  1  0  0  0  0
  9 10  1  0  0  0  0
  7 12  1  0  0  0  0
 17 18  4  0  0  0  0
 17 25  4  0  0  0  0
 18 19  4  0  0  0  0
 19 20  4  0  0  0  0
 19 23  4  0  0  0  0
 20 21  4  0  0  0  0
 20 24  4  0  0  0  0
 21 22  4  0  0  0  0
 22 23  4  0  0  0  0
 24 25  4  0  0  0  0
M  STY  1   1 DAT
M  SAL   1  1  21
M  SDT   1 MRV_IMPLICIT_H                                        
M  SDD   1     0.0000    0.0000    DR    ALL  0       0  
M  SED   1 IMPL_H1
M  END
>  <Name_Molregno>
398497

>  <5-HT1A>
6.08

$$$$
398525
  Marvin  02231216192D 0   1.00000     0.00000     0

 26 30  0  0  1  0  0  0  0  0999 V2000
    2.6186   -1.4396    0.0000 O   0  0  0  0  0  0  0  0  0
    1.9041   -1.0272    0.0000 C   0  0  0  0  0  0  0  0  0
    1.9041   -0.2022    0.0000 C   0  0  0  0  0  0  0  0  0
    2.6185    0.2104    0.0000 O   0  0  0  0  0  0  0  0  0
    1.1896    0.2103    0.0000 C   0  0  0  0  0  0  0  0  0
    1.1895    1.0353    0.0000 C   0  0  0  0  0  0  0  0  0
    0.4751    1.4478    0.0000 N   0  0  0  0  0  0  0  0  0
    0.4750    2.2728    0.0000 C   0  0  0  0  0  0  0  0  0
   -0.2604    1.8991    0.0000 C   0  0  0  0  0  0  0  0  0
    0.1890    2.6894    0.0000 C   0  0  0  0  0  0  0  0  0
    0.1890    3.4368    0.0000 C   0  0  0  0  0  0  0  0  0
    0.9245    3.8105    0.0000 C   0  0  0  0  0  0  0  0  0
    0.4750    3.0202    0.0000 C   0  0  0  0  0  0  0  0  0
    1.6601    3.4368    0.0000 C   0  0  0  0  0  0  0  0  0
    1.6601    2.6894    0.0000 C   0  0  0  0  0  0  0  0  0
    1.2106    1.8991    0.0000 C   0  0  0  0  0  0  0  0  0
    0.9245    2.3157    0.0000 C   0  0  0  0  0  0  0  0  0
    2.6187   -2.2646    0.0000 C   0  0  0  0  0  0  0  0  0
    3.3332   -2.6771    0.0000 C   0  0  0  0  0  0  0  0  0
    3.3332   -3.5021    0.0000 C   0  0  0  0  0  0  0  0  0
    4.1178   -3.7570    0.0000 N   0  0  0  0  0  0  0  0  0
    4.6027   -3.0895    0.0000 C   0  0  0  0  0  0  0  0  0
    4.1178   -2.4221    0.0000 C   0  0  0  0  0  0  0  0  0
    2.6188   -3.9146    0.0000 C   0  0  0  0  0  0  0  0  0
    1.9043   -3.5022    0.0000 C   0  0  0  0  0  0  0  0  0
    1.9042   -2.6772    0.0000 C   0  0  0  0  0  0  0  0  0
  1  2  1  0  0  0  0
  1 18  1  0  0  0  0
  2  3  1  0  0  0  0
  3  4  1  0  0  0  0
  3  5  1  0  0  0  0
  5  6  1  0  0  0  0
  6  7  1  0  0  0  0
  7  8  1  0  0  0  0
  8  9  1  0  0  0  0
 15 17  1  0  0  0  0
  8 16  1  0  0  0  0
  9 10  1  0  0  0  0
 15 16  1  0  0  0  0
 10 17  1  0  0  0  0
 11 12  1  0  0  0  0
 12 13  1  0  0  0  0
 12 14  1  0  0  0  0
 14 15  1  0  0  0  0
 10 11  1  0  0  0  0
  8 13  1  0  0  0  0
 18 19  4  0  0  0  0
 18 26  4  0  0  0  0
 19 20  4  0  0  0  0
 19 23  4  0  0  0  0
 20 21  4  0  0  0  0
 20 24  4  0  0  0  0
 21 22  4  0  0  0  0
 22 23  4  0  0  0  0
 24 25  4  0  0  0  0
 25 26  4  0  0  0  0
M  STY  1   1 DAT
M  SAL   1  1  21
M  SDT   1 MRV_IMPLICIT_H                                        
M  SDD   1     0.0000    0.0000    DR    ALL  0       0  
M  SED   1 IMPL_H1
M  END
>  <Name_Molregno>
398525

>  <5-HT1A>
7.12

$$$$
404494
  Marvin  02231216192D 0   1.00000     0.00000     0

 29 32  0  0  0  0  0  0  0  0999 V2000
   -7.2872    1.0929    0.0000 O   0  0  0  0  0  0  0  0  0
   -8.0017    0.6804    0.0000 C   0  0  0  0  0  0  0  0  0
   -7.2872    1.9179    0.0000 C   0  0  0  0  0  0  0  0  0
   -8.0017    2.3304    0.0000 C   0  0  0  0  0  0  0  0  0
   -8.0017    3.1554    0.0000 C   0  0  0  0  0  0  0  0  0
   -7.2872    3.5679    0.0000 C   0  0  0  0  0  0  0  0  0
   -6.5727    3.1554    0.0000 C   0  0  0  0  0  0  0  0  0
   -6.5727    2.3304    0.0000 C   0  0  0  0  0  0  0  0  0
   -5.8583    1.9179    0.0000 N   0  0  0  0  0  0  0  0  0
   -5.1438    2.3304    0.0000 C   0  0  0  0  0  0  0  0  0
   -4.4293    1.9179    0.0000 C   0  0  0  0  0  0  0  0  0
   -4.4293    1.0929    0.0000 N   0  0  0  0  0  0  0  0  0
   -5.1438    0.6804    0.0000 C   0  0  0  0  0  0  0  0  0
   -5.8583    1.0929    0.0000 C   0  0  0  0  0  0  0  0  0
   -3.7148    0.6804    0.0000 C   0  0  0  0  0  0  0  0  0
   -3.7148   -0.1446    0.0000 C   0  0  0  0  0  0  0  0  0
   -3.0004   -0.5571    0.0000 C   0  0  0  0  0  0  0  0  0
   -3.0004   -1.3821    0.0000 C   0  0  0  0  0  0  0  0  0
   -2.2859   -1.7946    0.0000 N   0  0  0  0  0  0  0  0  0
   -2.2859   -2.6196    0.0000 C   0  0  0  0  0  0  0  0  0
   -1.5714   -3.0321    0.0000 N   0  0  0  0  0  0  0  0  0
   -0.8570   -2.6196    0.0000 C   0  0  0  0  0  0  0  0  0
   -0.8570   -1.7946    0.0000 C   0  0  0  0  0  0  0  0  0
   -0.1425   -1.3821    0.0000 C   0  0  0  0  0  0  0  0  0
    0.5720   -1.7946    0.0000 C   0  0  0  0  0  0  0  0  0
    0.5720   -2.6196    0.0000 C   0  0  0  0  0  0  0  0  0
   -0.1425   -3.0321    0.0000 C   0  0  0  0  0  0  0  0  0
   -1.5714   -1.3821    0.0000 C   0  0  0  0  0  0  0  0  0
   -1.5714   -0.5571    0.0000 O   0  0  0  0  0  0  0  0  0
  1  2  1  0  0  0  0
  1  3  1  0  0  0  0
  3  4  4  0  0  0  0
  3  8  4  0  0  0  0
  4  5  4  0  0  0  0
  5  6  4  0  0  0  0
  6  7  4  0  0  0  0
  7  8  4  0  0  0  0
  8  9  1  0  0  0  0
  9 10  1  0  0  0  0
  9 14  1  0  0  0  0
 10 11  1  0  0  0  0
 11 12  1  0  0  0  0
 12 13  1  0  0  0  0
 12 15  1  0  0  0  0
 13 14  1  0  0  0  0
 15 16  1  0  0  0  0
 16 17  1  0  0  0  0
 17 18  1  0  0  0  0
 18 19  1  0  0  0  0
 19 20  1  0  0  0  0
 19 28  1  0  0  0  0
 20 21  2  0  0  0  0
 21 22  1  0  0  0  0
 22 23  4  0  0  0  0
 22 27  4  0  0  0  0
 23 24  4  0  0  0  0
 23 28  1  0  0  0  0
 24 25  4  0  0  0  0
 25 26  4  0  0  0  0
 26 27  4  0  0  0  0
 28 29  2  0  0  0  0
M  END
>  <Name_Molregno>
404494

>  <5-HT1A>
7.44

>  <DOPAMINE D2>
7.83

>  <DOPAMINE D3>
6.51

>  <DOPAMINE D5>
5

$$$$
404498
  Marvin  02231216192D 0   1.00000     0.00000     0

 26 29  0  0  0  0  0  0  0  0999 V2000
   -4.0391    2.4085    0.0000 O   0  0  0  0  0  0  0  0  0
   -3.2141    2.4085    0.0000 C   0  0  0  0  0  0  0  0  0
   -2.7292    1.7411    0.0000 N   0  0  0  0  0  0  0  0  0
   -1.9445    1.9960    0.0000 C   0  0  0  0  0  0  0  0  0
   -1.9445    2.8210    0.0000 C   0  0  0  0  0  0  0  0  0
   -2.7292    3.0760    0.0000 C   0  0  0  0  0  0  0  0  0
   -1.2301    3.2335    0.0000 C   0  0  0  0  0  0  0  0  0
   -0.5156    2.8210    0.0000 C   0  0  0  0  0  0  0  0  0
   -0.5156    1.9960    0.0000 C   0  0  0  0  0  0  0  0  0
   -1.2301    1.5835    0.0000 C   0  0  0  0  0  0  0  0  0
   -2.9841    0.9565    0.0000 C   0  0  0  0  0  0  0  0  0
   -2.4321    0.3434    0.0000 C   0  0  0  0  0  0  0  0  0
   -2.6870   -0.4413    0.0000 C   0  0  0  0  0  0  0  0  0
   -2.1350   -1.0543    0.0000 C   0  0  0  0  0  0  0  0  0
   -2.3899   -1.8390    0.0000 N   0  0  0  0  0  0  0  0  0
   -1.8379   -2.4521    0.0000 C   0  0  0  0  0  0  0  0  0
   -2.0928   -3.2367    0.0000 C   0  0  0  0  0  0  0  0  0
   -2.8998   -3.4082    0.0000 N   0  0  0  0  0  0  0  0  0
   -3.4518   -2.7951    0.0000 C   0  0  0  0  0  0  0  0  0
   -3.1969   -2.0105    0.0000 C   0  0  0  0  0  0  0  0  0
   -3.1547   -4.1928    0.0000 C   0  0  0  0  0  0  0  0  0
   -2.6027   -4.8059    0.0000 C   0  0  0  0  0  0  0  0  0
   -2.8576   -5.5905    0.0000 C   0  0  0  0  0  0  0  0  0
   -3.6646   -5.7621    0.0000 C   0  0  0  0  0  0  0  0  0
   -4.2166   -5.1490    0.0000 C   0  0  0  0  0  0  0  0  0
   -3.9617   -4.3644    0.0000 C   0  0  0  0  0  0  0  0  0
  1  2  2  0  0  0  0
  2  3  1  0  0  0  0
  2  6  1  0  0  0  0
  3  4  1  0  0  0  0
  3 11  1  0  0  0  0
  4  5  4  0  0  0  0
  4 10  4  0  0  0  0
  5  6  1  0  0  0  0
  5  7  4  0  0  0  0
  7  8  4  0  0  0  0
  8  9  4  0  0  0  0
  9 10  4  0  0  0  0
 11 12  1  0  0  0  0
 12 13  1  0  0  0  0
 13 14  1  0  0  0  0
 14 15  1  0  0  0  0
 15 16  1  0  0  0  0
 15 20  1  0  0  0  0
 16 17  1  0  0  0  0
 17 18  1  0  0  0  0
 18 19  1  0  0  0  0
 18 21  1  0  0  0  0
 19 20  1  0  0  0  0
 21 22  4  0  0  0  0
 21 26  4  0  0  0  0
 22 23  4  0  0  0  0
 23 24  4  0  0  0  0
 24 25  4  0  0  0  0
 25 26  4  0  0  0  0
M  END
>  <Name_Molregno>
404498

>  <5-HT1A>
6.91

>  <5-HT7>
7.13

>  <DOPAMINE D2>
6.81

>  <DOPAMINE D3>
7.1

>  <DOPAMINE D5>
5.75

$$$$
404505
  Marvin  02231216192D 0   1.00000     0.00000     0

 28 31  0  0  0  0  0  0  0  0999 V2000
   -6.9767   -0.7501    0.0000 O   0  0  0  0  0  0  0  0  0
   -7.7837   -0.9217    0.0000 C   0  0  0  0  0  0  0  0  0
   -6.7218    0.0345    0.0000 C   0  0  0  0  0  0  0  0  0
   -7.2738    0.6476    0.0000 C   0  0  0  0  0  0  0  0  0
   -7.0188    1.4322    0.0000 C   0  0  0  0  0  0  0  0  0
   -6.2119    1.6037    0.0000 C   0  0  0  0  0  0  0  0  0
   -5.6598    0.9906    0.0000 C   0  0  0  0  0  0  0  0  0
   -5.9148    0.2060    0.0000 C   0  0  0  0  0  0  0  0  0
   -5.3628   -0.4071    0.0000 N   0  0  0  0  0  0  0  0  0
   -4.5558   -0.2355    0.0000 C   0  0  0  0  0  0  0  0  0
   -4.0037   -0.8486    0.0000 C   0  0  0  0  0  0  0  0  0
   -4.2587   -1.6333    0.0000 N   0  0  0  0  0  0  0  0  0
   -5.0657   -1.8048    0.0000 C   0  0  0  0  0  0  0  0  0
   -5.6177   -1.1917    0.0000 C   0  0  0  0  0  0  0  0  0
   -3.7067   -2.2464    0.0000 C   0  0  0  0  0  0  0  0  0
   -2.8997   -2.0748    0.0000 C   0  0  0  0  0  0  0  0  0
   -2.6447   -1.2902    0.0000 C   0  0  0  0  0  0  0  0  0
   -1.8378   -1.1187    0.0000 C   0  0  0  0  0  0  0  0  0
   -1.5828   -0.3341    0.0000 N   0  0  0  0  0  0  0  0  0
   -0.7982   -0.0791    0.0000 C   0  0  0  0  0  0  0  0  0
   -0.7982    0.7459    0.0000 C   0  0  0  0  0  0  0  0  0
   -1.5828    1.0008    0.0000 C   0  0  0  0  0  0  0  0  0
   -2.0678    0.3334    0.0000 C   0  0  0  0  0  0  0  0  0
   -2.8928    0.3334    0.0000 O   0  0  0  0  0  0  0  0  0
   -0.0837    1.1584    0.0000 C   0  0  0  0  0  0  0  0  0
    0.6307    0.7459    0.0000 C   0  0  0  0  0  0  0  0  0
    0.6307   -0.0791    0.0000 C   0  0  0  0  0  0  0  0  0
   -0.0837   -0.4916    0.0000 C   0  0  0  0  0  0  0  0  0
  1  2  1  0  0  0  0
  1  3  1  0  0  0  0
  3  4  4  0  0  0  0
  3  8  4  0  0  0  0
  4  5  4  0  0  0  0
  5  6  4  0  0  0  0
  6  7  4  0  0  0  0
  7  8  4  0  0  0  0
  8  9  1  0  0  0  0
  9 10  1  0  0  0  0
  9 14  1  0  0  0  0
 10 11  1  0  0  0  0
 11 12  1  0  0  0  0
 12 13  1  0  0  0  0
 12 15  1  0  0  0  0
 13 14  1  0  0  0  0
 15 16  1  0  0  0  0
 16 17  1  0  0  0  0
 17 18  1  0  0  0  0
 18 19  1  0  0  0  0
 19 20  1  0  0  0  0
 19 23  1  0  0  0  0
 20 21  4  0  0  0  0
 20 28  4  0  0  0  0
 21 22  1  0  0  0  0
 21 25  4  0  0  0  0
 22 23  1  0  0  0  0
 23 24  2  0  0  0  0
 25 26  4  0  0  0  0
 26 27  4  0  0  0  0
 27 28  4  0  0  0  0
M  END
>  <Name_Molregno>
404505

>  <5-HT1A>
6

>  <5-HT7>
7.49

>  <DOPAMINE D2>
6.46

>  <DOPAMINE D3>
6.71

>  <DOPAMINE D5>
6.48

$$$$
404508
  Marvin  02231216192D 0   1.00000     0.00000     0

 26 29  0  0  0  0  0  0  0  0999 V2000
   -0.6599    1.4832    0.0000 O   0  0  0  0  0  0  0  0  0
   -0.4049    0.6986    0.0000 C   0  0  0  0  0  0  0  0  0
   -0.8899    0.0312    0.0000 N   0  0  0  0  0  0  0  0  0
   -0.4049   -0.6363    0.0000 C   0  0  0  0  0  0  0  0  0
    0.3797   -0.3813    0.0000 C   0  0  0  0  0  0  0  0  0
    0.3797    0.4437    0.0000 C   0  0  0  0  0  0  0  0  0
    1.0942    0.8562    0.0000 C   0  0  0  0  0  0  0  0  0
    1.8086    0.4437    0.0000 C   0  0  0  0  0  0  0  0  0
    1.8086   -0.3813    0.0000 C   0  0  0  0  0  0  0  0  0
    1.0942   -0.7938    0.0000 C   0  0  0  0  0  0  0  0  0
   -1.7149    0.0312    0.0000 C   0  0  0  0  0  0  0  0  0
   -2.1274   -0.6833    0.0000 C   0  0  0  0  0  0  0  0  0
   -2.9524   -0.6833    0.0000 C   0  0  0  0  0  0  0  0  0
   -3.3649   -1.3978    0.0000 C   0  0  0  0  0  0  0  0  0
   -4.1899   -1.3978    0.0000 N   0  0  0  0  0  0  0  0  0
   -4.6024   -2.1122    0.0000 C   0  0  0  0  0  0  0  0  0
   -5.4274   -2.1122    0.0000 C   0  0  0  0  0  0  0  0  0
   -5.8399   -1.3978    0.0000 N   0  0  0  0  0  0  0  0  0
   -5.4274   -0.6833    0.0000 C   0  0  0  0  0  0  0  0  0
   -4.6024   -0.6833    0.0000 C   0  0  0  0  0  0  0  0  0
   -6.6649   -1.3978    0.0000 C   0  0  0  0  0  0  0  0  0
   -7.0774   -2.1122    0.0000 C   0  0  0  0  0  0  0  0  0
   -7.9024   -2.1122    0.0000 C   0  0  0  0  0  0  0  0  0
   -8.3149   -1.3978    0.0000 C   0  0  0  0  0  0  0  0  0
   -7.9024   -0.6833    0.0000 C   0  0  0  0  0  0  0  0  0
   -7.0774   -0.6833    0.0000 C   0  0  0  0  0  0  0  0  0
  1  2  2  0  0  0  0
  2  3  1  0  0  0  0
  2  6  1  0  0  0  0
  3  4  1  0  0  0  0
  3 11  1  0  0  0  0
  4  5  1  0  0  0  0
  5  6  4  0  0  0  0
  5 10  4  0  0  0  0
  6  7  4  0  0  0  0
  7  8  4  0  0  0  0
  8  9  4  0  0  0  0
  9 10  4  0  0  0  0
 11 12  1  0  0  0  0
 12 13  1  0  0  0  0
 13 14  1  0  0  0  0
 14 15  1  0  0  0  0
 15 16  1  0  0  0  0
 15 20  1  0  0  0  0
 16 17  1  0  0  0  0
 17 18  1  0  0  0  0
 18 19  1  0  0  0  0
 18 21  1  0  0  0  0
 19 20  1  0  0  0  0
 21 22  4  0  0  0  0
 21 26  4  0  0  0  0
 22 23  4  0  0  0  0
 23 24  4  0  0  0  0
 24 25  4  0  0  0  0
 25 26  4  0  0  0  0
M  END
>  <Name_Molregno>
404508

>  <5-HT1A>
6.44

>  <5-HT7>
6

>  <DOPAMINE D2>
6.97

>  <DOPAMINE D3>
7.45

>  <DOPAMINE D5>
6.05

$$$$
404513
  Marvin  02231216192D 0   1.00000     0.00000     0

 28 31  0  0  0  0  0  0  0  0999 V2000
    0.4432   -1.8740    0.0000 O   0  0  0  0  0  0  0  0  0
    0.0307   -2.5885    0.0000 C   0  0  0  0  0  0  0  0  0
    0.0307   -1.1595    0.0000 C   0  0  0  0  0  0  0  0  0
   -0.7943   -1.1595    0.0000 C   0  0  0  0  0  0  0  0  0
   -1.2068   -0.4451    0.0000 C   0  0  0  0  0  0  0  0  0
   -0.7943    0.2694    0.0000 C   0  0  0  0  0  0  0  0  0
    0.0307    0.2694    0.0000 C   0  0  0  0  0  0  0  0  0
    0.4432   -0.4451    0.0000 C   0  0  0  0  0  0  0  0  0
    1.2682   -0.4451    0.0000 N   0  0  0  0  0  0  0  0  0
    1.6807    0.2694    0.0000 C   0  0  0  0  0  0  0  0  0
    2.5057    0.2694    0.0000 C   0  0  0  0  0  0  0  0  0
    2.9182   -0.4451    0.0000 N   0  0  0  0  0  0  0  0  0
    2.5057   -1.1595    0.0000 C   0  0  0  0  0  0  0  0  0
    1.6807   -1.1595    0.0000 C   0  0  0  0  0  0  0  0  0
    3.7432   -0.4451    0.0000 C   0  0  0  0  0  0  0  0  0
    4.1557    0.2694    0.0000 C   0  0  0  0  0  0  0  0  0
    4.9807    0.2694    0.0000 C   0  0  0  0  0  0  0  0  0
    5.3932    0.9839    0.0000 C   0  0  0  0  0  0  0  0  0
    6.2182    0.9839    0.0000 N   0  0  0  0  0  0  0  0  0
    6.7031    0.3165    0.0000 C   0  0  0  0  0  0  0  0  0
    7.4877    0.5714    0.0000 C   0  0  0  0  0  0  0  0  0
    7.4877    1.3964    0.0000 C   0  0  0  0  0  0  0  0  0
    8.2022    1.8089    0.0000 C   0  0  0  0  0  0  0  0  0
    8.9166    1.3964    0.0000 C   0  0  0  0  0  0  0  0  0
    8.9166    0.5714    0.0000 C   0  0  0  0  0  0  0  0  0
    8.2022    0.1589    0.0000 C   0  0  0  0  0  0  0  0  0
    6.7031    1.6513    0.0000 C   0  0  0  0  0  0  0  0  0
    6.4481    2.4359    0.0000 O   0  0  0  0  0  0  0  0  0
  1  2  1  0  0  0  0
  1  3  1  0  0  0  0
  3  4  4  0  0  0  0
  3  8  4  0  0  0  0
  4  5  4  0  0  0  0
  5  6  4  0  0  0  0
  6  7  4  0  0  0  0
  7  8  4  0  0  0  0
  8  9  1  0  0  0  0
  9 10  1  0  0  0  0
  9 14  1  0  0  0  0
 10 11  1  0  0  0  0
 11 12  1  0  0  0  0
 12 13  1  0  0  0  0
 12 15  1  0  0  0  0
 13 14  1  0  0  0  0
 15 16  1  0  0  0  0
 16 17  1  0  0  0  0
 17 18  1  0  0  0  0
 18 19  1  0  0  0  0
 19 20  1  0  0  0  0
 19 27  1  0  0  0  0
 20 21  1  0  0  0  0
 21 22  4  0  0  0  0
 21 26  4  0  0  0  0
 22 23  4  0  0  0  0
 22 27  1  0  0  0  0
 23 24  4  0  0  0  0
 24 25  4  0  0  0  0
 25 26  4  0  0  0  0
 27 28  2  0  0  0  0
M  END
>  <Name_Molregno>
404513

>  <5-HT1A>
6

>  <5-HT7>
6.8

>  <DOPAMINE D2>
6.98

>  <DOPAMINE D3>
7.52

>  <DOPAMINE D5>
6.99

$$$$
405786
  Marvin  02231216192D 0   1.00000     0.00000     0

 16 18  0  0  1  0  0  0  0  0999 V2000
   -4.1976   -1.0327    0.0000 N   0  0  0  0  0  0  0  0  0
   -4.6825   -0.3653    0.0000 N   0  0  0  0  0  0  0  0  0
   -4.1976    0.3022    0.0000 C   0  0  0  0  0  0  0  0  0
   -3.4129    0.0472    0.0000 C   0  0  0  0  0  0  0  0  0
   -2.6985    0.4597    0.0000 C   0  0  0  0  0  0  0  0  0
   -1.9840    0.0472    0.0000 C   0  0  0  0  0  0  0  0  0
   -1.2695    0.4597    0.0000 N   0  0  0  0  0  0  0  0  0
   -0.5551    0.0472    0.0000 C   0  0  0  0  0  0  0  0  0
   -0.5551   -0.7778    0.0000 C   0  0  0  0  0  0  0  0  0
   -1.2695   -1.1903    0.0000 C   0  0  0  0  0  0  0  0  0
   -1.9840   -0.7778    0.0000 C   0  0  0  0  0  0  0  0  0
   -2.6985   -1.1903    0.0000 C   0  0  0  0  0  0  0  0  0
   -3.4129   -0.7778    0.0000 C   0  0  0  0  0  0  0  0  0
   -1.2695    1.2847    0.0000 C   0  0  0  0  0  0  0  0  0
   -0.5551    1.6972    0.0000 C   0  0  0  0  0  0  0  0  0
   -0.5551    2.5222    0.0000 C   0  0  0  0  0  0  0  0  0
  1  2  4  0  0  0  0
  1 13  4  0  0  0  0
  2  3  4  0  0  0  0
  3  4  4  0  0  0  0
  4  5  1  0  0  0  0
  4 13  4  0  0  0  0
  5  6  1  0  0  0  0
  6  7  1  0  0  0  0
  6 11  1  0  0  0  0
  7  8  1  0  0  0  0
  7 14  1  0  0  0  0
  8  9  1  0  0  0  0
  9 10  1  0  0  0  0
 10 11  1  0  0  0  0
 11 12  1  0  0  0  0
 12 13  1  0  0  0  0
 14 15  1  0  0  0  0
 15 16  1  0  0  0  0
M  STY  1   1 DAT
M  SAL   1  1   1
M  SDT   1 MRV_IMPLICIT_H                                        
M  SDD   1     0.0000    0.0000    DR    ALL  0       0  
M  SED   1 IMPL_H1
M  END
>  <Name_Molregno>
405786

>  <5-HT1A>
5.77

>  <5-HT1B>
5

>  <5-HT1D>
5

>  <5-HT2A>
5.24

>  <5-HT2C>
5.24

>  <Alpha-1A>
5

>  <Alpha-1B>
5

>  <Alpha-2A>
5

>  <Alpha-2B>
5.6

>  <Alpha-2C>
5

>  <Beta-1>
5

>  <Beta-2>
5

>  <DOPAMINE D1>
5

>  <DOPAMINE D2>
6.31

>  <DOPAMINE D3>
7.73

>  <DOPAMINE D4>
7.37

>  <DOPAMINE D5>
5

$$$$
409176
  Marvin  02231216192D 0   1.00000     0.00000     0

 33 37  0  0  0  0  0  0  0  0999 V2000
    2.7100   -2.8383    0.0000 F   0  0  0  0  0  0  0  0  0
    2.7100   -2.0133    0.0000 C   0  0  0  0  0  0  0  0  0
    1.9956   -1.6008    0.0000 C   0  0  0  0  0  0  0  0  0
    1.2811   -2.0133    0.0000 N   0  0  0  0  0  0  0  0  0
    0.5666   -1.6008    0.0000 C   0  0  0  0  0  0  0  0  0
    0.5666   -0.7758    0.0000 C   0  0  0  0  0  0  0  0  0
    1.2811   -0.3633    0.0000 C   0  0  0  0  0  0  0  0  0
    1.9956   -0.7758    0.0000 C   0  0  0  0  0  0  0  0  0
    2.7100   -0.3633    0.0000 C   0  0  0  0  0  0  0  0  0
    2.7100    0.4617    0.0000 O   0  0  0  0  0  0  0  0  0
    3.4245    0.8742    0.0000 C   0  0  0  0  0  0  0  0  0
    3.4245    1.6992    0.0000 C   0  0  0  0  0  0  0  0  0
    4.1390    2.1117    0.0000 N   0  0  0  0  0  0  0  0  0
    4.1390    2.9367    0.0000 C   0  0  0  0  0  0  0  0  0
    4.8535    3.3492    0.0000 C   0  0  0  0  0  0  0  0  0
    5.5679    2.9367    0.0000 C   0  0  0  0  0  0  0  0  0
    5.5679    2.1117    0.0000 C   0  0  0  0  0  0  0  0  0
    4.8535    1.6992    0.0000 C   0  0  0  0  0  0  0  0  0
    6.2824    3.3492    0.0000 C   0  0  0  0  0  0  0  0  0
    6.9969    2.9367    0.0000 C   0  0  0  0  0  0  0  0  0
    7.7113    3.3492    0.0000 C   0  0  0  0  0  0  0  0  0
    8.4258    2.9367    0.0000 C   0  0  0  0  0  0  0  0  0
    9.1403    3.3492    0.0000 N   0  0  0  0  0  0  0  0  0
    9.8548    2.9367    0.0000 C   0  0  0  0  0  0  0  0  0
   10.5692    3.3492    0.0000 O   0  0  0  0  0  0  0  0  0
    9.8548    2.1117    0.0000 C   0  0  0  0  0  0  0  0  0
    9.1403    1.6992    0.0000 O   0  0  0  0  0  0  0  0  0
    8.4258    2.1117    0.0000 C   0  0  0  0  0  0  0  0  0
    7.7113    1.6992    0.0000 C   0  0  0  0  0  0  0  0  0
    6.9969    2.1117    0.0000 C   0  0  0  0  0  0  0  0  0
    3.4245   -0.7758    0.0000 C   0  0  0  0  0  0  0  0  0
    3.4245   -1.6008    0.0000 C   0  0  0  0  0  0  0  0  0
   -0.1478   -2.0133    0.0000 C   0  0  0  0  0  0  0  0  0
  1  2  1  0  0  0  0
  2  3  4  0  0  0  0
  2 32  4  0  0  0  0
  3  4  4  0  0  0  0
  3  8  4  0  0  0  0
  4  5  4  0  0  0  0
  5  6  4  0  0  0  0
  5 33  1  0  0  0  0
  6  7  4  0  0  0  0
  7  8  4  0  0  0  0
  8  9  4  0  0  0  0
  9 10  1  0  0  0  0
  9 31  4  0  0  0  0
 10 11  1  0  0  0  0
 11 12  1  0  0  0  0
 12 13  1  0  0  0  0
 13 14  1  0  0  0  0
 13 18  1  0  0  0  0
 14 15  1  0  0  0  0
 15 16  1  0  0  0  0
 16 17  1  0  0  0  0
 16 19  1  0  0  0  0
 17 18  1  0  0  0  0
 19 20  1  0  0  0  0
 20 21  4  0  0  0  0
 20 30  4  0  0  0  0
 21 22  4  0  0  0  0
 22 23  1  0  0  0  0
 22 28  4  0  0  0  0
 23 24  1  0  0  0  0
 24 25  2  0  0  0  0
 24 26  1  0  0  0  0
 26 27  1  0  0  0  0
 27 28  1  0  0  0  0
 28 29  4  0  0  0  0
 29 30  4  0  0  0  0
 31 32  4  0  0  0  0
M  END
>  <Name_Molregno>
409176

>  <5-HT1A>
7.7

>  <5-HT1B>
6.1

>  <5-HT1D>
7.1

$$$$
409178
  Marvin  02231216192D 0   1.00000     0.00000     0

 33 37  0  0  0  0  0  0  0  0999 V2000
    2.7100   -2.8383    0.0000 Cl  0  0  0  0  0  0  0  0  0
    2.7100   -2.0133    0.0000 C   0  0  0  0  0  0  0  0  0
    1.9956   -1.6008    0.0000 C   0  0  0  0  0  0  0  0  0
    1.2811   -2.0133    0.0000 N   0  0  0  0  0  0  0  0  0
    0.5666   -1.6008    0.0000 C   0  0  0  0  0  0  0  0  0
    0.5666   -0.7758    0.0000 C   0  0  0  0  0  0  0  0  0
    1.2811   -0.3633    0.0000 C   0  0  0  0  0  0  0  0  0
    1.9956   -0.7758    0.0000 C   0  0  0  0  0  0  0  0  0
    2.7100   -0.3633    0.0000 C   0  0  0  0  0  0  0  0  0
    2.7100    0.4617    0.0000 O   0  0  0  0  0  0  0  0  0
    3.4245    0.8742    0.0000 C   0  0  0  0  0  0  0  0  0
    3.4245    1.6992    0.0000 C   0  0  0  0  0  0  0  0  0
    4.1390    2.1117    0.0000 N   0  0  0  0  0  0  0  0  0
    4.1390    2.9367    0.0000 C   0  0  0  0  0  0  0  0  0
    4.8535    3.3492    0.0000 C   0  0  0  0  0  0  0  0  0
    5.5679    2.9367    0.0000 C   0  0  0  0  0  0  0  0  0
    5.5679    2.1117    0.0000 C   0  0  0  0  0  0  0  0  0
    4.8535    1.6992    0.0000 C   0  0  0  0  0  0  0  0  0
    6.2824    3.3492    0.0000 C   0  0  0  0  0  0  0  0  0
    6.9969    2.9367    0.0000 C   0  0  0  0  0  0  0  0  0
    7.7113    3.3492    0.0000 C   0  0  0  0  0  0  0  0  0
    8.4258    2.9367    0.0000 C   0  0  0  0  0  0  0  0  0
    9.1403    3.3492    0.0000 N   0  0  0  0  0  0  0  0  0
    9.8548    2.9367    0.0000 C   0  0  0  0  0  0  0  0  0
   10.5692    3.3492    0.0000 O   0  0  0  0  0  0  0  0  0
    9.8548    2.1117    0.0000 C   0  0  0  0  0  0  0  0  0
    9.1403    1.6992    0.0000 O   0  0  0  0  0  0  0  0  0
    8.4258    2.1117    0.0000 C   0  0  0  0  0  0  0  0  0
    7.7113    1.6992    0.0000 C   0  0  0  0  0  0  0  0  0
    6.9969    2.1117    0.0000 C   0  0  0  0  0  0  0  0  0
    3.4245   -0.7758    0.0000 C   0  0  0  0  0  0  0  0  0
    3.4245   -1.6008    0.0000 C   0  0  0  0  0  0  0  0  0
   -0.1478   -2.0133    0.0000 C   0  0  0  0  0  0  0  0  0
  1  2  1  0  0  0  0
  2  3  4  0  0  0  0
  2 32  4  0  0  0  0
  3  4  4  0  0  0  0
  3  8  4  0  0  0  0
  4  5  4  0  0  0  0
  5  6  4  0  0  0  0
  5 33  1  0  0  0  0
  6  7  4  0  0  0  0
  7  8  4  0  0  0  0
  8  9  4  0  0  0  0
  9 10  1  0  0  0  0
  9 31  4  0  0  0  0
 10 11  1  0  0  0  0
 11 12  1  0  0  0  0
 12 13  1  0  0  0  0
 13 14  1  0  0  0  0
 13 18  1  0  0  0  0
 14 15  1  0  0  0  0
 15 16  1  0  0  0  0
 16 17  1  0  0  0  0
 16 19  1  0  0  0  0
 17 18  1  0  0  0  0
 19 20  1  0  0  0  0
 20 21  4  0  0  0  0
 20 30  4  0  0  0  0
 21 22  4  0  0  0  0
 22 23  1  0  0  0  0
 22 28  4  0  0  0  0
 23 24  1  0  0  0  0
 24 25  2  0  0  0  0
 24 26  1  0  0  0  0
 26 27  1  0  0  0  0
 27 28  1  0  0  0  0
 28 29  4  0  0  0  0
 29 30  4  0  0  0  0
 31 32  4  0  0  0  0
M  END
>  <Name_Molregno>
409178

>  <5-HT1A>
7.4

>  <5-HT1B>
6.8

>  <5-HT1D>
7.2

$$$$
409180
  Marvin  02231216192D 0   1.00000     0.00000     0

 33 37  0  0  0  0  0  0  0  0999 V2000
   -2.7497    1.2528    0.0000 F   0  0  0  0  0  0  0  0  0
   -2.0352    0.8403    0.0000 C   0  0  0  0  0  0  0  0  0
   -2.0352    0.0153    0.0000 C   0  0  0  0  0  0  0  0  0
   -1.3208   -0.3972    0.0000 C   0  0  0  0  0  0  0  0  0
   -1.3208   -1.2222    0.0000 O   0  0  0  0  0  0  0  0  0
   -2.0352   -1.6347    0.0000 C   0  0  0  0  0  0  0  0  0
   -2.0352   -2.4597    0.0000 C   0  0  0  0  0  0  0  0  0
   -2.7497   -2.8722    0.0000 N   0  0  0  0  0  0  0  0  0
   -2.7497   -3.6972    0.0000 C   0  0  0  0  0  0  0  0  0
   -3.4642   -4.1097    0.0000 C   0  0  0  0  0  0  0  0  0
   -4.1787   -3.6972    0.0000 C   0  0  0  0  0  0  0  0  0
   -4.1787   -2.8722    0.0000 C   0  0  0  0  0  0  0  0  0
   -3.4642   -2.4597    0.0000 C   0  0  0  0  0  0  0  0  0
   -4.8931   -4.1097    0.0000 C   0  0  0  0  0  0  0  0  0
   -5.6076   -3.6972    0.0000 C   0  0  0  0  0  0  0  0  0
   -6.3221   -4.1097    0.0000 C   0  0  0  0  0  0  0  0  0
   -7.0365   -3.6972    0.0000 C   0  0  0  0  0  0  0  0  0
   -7.7510   -4.1097    0.0000 N   0  0  0  0  0  0  0  0  0
   -8.4655   -3.6972    0.0000 C   0  0  0  0  0  0  0  0  0
   -9.1799   -4.1097    0.0000 O   0  0  0  0  0  0  0  0  0
   -8.4655   -2.8722    0.0000 C   0  0  0  0  0  0  0  0  0
   -7.7510   -2.4597    0.0000 O   0  0  0  0  0  0  0  0  0
   -7.0365   -2.8722    0.0000 C   0  0  0  0  0  0  0  0  0
   -6.3221   -2.4597    0.0000 C   0  0  0  0  0  0  0  0  0
   -5.6076   -2.8722    0.0000 C   0  0  0  0  0  0  0  0  0
   -0.6063    0.0153    0.0000 C   0  0  0  0  0  0  0  0  0
   -0.6063    0.8403    0.0000 C   0  0  0  0  0  0  0  0  0
    0.1082    1.2528    0.0000 N   0  0  0  0  0  0  0  0  0
    0.8226    0.8403    0.0000 C   0  0  0  0  0  0  0  0  0
    0.8226    0.0153    0.0000 C   0  0  0  0  0  0  0  0  0
    0.1082   -0.3972    0.0000 C   0  0  0  0  0  0  0  0  0
    1.5371    1.2528    0.0000 C   0  0  0  0  0  0  0  0  0
   -1.3208    1.2528    0.0000 C   0  0  0  0  0  0  0  0  0
  1  2  1  0  0  0  0
  2  3  4  0  0  0  0
  2 33  4  0  0  0  0
  3  4  4  0  0  0  0
  4  5  1  0  0  0  0
  4 26  4  0  0  0  0
  5  6  1  0  0  0  0
  6  7  1  0  0  0  0
  7  8  1  0  0  0  0
  8  9  1  0  0  0  0
  8 13  1  0  0  0  0
  9 10  1  0  0  0  0
 10 11  1  0  0  0  0
 11 12  1  0  0  0  0
 11 14  1  0  0  0  0
 12 13  1  0  0  0  0
 14 15  1  0  0  0  0
 15 16  4  0  0  0  0
 15 25  4  0  0  0  0
 16 17  4  0  0  0  0
 17 18  1  0  0  0  0
 17 23  4  0  0  0  0
 18 19  1  0  0  0  0
 19 20  2  0  0  0  0
 19 21  1  0  0  0  0
 21 22  1  0  0  0  0
 22 23  1  0  0  0  0
 23 24  4  0  0  0  0
 24 25  4  0  0  0  0
 26 27  4  0  0  0  0
 26 31  4  0  0  0  0
 27 28  4  0  0  0  0
 27 33  4  0  0  0  0
 28 29  4  0  0  0  0
 29 30  4  0  0  0  0
 29 32  1  0  0  0  0
 30 31  4  0  0  0  0
M  END
>  <Name_Molregno>
409180

>  <5-HT1A>
9.1

>  <5-HT1B>
6

>  <5-HT1D>
6.4

$$$$
409182
  Marvin  02231216192D 0   1.00000     0.00000     0

 33 37  0  0  0  0  0  0  0  0999 V2000
   -2.7497    1.2528    0.0000 Cl  0  0  0  0  0  0  0  0  0
   -2.0352    0.8403    0.0000 C   0  0  0  0  0  0  0  0  0
   -2.0352    0.0153    0.0000 C   0  0  0  0  0  0  0  0  0
   -1.3208   -0.3972    0.0000 C   0  0  0  0  0  0  0  0  0
   -1.3208   -1.2222    0.0000 O   0  0  0  0  0  0  0  0  0
   -2.0352   -1.6347    0.0000 C   0  0  0  0  0  0  0  0  0
   -2.0352   -2.4597    0.0000 C   0  0  0  0  0  0  0  0  0
   -2.7497   -2.8722    0.0000 N   0  0  0  0  0  0  0  0  0
   -2.7497   -3.6972    0.0000 C   0  0  0  0  0  0  0  0  0
   -3.4642   -4.1097    0.0000 C   0  0  0  0  0  0  0  0  0
   -4.1787   -3.6972    0.0000 C   0  0  0  0  0  0  0  0  0
   -4.1787   -2.8722    0.0000 C   0  0  0  0  0  0  0  0  0
   -3.4642   -2.4597    0.0000 C   0  0  0  0  0  0  0  0  0
   -4.8931   -4.1097    0.0000 C   0  0  0  0  0  0  0  0  0
   -5.6076   -3.6972    0.0000 C   0  0  0  0  0  0  0  0  0
   -6.3221   -4.1097    0.0000 C   0  0  0  0  0  0  0  0  0
   -7.0365   -3.6972    0.0000 C   0  0  0  0  0  0  0  0  0
   -7.7510   -4.1097    0.0000 N   0  0  0  0  0  0  0  0  0
   -8.4655   -3.6972    0.0000 C   0  0  0  0  0  0  0  0  0
   -9.1799   -4.1097    0.0000 O   0  0  0  0  0  0  0  0  0
   -8.4655   -2.8722    0.0000 C   0  0  0  0  0  0  0  0  0
   -7.7510   -2.4597    0.0000 O   0  0  0  0  0  0  0  0  0
   -7.0365   -2.8722    0.0000 C   0  0  0  0  0  0  0  0  0
   -6.3221   -2.4597    0.0000 C   0  0  0  0  0  0  0  0  0
   -5.6076   -2.8722    0.0000 C   0  0  0  0  0  0  0  0  0
   -0.6063    0.0153    0.0000 C   0  0  0  0  0  0  0  0  0
   -0.6063    0.8403    0.0000 C   0  0  0  0  0  0  0  0  0
    0.1082    1.2528    0.0000 N   0  0  0  0  0  0  0  0  0
    0.8226    0.8403    0.0000 C   0  0  0  0  0  0  0  0  0
    0.8226    0.0153    0.0000 C   0  0  0  0  0  0  0  0  0
    0.1082   -0.3972    0.0000 C   0  0  0  0  0  0  0  0  0
    1.5371    1.2528    0.0000 C   0  0  0  0  0  0  0  0  0
   -1.3208    1.2528    0.0000 C   0  0  0  0  0  0  0  0  0
  1  2  1  0  0  0  0
  2  3  4  0  0  0  0
  2 33  4  0  0  0  0
  3  4  4  0  0  0  0
  4  5  1  0  0  0  0
  4 26  4  0  0  0  0
  5  6  1  0  0  0  0
  6  7  1  0  0  0  0
  7  8  1  0  0  0  0
  8  9  1  0  0  0  0
  8 13  1  0  0  0  0
  9 10  1  0  0  0  0
 10 11  1  0  0  0  0
 11 12  1  0  0  0  0
 11 14  1  0  0  0  0
 12 13  1  0  0  0  0
 14 15  1  0  0  0  0
 15 16  4  0  0  0  0
 15 25  4  0  0  0  0
 16 17  4  0  0  0  0
 17 18  1  0  0  0  0
 17 23  4  0  0  0  0
 18 19  1  0  0  0  0
 19 20  2  0  0  0  0
 19 21  1  0  0  0  0
 21 22  1  0  0  0  0
 22 23  1  0  0  0  0
 23 24  4  0  0  0  0
 24 25  4  0  0  0  0
 26 27  4  0  0  0  0
 26 31  4  0  0  0  0
 27 28  4  0  0  0  0
 27 33  4  0  0  0  0
 28 29  4  0  0  0  0
 29 30  4  0  0  0  0
 29 32  1  0  0  0  0
 30 31  4  0  0  0  0
M  END
>  <Name_Molregno>
409182

>  <5-HT1A>
8.8

>  <5-HT1B>
5.9

>  <5-HT1D>
6.1

$$$$
409183
  Marvin  02231216192D 0   1.00000     0.00000     0

 34 38  0  0  0  0  0  0  0  0999 V2000
   -6.7988   -5.4062    0.0000 O   0  0  0  0  0  0  0  0  0
   -7.5133   -5.8187    0.0000 C   0  0  0  0  0  0  0  0  0
   -8.2277   -5.4062    0.0000 C   0  0  0  0  0  0  0  0  0
   -8.9422   -5.8187    0.0000 O   0  0  0  0  0  0  0  0  0
   -8.2277   -4.5812    0.0000 N   0  0  0  0  0  0  0  0  0
   -7.5133   -4.1687    0.0000 C   0  0  0  0  0  0  0  0  0
   -7.5133   -3.3437    0.0000 C   0  0  0  0  0  0  0  0  0
   -6.7988   -2.9312    0.0000 C   0  0  0  0  0  0  0  0  0
   -6.0843   -3.3437    0.0000 C   0  0  0  0  0  0  0  0  0
   -6.0843   -4.1687    0.0000 C   0  0  0  0  0  0  0  0  0
   -6.7988   -4.5812    0.0000 C   0  0  0  0  0  0  0  0  0
   -6.7988   -2.1062    0.0000 C   0  0  0  0  0  0  0  0  0
   -6.0843   -1.6937    0.0000 C   0  0  0  0  0  0  0  0  0
   -6.0843   -0.8687    0.0000 C   0  0  0  0  0  0  0  0  0
   -5.3699   -0.4562    0.0000 C   0  0  0  0  0  0  0  0  0
   -4.6554   -0.8687    0.0000 N   0  0  0  0  0  0  0  0  0
   -4.6554   -1.6937    0.0000 C   0  0  0  0  0  0  0  0  0
   -5.3699   -2.1062    0.0000 C   0  0  0  0  0  0  0  0  0
   -3.9409   -0.4562    0.0000 C   0  0  0  0  0  0  0  0  0
   -3.9409    0.3688    0.0000 C   0  0  0  0  0  0  0  0  0
   -3.2264    0.7813    0.0000 O   0  0  0  0  0  0  0  0  0
   -3.2264    1.6063    0.0000 C   0  0  0  0  0  0  0  0  0
   -3.9409    2.0188    0.0000 C   0  0  0  0  0  0  0  0  0
   -3.9409    2.8438    0.0000 C   0  0  0  0  0  0  0  0  0
   -3.2264    3.2563    0.0000 C   0  0  0  0  0  0  0  0  0
   -2.5120    2.8438    0.0000 C   0  0  0  0  0  0  0  0  0
   -1.7975    3.2563    0.0000 N   0  0  0  0  0  0  0  0  0
   -1.0830    2.8438    0.0000 C   0  0  0  0  0  0  0  0  0
   -1.0830    2.0188    0.0000 C   0  0  0  0  0  0  0  0  0
   -1.7975    1.6063    0.0000 C   0  0  0  0  0  0  0  0  0
   -2.5120    2.0188    0.0000 C   0  0  0  0  0  0  0  0  0
   -0.3686    3.2563    0.0000 C   0  0  0  0  0  0  0  0  0
   -4.6554    3.2563    0.0000 C   0  0  0  0  0  0  0  0  0
   -5.3699    3.6688    0.0000 N   0  0  0  0  0  0  0  0  0
  1  2  1  0  0  0  0
  1 11  1  0  0  0  0
  2  3  1  0  0  0  0
  3  4  2  0  0  0  0
  3  5  1  0  0  0  0
  5  6  1  0  0  0  0
  6  7  4  0  0  0  0
  6 11  4  0  0  0  0
  7  8  4  0  0  0  0
  8  9  4  0  0  0  0
  8 12  1  0  0  0  0
  9 10  4  0  0  0  0
 10 11  4  0  0  0  0
 12 13  1  0  0  0  0
 13 14  1  0  0  0  0
 13 18  1  0  0  0  0
 14 15  1  0  0  0  0
 15 16  1  0  0  0  0
 16 17  1  0  0  0  0
 16 19  1  0  0  0  0
 17 18  1  0  0  0  0
 19 20  1  0  0  0  0
 20 21  1  0  0  0  0
 21 22  1  0  0  0  0
 22 23  4  0  0  0  0
 22 31  4  0  0  0  0
 23 24  4  0  0  0  0
 24 25  4  0  0  0  0
 24 33  1  0  0  0  0
 25 26  4  0  0  0  0
 26 27  4  0  0  0  0
 26 31  4  0  0  0  0
 27 28  4  0  0  0  0
 28 29  4  0  0  0  0
 28 32  1  0  0  0  0
 29 30  4  0  0  0  0
 30 31  4  0  0  0  0
 33 34  3  0  0  0  0
M  END
>  <Name_Molregno>
409183

>  <5-HT1A>
7.7

>  <5-HT1B>
6

>  <5-HT1D>
6.6

$$$$
409188
  Marvin  02231216192D 0   1.00000     0.00000     0

 33 37  0  0  0  0  0  0  0  0999 V2000
   -3.0299   -0.3999    0.0000 F   0  0  0  0  0  0  0  0  0
   -3.7443   -0.8124    0.0000 C   0  0  0  0  0  0  0  0  0
   -3.7443   -1.6374    0.0000 C   0  0  0  0  0  0  0  0  0
   -4.4588   -2.0499    0.0000 C   0  0  0  0  0  0  0  0  0
   -5.1733   -1.6374    0.0000 C   0  0  0  0  0  0  0  0  0
   -5.8877   -2.0499    0.0000 N   0  0  0  0  0  0  0  0  0
   -6.6022   -1.6374    0.0000 C   0  0  0  0  0  0  0  0  0
   -6.6022   -0.8124    0.0000 C   0  0  0  0  0  0  0  0  0
   -5.8877   -0.3999    0.0000 C   0  0  0  0  0  0  0  0  0
   -5.1733   -0.8124    0.0000 C   0  0  0  0  0  0  0  0  0
   -4.4588   -0.3999    0.0000 C   0  0  0  0  0  0  0  0  0
   -4.4588    0.4251    0.0000 O   0  0  0  0  0  0  0  0  0
   -3.7443    0.8376    0.0000 C   0  0  0  0  0  0  0  0  0
   -3.7443    1.6626    0.0000 C   0  0  0  0  0  0  0  0  0
   -3.0299    2.0751    0.0000 N   0  0  0  0  0  0  0  0  0
   -3.0299    2.9001    0.0000 C   0  0  0  0  0  0  0  0  0
   -2.3154    3.3126    0.0000 C   0  0  0  0  0  0  0  0  0
   -1.6009    2.9001    0.0000 C   0  0  0  0  0  0  0  0  0
   -1.6009    2.0751    0.0000 C   0  0  0  0  0  0  0  0  0
   -2.3154    1.6626    0.0000 C   0  0  0  0  0  0  0  0  0
   -0.8864    3.3126    0.0000 C   0  0  0  0  0  0  0  0  0
   -0.1720    2.9001    0.0000 C   0  0  0  0  0  0  0  0  0
    0.5425    3.3126    0.0000 C   0  0  0  0  0  0  0  0  0
    1.2570    2.9001    0.0000 C   0  0  0  0  0  0  0  0  0
    1.9714    3.3126    0.0000 N   0  0  0  0  0  0  0  0  0
    2.6859    2.9001    0.0000 C   0  0  0  0  0  0  0  0  0
    3.4004    3.3126    0.0000 O   0  0  0  0  0  0  0  0  0
    2.6859    2.0751    0.0000 C   0  0  0  0  0  0  0  0  0
    1.9714    1.6626    0.0000 O   0  0  0  0  0  0  0  0  0
    1.2570    2.0751    0.0000 C   0  0  0  0  0  0  0  0  0
    0.5425    1.6626    0.0000 C   0  0  0  0  0  0  0  0  0
   -0.1720    2.0751    0.0000 C   0  0  0  0  0  0  0  0  0
   -7.3167   -2.0499    0.0000 C   0  0  0  0  0  0  0  0  0
  1  2  1  0  0  0  0
  2  3  4  0  0  0  0
  2 11  4  0  0  0  0
  3  4  4  0  0  0  0
  4  5  4  0  0  0  0
  5  6  4  0  0  0  0
  5 10  4  0  0  0  0
  6  7  4  0  0  0  0
  7  8  4  0  0  0  0
  7 33  1  0  0  0  0
  8  9  4  0  0  0  0
  9 10  4  0  0  0  0
 10 11  4  0  0  0  0
 11 12  1  0  0  0  0
 12 13  1  0  0  0  0
 13 14  1  0  0  0  0
 14 15  1  0  0  0  0
 15 16  1  0  0  0  0
 15 20  1  0  0  0  0
 16 17  1  0  0  0  0
 17 18  1  0  0  0  0
 18 19  1  0  0  0  0
 18 21  1  0  0  0  0
 19 20  1  0  0  0  0
 21 22  1  0  0  0  0
 22 23  4  0  0  0  0
 22 32  4  0  0  0  0
 23 24  4  0  0  0  0
 24 25  1  0  0  0  0
 24 30  4  0  0  0  0
 25 26  1  0  0  0  0
 26 27  2  0  0  0  0
 26 28  1  0  0  0  0
 28 29  1  0  0  0  0
 29 30  1  0  0  0  0
 30 31  4  0  0  0  0
 31 32  4  0  0  0  0
M  END
>  <Name_Molregno>
409188

>  <5-HT1A>
7.3

>  <5-HT1B>
7.5

>  <5-HT1D>
8.6

$$$$
409189
  Marvin  02231216192D 0   1.00000     0.00000     0

 33 37  0  0  0  0  0  0  0  0999 V2000
    2.8418   -1.8498    0.0000 F   0  0  0  0  0  0  0  0  0
    2.1273   -2.2623    0.0000 C   0  0  0  0  0  0  0  0  0
    2.1273   -3.0873    0.0000 C   0  0  0  0  0  0  0  0  0
    2.8418   -3.4998    0.0000 N   0  0  0  0  0  0  0  0  0
    2.8418   -4.3248    0.0000 C   0  0  0  0  0  0  0  0  0
    3.5562   -4.7373    0.0000 O   0  0  0  0  0  0  0  0  0
    2.1273   -4.7373    0.0000 C   0  0  0  0  0  0  0  0  0
    1.4128   -4.3248    0.0000 O   0  0  0  0  0  0  0  0  0
    1.4128   -3.4998    0.0000 C   0  0  0  0  0  0  0  0  0
    0.6984   -3.0873    0.0000 C   0  0  0  0  0  0  0  0  0
    0.6984   -2.2623    0.0000 C   0  0  0  0  0  0  0  0  0
    1.4128   -1.8498    0.0000 C   0  0  0  0  0  0  0  0  0
    1.4128   -1.0248    0.0000 C   0  0  0  0  0  0  0  0  0
    2.1273   -0.6123    0.0000 C   0  0  0  0  0  0  0  0  0
    2.1273    0.2127    0.0000 C   0  0  0  0  0  0  0  0  0
    2.8418    0.6252    0.0000 C   0  0  0  0  0  0  0  0  0
    3.5562    0.2127    0.0000 N   0  0  0  0  0  0  0  0  0
    3.5562   -0.6123    0.0000 C   0  0  0  0  0  0  0  0  0
    2.8418   -1.0248    0.0000 C   0  0  0  0  0  0  0  0  0
    4.2707    0.6252    0.0000 C   0  0  0  0  0  0  0  0  0
    4.2707    1.4502    0.0000 C   0  0  0  0  0  0  0  0  0
    4.9852    1.8627    0.0000 O   0  0  0  0  0  0  0  0  0
    4.9852    2.6877    0.0000 C   0  0  0  0  0  0  0  0  0
    5.6997    3.1002    0.0000 C   0  0  0  0  0  0  0  0  0
    5.6997    3.9252    0.0000 C   0  0  0  0  0  0  0  0  0
    6.4141    4.3377    0.0000 N   0  0  0  0  0  0  0  0  0
    7.1286    3.9252    0.0000 C   0  0  0  0  0  0  0  0  0
    7.1286    3.1002    0.0000 C   0  0  0  0  0  0  0  0  0
    6.4141    2.6877    0.0000 C   0  0  0  0  0  0  0  0  0
    7.8431    4.3377    0.0000 C   0  0  0  0  0  0  0  0  0
    4.9852    4.3377    0.0000 C   0  0  0  0  0  0  0  0  0
    4.2707    3.9252    0.0000 C   0  0  0  0  0  0  0  0  0
    4.2707    3.1002    0.0000 C   0  0  0  0  0  0  0  0  0
  1  2  1  0  0  0  0
  2  3  4  0  0  0  0
  2 12  4  0  0  0  0
  3  4  1  0  0  0  0
  3  9  4  0  0  0  0
  4  5  1  0  0  0  0
  5  6  2  0  0  0  0
  5  7  1  0  0  0  0
  7  8  1  0  0  0  0
  8  9  1  0  0  0  0
  9 10  4  0  0  0  0
 10 11  4  0  0  0  0
 11 12  4  0  0  0  0
 12 13  1  0  0  0  0
 13 14  1  0  0  0  0
 14 15  1  0  0  0  0
 14 19  1  0  0  0  0
 15 16  1  0  0  0  0
 16 17  1  0  0  0  0
 17 18  1  0  0  0  0
 17 20  1  0  0  0  0
 18 19  1  0  0  0  0
 20 21  1  0  0  0  0
 21 22  1  0  0  0  0
 22 23  1  0  0  0  0
 23 24  4  0  0  0  0
 23 33  4  0  0  0  0
 24 25  4  0  0  0  0
 24 29  4  0  0  0  0
 25 26  4  0  0  0  0
 25 31  4  0  0  0  0
 26 27  4  0  0  0  0
 27 28  4  0  0  0  0
 27 30  1  0  0  0  0
 28 29  4  0  0  0  0
 31 32  4  0  0  0  0
 32 33  4  0  0  0  0
M  END
>  <Name_Molregno>
409189

>  <5-HT1A>
8.6

>  <5-HT1B>
8.6

>  <5-HT1D>
9.1

$$$$
409190
  Marvin  02231216192D 0   1.00000     0.00000     0

 33 37  0  0  0  0  0  0  0  0999 V2000
   -4.4331   -2.0531    0.0000 F   0  0  0  0  0  0  0  0  0
   -5.1476   -2.4656    0.0000 C   0  0  0  0  0  0  0  0  0
   -5.1476   -3.2906    0.0000 C   0  0  0  0  0  0  0  0  0
   -5.8620   -3.7031    0.0000 C   0  0  0  0  0  0  0  0  0
   -5.8620   -4.5281    0.0000 O   0  0  0  0  0  0  0  0  0
   -6.5765   -4.9406    0.0000 C   0  0  0  0  0  0  0  0  0
   -7.2910   -4.5281    0.0000 C   0  0  0  0  0  0  0  0  0
   -8.0055   -4.9406    0.0000 O   0  0  0  0  0  0  0  0  0
   -7.2910   -3.7031    0.0000 N   0  0  0  0  0  0  0  0  0
   -6.5765   -3.2906    0.0000 C   0  0  0  0  0  0  0  0  0
   -6.5765   -2.4656    0.0000 C   0  0  0  0  0  0  0  0  0
   -5.8620   -2.0531    0.0000 C   0  0  0  0  0  0  0  0  0
   -5.8620   -1.2281    0.0000 C   0  0  0  0  0  0  0  0  0
   -5.1476   -0.8156    0.0000 C   0  0  0  0  0  0  0  0  0
   -5.1476    0.0094    0.0000 C   0  0  0  0  0  0  0  0  0
   -4.4331    0.4219    0.0000 C   0  0  0  0  0  0  0  0  0
   -3.7186    0.0094    0.0000 N   0  0  0  0  0  0  0  0  0
   -3.7186   -0.8156    0.0000 C   0  0  0  0  0  0  0  0  0
   -4.4331   -1.2281    0.0000 C   0  0  0  0  0  0  0  0  0
   -3.0042    0.4219    0.0000 C   0  0  0  0  0  0  0  0  0
   -3.0042    1.2469    0.0000 C   0  0  0  0  0  0  0  0  0
   -2.2897    1.6594    0.0000 O   0  0  0  0  0  0  0  0  0
   -2.2897    2.4844    0.0000 C   0  0  0  0  0  0  0  0  0
   -1.5752    2.8969    0.0000 C   0  0  0  0  0  0  0  0  0
   -1.5752    3.7219    0.0000 C   0  0  0  0  0  0  0  0  0
   -0.8607    4.1344    0.0000 N   0  0  0  0  0  0  0  0  0
   -0.1463    3.7219    0.0000 C   0  0  0  0  0  0  0  0  0
   -0.1463    2.8969    0.0000 C   0  0  0  0  0  0  0  0  0
   -0.8607    2.4844    0.0000 C   0  0  0  0  0  0  0  0  0
    0.5682    4.1344    0.0000 C   0  0  0  0  0  0  0  0  0
   -2.2897    4.1344    0.0000 C   0  0  0  0  0  0  0  0  0
   -3.0042    3.7219    0.0000 C   0  0  0  0  0  0  0  0  0
   -3.0042    2.8969    0.0000 C   0  0  0  0  0  0  0  0  0
  1  2  1  0  0  0  0
  2  3  4  0  0  0  0
  2 12  4  0  0  0  0
  3  4  4  0  0  0  0
  4  5  1  0  0  0  0
  4 10  4  0  0  0  0
  5  6  1  0  0  0  0
  6  7  1  0  0  0  0
  7  8  2  0  0  0  0
  7  9  1  0  0  0  0
  9 10  1  0  0  0  0
 10 11  4  0  0  0  0
 11 12  4  0  0  0  0
 12 13  1  0  0  0  0
 13 14  1  0  0  0  0
 14 15  1  0  0  0  0
 14 19  1  0  0  0  0
 15 16  1  0  0  0  0
 16 17  1  0  0  0  0
 17 18  1  0  0  0  0
 17 20  1  0  0  0  0
 18 19  1  0  0  0  0
 20 21  1  0  0  0  0
 21 22  1  0  0  0  0
 22 23  1  0  0  0  0
 23 24  4  0  0  0  0
 23 33  4  0  0  0  0
 24 25  4  0  0  0  0
 24 29  4  0  0  0  0
 25 26  4  0  0  0  0
 25 31  4  0  0  0  0
 26 27  4  0  0  0  0
 27 28  4  0  0  0  0
 27 30  1  0  0  0  0
 28 29  4  0  0  0  0
 31 32  4  0  0  0  0
 32 33  4  0  0  0  0
M  END
>  <Name_Molregno>
409190

>  <5-HT1A>
9.3

>  <5-HT1B>
7.7

>  <5-HT1D>
8.5

$$$$
409192
  Marvin  02231216192D 0   1.00000     0.00000     0

 33 37  0  0  0  0  0  0  0  0999 V2000
   -6.7769   -4.8064    0.0000 F   0  0  0  0  0  0  0  0  0
   -6.0624   -4.3939    0.0000 C   0  0  0  0  0  0  0  0  0
   -6.0624   -3.5689    0.0000 C   0  0  0  0  0  0  0  0  0
   -5.3479   -3.1564    0.0000 C   0  0  0  0  0  0  0  0  0
   -4.6334   -3.5689    0.0000 C   0  0  0  0  0  0  0  0  0
   -4.6334   -4.3939    0.0000 C   0  0  0  0  0  0  0  0  0
   -3.9190   -4.8064    0.0000 N   0  0  0  0  0  0  0  0  0
   -3.9190   -5.6314    0.0000 C   0  0  0  0  0  0  0  0  0
   -3.2045   -6.0439    0.0000 O   0  0  0  0  0  0  0  0  0
   -4.6334   -6.0439    0.0000 C   0  0  0  0  0  0  0  0  0
   -5.3479   -5.6314    0.0000 O   0  0  0  0  0  0  0  0  0
   -5.3479   -4.8064    0.0000 C   0  0  0  0  0  0  0  0  0
   -5.3479   -2.3314    0.0000 C   0  0  0  0  0  0  0  0  0
   -4.6334   -1.9189    0.0000 C   0  0  0  0  0  0  0  0  0
   -4.6334   -1.0939    0.0000 C   0  0  0  0  0  0  0  0  0
   -3.9190   -0.6814    0.0000 C   0  0  0  0  0  0  0  0  0
   -3.2045   -1.0939    0.0000 N   0  0  0  0  0  0  0  0  0
   -3.2045   -1.9189    0.0000 C   0  0  0  0  0  0  0  0  0
   -3.9190   -2.3314    0.0000 C   0  0  0  0  0  0  0  0  0
   -2.4900   -0.6814    0.0000 C   0  0  0  0  0  0  0  0  0
   -2.4900    0.1436    0.0000 C   0  0  0  0  0  0  0  0  0
   -1.7756    0.5561    0.0000 O   0  0  0  0  0  0  0  0  0
   -1.7756    1.3811    0.0000 C   0  0  0  0  0  0  0  0  0
   -1.0611    1.7936    0.0000 C   0  0  0  0  0  0  0  0  0
   -1.0611    2.6186    0.0000 C   0  0  0  0  0  0  0  0  0
   -0.3466    3.0311    0.0000 N   0  0  0  0  0  0  0  0  0
    0.3678    2.6186    0.0000 C   0  0  0  0  0  0  0  0  0
    0.3678    1.7936    0.0000 C   0  0  0  0  0  0  0  0  0
   -0.3466    1.3811    0.0000 C   0  0  0  0  0  0  0  0  0
    1.0823    3.0311    0.0000 C   0  0  0  0  0  0  0  0  0
   -1.7756    3.0311    0.0000 C   0  0  0  0  0  0  0  0  0
   -2.4900    2.6186    0.0000 C   0  0  0  0  0  0  0  0  0
   -2.4900    1.7936    0.0000 C   0  0  0  0  0  0  0  0  0
  1  2  1  0  0  0  0
  2  3  4  0  0  0  0
  2 12  4  0  0  0  0
  3  4  4  0  0  0  0
  4  5  4  0  0  0  0
  4 13  1  0  0  0  0
  5  6  4  0  0  0  0
  6  7  1  0  0  0  0
  6 12  4  0  0  0  0
  7  8  1  0  0  0  0
  8  9  2  0  0  0  0
  8 10  1  0  0  0  0
 10 11  1  0  0  0  0
 11 12  1  0  0  0  0
 13 14  1  0  0  0  0
 14 15  1  0  0  0  0
 14 19  1  0  0  0  0
 15 16  1  0  0  0  0
 16 17  1  0  0  0  0
 17 18  1  0  0  0  0
 17 20  1  0  0  0  0
 18 19  1  0  0  0  0
 20 21  1  0  0  0  0
 21 22  1  0  0  0  0
 22 23  1  0  0  0  0
 23 24  4  0  0  0  0
 23 33  4  0  0  0  0
 24 25  4  0  0  0  0
 24 29  4  0  0  0  0
 25 26  4  0  0  0  0
 25 31  4  0  0  0  0
 26 27  4  0  0  0  0
 27 28  4  0  0  0  0
 27 30  1  0  0  0  0
 28 29  4  0  0  0  0
 31 32  4  0  0  0  0
 32 33  4  0  0  0  0
M  END
>  <Name_Molregno>
409192

>  <5-HT1A>
8.3

>  <5-HT1B>
9.1

>  <5-HT1D>
9.4

$$$$
409193
  Marvin  02231216192D 0   1.00000     0.00000     0

 34 38  0  0  0  0  0  0  0  0999 V2000
   -4.5528   -1.8767    0.0000 F   0  0  0  0  0  0  0  0  0
   -5.2673   -2.2892    0.0000 C   0  0  0  0  0  0  0  0  0
   -5.2673   -3.1142    0.0000 C   0  0  0  0  0  0  0  0  0
   -4.5528   -3.5267    0.0000 N   0  0  0  0  0  0  0  0  0
   -4.5528   -4.3517    0.0000 C   0  0  0  0  0  0  0  0  0
   -3.8384   -4.7642    0.0000 O   0  0  0  0  0  0  0  0  0
   -5.2673   -4.7642    0.0000 C   0  0  0  0  0  0  0  0  0
   -5.9818   -4.3517    0.0000 O   0  0  0  0  0  0  0  0  0
   -5.9818   -3.5267    0.0000 C   0  0  0  0  0  0  0  0  0
   -6.6962   -3.1142    0.0000 C   0  0  0  0  0  0  0  0  0
   -6.6962   -2.2892    0.0000 C   0  0  0  0  0  0  0  0  0
   -5.9818   -1.8767    0.0000 C   0  0  0  0  0  0  0  0  0
   -5.9818   -1.0517    0.0000 C   0  0  0  0  0  0  0  0  0
   -5.2673   -0.6392    0.0000 C   0  0  0  0  0  0  0  0  0
   -5.2673    0.1858    0.0000 C   0  0  0  0  0  0  0  0  0
   -4.5528    0.5983    0.0000 C   0  0  0  0  0  0  0  0  0
   -3.8384    0.1858    0.0000 N   0  0  0  0  0  0  0  0  0
   -3.8384   -0.6392    0.0000 C   0  0  0  0  0  0  0  0  0
   -4.5528   -1.0517    0.0000 C   0  0  0  0  0  0  0  0  0
   -3.1239    0.5983    0.0000 C   0  0  0  0  0  0  0  0  0
   -3.1239    1.4233    0.0000 C   0  0  0  0  0  0  0  0  0
   -2.4094    1.8358    0.0000 O   0  0  0  0  0  0  0  0  0
   -2.4094    2.6608    0.0000 C   0  0  0  0  0  0  0  0  0
   -3.1239    3.0733    0.0000 C   0  0  0  0  0  0  0  0  0
   -3.1239    3.8983    0.0000 C   0  0  0  0  0  0  0  0  0
   -3.8384    4.3108    0.0000 F   0  0  0  0  0  0  0  0  0
   -2.4094    4.3108    0.0000 C   0  0  0  0  0  0  0  0  0
   -1.6949    3.8983    0.0000 C   0  0  0  0  0  0  0  0  0
   -0.9805    4.3108    0.0000 N   0  0  0  0  0  0  0  0  0
   -0.2660    3.8983    0.0000 C   0  0  0  0  0  0  0  0  0
   -0.2660    3.0733    0.0000 C   0  0  0  0  0  0  0  0  0
   -0.9805    2.6608    0.0000 C   0  0  0  0  0  0  0  0  0
   -1.6949    3.0733    0.0000 C   0  0  0  0  0  0  0  0  0
    0.4485    4.3108    0.0000 C   0  0  0  0  0  0  0  0  0
  1  2  1  0  0  0  0
  2  3  4  0  0  0  0
  2 12  4  0  0  0  0
  3  4  1  0  0  0  0
  3  9  4  0  0  0  0
  4  5  1  0  0  0  0
  5  6  2  0  0  0  0
  5  7  1  0  0  0  0
  7  8  1  0  0  0  0
  8  9  1  0  0  0  0
  9 10  4  0  0  0  0
 10 11  4  0  0  0  0
 11 12  4  0  0  0  0
 12 13  1  0  0  0  0
 13 14  1  0  0  0  0
 14 15  1  0  0  0  0
 14 19  1  0  0  0  0
 15 16  1  0  0  0  0
 16 17  1  0  0  0  0
 17 18  1  0  0  0  0
 17 20  1  0  0  0  0
 18 19  1  0  0  0  0
 20 21  1  0  0  0  0
 21 22  1  0  0  0  0
 22 23  1  0  0  0  0
 23 24  4  0  0  0  0
 23 33  4  0  0  0  0
 24 25  4  0  0  0  0
 25 26  1  0  0  0  0
 25 27  4  0  0  0  0
 27 28  4  0  0  0  0
 28 29  4  0  0  0  0
 28 33  4  0  0  0  0
 29 30  4  0  0  0  0
 30 31  4  0  0  0  0
 30 34  1  0  0  0  0
 31 32  4  0  0  0  0
 32 33  4  0  0  0  0
M  END
>  <Name_Molregno>
409193

>  <5-HT1A>
8.8

>  <5-HT1B>
6.4

>  <5-HT1D>
7

>  <5-HT2A>
5.7

>  <5-HT2C>
5.6

>  <5-HT6>
5

>  <5-HT7>
6.9

>  <DOPAMINE D2>
5.9

>  <DOPAMINE D3>
6.1

$$$$
409194
  Marvin  02231216192D 0   1.00000     0.00000     0

 34 38  0  0  0  0  0  0  0  0999 V2000
   -2.9576    0.9914    0.0000 Cl  0  0  0  0  0  0  0  0  0
   -2.2431    0.5789    0.0000 C   0  0  0  0  0  0  0  0  0
   -2.2431   -0.2461    0.0000 C   0  0  0  0  0  0  0  0  0
   -1.5287   -0.6586    0.0000 C   0  0  0  0  0  0  0  0  0
   -1.5287   -1.4836    0.0000 O   0  0  0  0  0  0  0  0  0
   -2.2431   -1.8961    0.0000 C   0  0  0  0  0  0  0  0  0
   -2.2431   -2.7211    0.0000 C   0  0  0  0  0  0  0  0  0
   -2.9576   -3.1336    0.0000 N   0  0  0  0  0  0  0  0  0
   -2.9576   -3.9586    0.0000 C   0  0  0  0  0  0  0  0  0
   -3.6721   -4.3711    0.0000 C   0  0  0  0  0  0  0  0  0
   -4.3866   -3.9586    0.0000 C   0  0  0  0  0  0  0  0  0
   -4.3866   -3.1336    0.0000 C   0  0  0  0  0  0  0  0  0
   -3.6721   -2.7211    0.0000 C   0  0  0  0  0  0  0  0  0
   -5.1010   -4.3711    0.0000 C   0  0  0  0  0  0  0  0  0
   -5.8155   -3.9586    0.0000 C   0  0  0  0  0  0  0  0  0
   -6.5300   -4.3711    0.0000 C   0  0  0  0  0  0  0  0  0
   -7.2444   -3.9586    0.0000 C   0  0  0  0  0  0  0  0  0
   -7.2444   -3.1336    0.0000 C   0  0  0  0  0  0  0  0  0
   -7.9589   -2.7211    0.0000 O   0  0  0  0  0  0  0  0  0
   -7.9589   -1.8961    0.0000 C   0  0  0  0  0  0  0  0  0
   -7.2444   -1.4836    0.0000 C   0  0  0  0  0  0  0  0  0
   -7.2444   -0.6586    0.0000 O   0  0  0  0  0  0  0  0  0
   -6.5300   -1.8961    0.0000 N   0  0  0  0  0  0  0  0  0
   -6.5300   -2.7211    0.0000 C   0  0  0  0  0  0  0  0  0
   -5.8155   -3.1336    0.0000 C   0  0  0  0  0  0  0  0  0
   -5.1010   -2.7211    0.0000 F   0  0  0  0  0  0  0  0  0
   -0.8142   -0.2461    0.0000 C   0  0  0  0  0  0  0  0  0
   -0.8142    0.5789    0.0000 C   0  0  0  0  0  0  0  0  0
   -0.0997    0.9914    0.0000 N   0  0  0  0  0  0  0  0  0
    0.6147    0.5789    0.0000 C   0  0  0  0  0  0  0  0  0
    0.6147   -0.2461    0.0000 C   0  0  0  0  0  0  0  0  0
   -0.0997   -0.6586    0.0000 C   0  0  0  0  0  0  0  0  0
    1.3292    0.9914    0.0000 C   0  0  0  0  0  0  0  0  0
   -1.5287    0.9914    0.0000 C   0  0  0  0  0  0  0  0  0
  1  2  1  0  0  0  0
  2  3  4  0  0  0  0
  2 34  4  0  0  0  0
  3  4  4  0  0  0  0
  4  5  1  0  0  0  0
  4 27  4  0  0  0  0
  5  6  1  0  0  0  0
  6  7  1  0  0  0  0
  7  8  1  0  0  0  0
  8  9  1  0  0  0  0
  8 13  1  0  0  0  0
  9 10  1  0  0  0  0
 10 11  1  0  0  0  0
 11 12  1  0  0  0  0
 11 14  1  0  0  0  0
 12 13  1  0  0  0  0
 14 15  1  0  0  0  0
 15 16  4  0  0  0  0
 15 25  4  0  0  0  0
 16 17  4  0  0  0  0
 17 18  4  0  0  0  0
 18 19  1  0  0  0  0
 18 24  4  0  0  0  0
 19 20  1  0  0  0  0
 20 21  1  0  0  0  0
 21 22  2  0  0  0  0
 21 23  1  0  0  0  0
 23 24  1  0  0  0  0
 24 25  4  0  0  0  0
 25 26  1  0  0  0  0
 27 28  4  0  0  0  0
 27 32  4  0  0  0  0
 28 29  4  0  0  0  0
 28 34  4  0  0  0  0
 29 30  4  0  0  0  0
 30 31  4  0  0  0  0
 30 33  1  0  0  0  0
 31 32  4  0  0  0  0
M  END
>  <Name_Molregno>
409194

>  <5-HT1A>
8.6

>  <5-HT1B>
5.8

>  <5-HT1D>
6.2

>  <5-HT2A>
5.4

>  <5-HT2C>
5.4

>  <5-HT6>
5

>  <5-HT7>
6.9

>  <DOPAMINE D2>
5.9

>  <DOPAMINE D3>
6

$$$$
409196
  Marvin  02231216192D 0   1.00000     0.00000     0

 34 38  0  0  0  0  0  0  0  0999 V2000
   -4.5009   -2.0892    0.0000 F   0  0  0  0  0  0  0  0  0
   -5.2153   -2.5017    0.0000 C   0  0  0  0  0  0  0  0  0
   -5.2153   -3.3267    0.0000 C   0  0  0  0  0  0  0  0  0
   -5.9298   -3.7392    0.0000 C   0  0  0  0  0  0  0  0  0
   -5.9298   -4.5642    0.0000 O   0  0  0  0  0  0  0  0  0
   -6.6443   -4.9767    0.0000 C   0  0  0  0  0  0  0  0  0
   -7.3588   -4.5642    0.0000 C   0  0  0  0  0  0  0  0  0
   -8.0732   -4.9767    0.0000 O   0  0  0  0  0  0  0  0  0
   -7.3588   -3.7392    0.0000 N   0  0  0  0  0  0  0  0  0
   -6.6443   -3.3267    0.0000 C   0  0  0  0  0  0  0  0  0
   -6.6443   -2.5017    0.0000 C   0  0  0  0  0  0  0  0  0
   -5.9298   -2.0892    0.0000 C   0  0  0  0  0  0  0  0  0
   -5.9298   -1.2642    0.0000 C   0  0  0  0  0  0  0  0  0
   -5.2153   -0.8517    0.0000 C   0  0  0  0  0  0  0  0  0
   -5.2153   -0.0267    0.0000 C   0  0  0  0  0  0  0  0  0
   -4.5009    0.3858    0.0000 C   0  0  0  0  0  0  0  0  0
   -3.7864   -0.0267    0.0000 N   0  0  0  0  0  0  0  0  0
   -3.7864   -0.8517    0.0000 C   0  0  0  0  0  0  0  0  0
   -4.5009   -1.2642    0.0000 C   0  0  0  0  0  0  0  0  0
   -3.0719    0.3858    0.0000 C   0  0  0  0  0  0  0  0  0
   -3.0719    1.2108    0.0000 C   0  0  0  0  0  0  0  0  0
   -2.3575    1.6233    0.0000 O   0  0  0  0  0  0  0  0  0
   -2.3575    2.4483    0.0000 C   0  0  0  0  0  0  0  0  0
   -3.0719    2.8608    0.0000 C   0  0  0  0  0  0  0  0  0
   -3.0719    3.6858    0.0000 C   0  0  0  0  0  0  0  0  0
   -3.7864    4.0983    0.0000 F   0  0  0  0  0  0  0  0  0
   -2.3575    4.0983    0.0000 C   0  0  0  0  0  0  0  0  0
   -1.6430    3.6858    0.0000 C   0  0  0  0  0  0  0  0  0
   -0.9285    4.0983    0.0000 N   0  0  0  0  0  0  0  0  0
   -0.2141    3.6858    0.0000 C   0  0  0  0  0  0  0  0  0
   -0.2141    2.8608    0.0000 C   0  0  0  0  0  0  0  0  0
   -0.9285    2.4483    0.0000 C   0  0  0  0  0  0  0  0  0
   -1.6430    2.8608    0.0000 C   0  0  0  0  0  0  0  0  0
    0.5004    4.0983    0.0000 C   0  0  0  0  0  0  0  0  0
  1  2  1  0  0  0  0
  2  3  4  0  0  0  0
  2 12  4  0  0  0  0
  3  4  4  0  0  0  0
  4  5  1  0  0  0  0
  4 10  4  0  0  0  0
  5  6  1  0  0  0  0
  6  7  1  0  0  0  0
  7  8  2  0  0  0  0
  7  9  1  0  0  0  0
  9 10  1  0  0  0  0
 10 11  4  0  0  0  0
 11 12  4  0  0  0  0
 12 13  1  0  0  0  0
 13 14  1  0  0  0  0
 14 15  1  0  0  0  0
 14 19  1  0  0  0  0
 15 16  1  0  0  0  0
 16 17  1  0  0  0  0
 17 18  1  0  0  0  0
 17 20  1  0  0  0  0
 18 19  1  0  0  0  0
 20 21  1  0  0  0  0
 21 22  1  0  0  0  0
 22 23  1  0  0  0  0
 23 24  4  0  0  0  0
 23 33  4  0  0  0  0
 24 25  4  0  0  0  0
 25 26  1  0  0  0  0
 25 27  4  0  0  0  0
 27 28  4  0  0  0  0
 28 29  4  0  0  0  0
 28 33  4  0  0  0  0
 29 30  4  0  0  0  0
 30 31  4  0  0  0  0
 30 34  1  0  0  0  0
 31 32  4  0  0  0  0
 32 33  4  0  0  0  0
M  END
>  <Name_Molregno>
409196

>  <5-HT1A>
9.4

>  <5-HT1B>
6

>  <5-HT1D>
6.6

>  <5-HT2A>
5.7

>  <5-HT2C>
5.9

>  <5-HT6>
6

>  <5-HT7>
7.4

>  <DOPAMINE D2>
5.7

>  <DOPAMINE D3>
6.3

$$$$
409197
  Marvin  02231216192D 0   1.00000     0.00000     0

 34 38  0  0  0  0  0  0  0  0999 V2000
   -2.6497    1.0445    0.0000 Cl  0  0  0  0  0  0  0  0  0
   -1.9352    0.6320    0.0000 C   0  0  0  0  0  0  0  0  0
   -1.9352   -0.1930    0.0000 C   0  0  0  0  0  0  0  0  0
   -1.2208   -0.6055    0.0000 C   0  0  0  0  0  0  0  0  0
   -1.2208   -1.4305    0.0000 O   0  0  0  0  0  0  0  0  0
   -1.9352   -1.8430    0.0000 C   0  0  0  0  0  0  0  0  0
   -1.9352   -2.6680    0.0000 C   0  0  0  0  0  0  0  0  0
   -2.6497   -3.0805    0.0000 N   0  0  0  0  0  0  0  0  0
   -2.6497   -3.9055    0.0000 C   0  0  0  0  0  0  0  0  0
   -3.3642   -4.3180    0.0000 C   0  0  0  0  0  0  0  0  0
   -4.0786   -3.9055    0.0000 C   0  0  0  0  0  0  0  0  0
   -4.0786   -3.0805    0.0000 C   0  0  0  0  0  0  0  0  0
   -3.3642   -2.6680    0.0000 C   0  0  0  0  0  0  0  0  0
   -4.7931   -4.3180    0.0000 C   0  0  0  0  0  0  0  0  0
   -5.5076   -3.9055    0.0000 C   0  0  0  0  0  0  0  0  0
   -6.2220   -4.3180    0.0000 C   0  0  0  0  0  0  0  0  0
   -6.9365   -3.9055    0.0000 C   0  0  0  0  0  0  0  0  0
   -7.6510   -4.3180    0.0000 N   0  0  0  0  0  0  0  0  0
   -8.3655   -3.9055    0.0000 C   0  0  0  0  0  0  0  0  0
   -9.0799   -4.3180    0.0000 O   0  0  0  0  0  0  0  0  0
   -8.3655   -3.0805    0.0000 C   0  0  0  0  0  0  0  0  0
   -7.6510   -2.6680    0.0000 O   0  0  0  0  0  0  0  0  0
   -6.9365   -3.0805    0.0000 C   0  0  0  0  0  0  0  0  0
   -6.2220   -2.6680    0.0000 C   0  0  0  0  0  0  0  0  0
   -5.5076   -3.0805    0.0000 C   0  0  0  0  0  0  0  0  0
   -4.7931   -2.6680    0.0000 F   0  0  0  0  0  0  0  0  0
   -0.5063   -0.1930    0.0000 C   0  0  0  0  0  0  0  0  0
   -0.5063    0.6320    0.0000 C   0  0  0  0  0  0  0  0  0
    0.2082    1.0445    0.0000 N   0  0  0  0  0  0  0  0  0
    0.9227    0.6320    0.0000 C   0  0  0  0  0  0  0  0  0
    0.9227   -0.1930    0.0000 C   0  0  0  0  0  0  0  0  0
    0.2082   -0.6055    0.0000 C   0  0  0  0  0  0  0  0  0
    1.6371    1.0445    0.0000 C   0  0  0  0  0  0  0  0  0
   -1.2208    1.0445    0.0000 C   0  0  0  0  0  0  0  0  0
  1  2  1  0  0  0  0
  2  3  4  0  0  0  0
  2 34  4  0  0  0  0
  3  4  4  0  0  0  0
  4  5  1  0  0  0  0
  4 27  4  0  0  0  0
  5  6  1  0  0  0  0
  6  7  1  0  0  0  0
  7  8  1  0  0  0  0
  8  9  1  0  0  0  0
  8 13  1  0  0  0  0
  9 10  1  0  0  0  0
 10 11  1  0  0  0  0
 11 12  1  0  0  0  0
 11 14  1  0  0  0  0
 12 13  1  0  0  0  0
 14 15  1  0  0  0  0
 15 16  4  0  0  0  0
 15 25  4  0  0  0  0
 16 17  4  0  0  0  0
 17 18  1  0  0  0  0
 17 23  4  0  0  0  0
 18 19  1  0  0  0  0
 19 20  2  0  0  0  0
 19 21  1  0  0  0  0
 21 22  1  0  0  0  0
 22 23  1  0  0  0  0
 23 24  4  0  0  0  0
 24 25  4  0  0  0  0
 25 26  1  0  0  0  0
 27 28  4  0  0  0  0
 27 32  4  0  0  0  0
 28 29  4  0  0  0  0
 28 34  4  0  0  0  0
 29 30  4  0  0  0  0
 30 31  4  0  0  0  0
 30 33  1  0  0  0  0
 31 32  4  0  0  0  0
M  END
>  <Name_Molregno>
409197

>  <5-HT1A>
8.6

>  <5-HT1B>
5.7

>  <5-HT1D>
6.1

>  <5-HT2A>
5

>  <5-HT2C>
5.3

>  <5-HT6>
5.1

>  <5-HT7>
7.4

>  <DOPAMINE D2>
5.5

>  <DOPAMINE D3>
5.7

$$$$
409198
  Marvin  02231216192D 0   1.00000     0.00000     0

 34 38  0  0  0  0  0  0  0  0999 V2000
   -6.8888   -4.9862    0.0000 F   0  0  0  0  0  0  0  0  0
   -6.1744   -4.5737    0.0000 C   0  0  0  0  0  0  0  0  0
   -6.1744   -3.7487    0.0000 C   0  0  0  0  0  0  0  0  0
   -5.4599   -3.3362    0.0000 C   0  0  0  0  0  0  0  0  0
   -4.7454   -3.7487    0.0000 C   0  0  0  0  0  0  0  0  0
   -4.7454   -4.5737    0.0000 C   0  0  0  0  0  0  0  0  0
   -4.0309   -4.9862    0.0000 N   0  0  0  0  0  0  0  0  0
   -4.0309   -5.8112    0.0000 C   0  0  0  0  0  0  0  0  0
   -3.3165   -6.2237    0.0000 O   0  0  0  0  0  0  0  0  0
   -4.7454   -6.2237    0.0000 C   0  0  0  0  0  0  0  0  0
   -5.4599   -5.8112    0.0000 O   0  0  0  0  0  0  0  0  0
   -5.4599   -4.9862    0.0000 C   0  0  0  0  0  0  0  0  0
   -5.4599   -2.5112    0.0000 C   0  0  0  0  0  0  0  0  0
   -4.7454   -2.0987    0.0000 C   0  0  0  0  0  0  0  0  0
   -4.7454   -1.2737    0.0000 C   0  0  0  0  0  0  0  0  0
   -4.0309   -0.8612    0.0000 C   0  0  0  0  0  0  0  0  0
   -3.3165   -1.2737    0.0000 N   0  0  0  0  0  0  0  0  0
   -3.3165   -2.0987    0.0000 C   0  0  0  0  0  0  0  0  0
   -4.0309   -2.5112    0.0000 C   0  0  0  0  0  0  0  0  0
   -2.6020   -0.8612    0.0000 C   0  0  0  0  0  0  0  0  0
   -2.6020   -0.0362    0.0000 C   0  0  0  0  0  0  0  0  0
   -1.8875    0.3763    0.0000 O   0  0  0  0  0  0  0  0  0
   -1.8875    1.2013    0.0000 C   0  0  0  0  0  0  0  0  0
   -2.6020    1.6138    0.0000 C   0  0  0  0  0  0  0  0  0
   -2.6020    2.4388    0.0000 C   0  0  0  0  0  0  0  0  0
   -3.3165    2.8513    0.0000 F   0  0  0  0  0  0  0  0  0
   -1.8875    2.8513    0.0000 C   0  0  0  0  0  0  0  0  0
   -1.1731    2.4388    0.0000 C   0  0  0  0  0  0  0  0  0
   -0.4586    2.8513    0.0000 N   0  0  0  0  0  0  0  0  0
    0.2559    2.4388    0.0000 C   0  0  0  0  0  0  0  0  0
    0.2559    1.6138    0.0000 C   0  0  0  0  0  0  0  0  0
   -0.4586    1.2013    0.0000 C   0  0  0  0  0  0  0  0  0
   -1.1731    1.6138    0.0000 C   0  0  0  0  0  0  0  0  0
    0.9703    2.8513    0.0000 C   0  0  0  0  0  0  0  0  0
  1  2  1  0  0  0  0
  2  3  4  0  0  0  0
  2 12  4  0  0  0  0
  3  4  4  0  0  0  0
  4  5  4  0  0  0  0
  4 13  1  0  0  0  0
  5  6  4  0  0  0  0
  6  7  1  0  0  0  0
  6 12  4  0  0  0  0
  7  8  1  0  0  0  0
  8  9  2  0  0  0  0
  8 10  1  0  0  0  0
 10 11  1  0  0  0  0
 11 12  1  0  0  0  0
 13 14  1  0  0  0  0
 14 15  1  0  0  0  0
 14 19  1  0  0  0  0
 15 16  1  0  0  0  0
 16 17  1  0  0  0  0
 17 18  1  0  0  0  0
 17 20  1  0  0  0  0
 18 19  1  0  0  0  0
 20 21  1  0  0  0  0
 21 22  1  0  0  0  0
 22 23  1  0  0  0  0
 23 24  4  0  0  0  0
 23 33  4  0  0  0  0
 24 25  4  0  0  0  0
 25 26  1  0  0  0  0
 25 27  4  0  0  0  0
 27 28  4  0  0  0  0
 28 29  4  0  0  0  0
 28 33  4  0  0  0  0
 29 30  4  0  0  0  0
 30 31  4  0  0  0  0
 30 34  1  0  0  0  0
 31 32  4  0  0  0  0
 32 33  4  0  0  0  0
M  END
>  <Name_Molregno>
409198

>  <5-HT1A>
8.4

>  <5-HT1B>
6.5

>  <5-HT1D>
7.1

>  <5-HT2A>
5

>  <5-HT2C>
5

>  <5-HT6>
5.2

>  <5-HT7>
7.1

>  <DOPAMINE D2>
5

>  <DOPAMINE D3>
5.4

$$$$
409200
  Marvin  02231216192D 0   1.00000     0.00000     0

 34 38  0  0  0  0  0  0  0  0999 V2000
   -2.8865    0.9720    0.0000 Cl  0  0  0  0  0  0  0  0  0
   -2.1721    0.5595    0.0000 C   0  0  0  0  0  0  0  0  0
   -2.1721   -0.2655    0.0000 C   0  0  0  0  0  0  0  0  0
   -1.4576   -0.6780    0.0000 C   0  0  0  0  0  0  0  0  0
   -1.4576   -1.5030    0.0000 O   0  0  0  0  0  0  0  0  0
   -2.1721   -1.9155    0.0000 C   0  0  0  0  0  0  0  0  0
   -2.1721   -2.7405    0.0000 C   0  0  0  0  0  0  0  0  0
   -2.8865   -3.1530    0.0000 N   0  0  0  0  0  0  0  0  0
   -2.8865   -3.9780    0.0000 C   0  0  0  0  0  0  0  0  0
   -3.6010   -4.3905    0.0000 C   0  0  0  0  0  0  0  0  0
   -4.3155   -3.9780    0.0000 C   0  0  0  0  0  0  0  0  0
   -4.3155   -3.1530    0.0000 C   0  0  0  0  0  0  0  0  0
   -3.6010   -2.7405    0.0000 C   0  0  0  0  0  0  0  0  0
   -5.0299   -4.3905    0.0000 C   0  0  0  0  0  0  0  0  0
   -5.7444   -3.9780    0.0000 C   0  0  0  0  0  0  0  0  0
   -6.4589   -4.3905    0.0000 C   0  0  0  0  0  0  0  0  0
   -7.1733   -3.9780    0.0000 C   0  0  0  0  0  0  0  0  0
   -7.8878   -4.3905    0.0000 F   0  0  0  0  0  0  0  0  0
   -7.1733   -3.1530    0.0000 C   0  0  0  0  0  0  0  0  0
   -7.8878   -2.7405    0.0000 O   0  0  0  0  0  0  0  0  0
   -7.8878   -1.9155    0.0000 C   0  0  0  0  0  0  0  0  0
   -7.1733   -1.5030    0.0000 C   0  0  0  0  0  0  0  0  0
   -7.1733   -0.6780    0.0000 O   0  0  0  0  0  0  0  0  0
   -6.4589   -1.9155    0.0000 N   0  0  0  0  0  0  0  0  0
   -6.4589   -2.7405    0.0000 C   0  0  0  0  0  0  0  0  0
   -5.7444   -3.1530    0.0000 C   0  0  0  0  0  0  0  0  0
   -0.7431   -0.2655    0.0000 C   0  0  0  0  0  0  0  0  0
   -0.7431    0.5595    0.0000 C   0  0  0  0  0  0  0  0  0
   -0.0286    0.9720    0.0000 N   0  0  0  0  0  0  0  0  0
    0.6858    0.5595    0.0000 C   0  0  0  0  0  0  0  0  0
    0.6858   -0.2655    0.0000 C   0  0  0  0  0  0  0  0  0
   -0.0286   -0.6780    0.0000 C   0  0  0  0  0  0  0  0  0
    1.4003    0.9720    0.0000 C   0  0  0  0  0  0  0  0  0
   -1.4576    0.9720    0.0000 C   0  0  0  0  0  0  0  0  0
  1  2  1  0  0  0  0
  2  3  4  0  0  0  0
  2 34  4  0  0  0  0
  3  4  4  0  0  0  0
  4  5  1  0  0  0  0
  4 27  4  0  0  0  0
  5  6  1  0  0  0  0
  6  7  1  0  0  0  0
  7  8  1  0  0  0  0
  8  9  1  0  0  0  0
  8 13  1  0  0  0  0
  9 10  1  0  0  0  0
 10 11  1  0  0  0  0
 11 12  1  0  0  0  0
 11 14  1  0  0  0  0
 12 13  1  0  0  0  0
 14 15  1  0  0  0  0
 15 16  4  0  0  0  0
 15 26  4  0  0  0  0
 16 17  4  0  0  0  0
 17 18  1  0  0  0  0
 17 19  4  0  0  0  0
 19 20  1  0  0  0  0
 19 25  4  0  0  0  0
 20 21  1  0  0  0  0
 21 22  1  0  0  0  0
 22 23  2  0  0  0  0
 22 24  1  0  0  0  0
 24 25  1  0  0  0  0
 25 26  4  0  0  0  0
 27 28  4  0  0  0  0
 27 32  4  0  0  0  0
 28 29  4  0  0  0  0
 28 34  4  0  0  0  0
 29 30  4  0  0  0  0
 30 31  4  0  0  0  0
 30 33  1  0  0  0  0
 31 32  4  0  0  0  0
M  END
>  <Name_Molregno>
409200

>  <5-HT1A>
8

>  <5-HT1B>
6.2

>  <5-HT1D>
6.2

>  <5-HT2A>
5.5

>  <5-HT2C>
5.6

>  <5-HT6>
5

>  <5-HT7>
7.1

>  <DOPAMINE D2>
5.6

>  <DOPAMINE D3>
5.9

$$$$
415458
  Marvin  02231216192D 0   1.00000     0.00000     0

 33 37  0  0  0  0  0  0  0  0999 V2000
   -6.3350   -4.9020    0.0000 O   0  0  0  0  0  0  0  0  0
   -7.0495   -5.3145    0.0000 C   0  0  0  0  0  0  0  0  0
   -7.7639   -4.9020    0.0000 C   0  0  0  0  0  0  0  0  0
   -8.4784   -5.3145    0.0000 O   0  0  0  0  0  0  0  0  0
   -7.7639   -4.0770    0.0000 N   0  0  0  0  0  0  0  0  0
   -7.0495   -3.6645    0.0000 C   0  0  0  0  0  0  0  0  0
   -7.0495   -2.8395    0.0000 C   0  0  0  0  0  0  0  0  0
   -6.3350   -2.4270    0.0000 C   0  0  0  0  0  0  0  0  0
   -5.6205   -2.8395    0.0000 C   0  0  0  0  0  0  0  0  0
   -5.6205   -3.6645    0.0000 C   0  0  0  0  0  0  0  0  0
   -6.3350   -4.0770    0.0000 C   0  0  0  0  0  0  0  0  0
   -6.3350   -1.6020    0.0000 C   0  0  0  0  0  0  0  0  0
   -5.6205   -1.1895    0.0000 C   0  0  0  0  0  0  0  0  0
   -5.6205   -0.3645    0.0000 C   0  0  0  0  0  0  0  0  0
   -4.9061    0.0480    0.0000 C   0  0  0  0  0  0  0  0  0
   -4.1916   -0.3645    0.0000 N   0  0  0  0  0  0  0  0  0
   -4.1916   -1.1895    0.0000 C   0  0  0  0  0  0  0  0  0
   -4.9061   -1.6020    0.0000 C   0  0  0  0  0  0  0  0  0
   -3.4771    0.0480    0.0000 C   0  0  0  0  0  0  0  0  0
   -3.4771    0.8730    0.0000 C   0  0  0  0  0  0  0  0  0
   -2.7627    1.2855    0.0000 O   0  0  0  0  0  0  0  0  0
   -2.7627    2.1105    0.0000 C   0  0  0  0  0  0  0  0  0
   -2.0482    2.5230    0.0000 C   0  0  0  0  0  0  0  0  0
   -2.0482    3.3480    0.0000 C   0  0  0  0  0  0  0  0  0
   -1.3337    3.7605    0.0000 N   0  0  0  0  0  0  0  0  0
   -0.6192    3.3480    0.0000 C   0  0  0  0  0  0  0  0  0
   -0.6192    2.5230    0.0000 C   0  0  0  0  0  0  0  0  0
   -1.3337    2.1105    0.0000 C   0  0  0  0  0  0  0  0  0
    0.0952    3.7605    0.0000 C   0  0  0  0  0  0  0  0  0
   -2.7627    3.7605    0.0000 C   0  0  0  0  0  0  0  0  0
   -3.4771    3.3480    0.0000 C   0  0  0  0  0  0  0  0  0
   -3.4771    2.5230    0.0000 C   0  0  0  0  0  0  0  0  0
   -8.4784   -3.6645    0.0000 C   0  0  0  0  0  0  0  0  0
  1  2  1  0  0  0  0
  1 11  1  0  0  0  0
  2  3  1  0  0  0  0
  3  4  2  0  0  0  0
  3  5  1  0  0  0  0
  5  6  1  0  0  0  0
  5 33  1  0  0  0  0
  6  7  4  0  0  0  0
  6 11  4  0  0  0  0
  7  8  4  0  0  0  0
  8  9  4  0  0  0  0
  8 12  1  0  0  0  0
  9 10  4  0  0  0  0
 10 11  4  0  0  0  0
 12 13  1  0  0  0  0
 13 14  1  0  0  0  0
 13 18  1  0  0  0  0
 14 15  1  0  0  0  0
 15 16  1  0  0  0  0
 16 17  1  0  0  0  0
 16 19  1  0  0  0  0
 17 18  1  0  0  0  0
 19 20  1  0  0  0  0
 20 21  1  0  0  0  0
 21 22  1  0  0  0  0
 22 23  4  0  0  0  0
 22 32  4  0  0  0  0
 23 24  4  0  0  0  0
 23 28  4  0  0  0  0
 24 25  4  0  0  0  0
 24 30  4  0  0  0  0
 25 26  4  0  0  0  0
 26 27  4  0  0  0  0
 26 29  1  0  0  0  0
 27 28  4  0  0  0  0
 30 31  4  0  0  0  0
 31 32  4  0  0  0  0
M  END
>  <Name_Molregno>
415458

>  <5-HT1A>
8.8

>  <5-HT1B>
8.2

>  <5-HT1D>
8.6

$$$$
415459
  Marvin  02231216192D 0   1.00000     0.00000     0

 34 38  0  0  0  0  0  0  0  0999 V2000
   -6.0658   -4.9013    0.0000 O   0  0  0  0  0  0  0  0  0
   -6.7802   -5.3138    0.0000 C   0  0  0  0  0  0  0  0  0
   -7.4947   -4.9013    0.0000 C   0  0  0  0  0  0  0  0  0
   -8.2092   -5.3138    0.0000 O   0  0  0  0  0  0  0  0  0
   -7.4947   -4.0763    0.0000 N   0  0  0  0  0  0  0  0  0
   -6.7802   -3.6638    0.0000 C   0  0  0  0  0  0  0  0  0
   -6.7802   -2.8388    0.0000 C   0  0  0  0  0  0  0  0  0
   -6.0658   -2.4263    0.0000 C   0  0  0  0  0  0  0  0  0
   -5.3513   -2.8388    0.0000 C   0  0  0  0  0  0  0  0  0
   -5.3513   -3.6638    0.0000 C   0  0  0  0  0  0  0  0  0
   -6.0658   -4.0763    0.0000 C   0  0  0  0  0  0  0  0  0
   -6.0658   -1.6013    0.0000 C   0  0  0  0  0  0  0  0  0
   -5.3513   -1.1888    0.0000 C   0  0  0  0  0  0  0  0  0
   -5.3513   -0.3638    0.0000 C   0  0  0  0  0  0  0  0  0
   -4.6368    0.0487    0.0000 C   0  0  0  0  0  0  0  0  0
   -3.9223   -0.3638    0.0000 N   0  0  0  0  0  0  0  0  0
   -3.9223   -1.1888    0.0000 C   0  0  0  0  0  0  0  0  0
   -4.6368   -1.6013    0.0000 C   0  0  0  0  0  0  0  0  0
   -3.2079    0.0487    0.0000 C   0  0  0  0  0  0  0  0  0
   -3.2079    0.8737    0.0000 C   0  0  0  0  0  0  0  0  0
   -2.4934    1.2862    0.0000 O   0  0  0  0  0  0  0  0  0
   -2.4934    2.1112    0.0000 C   0  0  0  0  0  0  0  0  0
   -1.7789    2.5237    0.0000 C   0  0  0  0  0  0  0  0  0
   -1.7789    3.3487    0.0000 C   0  0  0  0  0  0  0  0  0
   -1.0645    3.7612    0.0000 N   0  0  0  0  0  0  0  0  0
   -0.3500    3.3487    0.0000 C   0  0  0  0  0  0  0  0  0
   -0.3500    2.5237    0.0000 C   0  0  0  0  0  0  0  0  0
   -1.0645    2.1112    0.0000 C   0  0  0  0  0  0  0  0  0
    0.3645    3.7612    0.0000 C   0  0  0  0  0  0  0  0  0
   -2.4934    3.7612    0.0000 C   0  0  0  0  0  0  0  0  0
   -3.2079    3.3487    0.0000 C   0  0  0  0  0  0  0  0  0
   -3.2079    2.5237    0.0000 C   0  0  0  0  0  0  0  0  0
   -8.2092   -3.6638    0.0000 C   0  0  0  0  0  0  0  0  0
   -8.2092   -2.8388    0.0000 C   0  0  0  0  0  0  0  0  0
  1  2  1  0  0  0  0
  1 11  1  0  0  0  0
  2  3  1  0  0  0  0
  3  4  2  0  0  0  0
  3  5  1  0  0  0  0
  5  6  1  0  0  0  0
  5 33  1  0  0  0  0
  6  7  4  0  0  0  0
  6 11  4  0  0  0  0
  7  8  4  0  0  0  0
  8  9  4  0  0  0  0
  8 12  1  0  0  0  0
  9 10  4  0  0  0  0
 10 11  4  0  0  0  0
 12 13  1  0  0  0  0
 13 14  1  0  0  0  0
 13 18  1  0  0  0  0
 14 15  1  0  0  0  0
 15 16  1  0  0  0  0
 16 17  1  0  0  0  0
 16 19  1  0  0  0  0
 17 18  1  0  0  0  0
 19 20  1  0  0  0  0
 20 21  1  0  0  0  0
 21 22  1  0  0  0  0
 22 23  4  0  0  0  0
 22 32  4  0  0  0  0
 23 24  4  0  0  0  0
 23 28  4  0  0  0  0
 24 25  4  0  0  0  0
 24 30  4  0  0  0  0
 25 26  4  0  0  0  0
 26 27  4  0  0  0  0
 26 29  1  0  0  0  0
 27 28  4  0  0  0  0
 30 31  4  0  0  0  0
 31 32  4  0  0  0  0
 33 34  1  0  0  0  0
M  END
>  <Name_Molregno>
415459

>  <5-HT1A>
9.05

>  <5-HT1B>
8.4

>  <5-HT1D>
8.8

$$$$
415460
  Marvin  02231216192D 0   1.00000     0.00000     0

 35 39  0  0  0  0  0  0  0  0999 V2000
   -5.8221   -4.9201    0.0000 O   0  0  0  0  0  0  0  0  0
   -6.5366   -5.3326    0.0000 C   0  0  0  0  0  0  0  0  0
   -7.2510   -4.9201    0.0000 C   0  0  0  0  0  0  0  0  0
   -7.9655   -5.3326    0.0000 O   0  0  0  0  0  0  0  0  0
   -7.2510   -4.0951    0.0000 N   0  0  0  0  0  0  0  0  0
   -6.5366   -3.6826    0.0000 C   0  0  0  0  0  0  0  0  0
   -6.5366   -2.8576    0.0000 C   0  0  0  0  0  0  0  0  0
   -5.8221   -2.4451    0.0000 C   0  0  0  0  0  0  0  0  0
   -5.1076   -2.8576    0.0000 C   0  0  0  0  0  0  0  0  0
   -5.1076   -3.6826    0.0000 C   0  0  0  0  0  0  0  0  0
   -5.8221   -4.0951    0.0000 C   0  0  0  0  0  0  0  0  0
   -5.8221   -1.6201    0.0000 C   0  0  0  0  0  0  0  0  0
   -5.1076   -1.2076    0.0000 C   0  0  0  0  0  0  0  0  0
   -5.1076   -0.3826    0.0000 C   0  0  0  0  0  0  0  0  0
   -4.3932    0.0299    0.0000 C   0  0  0  0  0  0  0  0  0
   -3.6787   -0.3826    0.0000 N   0  0  0  0  0  0  0  0  0
   -3.6787   -1.2076    0.0000 C   0  0  0  0  0  0  0  0  0
   -4.3932   -1.6201    0.0000 C   0  0  0  0  0  0  0  0  0
   -2.9642    0.0299    0.0000 C   0  0  0  0  0  0  0  0  0
   -2.9642    0.8549    0.0000 C   0  0  0  0  0  0  0  0  0
   -2.2498    1.2674    0.0000 O   0  0  0  0  0  0  0  0  0
   -2.2498    2.0924    0.0000 C   0  0  0  0  0  0  0  0  0
   -1.5353    2.5049    0.0000 C   0  0  0  0  0  0  0  0  0
   -1.5353    3.3299    0.0000 C   0  0  0  0  0  0  0  0  0
   -0.8208    3.7424    0.0000 N   0  0  0  0  0  0  0  0  0
   -0.1063    3.3299    0.0000 C   0  0  0  0  0  0  0  0  0
   -0.1063    2.5049    0.0000 C   0  0  0  0  0  0  0  0  0
   -0.8208    2.0924    0.0000 C   0  0  0  0  0  0  0  0  0
    0.6081    3.7424    0.0000 C   0  0  0  0  0  0  0  0  0
   -2.2498    3.7424    0.0000 C   0  0  0  0  0  0  0  0  0
   -2.9642    3.3299    0.0000 C   0  0  0  0  0  0  0  0  0
   -2.9642    2.5049    0.0000 C   0  0  0  0  0  0  0  0  0
   -7.9655   -3.6826    0.0000 C   0  0  0  0  0  0  0  0  0
   -7.9655   -2.8576    0.0000 C   0  0  0  0  0  0  0  0  0
   -8.6800   -4.0951    0.0000 C   0  0  0  0  0  0  0  0  0
  1  2  1  0  0  0  0
  1 11  1  0  0  0  0
  2  3  1  0  0  0  0
  3  4  2  0  0  0  0
  3  5  1  0  0  0  0
  5  6  1  0  0  0  0
  5 33  1  0  0  0  0
  6  7  4  0  0  0  0
  6 11  4  0  0  0  0
  7  8  4  0  0  0  0
  8  9  4  0  0  0  0
  8 12  1  0  0  0  0
  9 10  4  0  0  0  0
 10 11  4  0  0  0  0
 12 13  1  0  0  0  0
 13 14  1  0  0  0  0
 13 18  1  0  0  0  0
 14 15  1  0  0  0  0
 15 16  1  0  0  0  0
 16 17  1  0  0  0  0
 16 19  1  0  0  0  0
 17 18  1  0  0  0  0
 19 20  1  0  0  0  0
 20 21  1  0  0  0  0
 21 22  1  0  0  0  0
 22 23  4  0  0  0  0
 22 32  4  0  0  0  0
 23 24  4  0  0  0  0
 23 28  4  0  0  0  0
 24 25  4  0  0  0  0
 24 30  4  0  0  0  0
 25 26  4  0  0  0  0
 26 27  4  0  0  0  0
 26 29  1  0  0  0  0
 27 28  4  0  0  0  0
 30 31  4  0  0  0  0
 31 32  4  0  0  0  0
 33 34  1  0  0  0  0
 33 35  1  0  0  0  0
M  END
>  <Name_Molregno>
415460

>  <5-HT1A>
8.75

>  <5-HT1B>
7.4

>  <5-HT1D>
8.4

$$$$
415461
  Marvin  02231216192D 0   1.00000     0.00000     0

 32 36  0  0  0  0  0  0  0  0999 V2000
   -6.5979   -4.9561    0.0000 O   0  0  0  0  0  0  0  0  0
   -7.3124   -5.3686    0.0000 C   0  0  0  0  0  0  0  0  0
   -8.0268   -4.9561    0.0000 C   0  0  0  0  0  0  0  0  0
   -8.7413   -5.3686    0.0000 O   0  0  0  0  0  0  0  0  0
   -8.0268   -4.1311    0.0000 N   0  0  0  0  0  0  0  0  0
   -7.3124   -3.7186    0.0000 C   0  0  0  0  0  0  0  0  0
   -7.3124   -2.8936    0.0000 C   0  0  0  0  0  0  0  0  0
   -6.5979   -2.4811    0.0000 C   0  0  0  0  0  0  0  0  0
   -5.8834   -2.8936    0.0000 C   0  0  0  0  0  0  0  0  0
   -5.8834   -3.7186    0.0000 C   0  0  0  0  0  0  0  0  0
   -6.5979   -4.1311    0.0000 C   0  0  0  0  0  0  0  0  0
   -6.5979   -1.6561    0.0000 C   0  0  0  0  0  0  0  0  0
   -5.8834   -1.2436    0.0000 N   0  0  0  0  0  0  0  0  0
   -5.8834   -0.4186    0.0000 C   0  0  0  0  0  0  0  0  0
   -5.1690   -0.0061    0.0000 C   0  0  0  0  0  0  0  0  0
   -4.4545   -0.4186    0.0000 N   0  0  0  0  0  0  0  0  0
   -4.4545   -1.2436    0.0000 C   0  0  0  0  0  0  0  0  0
   -5.1690   -1.6561    0.0000 C   0  0  0  0  0  0  0  0  0
   -3.7400   -0.0061    0.0000 C   0  0  0  0  0  0  0  0  0
   -3.7400    0.8189    0.0000 C   0  0  0  0  0  0  0  0  0
   -3.0255    1.2314    0.0000 O   0  0  0  0  0  0  0  0  0
   -3.0255    2.0564    0.0000 C   0  0  0  0  0  0  0  0  0
   -2.3111    2.4689    0.0000 C   0  0  0  0  0  0  0  0  0
   -2.3111    3.2939    0.0000 C   0  0  0  0  0  0  0  0  0
   -1.5966    3.7064    0.0000 N   0  0  0  0  0  0  0  0  0
   -0.8821    3.2939    0.0000 C   0  0  0  0  0  0  0  0  0
   -0.8821    2.4689    0.0000 C   0  0  0  0  0  0  0  0  0
   -1.5966    2.0564    0.0000 C   0  0  0  0  0  0  0  0  0
   -0.1677    3.7064    0.0000 C   0  0  0  0  0  0  0  0  0
   -3.0255    3.7064    0.0000 C   0  0  0  0  0  0  0  0  0
   -3.7400    3.2939    0.0000 C   0  0  0  0  0  0  0  0  0
   -3.7400    2.4689    0.0000 C   0  0  0  0  0  0  0  0  0
  1  2  1  0  0  0  0
  1 11  1  0  0  0  0
  2  3  1  0  0  0  0
  3  4  2  0  0  0  0
  3  5  1  0  0  0  0
  5  6  1  0  0  0  0
  6  7  4  0  0  0  0
  6 11  4  0  0  0  0
  7  8  4  0  0  0  0
  8  9  4  0  0  0  0
  8 12  1  0  0  0  0
  9 10  4  0  0  0  0
 10 11  4  0  0  0  0
 12 13  1  0  0  0  0
 13 14  1  0  0  0  0
 13 18  1  0  0  0  0
 14 15  1  0  0  0  0
 15 16  1  0  0  0  0
 16 17  1  0  0  0  0
 16 19  1  0  0  0  0
 17 18  1  0  0  0  0
 19 20  1  0  0  0  0
 20 21  1  0  0  0  0
 21 22  1  0  0  0  0
 22 23  4  0  0  0  0
 22 32  4  0  0  0  0
 23 24  4  0  0  0  0
 23 28  4  0  0  0  0
 24 25  4  0  0  0  0
 24 30  4  0  0  0  0
 25 26  4  0  0  0  0
 26 27  4  0  0  0  0
 26 29  1  0  0  0  0
 27 28  4  0  0  0  0
 30 31  4  0  0  0  0
 31 32  4  0  0  0  0
M  END
>  <Name_Molregno>
415461

>  <5-HT1A>
8

>  <5-HT1B>
7

>  <5-HT1D>
8

$$$$
415462
  Marvin  02231216192D 0   1.00000     0.00000     0

 33 37  0  0  0  0  0  0  0  0999 V2000
   -6.3350   -4.9020    0.0000 O   0  0  0  0  0  0  0  0  0
   -7.0495   -5.3145    0.0000 C   0  0  0  0  0  0  0  0  0
   -7.7639   -4.9020    0.0000 C   0  0  0  0  0  0  0  0  0
   -8.4784   -5.3145    0.0000 O   0  0  0  0  0  0  0  0  0
   -7.7639   -4.0770    0.0000 N   0  0  0  0  0  0  0  0  0
   -7.0495   -3.6645    0.0000 C   0  0  0  0  0  0  0  0  0
   -7.0495   -2.8395    0.0000 C   0  0  0  0  0  0  0  0  0
   -6.3350   -2.4270    0.0000 C   0  0  0  0  0  0  0  0  0
   -5.6205   -2.8395    0.0000 C   0  0  0  0  0  0  0  0  0
   -5.6205   -3.6645    0.0000 C   0  0  0  0  0  0  0  0  0
   -6.3350   -4.0770    0.0000 C   0  0  0  0  0  0  0  0  0
   -6.3350   -1.6020    0.0000 C   0  0  0  0  0  0  0  0  0
   -5.6205   -1.1895    0.0000 N   0  0  0  0  0  0  0  0  0
   -5.6205   -0.3645    0.0000 C   0  0  0  0  0  0  0  0  0
   -4.9061    0.0480    0.0000 C   0  0  0  0  0  0  0  0  0
   -4.1916   -0.3645    0.0000 N   0  0  0  0  0  0  0  0  0
   -4.1916   -1.1895    0.0000 C   0  0  0  0  0  0  0  0  0
   -4.9061   -1.6020    0.0000 C   0  0  0  0  0  0  0  0  0
   -3.4771    0.0480    0.0000 C   0  0  0  0  0  0  0  0  0
   -3.4771    0.8730    0.0000 C   0  0  0  0  0  0  0  0  0
   -2.7627    1.2855    0.0000 O   0  0  0  0  0  0  0  0  0
   -2.7627    2.1105    0.0000 C   0  0  0  0  0  0  0  0  0
   -2.0482    2.5230    0.0000 C   0  0  0  0  0  0  0  0  0
   -2.0482    3.3480    0.0000 C   0  0  0  0  0  0  0  0  0
   -1.3337    3.7605    0.0000 N   0  0  0  0  0  0  0  0  0
   -0.6192    3.3480    0.0000 C   0  0  0  0  0  0  0  0  0
   -0.6192    2.5230    0.0000 C   0  0  0  0  0  0  0  0  0
   -1.3337    2.1105    0.0000 C   0  0  0  0  0  0  0  0  0
    0.0952    3.7605    0.0000 C   0  0  0  0  0  0  0  0  0
   -2.7627    3.7605    0.0000 C   0  0  0  0  0  0  0  0  0
   -3.4771    3.3480    0.0000 C   0  0  0  0  0  0  0  0  0
   -3.4771    2.5230    0.0000 C   0  0  0  0  0  0  0  0  0
   -8.4784   -3.6645    0.0000 C   0  0  0  0  0  0  0  0  0
  1  2  1  0  0  0  0
  1 11  1  0  0  0  0
  2  3  1  0  0  0  0
  3  4  2  0  0  0  0
  3  5  1  0  0  0  0
  5  6  1  0  0  0  0
  5 33  1  0  0  0  0
  6  7  4  0  0  0  0
  6 11  4  0  0  0  0
  7  8  4  0  0  0  0
  8  9  4  0  0  0  0
  8 12  1  0  0  0  0
  9 10  4  0  0  0  0
 10 11  4  0  0  0  0
 12 13  1  0  0  0  0
 13 14  1  0  0  0  0
 13 18  1  0  0  0  0
 14 15  1  0  0  0  0
 15 16  1  0  0  0  0
 16 17  1  0  0  0  0
 16 19  1  0  0  0  0
 17 18  1  0  0  0  0
 19 20  1  0  0  0  0
 20 21  1  0  0  0  0
 21 22  1  0  0  0  0
 22 23  4  0  0  0  0
 22 32  4  0  0  0  0
 23 24  4  0  0  0  0
 23 28  4  0  0  0  0
 24 25  4  0  0  0  0
 24 30  4  0  0  0  0
 25 26  4  0  0  0  0
 26 27  4  0  0  0  0
 26 29  1  0  0  0  0
 27 28  4  0  0  0  0
 30 31  4  0  0  0  0
 31 32  4  0  0  0  0
M  END
>  <Name_Molregno>
415462

>  <5-HT1A>
8.4

>  <5-HT1B>
8.1

>  <5-HT1D>
9.3

$$$$
415463
  Marvin  02231216192D 0   1.00000     0.00000     0

 34 38  0  0  0  0  0  0  0  0999 V2000
   -6.0658   -4.9013    0.0000 O   0  0  0  0  0  0  0  0  0
   -6.7802   -5.3138    0.0000 C   0  0  0  0  0  0  0  0  0
   -7.4947   -4.9013    0.0000 C   0  0  0  0  0  0  0  0  0
   -8.2092   -5.3138    0.0000 O   0  0  0  0  0  0  0  0  0
   -7.4947   -4.0763    0.0000 N   0  0  0  0  0  0  0  0  0
   -6.7802   -3.6638    0.0000 C   0  0  0  0  0  0  0  0  0
   -6.7802   -2.8388    0.0000 C   0  0  0  0  0  0  0  0  0
   -6.0658   -2.4263    0.0000 C   0  0  0  0  0  0  0  0  0
   -5.3513   -2.8388    0.0000 C   0  0  0  0  0  0  0  0  0
   -5.3513   -3.6638    0.0000 C   0  0  0  0  0  0  0  0  0
   -6.0658   -4.0763    0.0000 C   0  0  0  0  0  0  0  0  0
   -6.0658   -1.6013    0.0000 C   0  0  0  0  0  0  0  0  0
   -5.3513   -1.1888    0.0000 N   0  0  0  0  0  0  0  0  0
   -5.3513   -0.3638    0.0000 C   0  0  0  0  0  0  0  0  0
   -4.6368    0.0487    0.0000 C   0  0  0  0  0  0  0  0  0
   -3.9223   -0.3638    0.0000 N   0  0  0  0  0  0  0  0  0
   -3.9223   -1.1888    0.0000 C   0  0  0  0  0  0  0  0  0
   -4.6368   -1.6013    0.0000 C   0  0  0  0  0  0  0  0  0
   -3.2079    0.0487    0.0000 C   0  0  0  0  0  0  0  0  0
   -3.2079    0.8737    0.0000 C   0  0  0  0  0  0  0  0  0
   -2.4934    1.2862    0.0000 O   0  0  0  0  0  0  0  0  0
   -2.4934    2.1112    0.0000 C   0  0  0  0  0  0  0  0  0
   -1.7789    2.5237    0.0000 C   0  0  0  0  0  0  0  0  0
   -1.7789    3.3487    0.0000 C   0  0  0  0  0  0  0  0  0
   -1.0645    3.7612    0.0000 N   0  0  0  0  0  0  0  0  0
   -0.3500    3.3487    0.0000 C   0  0  0  0  0  0  0  0  0
   -0.3500    2.5237    0.0000 C   0  0  0  0  0  0  0  0  0
   -1.0645    2.1112    0.0000 C   0  0  0  0  0  0  0  0  0
    0.3645    3.7612    0.0000 C   0  0  0  0  0  0  0  0  0
   -2.4934    3.7612    0.0000 C   0  0  0  0  0  0  0  0  0
   -3.2079    3.3487    0.0000 C   0  0  0  0  0  0  0  0  0
   -3.2079    2.5237    0.0000 C   0  0  0  0  0  0  0  0  0
   -8.2092   -3.6638    0.0000 C   0  0  0  0  0  0  0  0  0
   -8.2092   -2.8388    0.0000 C   0  0  0  0  0  0  0  0  0
  1  2  1  0  0  0  0
  1 11  1  0  0  0  0
  2  3  1  0  0  0  0
  3  4  2  0  0  0  0
  3  5  1  0  0  0  0
  5  6  1  0  0  0  0
  5 33  1  0  0  0  0
  6  7  4  0  0  0  0
  6 11  4  0  0  0  0
  7  8  4  0  0  0  0
  8  9  4  0  0  0  0
  8 12  1  0  0  0  0
  9 10  4  0  0  0  0
 10 11  4  0  0  0  0
 12 13  1  0  0  0  0
 13 14  1  0  0  0  0
 13 18  1  0  0  0  0
 14 15  1  0  0  0  0
 15 16  1  0  0  0  0
 16 17  1  0  0  0  0
 16 19  1  0  0  0  0
 17 18  1  0  0  0  0
 19 20  1  0  0  0  0
 20 21  1  0  0  0  0
 21 22  1  0  0  0  0
 22 23  4  0  0  0  0
 22 32  4  0  0  0  0
 23 24  4  0  0  0  0
 23 28  4  0  0  0  0
 24 25  4  0  0  0  0
 24 30  4  0  0  0  0
 25 26  4  0  0  0  0
 26 27  4  0  0  0  0
 26 29  1  0  0  0  0
 27 28  4  0  0  0  0
 30 31  4  0  0  0  0
 31 32  4  0  0  0  0
 33 34  1  0  0  0  0
M  END
>  <Name_Molregno>
415463

>  <5-HT1A>
8.15

>  <5-HT1B>
7.6

>  <5-HT1D>
9

$$$$
415464
  Marvin  02231216192D 0   1.00000     0.00000     0

 35 39  0  0  0  0  0  0  0  0999 V2000
   -1.0717   -1.0373    0.0000 O   0  0  0  0  0  0  0  0  0
   -0.3572   -1.4498    0.0000 C   0  0  0  0  0  0  0  0  0
   -0.3572   -2.2748    0.0000 C   0  0  0  0  0  0  0  0  0
    0.3573   -2.6873    0.0000 O   0  0  0  0  0  0  0  0  0
   -1.0717   -2.6873    0.0000 N   0  0  0  0  0  0  0  0  0
   -1.7861   -2.2748    0.0000 C   0  0  0  0  0  0  0  0  0
   -2.5006   -2.6873    0.0000 C   0  0  0  0  0  0  0  0  0
   -3.2151   -2.2748    0.0000 C   0  0  0  0  0  0  0  0  0
   -3.2151   -1.4498    0.0000 C   0  0  0  0  0  0  0  0  0
   -2.5006   -1.0373    0.0000 C   0  0  0  0  0  0  0  0  0
   -1.7861   -1.4498    0.0000 C   0  0  0  0  0  0  0  0  0
   -3.9295   -2.6873    0.0000 C   0  0  0  0  0  0  0  0  0
   -4.6440   -2.2748    0.0000 N   0  0  0  0  0  0  0  0  0
   -5.3585   -2.6873    0.0000 C   0  0  0  0  0  0  0  0  0
   -6.0730   -2.2748    0.0000 C   0  0  0  0  0  0  0  0  0
   -6.0730   -1.4498    0.0000 N   0  0  0  0  0  0  0  0  0
   -5.3585   -1.0373    0.0000 C   0  0  0  0  0  0  0  0  0
   -4.6440   -1.4498    0.0000 C   0  0  0  0  0  0  0  0  0
   -6.7874   -1.0373    0.0000 C   0  0  0  0  0  0  0  0  0
   -6.7874   -0.2123    0.0000 C   0  0  0  0  0  0  0  0  0
   -7.5019    0.2002    0.0000 O   0  0  0  0  0  0  0  0  0
   -7.5019    1.0252    0.0000 C   0  0  0  0  0  0  0  0  0
   -6.7874    1.4377    0.0000 C   0  0  0  0  0  0  0  0  0
   -6.7874    2.2627    0.0000 C   0  0  0  0  0  0  0  0  0
   -6.0730    2.6752    0.0000 N   0  0  0  0  0  0  0  0  0
   -5.3585    2.2627    0.0000 C   0  0  0  0  0  0  0  0  0
   -5.3585    1.4377    0.0000 C   0  0  0  0  0  0  0  0  0
   -6.0730    1.0252    0.0000 C   0  0  0  0  0  0  0  0  0
   -4.6440    2.6752    0.0000 C   0  0  0  0  0  0  0  0  0
   -7.5019    2.6752    0.0000 C   0  0  0  0  0  0  0  0  0
   -8.2164    2.2627    0.0000 C   0  0  0  0  0  0  0  0  0
   -8.2164    1.4377    0.0000 C   0  0  0  0  0  0  0  0  0
   -1.0717   -3.5123    0.0000 C   0  0  0  0  0  0  0  0  0
   -0.3572   -3.9248    0.0000 C   0  0  0  0  0  0  0  0  0
    0.3573   -3.5123    0.0000 C   0  0  0  0  0  0  0  0  0
  1  2  1  0  0  0  0
  1 11  1  0  0  0  0
  2  3  1  0  0  0  0
  3  4  2  0  0  0  0
  3  5  1  0  0  0  0
  5  6  1  0  0  0  0
  5 33  1  0  0  0  0
  6  7  4  0  0  0  0
  6 11  4  0  0  0  0
  7  8  4  0  0  0  0
  8  9  4  0  0  0  0
  8 12  1  0  0  0  0
  9 10  4  0  0  0  0
 10 11  4  0  0  0  0
 12 13  1  0  0  0  0
 13 14  1  0  0  0  0
 13 18  1  0  0  0  0
 14 15  1  0  0  0  0
 15 16  1  0  0  0  0
 16 17  1  0  0  0  0
 16 19  1  0  0  0  0
 17 18  1  0  0  0  0
 19 20  1  0  0  0  0
 20 21  1  0  0  0  0
 21 22  1  0  0  0  0
 22 23  4  0  0  0  0
 22 32  4  0  0  0  0
 23 24  4  0  0  0  0
 23 28  4  0  0  0  0
 24 25  4  0  0  0  0
 24 30  4  0  0  0  0
 25 26  4  0  0  0  0
 26 27  4  0  0  0  0
 26 29  1  0  0  0  0
 27 28  4  0  0  0  0
 30 31  4  0  0  0  0
 31 32  4  0  0  0  0
 33 34  1  0  0  0  0
 34 35  1  0  0  0  0
M  END
>  <Name_Molregno>
415464

>  <5-HT1A>
8.6

>  <5-HT1B>
7.5

>  <5-HT1D>
8.7

$$$$
415466
  Marvin  02231216192D 0   1.00000     0.00000     0

 36 40  0  0  0  0  0  0  0  0999 V2000
   -1.0159   -1.0057    0.0000 O   0  0  0  0  0  0  0  0  0
   -0.3015   -1.4182    0.0000 C   0  0  0  0  0  0  0  0  0
   -0.3015   -2.2432    0.0000 C   0  0  0  0  0  0  0  0  0
    0.4130   -2.6557    0.0000 O   0  0  0  0  0  0  0  0  0
   -1.0159   -2.6557    0.0000 N   0  0  0  0  0  0  0  0  0
   -1.7304   -2.2432    0.0000 C   0  0  0  0  0  0  0  0  0
   -2.4449   -2.6557    0.0000 C   0  0  0  0  0  0  0  0  0
   -3.1593   -2.2432    0.0000 C   0  0  0  0  0  0  0  0  0
   -3.1593   -1.4182    0.0000 C   0  0  0  0  0  0  0  0  0
   -2.4449   -1.0057    0.0000 C   0  0  0  0  0  0  0  0  0
   -1.7304   -1.4182    0.0000 C   0  0  0  0  0  0  0  0  0
   -3.8738   -2.6557    0.0000 C   0  0  0  0  0  0  0  0  0
   -4.5883   -2.2432    0.0000 N   0  0  0  0  0  0  0  0  0
   -5.3028   -2.6557    0.0000 C   0  0  0  0  0  0  0  0  0
   -6.0172   -2.2432    0.0000 C   0  0  0  0  0  0  0  0  0
   -6.0172   -1.4182    0.0000 N   0  0  0  0  0  0  0  0  0
   -5.3028   -1.0057    0.0000 C   0  0  0  0  0  0  0  0  0
   -4.5883   -1.4182    0.0000 C   0  0  0  0  0  0  0  0  0
   -6.7317   -1.0057    0.0000 C   0  0  0  0  0  0  0  0  0
   -6.7317   -0.1807    0.0000 C   0  0  0  0  0  0  0  0  0
   -7.4462    0.2318    0.0000 O   0  0  0  0  0  0  0  0  0
   -7.4462    1.0568    0.0000 C   0  0  0  0  0  0  0  0  0
   -6.7317    1.4693    0.0000 C   0  0  0  0  0  0  0  0  0
   -6.7317    2.2943    0.0000 C   0  0  0  0  0  0  0  0  0
   -6.0172    2.7068    0.0000 N   0  0  0  0  0  0  0  0  0
   -5.3028    2.2943    0.0000 C   0  0  0  0  0  0  0  0  0
   -5.3028    1.4693    0.0000 C   0  0  0  0  0  0  0  0  0
   -6.0172    1.0568    0.0000 C   0  0  0  0  0  0  0  0  0
   -4.5883    2.7068    0.0000 C   0  0  0  0  0  0  0  0  0
   -7.4462    2.7068    0.0000 C   0  0  0  0  0  0  0  0  0
   -8.1606    2.2943    0.0000 C   0  0  0  0  0  0  0  0  0
   -8.1606    1.4693    0.0000 C   0  0  0  0  0  0  0  0  0
   -1.0159   -3.4807    0.0000 C   0  0  0  0  0  0  0  0  0
   -0.3015   -3.8932    0.0000 C   0  0  0  0  0  0  0  0  0
   -0.3015   -4.7182    0.0000 C   0  0  0  0  0  0  0  0  0
    0.4130   -5.1307    0.0000 C   0  0  0  0  0  0  0  0  0
  1  2  1  0  0  0  0
  1 11  1  0  0  0  0
  2  3  1  0  0  0  0
  3  4  2  0  0  0  0
  3  5  1  0  0  0  0
  5  6  1  0  0  0  0
  5 33  1  0  0  0  0
  6  7  4  0  0  0  0
  6 11  4  0  0  0  0
  7  8  4  0  0  0  0
  8  9  4  0  0  0  0
  8 12  1  0  0  0  0
  9 10  4  0  0  0  0
 10 11  4  0  0  0  0
 12 13  1  0  0  0  0
 13 14  1  0  0  0  0
 13 18  1  0  0  0  0
 14 15  1  0  0  0  0
 15 16  1  0  0  0  0
 16 17  1  0  0  0  0
 16 19  1  0  0  0  0
 17 18  1  0  0  0  0
 19 20  1  0  0  0  0
 20 21  1  0  0  0  0
 21 22  1  0  0  0  0
 22 23  4  0  0  0  0
 22 32  4  0  0  0  0
 23 24  4  0  0  0  0
 23 28  4  0  0  0  0
 24 25  4  0  0  0  0
 24 30  4  0  0  0  0
 25 26  4  0  0  0  0
 26 27  4  0  0  0  0
 26 29  1  0  0  0  0
 27 28  4  0  0  0  0
 30 31  4  0  0  0  0
 31 32  4  0  0  0  0
 33 34  1  0  0  0  0
 34 35  1  0  0  0  0
 35 36  1  0  0  0  0
M  END
>  <Name_Molregno>
415466

>  <5-HT1A>
8.9

>  <5-HT1B>
7.5

>  <5-HT1D>
8.5

$$$$
415467
  Marvin  02231216192D 0   1.00000     0.00000     0

 36 40  0  0  0  0  0  0  0  0999 V2000
   -1.0172   -1.0022    0.0000 O   0  0  0  0  0  0  0  0  0
   -0.3027   -1.4147    0.0000 C   0  0  0  0  0  0  0  0  0
   -0.3027   -2.2397    0.0000 C   0  0  0  0  0  0  0  0  0
    0.4117   -2.6522    0.0000 O   0  0  0  0  0  0  0  0  0
   -1.0172   -2.6522    0.0000 N   0  0  0  0  0  0  0  0  0
   -1.7317   -2.2397    0.0000 C   0  0  0  0  0  0  0  0  0
   -2.4462   -2.6522    0.0000 C   0  0  0  0  0  0  0  0  0
   -3.1606   -2.2397    0.0000 C   0  0  0  0  0  0  0  0  0
   -3.1606   -1.4147    0.0000 C   0  0  0  0  0  0  0  0  0
   -2.4462   -1.0022    0.0000 C   0  0  0  0  0  0  0  0  0
   -1.7317   -1.4147    0.0000 C   0  0  0  0  0  0  0  0  0
   -3.8751   -2.6522    0.0000 C   0  0  0  0  0  0  0  0  0
   -4.5896   -2.2397    0.0000 N   0  0  0  0  0  0  0  0  0
   -5.3040   -2.6522    0.0000 C   0  0  0  0  0  0  0  0  0
   -6.0185   -2.2397    0.0000 C   0  0  0  0  0  0  0  0  0
   -6.0185   -1.4147    0.0000 N   0  0  0  0  0  0  0  0  0
   -5.3040   -1.0022    0.0000 C   0  0  0  0  0  0  0  0  0
   -4.5896   -1.4147    0.0000 C   0  0  0  0  0  0  0  0  0
   -6.7330   -1.0022    0.0000 C   0  0  0  0  0  0  0  0  0
   -6.7330   -0.1772    0.0000 C   0  0  0  0  0  0  0  0  0
   -7.4474    0.2353    0.0000 O   0  0  0  0  0  0  0  0  0
   -7.4474    1.0603    0.0000 C   0  0  0  0  0  0  0  0  0
   -6.7330    1.4728    0.0000 C   0  0  0  0  0  0  0  0  0
   -6.7330    2.2978    0.0000 C   0  0  0  0  0  0  0  0  0
   -6.0185    2.7103    0.0000 N   0  0  0  0  0  0  0  0  0
   -5.3040    2.2978    0.0000 C   0  0  0  0  0  0  0  0  0
   -5.3040    1.4728    0.0000 C   0  0  0  0  0  0  0  0  0
   -6.0185    1.0603    0.0000 C   0  0  0  0  0  0  0  0  0
   -4.5896    2.7103    0.0000 C   0  0  0  0  0  0  0  0  0
   -7.4474    2.7103    0.0000 C   0  0  0  0  0  0  0  0  0
   -8.1619    2.2978    0.0000 C   0  0  0  0  0  0  0  0  0
   -8.1619    1.4728    0.0000 C   0  0  0  0  0  0  0  0  0
   -1.0172   -3.4772    0.0000 C   0  0  0  0  0  0  0  0  0
   -0.3027   -3.8897    0.0000 C   0  0  0  0  0  0  0  0  0
    0.4117   -3.4772    0.0000 C   0  0  0  0  0  0  0  0  0
   -0.3027   -4.7147    0.0000 C   0  0  0  0  0  0  0  0  0
  1  2  1  0  0  0  0
  1 11  1  0  0  0  0
  2  3  1  0  0  0  0
  3  4  2  0  0  0  0
  3  5  1  0  0  0  0
  5  6  1  0  0  0  0
  5 33  1  0  0  0  0
  6  7  4  0  0  0  0
  6 11  4  0  0  0  0
  7  8  4  0  0  0  0
  8  9  4  0  0  0  0
  8 12  1  0  0  0  0
  9 10  4  0  0  0  0
 10 11  4  0  0  0  0
 12 13  1  0  0  0  0
 13 14  1  0  0  0  0
 13 18  1  0  0  0  0
 14 15  1  0  0  0  0
 15 16  1  0  0  0  0
 16 17  1  0  0  0  0
 16 19  1  0  0  0  0
 17 18  1  0  0  0  0
 19 20  1  0  0  0  0
 20 21  1  0  0  0  0
 21 22  1  0  0  0  0
 22 23  4  0  0  0  0
 22 32  4  0  0  0  0
 23 24  4  0  0  0  0
 23 28  4  0  0  0  0
 24 25  4  0  0  0  0
 24 30  4  0  0  0  0
 25 26  4  0  0  0  0
 26 27  4  0  0  0  0
 26 29  1  0  0  0  0
 27 28  4  0  0  0  0
 30 31  4  0  0  0  0
 31 32  4  0  0  0  0
 33 34  1  0  0  0  0
 34 35  1  0  0  0  0
 34 36  1  0  0  0  0
M  END
>  <Name_Molregno>
415467

>  <5-HT1A>
8.7

>  <5-HT1B>
7.5

>  <5-HT1D>
8.6

$$$$
415468
  Marvin  02231216192D 0   1.00000     0.00000     0

 39 44  0  0  0  0  0  0  0  0999 V2000
   -0.9495    1.0984    0.0000 O   0  0  0  0  0  0  0  0  0
   -0.2350    0.6859    0.0000 C   0  0  0  0  0  0  0  0  0
   -0.2350   -0.1391    0.0000 C   0  0  0  0  0  0  0  0  0
    0.4795   -0.5516    0.0000 O   0  0  0  0  0  0  0  0  0
   -0.9495   -0.5516    0.0000 N   0  0  0  0  0  0  0  0  0
   -1.6639   -0.1391    0.0000 C   0  0  0  0  0  0  0  0  0
   -2.3784   -0.5516    0.0000 C   0  0  0  0  0  0  0  0  0
   -3.0929   -0.1391    0.0000 C   0  0  0  0  0  0  0  0  0
   -3.0929    0.6859    0.0000 C   0  0  0  0  0  0  0  0  0
   -2.3784    1.0984    0.0000 C   0  0  0  0  0  0  0  0  0
   -1.6639    0.6859    0.0000 C   0  0  0  0  0  0  0  0  0
   -3.8073   -0.5516    0.0000 C   0  0  0  0  0  0  0  0  0
   -4.5218   -0.1391    0.0000 N   0  0  0  0  0  0  0  0  0
   -5.2363   -0.5516    0.0000 C   0  0  0  0  0  0  0  0  0
   -5.9508   -0.1391    0.0000 C   0  0  0  0  0  0  0  0  0
   -5.9508    0.6859    0.0000 N   0  0  0  0  0  0  0  0  0
   -5.2363    1.0984    0.0000 C   0  0  0  0  0  0  0  0  0
   -4.5218    0.6859    0.0000 C   0  0  0  0  0  0  0  0  0
   -6.6652    1.0984    0.0000 C   0  0  0  0  0  0  0  0  0
   -6.6652    1.9234    0.0000 C   0  0  0  0  0  0  0  0  0
   -7.3797    2.3359    0.0000 O   0  0  0  0  0  0  0  0  0
   -7.3797    3.1609    0.0000 C   0  0  0  0  0  0  0  0  0
   -6.6652    3.5734    0.0000 C   0  0  0  0  0  0  0  0  0
   -6.6652    4.3984    0.0000 C   0  0  0  0  0  0  0  0  0
   -5.9508    4.8109    0.0000 N   0  0  0  0  0  0  0  0  0
   -5.2363    4.3984    0.0000 C   0  0  0  0  0  0  0  0  0
   -5.2363    3.5734    0.0000 C   0  0  0  0  0  0  0  0  0
   -5.9508    3.1609    0.0000 C   0  0  0  0  0  0  0  0  0
   -4.5218    4.8109    0.0000 C   0  0  0  0  0  0  0  0  0
   -7.3797    4.8109    0.0000 C   0  0  0  0  0  0  0  0  0
   -8.0942    4.3984    0.0000 C   0  0  0  0  0  0  0  0  0
   -8.0942    3.5734    0.0000 C   0  0  0  0  0  0  0  0  0
   -0.9495   -1.3766    0.0000 C   0  0  0  0  0  0  0  0  0
   -0.2350   -1.7891    0.0000 C   0  0  0  0  0  0  0  0  0
    0.4795   -1.3766    0.0000 C   0  0  0  0  0  0  0  0  0
    1.1940   -1.7891    0.0000 C   0  0  0  0  0  0  0  0  0
    1.1940   -2.6141    0.0000 C   0  0  0  0  0  0  0  0  0
    0.4795   -3.0266    0.0000 C   0  0  0  0  0  0  0  0  0
   -0.2350   -2.6141    0.0000 C   0  0  0  0  0  0  0  0  0
  1  2  1  0  0  0  0
  1 11  1  0  0  0  0
  2  3  1  0  0  0  0
  3  4  2  0  0  0  0
  3  5  1  0  0  0  0
  5  6  1  0  0  0  0
  5 33  1  0  0  0  0
  6  7  4  0  0  0  0
  6 11  4  0  0  0  0
  7  8  4  0  0  0  0
  8  9  4  0  0  0  0
  8 12  1  0  0  0  0
  9 10  4  0  0  0  0
 10 11  4  0  0  0  0
 12 13  1  0  0  0  0
 13 14  1  0  0  0  0
 13 18  1  0  0  0  0
 14 15  1  0  0  0  0
 15 16  1  0  0  0  0
 16 17  1  0  0  0  0
 16 19  1  0  0  0  0
 17 18  1  0  0  0  0
 19 20  1  0  0  0  0
 20 21  1  0  0  0  0
 21 22  1  0  0  0  0
 22 23  4  0  0  0  0
 22 32  4  0  0  0  0
 23 24  4  0  0  0  0
 23 28  4  0  0  0  0
 24 25  4  0  0  0  0
 24 30  4  0  0  0  0
 25 26  4  0  0  0  0
 26 27  4  0  0  0  0
 26 29  1  0  0  0  0
 27 28  4  0  0  0  0
 30 31  4  0  0  0  0
 31 32  4  0  0  0  0
 33 34  1  0  0  0  0
 34 35  4  0  0  0  0
 34 39  4  0  0  0  0
 35 36  4  0  0  0  0
 36 37  4  0  0  0  0
 37 38  4  0  0  0  0
 38 39  4  0  0  0  0
M  END
>  <Name_Molregno>
415468

>  <5-HT1A>
8.4

>  <5-HT1B>
7.2

>  <5-HT1D>
8.2

$$$$
415472
  Marvin  02231216192D 0   1.00000     0.00000     0

 40 45  0  0  0  0  0  0  0  0999 V2000
    5.2294    3.2218    0.0000 O   0  0  0  0  0  0  0  0  0
    5.9439    2.8093    0.0000 C   0  0  0  0  0  0  0  0  0
    5.9439    1.9843    0.0000 C   0  0  0  0  0  0  0  0  0
    6.6583    1.5718    0.0000 O   0  0  0  0  0  0  0  0  0
    5.2294    1.5718    0.0000 N   0  0  0  0  0  0  0  0  0
    4.5149    1.9843    0.0000 C   0  0  0  0  0  0  0  0  0
    3.8004    1.5718    0.0000 C   0  0  0  0  0  0  0  0  0
    3.0860    1.9843    0.0000 C   0  0  0  0  0  0  0  0  0
    3.0860    2.8093    0.0000 C   0  0  0  0  0  0  0  0  0
    3.8004    3.2218    0.0000 C   0  0  0  0  0  0  0  0  0
    4.5149    2.8093    0.0000 C   0  0  0  0  0  0  0  0  0
    2.3715    1.5718    0.0000 C   0  0  0  0  0  0  0  0  0
    1.6570    1.9843    0.0000 N   0  0  0  0  0  0  0  0  0
    0.9426    1.5718    0.0000 C   0  0  0  0  0  0  0  0  0
    0.2281    1.9843    0.0000 C   0  0  0  0  0  0  0  0  0
    0.2281    2.8093    0.0000 N   0  0  0  0  0  0  0  0  0
    0.9426    3.2218    0.0000 C   0  0  0  0  0  0  0  0  0
    1.6570    2.8093    0.0000 C   0  0  0  0  0  0  0  0  0
   -0.4864    3.2218    0.0000 C   0  0  0  0  0  0  0  0  0
   -0.4864    4.0468    0.0000 C   0  0  0  0  0  0  0  0  0
   -1.2009    4.4593    0.0000 O   0  0  0  0  0  0  0  0  0
   -1.2009    5.2843    0.0000 C   0  0  0  0  0  0  0  0  0
   -0.4864    5.6968    0.0000 C   0  0  0  0  0  0  0  0  0
   -0.4864    6.5218    0.0000 C   0  0  0  0  0  0  0  0  0
    0.2281    6.9343    0.0000 N   0  0  0  0  0  0  0  0  0
    0.9426    6.5218    0.0000 C   0  0  0  0  0  0  0  0  0
    0.9426    5.6968    0.0000 C   0  0  0  0  0  0  0  0  0
    0.2281    5.2843    0.0000 C   0  0  0  0  0  0  0  0  0
    1.6570    6.9343    0.0000 C   0  0  0  0  0  0  0  0  0
   -1.2009    6.9343    0.0000 C   0  0  0  0  0  0  0  0  0
   -1.9153    6.5218    0.0000 C   0  0  0  0  0  0  0  0  0
   -1.9153    5.6968    0.0000 C   0  0  0  0  0  0  0  0  0
    5.2294    0.7468    0.0000 C   0  0  0  0  0  0  0  0  0
    5.9439    0.3343    0.0000 C   0  0  0  0  0  0  0  0  0
    5.9439   -0.4907    0.0000 C   0  0  0  0  0  0  0  0  0
    6.6583   -0.9032    0.0000 C   0  0  0  0  0  0  0  0  0
    6.6583   -1.7282    0.0000 C   0  0  0  0  0  0  0  0  0
    5.9439   -2.1407    0.0000 C   0  0  0  0  0  0  0  0  0
    5.2294   -1.7282    0.0000 C   0  0  0  0  0  0  0  0  0
    5.2294   -0.9032    0.0000 C   0  0  0  0  0  0  0  0  0
  1  2  1  0  0  0  0
  1 11  1  0  0  0  0
  2  3  1  0  0  0  0
  3  4  2  0  0  0  0
  3  5  1  0  0  0  0
  5  6  1  0  0  0  0
  5 33  1  0  0  0  0
  6  7  4  0  0  0  0
  6 11  4  0  0  0  0
  7  8  4  0  0  0  0
  8  9  4  0  0  0  0
  8 12  1  0  0  0  0
  9 10  4  0  0  0  0
 10 11  4  0  0  0  0
 12 13  1  0  0  0  0
 13 14  1  0  0  0  0
 13 18  1  0  0  0  0
 14 15  1  0  0  0  0
 15 16  1  0  0  0  0
 16 17  1  0  0  0  0
 16 19  1  0  0  0  0
 17 18  1  0  0  0  0
 19 20  1  0  0  0  0
 20 21  1  0  0  0  0
 21 22  1  0  0  0  0
 22 23  4  0  0  0  0
 22 32  4  0  0  0  0
 23 24  4  0  0  0  0
 23 28  4  0  0  0  0
 24 25  4  0  0  0  0
 24 30  4  0  0  0  0
 25 26  4  0  0  0  0
 26 27  4  0  0  0  0
 26 29  1  0  0  0  0
 27 28  4  0  0  0  0
 30 31  4  0  0  0  0
 31 32  4  0  0  0  0
 33 34  1  0  0  0  0
 34 35  1  0  0  0  0
 35 36  4  0  0  0  0
 35 40  4  0  0  0  0
 36 37  4  0  0  0  0
 37 38  4  0  0  0  0
 38 39  4  0  0  0  0
 39 40  4  0  0  0  0
M  END
>  <Name_Molregno>
415472

>  <5-HT1A>
8.2

>  <5-HT1B>
7.6

>  <5-HT1D>
8.7

$$$$
415511
  Marvin  02231216192D 0   1.00000     0.00000     0

 34 38  0  0  0  0  0  0  0  0999 V2000
   -6.6448   -4.7640    0.0000 F   0  0  0  0  0  0  0  0  0
   -5.9304   -4.3515    0.0000 C   0  0  0  0  0  0  0  0  0
   -5.9304   -3.5265    0.0000 C   0  0  0  0  0  0  0  0  0
   -5.2159   -3.1140    0.0000 C   0  0  0  0  0  0  0  0  0
   -4.5014   -3.5265    0.0000 C   0  0  0  0  0  0  0  0  0
   -4.5014   -4.3515    0.0000 C   0  0  0  0  0  0  0  0  0
   -3.7869   -4.7640    0.0000 N   0  0  0  0  0  0  0  0  0
   -3.0725   -4.3515    0.0000 C   0  0  0  0  0  0  0  0  0
   -3.7869   -5.5890    0.0000 C   0  0  0  0  0  0  0  0  0
   -3.0725   -6.0015    0.0000 O   0  0  0  0  0  0  0  0  0
   -4.5014   -6.0015    0.0000 C   0  0  0  0  0  0  0  0  0
   -5.2159   -5.5890    0.0000 O   0  0  0  0  0  0  0  0  0
   -5.2159   -4.7640    0.0000 C   0  0  0  0  0  0  0  0  0
   -5.2159   -2.2890    0.0000 C   0  0  0  0  0  0  0  0  0
   -4.5014   -1.8765    0.0000 N   0  0  0  0  0  0  0  0  0
   -4.5014   -1.0515    0.0000 C   0  0  0  0  0  0  0  0  0
   -3.7869   -0.6390    0.0000 C   0  0  0  0  0  0  0  0  0
   -3.0725   -1.0515    0.0000 N   0  0  0  0  0  0  0  0  0
   -3.0725   -1.8765    0.0000 C   0  0  0  0  0  0  0  0  0
   -3.7869   -2.2890    0.0000 C   0  0  0  0  0  0  0  0  0
   -2.3580   -0.6390    0.0000 C   0  0  0  0  0  0  0  0  0
   -2.3580    0.1860    0.0000 C   0  0  0  0  0  0  0  0  0
   -1.6435    0.5985    0.0000 O   0  0  0  0  0  0  0  0  0
   -1.6435    1.4235    0.0000 C   0  0  0  0  0  0  0  0  0
   -0.9291    1.8360    0.0000 C   0  0  0  0  0  0  0  0  0
   -0.9291    2.6610    0.0000 C   0  0  0  0  0  0  0  0  0
   -0.2146    3.0735    0.0000 N   0  0  0  0  0  0  0  0  0
    0.4999    2.6610    0.0000 C   0  0  0  0  0  0  0  0  0
    0.4999    1.8360    0.0000 C   0  0  0  0  0  0  0  0  0
   -0.2146    1.4235    0.0000 C   0  0  0  0  0  0  0  0  0
    1.2144    3.0735    0.0000 C   0  0  0  0  0  0  0  0  0
   -1.6435    3.0735    0.0000 C   0  0  0  0  0  0  0  0  0
   -2.3580    2.6610    0.0000 C   0  0  0  0  0  0  0  0  0
   -2.3580    1.8360    0.0000 C   0  0  0  0  0  0  0  0  0
  1  2  1  0  0  0  0
  2  3  4  0  0  0  0
  2 13  4  0  0  0  0
  3  4  4  0  0  0  0
  4  5  4  0  0  0  0
  4 14  1  0  0  0  0
  5  6  4  0  0  0  0
  6  7  1  0  0  0  0
  6 13  4  0  0  0  0
  7  8  1  0  0  0  0
  7  9  1  0  0  0  0
  9 10  2  0  0  0  0
  9 11  1  0  0  0  0
 11 12  1  0  0  0  0
 12 13  1  0  0  0  0
 14 15  1  0  0  0  0
 15 16  1  0  0  0  0
 15 20  1  0  0  0  0
 16 17  1  0  0  0  0
 17 18  1  0  0  0  0
 18 19  1  0  0  0  0
 18 21  1  0  0  0  0
 19 20  1  0  0  0  0
 21 22  1  0  0  0  0
 22 23  1  0  0  0  0
 23 24  1  0  0  0  0
 24 25  4  0  0  0  0
 24 34  4  0  0  0  0
 25 26  4  0  0  0  0
 25 30  4  0  0  0  0
 26 27  4  0  0  0  0
 26 32  4  0  0  0  0
 27 28  4  0  0  0  0
 28 29  4  0  0  0  0
 28 31  1  0  0  0  0
 29 30  4  0  0  0  0
 32 33  4  0  0  0  0
 33 34  4  0  0  0  0
M  END
>  <Name_Molregno>
415511

>  <5-HT1A>
8.1

>  <5-HT1B>
9.7

>  <5-HT1D>
9.4

$$$$
415512
  Marvin  02231216192D 0   1.00000     0.00000     0

 34 38  0  0  0  0  0  0  0  0999 V2000
    2.7020   -1.7967    0.0000 F   0  0  0  0  0  0  0  0  0
    1.9875   -2.2092    0.0000 C   0  0  0  0  0  0  0  0  0
    1.9875   -3.0342    0.0000 C   0  0  0  0  0  0  0  0  0
    2.7020   -3.4467    0.0000 N   0  0  0  0  0  0  0  0  0
    3.4165   -3.0342    0.0000 C   0  0  0  0  0  0  0  0  0
    2.7020   -4.2717    0.0000 C   0  0  0  0  0  0  0  0  0
    3.4165   -4.6842    0.0000 O   0  0  0  0  0  0  0  0  0
    1.9875   -4.6842    0.0000 C   0  0  0  0  0  0  0  0  0
    1.2731   -4.2717    0.0000 O   0  0  0  0  0  0  0  0  0
    1.2731   -3.4467    0.0000 C   0  0  0  0  0  0  0  0  0
    0.5586   -3.0342    0.0000 C   0  0  0  0  0  0  0  0  0
    0.5586   -2.2092    0.0000 C   0  0  0  0  0  0  0  0  0
    1.2731   -1.7967    0.0000 C   0  0  0  0  0  0  0  0  0
    1.2731   -0.9717    0.0000 C   0  0  0  0  0  0  0  0  0
    1.9875   -0.5592    0.0000 N   0  0  0  0  0  0  0  0  0
    1.9875    0.2658    0.0000 C   0  0  0  0  0  0  0  0  0
    2.7020    0.6783    0.0000 C   0  0  0  0  0  0  0  0  0
    3.4165    0.2658    0.0000 N   0  0  0  0  0  0  0  0  0
    3.4165   -0.5592    0.0000 C   0  0  0  0  0  0  0  0  0
    2.7020   -0.9717    0.0000 C   0  0  0  0  0  0  0  0  0
    4.1309    0.6783    0.0000 C   0  0  0  0  0  0  0  0  0
    4.1309    1.5033    0.0000 C   0  0  0  0  0  0  0  0  0
    4.8454    1.9158    0.0000 O   0  0  0  0  0  0  0  0  0
    4.8454    2.7408    0.0000 C   0  0  0  0  0  0  0  0  0
    5.5599    3.1533    0.0000 C   0  0  0  0  0  0  0  0  0
    5.5599    3.9783    0.0000 C   0  0  0  0  0  0  0  0  0
    6.2743    4.3908    0.0000 N   0  0  0  0  0  0  0  0  0
    6.9888    3.9783    0.0000 C   0  0  0  0  0  0  0  0  0
    6.9888    3.1533    0.0000 C   0  0  0  0  0  0  0  0  0
    6.2743    2.7408    0.0000 C   0  0  0  0  0  0  0  0  0
    7.7033    4.3908    0.0000 C   0  0  0  0  0  0  0  0  0
    4.8454    4.3908    0.0000 C   0  0  0  0  0  0  0  0  0
    4.1309    3.9783    0.0000 C   0  0  0  0  0  0  0  0  0
    4.1309    3.1533    0.0000 C   0  0  0  0  0  0  0  0  0
  1  2  1  0  0  0  0
  2  3  4  0  0  0  0
  2 13  4  0  0  0  0
  3  4  1  0  0  0  0
  3 10  4  0  0  0  0
  4  5  1  0  0  0  0
  4  6  1  0  0  0  0
  6  7  2  0  0  0  0
  6  8  1  0  0  0  0
  8  9  1  0  0  0  0
  9 10  1  0  0  0  0
 10 11  4  0  0  0  0
 11 12  4  0  0  0  0
 12 13  4  0  0  0  0
 13 14  1  0  0  0  0
 14 15  1  0  0  0  0
 15 16  1  0  0  0  0
 15 20  1  0  0  0  0
 16 17  1  0  0  0  0
 17 18  1  0  0  0  0
 18 19  1  0  0  0  0
 18 21  1  0  0  0  0
 19 20  1  0  0  0  0
 21 22  1  0  0  0  0
 22 23  1  0  0  0  0
 23 24  1  0  0  0  0
 24 25  4  0  0  0  0
 24 34  4  0  0  0  0
 25 26  4  0  0  0  0
 25 30  4  0  0  0  0
 26 27  4  0  0  0  0
 26 32  4  0  0  0  0
 27 28  4  0  0  0  0
 28 29  4  0  0  0  0
 28 31  1  0  0  0  0
 29 30  4  0  0  0  0
 32 33  4  0  0  0  0
 33 34  4  0  0  0  0
M  END
>  <Name_Molregno>
415512

>  <5-HT1A>
8.5

>  <5-HT1B>
8.8

>  <5-HT1D>
9.3

$$$$
415513
  Marvin  02231216192D 0   1.00000     0.00000     0

 35 39  0  0  0  0  0  0  0  0999 V2000
   -5.7519   -2.7845    0.0000 F   0  0  0  0  0  0  0  0  0
   -5.7519   -1.9595    0.0000 C   0  0  0  0  0  0  0  0  0
   -6.4664   -1.5470    0.0000 C   0  0  0  0  0  0  0  0  0
   -7.1809   -1.9595    0.0000 N   0  0  0  0  0  0  0  0  0
   -7.1809   -2.7845    0.0000 C   0  0  0  0  0  0  0  0  0
   -7.8953   -3.1970    0.0000 C   0  0  0  0  0  0  0  0  0
   -7.8953   -1.5470    0.0000 C   0  0  0  0  0  0  0  0  0
   -8.6098   -1.9595    0.0000 O   0  0  0  0  0  0  0  0  0
   -7.8953   -0.7220    0.0000 C   0  0  0  0  0  0  0  0  0
   -7.1809   -0.3095    0.0000 O   0  0  0  0  0  0  0  0  0
   -6.4664   -0.7220    0.0000 C   0  0  0  0  0  0  0  0  0
   -5.7519   -0.3095    0.0000 C   0  0  0  0  0  0  0  0  0
   -5.0375   -0.7220    0.0000 C   0  0  0  0  0  0  0  0  0
   -5.0375   -1.5470    0.0000 C   0  0  0  0  0  0  0  0  0
   -4.3230   -1.9595    0.0000 C   0  0  0  0  0  0  0  0  0
   -3.6085   -1.5470    0.0000 N   0  0  0  0  0  0  0  0  0
   -3.6085   -0.7220    0.0000 C   0  0  0  0  0  0  0  0  0
   -2.8940   -0.3095    0.0000 C   0  0  0  0  0  0  0  0  0
   -2.1796   -0.7220    0.0000 N   0  0  0  0  0  0  0  0  0
   -2.1796   -1.5470    0.0000 C   0  0  0  0  0  0  0  0  0
   -2.8940   -1.9595    0.0000 C   0  0  0  0  0  0  0  0  0
   -1.4651   -0.3095    0.0000 C   0  0  0  0  0  0  0  0  0
   -1.4651    0.5155    0.0000 C   0  0  0  0  0  0  0  0  0
   -0.7506    0.9280    0.0000 O   0  0  0  0  0  0  0  0  0
   -0.7506    1.7530    0.0000 C   0  0  0  0  0  0  0  0  0
   -0.0362    2.1655    0.0000 C   0  0  0  0  0  0  0  0  0
   -0.0362    2.9905    0.0000 C   0  0  0  0  0  0  0  0  0
    0.6783    3.4030    0.0000 N   0  0  0  0  0  0  0  0  0
    1.3928    2.9905    0.0000 C   0  0  0  0  0  0  0  0  0
    1.3928    2.1655    0.0000 C   0  0  0  0  0  0  0  0  0
    0.6783    1.7530    0.0000 C   0  0  0  0  0  0  0  0  0
    2.1073    3.4030    0.0000 C   0  0  0  0  0  0  0  0  0
   -0.7506    3.4030    0.0000 C   0  0  0  0  0  0  0  0  0
   -1.4651    2.9905    0.0000 C   0  0  0  0  0  0  0  0  0
   -1.4651    2.1655    0.0000 C   0  0  0  0  0  0  0  0  0
  1  2  1  0  0  0  0
  2  3  4  0  0  0  0
  2 14  4  0  0  0  0
  3  4  1  0  0  0  0
  3 11  4  0  0  0  0
  4  5  1  0  0  0  0
  4  7  1  0  0  0  0
  5  6  1  0  0  0  0
  7  8  2  0  0  0  0
  7  9  1  0  0  0  0
  9 10  1  0  0  0  0
 10 11  1  0  0  0  0
 11 12  4  0  0  0  0
 12 13  4  0  0  0  0
 13 14  4  0  0  0  0
 14 15  1  0  0  0  0
 15 16  1  0  0  0  0
 16 17  1  0  0  0  0
 16 21  1  0  0  0  0
 17 18  1  0  0  0  0
 18 19  1  0  0  0  0
 19 20  1  0  0  0  0
 19 22  1  0  0  0  0
 20 21  1  0  0  0  0
 22 23  1  0  0  0  0
 23 24  1  0  0  0  0
 24 25  1  0  0  0  0
 25 26  4  0  0  0  0
 25 35  4  0  0  0  0
 26 27  4  0  0  0  0
 26 31  4  0  0  0  0
 27 28  4  0  0  0  0
 27 33  4  0  0  0  0
 28 29  4  0  0  0  0
 29 30  4  0  0  0  0
 29 32  1  0  0  0  0
 30 31  4  0  0  0  0
 33 34  4  0  0  0  0
 34 35  4  0  0  0  0
M  END
>  <Name_Molregno>
415513

>  <5-HT1A>
8.6

>  <5-HT1B>
8.8

>  <5-HT1D>
8.9

$$$$
421822
  Marvin  02231216192D 0   1.00000     0.00000     0

 21 23  0  0  1  0  0  0  0  0999 V2000
   -3.0222   -2.3693    0.0000 Cl  0  0  0  0  0  0  0  0  0
   -3.0222   -1.5443    0.0000 C   0  0  0  0  0  0  0  0  0
   -2.3077   -1.1318    0.0000 C   0  0  0  0  0  0  0  0  0
   -2.3077   -0.3068    0.0000 C   0  0  0  0  0  0  0  0  0
   -1.5933    0.1057    0.0000 N   0  0  0  0  0  0  0  0  0
   -0.8788   -0.3068    0.0000 C   0  0  0  0  0  0  0  0  0
   -0.1643    0.1057    0.0000 O   0  0  0  0  0  0  0  0  0
   -0.8788   -1.1318    0.0000 C   0  0  0  0  0  0  0  0  0
   -0.0663   -0.9885    0.0000 C   0  0  0  0  0  0  0  0  0
   -1.5933   -1.5443    0.0000 C   0  0  0  0  0  0  0  0  0
   -1.5933   -2.3693    0.0000 O   0  0  0  0  0  0  0  0  0
   -0.5966   -1.9070    0.0000 C   0  0  0  0  0  0  0  0  0
    0.2158   -2.0503    0.0000 C   0  0  0  0  0  0  0  0  0
    0.4980   -2.8255    0.0000 C   0  0  0  0  0  0  0  0  0
   -0.0323   -3.4575    0.0000 C   0  0  0  0  0  0  0  0  0
   -0.8448   -3.3143    0.0000 C   0  0  0  0  0  0  0  0  0
   -1.1269   -2.5390    0.0000 C   0  0  0  0  0  0  0  0  0
   -3.0222    0.1057    0.0000 C   0  0  0  0  0  0  0  0  0
   -3.7367   -0.3068    0.0000 C   0  0  0  0  0  0  0  0  0
   -4.4512    0.1057    0.0000 Cl  0  0  0  0  0  0  0  0  0
   -3.7367   -1.1318    0.0000 C   0  0  0  0  0  0  0  0  0
  1  2  1  0  0  0  0
  2  3  4  0  0  0  0
  2 21  4  0  0  0  0
  3  4  4  0  0  0  0
  3 10  1  0  0  0  0
  4  5  1  0  0  0  0
  4 18  4  0  0  0  0
  5  6  1  0  0  0  0
  6  7  2  0  0  0  0
  6  8  1  0  0  0  0
  8  9  1  0  0  0  0
  8 10  1  0  0  0  0
  8 12  1  0  0  0  0
 10 11  2  0  0  0  0
 12 13  4  0  0  0  0
 12 17  4  0  0  0  0
 13 14  4  0  0  0  0
 14 15  4  0  0  0  0
 15 16  4  0  0  0  0
 16 17  4  0  0  0  0
 18 19  4  0  0  0  0
 19 20  1  0  0  0  0
 19 21  4  0  0  0  0
M  END
>  <Name_Molregno>
421822

>  <5-HT1A>
5

>  <5-HT2A>
5

>  <5-HT2C>
5

>  <5-HT6>
7.26

>  <5-HT7>
5

>  <DOPAMINE D1>
5

>  <DOPAMINE D2>
5

>  <DOPAMINE D3>
5

>  <DOPAMINE D4>
5

$$$$
422032
  Marvin  02231216192D 0   1.00000     0.00000     0

 22 24  0  0  1  0  0  0  0  0999 V2000
    0.2420   -2.2208    0.0000 Cl  0  0  0  0  0  0  0  0  0
    0.2420   -1.3958    0.0000 C   0  0  0  0  0  0  0  0  0
    0.9565   -0.9833    0.0000 C   0  0  0  0  0  0  0  0  0
    0.9565   -0.1583    0.0000 C   0  0  0  0  0  0  0  0  0
    1.6709    0.2542    0.0000 N   0  0  0  0  0  0  0  0  0
    2.3854   -0.1583    0.0000 C   0  0  0  0  0  0  0  0  0
    3.0999    0.2542    0.0000 O   0  0  0  0  0  0  0  0  0
    2.3854   -0.9833    0.0000 C   0  0  0  0  0  0  0  0  0
    3.1979   -0.8401    0.0000 C   0  0  0  0  0  0  0  0  0
    1.6709   -1.3958    0.0000 C   0  0  0  0  0  0  0  0  0
    1.6709   -2.2208    0.0000 O   0  0  0  0  0  0  0  0  0
    2.6676   -1.7586    0.0000 C   0  0  0  0  0  0  0  0  0
    3.4800   -1.9018    0.0000 C   0  0  0  0  0  0  0  0  0
    3.7622   -2.6771    0.0000 C   0  0  0  0  0  0  0  0  0
    4.5747   -2.8203    0.0000 O   0  0  0  0  0  0  0  0  0
    3.2319   -3.3091    0.0000 C   0  0  0  0  0  0  0  0  0
    2.4194   -3.1658    0.0000 C   0  0  0  0  0  0  0  0  0
    2.1373   -2.3906    0.0000 C   0  0  0  0  0  0  0  0  0
    0.2420    0.2542    0.0000 C   0  0  0  0  0  0  0  0  0
   -0.4725   -0.1583    0.0000 C   0  0  0  0  0  0  0  0  0
   -1.1870    0.2542    0.0000 Cl  0  0  0  0  0  0  0  0  0
   -0.4725   -0.9833    0.0000 C   0  0  0  0  0  0  0  0  0
  1  2  1  0  0  0  0
  2  3  4  0  0  0  0
  2 22  4  0  0  0  0
  3  4  4  0  0  0  0
  3 10  1  0  0  0  0
  4  5  1  0  0  0  0
  4 19  4  0  0  0  0
  5  6  1  0  0  0  0
  6  7  2  0  0  0  0
  6  8  1  0  0  0  0
  8  9  1  0  0  0  0
  8 10  1  0  0  0  0
  8 12  1  0  0  0  0
 10 11  2  0  0  0  0
 12 13  4  0  0  0  0
 12 18  4  0  0  0  0
 13 14  4  0  0  0  0
 14 15  1  0  0  0  0
 14 16  4  0  0  0  0
 16 17  4  0  0  0  0
 17 18  4  0  0  0  0
 19 20  4  0  0  0  0
 20 21  1  0  0  0  0
 20 22  4  0  0  0  0
M  END
>  <Name_Molregno>
422032

>  <5-HT1A>
5

>  <5-HT2A>
5

>  <5-HT2C>
5

>  <5-HT6>
7.52

>  <5-HT7>
5

>  <DOPAMINE D1>
5.74

>  <DOPAMINE D2>
5

>  <DOPAMINE D3>
5

>  <DOPAMINE D4>
5

$$$$
422034
  Marvin  02231216192D 0   1.00000     0.00000     0

 22 24  0  0  1  0  0  0  0  0999 V2000
   -3.2883   -2.2141    0.0000 Cl  0  0  0  0  0  0  0  0  0
   -3.2883   -1.3891    0.0000 C   0  0  0  0  0  0  0  0  0
   -2.5738   -0.9766    0.0000 C   0  0  0  0  0  0  0  0  0
   -2.5738   -0.1516    0.0000 C   0  0  0  0  0  0  0  0  0
   -1.8594    0.2609    0.0000 N   0  0  0  0  0  0  0  0  0
   -1.1449   -0.1516    0.0000 C   0  0  0  0  0  0  0  0  0
   -0.4304    0.2609    0.0000 O   0  0  0  0  0  0  0  0  0
   -1.1449   -0.9766    0.0000 C   0  0  0  0  0  0  0  0  0
   -0.3324   -0.8334    0.0000 C   0  0  0  0  0  0  0  0  0
   -1.8594   -1.3891    0.0000 C   0  0  0  0  0  0  0  0  0
   -1.8594   -2.2141    0.0000 O   0  0  0  0  0  0  0  0  0
   -0.8627   -1.7519    0.0000 C   0  0  0  0  0  0  0  0  0
   -0.0503   -1.8951    0.0000 C   0  0  0  0  0  0  0  0  0
    0.2319   -2.6704    0.0000 C   0  0  0  0  0  0  0  0  0
   -0.2984   -3.3024    0.0000 C   0  0  0  0  0  0  0  0  0
   -0.0162   -4.0776    0.0000 O   0  0  0  0  0  0  0  0  0
   -1.1109   -3.1591    0.0000 C   0  0  0  0  0  0  0  0  0
   -1.3930   -2.3839    0.0000 C   0  0  0  0  0  0  0  0  0
   -3.2883    0.2609    0.0000 C   0  0  0  0  0  0  0  0  0
   -4.0028   -0.1516    0.0000 C   0  0  0  0  0  0  0  0  0
   -4.7172    0.2609    0.0000 Cl  0  0  0  0  0  0  0  0  0
   -4.0028   -0.9766    0.0000 C   0  0  0  0  0  0  0  0  0
  1  2  1  0  0  0  0
  2  3  4  0  0  0  0
  2 22  4  0  0  0  0
  3  4  4  0  0  0  0
  3 10  1  0  0  0  0
  4  5  1  0  0  0  0
  4 19  4  0  0  0  0
  5  6  1  0  0  0  0
  6  7  2  0  0  0  0
  6  8  1  0  0  0  0
  8  9  1  0  0  0  0
  8 10  1  0  0  0  0
  8 12  1  0  0  0  0
 10 11  2  0  0  0  0
 12 13  4  0  0  0  0
 12 18  4  0  0  0  0
 13 14  4  0  0  0  0
 14 15  4  0  0  0  0
 15 16  1  0  0  0  0
 15 17  4  0  0  0  0
 17 18  4  0  0  0  0
 19 20  4  0  0  0  0
 20 21  1  0  0  0  0
 20 22  4  0  0  0  0
M  END
>  <Name_Molregno>
422034

>  <5-HT1A>
5

>  <5-HT2A>
5

>  <5-HT2C>
5

>  <5-HT6>
7.91

>  <5-HT7>
5

>  <DOPAMINE D1>
5

>  <DOPAMINE D2>
5

>  <DOPAMINE D3>
5

>  <DOPAMINE D4>
5

$$$$
422042
  Marvin  02231216192D 0   1.00000     0.00000     0

 29 32  0  0  1  0  0  0  0  0999 V2000
   -4.6946   -2.2677    0.0000 Cl  0  0  0  0  0  0  0  0  0
   -4.6946   -1.4427    0.0000 C   0  0  0  0  0  0  0  0  0
   -3.9801   -1.0302    0.0000 C   0  0  0  0  0  0  0  0  0
   -3.9801   -0.2052    0.0000 C   0  0  0  0  0  0  0  0  0
   -3.2656    0.2073    0.0000 N   0  0  0  0  0  0  0  0  0
   -2.5512   -0.2052    0.0000 C   0  0  0  0  0  0  0  0  0
   -1.8367    0.2073    0.0000 O   0  0  0  0  0  0  0  0  0
   -2.5512   -1.0302    0.0000 C   0  0  0  0  0  0  0  0  0
   -1.7387   -0.8870    0.0000 C   0  0  0  0  0  0  0  0  0
   -3.2656   -1.4427    0.0000 C   0  0  0  0  0  0  0  0  0
   -3.2656   -2.2677    0.0000 O   0  0  0  0  0  0  0  0  0
   -2.2690   -1.8055    0.0000 C   0  0  0  0  0  0  0  0  0
   -1.4565   -1.9487    0.0000 C   0  0  0  0  0  0  0  0  0
   -1.1744   -2.7240    0.0000 C   0  0  0  0  0  0  0  0  0
   -0.3619   -2.8672    0.0000 O   0  0  0  0  0  0  0  0  0
   -0.0797   -3.6425    0.0000 C   0  0  0  0  0  0  0  0  0
    0.7327   -3.7857    0.0000 C   0  0  0  0  0  0  0  0  0
    1.2630   -3.1538    0.0000 C   0  0  0  0  0  0  0  0  0
    2.0755   -3.2970    0.0000 C   0  0  0  0  0  0  0  0  0
    2.3577   -4.0723    0.0000 C   0  0  0  0  0  0  0  0  0
    1.8274   -4.7042    0.0000 C   0  0  0  0  0  0  0  0  0
    1.0149   -4.5610    0.0000 C   0  0  0  0  0  0  0  0  0
   -1.7047   -3.3560    0.0000 C   0  0  0  0  0  0  0  0  0
   -2.5171   -3.2127    0.0000 C   0  0  0  0  0  0  0  0  0
   -2.7993   -2.4375    0.0000 C   0  0  0  0  0  0  0  0  0
   -4.6946    0.2073    0.0000 C   0  0  0  0  0  0  0  0  0
   -5.4091   -0.2052    0.0000 C   0  0  0  0  0  0  0  0  0
   -6.1235    0.2073    0.0000 Cl  0  0  0  0  0  0  0  0  0
   -5.4091   -1.0302    0.0000 C   0  0  0  0  0  0  0  0  0
  1  2  1  0  0  0  0
  2  3  4  0  0  0  0
  2 29  4  0  0  0  0
  3  4  4  0  0  0  0
  3 10  1  0  0  0  0
  4  5  1  0  0  0  0
  4 26  4  0  0  0  0
  5  6  1  0  0  0  0
  6  7  2  0  0  0  0
  6  8  1  0  0  0  0
  8  9  1  0  0  0  0
  8 10  1  0  0  0  0
  8 12  1  0  0  0  0
 10 11  2  0  0  0  0
 12 13  4  0  0  0  0
 12 25  4  0  0  0  0
 13 14  4  0  0  0  0
 14 15  1  0  0  0  0
 14 23  4  0  0  0  0
 15 16  1  0  0  0  0
 16 17  1  0  0  0  0
 17 18  4  0  0  0  0
 17 22  4  0  0  0  0
 18 19  4  0  0  0  0
 19 20  4  0  0  0  0
 20 21  4  0  0  0  0
 21 22  4  0  0  0  0
 23 24  4  0  0  0  0
 24 25  4  0  0  0  0
 26 27  4  0  0  0  0
 27 28  1  0  0  0  0
 27 29  4  0  0  0  0
M  END
>  <Name_Molregno>
422042

>  <5-HT1A>
6.77

>  <5-HT2A>
6.14

>  <5-HT2C>
5

>  <5-HT6>
7.08

>  <5-HT7>
6.22

>  <DOPAMINE D1>
6.92

>  <DOPAMINE D2>
5

>  <DOPAMINE D3>
5

>  <DOPAMINE D4>
5

$$$$
423205
  Marvin  02231216192D 0   1.00000     0.00000     0

 33 37  0  0  1  0  0  0  0  0999 V2000
    4.8265    3.7064    0.0000 S   0  0  0  0  0  0  0  0  0
    4.3416    3.0390    0.0000 N   0  0  0  0  0  0  0  0  0
    4.8265    2.3715    0.0000 C   0  0  0  0  0  0  0  0  0
    4.5715    1.5869    0.0000 N   0  0  0  0  0  0  0  0  0
    5.1236    0.9738    0.0000 C   0  0  0  0  0  0  0  0  0
    4.8686    0.1892    0.0000 C   0  0  0  0  0  0  0  0  0
    4.0617    0.0177    0.0000 N   0  0  0  0  0  0  0  0  0
    3.5096    0.6307    0.0000 C   0  0  0  0  0  0  0  0  0
    3.7646    1.4154    0.0000 C   0  0  0  0  0  0  0  0  0
    3.8067   -0.7670    0.0000 C   0  0  0  0  0  0  0  0  0
    2.9998   -0.9385    0.0000 C   0  0  0  0  0  0  0  0  0
    2.7448   -1.7231    0.0000 C   0  0  0  0  0  0  0  0  0
    3.2968   -2.3362    0.0000 C   0  0  0  0  0  0  0  0  0
    3.0419   -3.1208    0.0000 C   0  0  0  0  0  0  0  0  0
    2.2349   -3.2924    0.0000 C   0  0  0  0  0  0  0  0  0
    2.1487   -4.1128    0.0000 C   0  0  0  0  0  0  0  0  0
    2.9024   -4.4484    0.0000 C   0  0  0  0  0  0  0  0  0
    3.4544   -3.8353    0.0000 C   0  0  0  0  0  0  0  0  0
    4.2749   -3.9215    0.0000 N   0  0  0  0  0  0  0  0  0
    4.6104   -4.6752    0.0000 C   0  0  0  0  0  0  0  0  0
    4.1255   -5.3427    0.0000 O   0  0  0  0  0  0  0  0  0
    5.4309   -4.7615    0.0000 C   0  0  0  0  0  0  0  0  0
    6.2514   -4.8477    0.0000 F   0  0  0  0  0  0  0  0  0
    5.5172   -3.9410    0.0000 F   0  0  0  0  0  0  0  0  0
    5.3447   -5.5819    0.0000 F   0  0  0  0  0  0  0  0  0
    1.6829   -2.6793    0.0000 C   0  0  0  0  0  0  0  0  0
    1.9378   -1.8946    0.0000 C   0  0  0  0  0  0  0  0  0
    5.6111    2.6265    0.0000 C   0  0  0  0  0  0  0  0  0
    5.6111    3.4515    0.0000 C   0  0  0  0  0  0  0  0  0
    6.3256    3.8640    0.0000 C   0  0  0  0  0  0  0  0  0
    7.0400    3.4515    0.0000 C   0  0  0  0  0  0  0  0  0
    7.0400    2.6265    0.0000 C   0  0  0  0  0  0  0  0  0
    6.3256    2.2140    0.0000 C   0  0  0  0  0  0  0  0  0
  1  2  4  0  0  0  0
  1 29  4  0  0  0  0
  2  3  4  0  0  0  0
  3  4  1  0  0  0  0
  3 28  4  0  0  0  0
  4  5  1  0  0  0  0
  4  9  1  0  0  0  0
  5  6  1  0  0  0  0
  6  7  1  0  0  0  0
  7  8  1  0  0  0  0
  7 10  1  0  0  0  0
  8  9  1  0  0  0  0
 10 11  1  0  0  0  0
 11 12  1  0  0  0  0
 12 13  4  0  0  0  0
 12 27  4  0  0  0  0
 13 14  4  0  0  0  0
 14 15  4  0  0  0  0
 14 18  1  0  0  0  0
 15 16  1  0  0  0  0
 15 26  4  0  0  0  0
 16 17  1  0  0  0  0
 17 18  1  0  0  0  0
 18 19  1  0  0  0  0
 19 20  1  0  0  0  0
 20 21  2  0  0  0  0
 20 22  1  0  0  0  0
 22 23  1  0  0  0  0
 22 24  1  0  0  0  0
 22 25  1  0  0  0  0
 26 27  4  0  0  0  0
 28 29  4  0  0  0  0
 28 33  4  0  0  0  0
 29 30  4  0  0  0  0
 30 31  4  0  0  0  0
 31 32  4  0  0  0  0
 32 33  4  0  0  0  0
M  END
>  <Name_Molregno>
423205

>  <5-HT1A>
8.31

>  <DOPAMINE D2>
8

$$$$
423207
  Marvin  02231216192D 0   1.00000     0.00000     0

 27 31  0  0  1  0  0  0  0  0999 V2000
    4.0851    5.0663    0.0000 S   0  0  0  0  0  0  0  0  0
    3.6002    4.3989    0.0000 N   0  0  0  0  0  0  0  0  0
    4.0851    3.7314    0.0000 C   0  0  0  0  0  0  0  0  0
    3.8302    2.9468    0.0000 N   0  0  0  0  0  0  0  0  0
    4.3822    2.3337    0.0000 C   0  0  0  0  0  0  0  0  0
    4.1273    1.5491    0.0000 C   0  0  0  0  0  0  0  0  0
    3.3203    1.3776    0.0000 N   0  0  0  0  0  0  0  0  0
    2.7683    1.9907    0.0000 C   0  0  0  0  0  0  0  0  0
    3.0232    2.7753    0.0000 C   0  0  0  0  0  0  0  0  0
    3.0654    0.5929    0.0000 C   0  0  0  0  0  0  0  0  0
    2.2584    0.4214    0.0000 C   0  0  0  0  0  0  0  0  0
    2.0035   -0.3632    0.0000 C   0  0  0  0  0  0  0  0  0
    2.5555   -0.9763    0.0000 C   0  0  0  0  0  0  0  0  0
    2.3006   -1.7609    0.0000 C   0  0  0  0  0  0  0  0  0
    1.4936   -1.9324    0.0000 C   0  0  0  0  0  0  0  0  0
    1.4073   -2.7529    0.0000 C   0  0  0  0  0  0  0  0  0
    2.1610   -3.0885    0.0000 C   0  0  0  0  0  0  0  0  0
    2.7131   -2.4754    0.0000 C   0  0  0  0  0  0  0  0  0
    3.5335   -2.5616    0.0000 N   0  0  0  0  0  0  0  0  0
    0.9416   -1.3194    0.0000 C   0  0  0  0  0  0  0  0  0
    1.1965   -0.5347    0.0000 C   0  0  0  0  0  0  0  0  0
    4.8697    3.9864    0.0000 C   0  0  0  0  0  0  0  0  0
    4.8697    4.8114    0.0000 C   0  0  0  0  0  0  0  0  0
    5.5842    5.2239    0.0000 C   0  0  0  0  0  0  0  0  0
    6.2987    4.8114    0.0000 C   0  0  0  0  0  0  0  0  0
    6.2987    3.9864    0.0000 C   0  0  0  0  0  0  0  0  0
    5.5842    3.5739    0.0000 C   0  0  0  0  0  0  0  0  0
  1  2  4  0  0  0  0
  1 23  4  0  0  0  0
  2  3  4  0  0  0  0
  3  4  1  0  0  0  0
  3 22  4  0  0  0  0
  4  5  1  0  0  0  0
  4  9  1  0  0  0  0
  5  6  1  0  0  0  0
  6  7  1  0  0  0  0
  7  8  1  0  0  0  0
  7 10  1  0  0  0  0
  8  9  1  0  0  0  0
 10 11  1  0  0  0  0
 11 12  1  0  0  0  0
 12 13  4  0  0  0  0
 12 21  4  0  0  0  0
 13 14  4  0  0  0  0
 14 15  4  0  0  0  0
 14 18  1  0  0  0  0
 15 16  1  0  0  0  0
 15 20  4  0  0  0  0
 16 17  1  0  0  0  0
 17 18  1  0  0  0  0
 18 19  1  0  0  0  0
 20 21  4  0  0  0  0
 22 23  4  0  0  0  0
 22 27  4  0  0  0  0
 23 24  4  0  0  0  0
 24 25  4  0  0  0  0
 25 26  4  0  0  0  0
 26 27  4  0  0  0  0
M  END
>  <Name_Molregno>
423207

>  <5-HT1A>
8.7

>  <5-HT2A>
10.05

>  <DOPAMINE D2>
7.68

$$$$
423208
  Marvin  02231216192D 0   1.00000     0.00000     0

 30 34  0  0  1  0  0  0  0  0999 V2000
    4.5456    3.0720    0.0000 S   0  0  0  0  0  0  0  0  0
    4.0607    2.4046    0.0000 N   0  0  0  0  0  0  0  0  0
    4.5456    1.7372    0.0000 C   0  0  0  0  0  0  0  0  0
    4.2907    0.9525    0.0000 N   0  0  0  0  0  0  0  0  0
    4.8427    0.3394    0.0000 C   0  0  0  0  0  0  0  0  0
    4.5878   -0.4452    0.0000 C   0  0  0  0  0  0  0  0  0
    3.7808   -0.6167    0.0000 N   0  0  0  0  0  0  0  0  0
    3.2288   -0.0036    0.0000 C   0  0  0  0  0  0  0  0  0
    3.4837    0.7810    0.0000 C   0  0  0  0  0  0  0  0  0
    3.5259   -1.4013    0.0000 C   0  0  0  0  0  0  0  0  0
    2.7189   -1.5729    0.0000 C   0  0  0  0  0  0  0  0  0
    2.4640   -2.3575    0.0000 C   0  0  0  0  0  0  0  0  0
    3.0160   -2.9706    0.0000 C   0  0  0  0  0  0  0  0  0
    2.7610   -3.7552    0.0000 C   0  0  0  0  0  0  0  0  0
    1.9541   -3.9267    0.0000 C   0  0  0  0  0  0  0  0  0
    1.8678   -4.7472    0.0000 C   0  0  0  0  0  0  0  0  0
    2.6215   -5.0828    0.0000 C   0  0  0  0  0  0  0  0  0
    3.1735   -4.4697    0.0000 C   0  0  0  0  0  0  0  0  0
    3.9940   -4.5559    0.0000 N   0  0  0  0  0  0  0  0  0
    4.3296   -5.3096    0.0000 C   0  0  0  0  0  0  0  0  0
    5.1501   -5.3958    0.0000 O   0  0  0  0  0  0  0  0  0
    3.8447   -5.9770    0.0000 C   0  0  0  0  0  0  0  0  0
    1.4020   -3.3136    0.0000 C   0  0  0  0  0  0  0  0  0
    1.6570   -2.5290    0.0000 C   0  0  0  0  0  0  0  0  0
    5.3302    1.9921    0.0000 C   0  0  0  0  0  0  0  0  0
    5.3302    2.8171    0.0000 C   0  0  0  0  0  0  0  0  0
    6.0447    3.2296    0.0000 C   0  0  0  0  0  0  0  0  0
    6.7592    2.8171    0.0000 C   0  0  0  0  0  0  0  0  0
    6.7592    1.9921    0.0000 C   0  0  0  0  0  0  0  0  0
    6.0447    1.5796    0.0000 C   0  0  0  0  0  0  0  0  0
  1  2  4  0  0  0  0
  1 26  4  0  0  0  0
  2  3  4  0  0  0  0
  3  4  1  0  0  0  0
  3 25  4  0  0  0  0
  4  5  1  0  0  0  0
  4  9  1  0  0  0  0
  5  6  1  0  0  0  0
  6  7  1  0  0  0  0
  7  8  1  0  0  0  0
  7 10  1  0  0  0  0
  8  9  1  0  0  0  0
 10 11  1  0  0  0  0
 11 12  1  0  0  0  0
 12 13  4  0  0  0  0
 12 24  4  0  0  0  0
 13 14  4  0  0  0  0
 14 15  4  0  0  0  0
 14 18  1  0  0  0  0
 15 16  1  0  0  0  0
 15 23  4  0  0  0  0
 16 17  1  0  0  0  0
 17 18  1  0  0  0  0
 18 19  1  0  0  0  0
 19 20  1  0  0  0  0
 20 21  2  0  0  0  0
 20 22  1  0  0  0  0
 23 24  4  0  0  0  0
 25 26  4  0  0  0  0
 25 30  4  0  0  0  0
 26 27  4  0  0  0  0
 27 28  4  0  0  0  0
 28 29  4  0  0  0  0
 29 30  4  0  0  0  0
M  END
>  <Name_Molregno>
423208

>  <5-HT1A>
8.12

>  <5-HT2A>
11

>  <DOPAMINE D2>
7.66

$$$$
423209
  Marvin  02231216192D 0   1.00000     0.00000     0

 31 35  0  0  1  0  0  0  0  0999 V2000
    6.1507    2.8172    0.0000 S   0  0  0  0  0  0  0  0  0
    5.6658    2.1498    0.0000 N   0  0  0  0  0  0  0  0  0
    6.1507    1.4823    0.0000 C   0  0  0  0  0  0  0  0  0
    5.8957    0.6977    0.0000 N   0  0  0  0  0  0  0  0  0
    6.4478    0.0846    0.0000 C   0  0  0  0  0  0  0  0  0
    6.1928   -0.7000    0.0000 C   0  0  0  0  0  0  0  0  0
    5.3859   -0.8715    0.0000 N   0  0  0  0  0  0  0  0  0
    4.8338   -0.2584    0.0000 C   0  0  0  0  0  0  0  0  0
    5.0888    0.5262    0.0000 C   0  0  0  0  0  0  0  0  0
    5.1309   -1.6561    0.0000 C   0  0  0  0  0  0  0  0  0
    4.3239   -1.8277    0.0000 C   0  0  0  0  0  0  0  0  0
    3.7719   -1.2146    0.0000 C   0  0  0  0  0  0  0  0  0
    2.9649   -1.3861    0.0000 C   0  0  0  0  0  0  0  0  0
    2.4129   -0.7730    0.0000 C   0  0  0  0  0  0  0  0  0
    2.6678    0.0116    0.0000 C   0  0  0  0  0  0  0  0  0
    2.0004    0.4965    0.0000 C   0  0  0  0  0  0  0  0  0
    1.3330    0.0116    0.0000 C   0  0  0  0  0  0  0  0  0
    1.5879   -0.7730    0.0000 C   0  0  0  0  0  0  0  0  0
    1.1030   -1.4404    0.0000 N   0  0  0  0  0  0  0  0  0
    0.2825   -1.3542    0.0000 C   0  0  0  0  0  0  0  0  0
   -0.0531   -0.6005    0.0000 O   0  0  0  0  0  0  0  0  0
   -0.2024   -2.0216    0.0000 C   0  0  0  0  0  0  0  0  0
   -1.0229   -1.9354    0.0000 C   0  0  0  0  0  0  0  0  0
    3.4748    0.1831    0.0000 C   0  0  0  0  0  0  0  0  0
    4.0269   -0.4299    0.0000 C   0  0  0  0  0  0  0  0  0
    6.9353    1.7373    0.0000 C   0  0  0  0  0  0  0  0  0
    6.9353    2.5623    0.0000 C   0  0  0  0  0  0  0  0  0
    7.6498    2.9748    0.0000 C   0  0  0  0  0  0  0  0  0
    8.3642    2.5623    0.0000 C   0  0  0  0  0  0  0  0  0
    8.3642    1.7373    0.0000 C   0  0  0  0  0  0  0  0  0
    7.6498    1.3248    0.0000 C   0  0  0  0  0  0  0  0  0
  1  2  4  0  0  0  0
  1 27  4  0  0  0  0
  2  3  4  0  0  0  0
  3  4  1  0  0  0  0
  3 26  4  0  0  0  0
  4  5  1  0  0  0  0
  4  9  1  0  0  0  0
  5  6  1  0  0  0  0
  6  7  1  0  0  0  0
  7  8  1  0  0  0  0
  7 10  1  0  0  0  0
  8  9  1  0  0  0  0
 10 11  1  0  0  0  0
 11 12  1  0  0  0  0
 12 13  4  0  0  0  0
 12 25  4  0  0  0  0
 13 14  4  0  0  0  0
 14 15  4  0  0  0  0
 14 18  1  0  0  0  0
 15 16  1  0  0  0  0
 15 24  4  0  0  0  0
 16 17  1  0  0  0  0
 17 18  1  0  0  0  0
 18 19  1  0  0  0  0
 19 20  1  0  0  0  0
 20 21  2  0  0  0  0
 20 22  1  0  0  0  0
 22 23  1  0  0  0  0
 24 25  4  0  0  0  0
 26 27  4  0  0  0  0
 26 31  4  0  0  0  0
 27 28  4  0  0  0  0
 28 29  4  0  0  0  0
 29 30  4  0  0  0  0
 30 31  4  0  0  0  0
M  END
>  <Name_Molregno>
423209

>  <5-HT1A>
8.3

>  <5-HT2A>
11

>  <DOPAMINE D2>
7.47

$$$$
423210
  Marvin  02231216192D 0   1.00000     0.00000     0

 32 36  0  0  1  0  0  0  0  0999 V2000
    6.3621    3.7125    0.0000 S   0  0  0  0  0  0  0  0  0
    5.8772    3.0451    0.0000 N   0  0  0  0  0  0  0  0  0
    6.3621    2.3776    0.0000 C   0  0  0  0  0  0  0  0  0
    6.1071    1.5930    0.0000 N   0  0  0  0  0  0  0  0  0
    6.6592    0.9799    0.0000 C   0  0  0  0  0  0  0  0  0
    6.4042    0.1953    0.0000 C   0  0  0  0  0  0  0  0  0
    5.5973    0.0238    0.0000 N   0  0  0  0  0  0  0  0  0
    5.0452    0.6369    0.0000 C   0  0  0  0  0  0  0  0  0
    5.3002    1.4215    0.0000 C   0  0  0  0  0  0  0  0  0
    5.3423   -0.7608    0.0000 C   0  0  0  0  0  0  0  0  0
    4.5353   -0.9324    0.0000 C   0  0  0  0  0  0  0  0  0
    3.9833   -0.3193    0.0000 C   0  0  0  0  0  0  0  0  0
    3.1763   -0.4908    0.0000 C   0  0  0  0  0  0  0  0  0
    2.6243    0.1223    0.0000 C   0  0  0  0  0  0  0  0  0
    2.8792    0.9069    0.0000 C   0  0  0  0  0  0  0  0  0
    2.2118    1.3918    0.0000 C   0  0  0  0  0  0  0  0  0
    1.5444    0.9069    0.0000 C   0  0  0  0  0  0  0  0  0
    1.7993    0.1223    0.0000 C   0  0  0  0  0  0  0  0  0
    1.3144   -0.5452    0.0000 N   0  0  0  0  0  0  0  0  0
    0.4939   -0.4589    0.0000 C   0  0  0  0  0  0  0  0  0
    0.1583    0.2948    0.0000 O   0  0  0  0  0  0  0  0  0
    0.0090   -1.1264    0.0000 C   0  0  0  0  0  0  0  0  0
   -0.8115   -1.0401    0.0000 C   0  0  0  0  0  0  0  0  0
   -1.2964   -1.7076    0.0000 C   0  0  0  0  0  0  0  0  0
    3.6862    1.0784    0.0000 C   0  0  0  0  0  0  0  0  0
    4.2383    0.4653    0.0000 C   0  0  0  0  0  0  0  0  0
    7.1467    2.6326    0.0000 C   0  0  0  0  0  0  0  0  0
    7.1467    3.4576    0.0000 C   0  0  0  0  0  0  0  0  0
    7.8612    3.8701    0.0000 C   0  0  0  0  0  0  0  0  0
    8.5756    3.4576    0.0000 C   0  0  0  0  0  0  0  0  0
    8.5756    2.6326    0.0000 C   0  0  0  0  0  0  0  0  0
    7.8612    2.2201    0.0000 C   0  0  0  0  0  0  0  0  0
  1  2  4  0  0  0  0
  1 28  4  0  0  0  0
  2  3  4  0  0  0  0
  3  4  1  0  0  0  0
  3 27  4  0  0  0  0
  4  5  1  0  0  0  0
  4  9  1  0  0  0  0
  5  6  1  0  0  0  0
  6  7  1  0  0  0  0
  7  8  1  0  0  0  0
  7 10  1  0  0  0  0
  8  9  1  0  0  0  0
 10 11  1  0  0  0  0
 11 12  1  0  0  0  0
 12 13  4  0  0  0  0
 12 26  4  0  0  0  0
 13 14  4  0  0  0  0
 14 15  4  0  0  0  0
 14 18  1  0  0  0  0
 15 16  1  0  0  0  0
 15 25  4  0  0  0  0
 16 17  1  0  0  0  0
 17 18  1  0  0  0  0
 18 19  1  0  0  0  0
 19 20  1  0  0  0  0
 20 21  2  0  0  0  0
 20 22  1  0  0  0  0
 22 23  1  0  0  0  0
 23 24  1  0  0  0  0
 25 26  4  0  0  0  0
 27 28  4  0  0  0  0
 27 32  4  0  0  0  0
 28 29  4  0  0  0  0
 29 30  4  0  0  0  0
 30 31  4  0  0  0  0
 31 32  4  0  0  0  0
M  END
>  <Name_Molregno>
423210

>  <5-HT1A>
8.26

>  <5-HT2A>
9.35

>  <DOPAMINE D2>
7.57

$$$$
423212
  Marvin  02231216192D 0   1.00000     0.00000     0

 32 37  0  0  1  0  0  0  0  0999 V2000
    4.8225    4.5105    0.0000 S   0  0  0  0  0  0  0  0  0
    4.3376    3.8431    0.0000 N   0  0  0  0  0  0  0  0  0
    4.8225    3.1756    0.0000 C   0  0  0  0  0  0  0  0  0
    4.5676    2.3910    0.0000 N   0  0  0  0  0  0  0  0  0
    5.1196    1.7779    0.0000 C   0  0  0  0  0  0  0  0  0
    4.8647    0.9933    0.0000 C   0  0  0  0  0  0  0  0  0
    4.0577    0.8218    0.0000 N   0  0  0  0  0  0  0  0  0
    3.5057    1.4349    0.0000 C   0  0  0  0  0  0  0  0  0
    3.7606    2.2195    0.0000 C   0  0  0  0  0  0  0  0  0
    3.8028    0.0371    0.0000 C   0  0  0  0  0  0  0  0  0
    2.9958   -0.1344    0.0000 C   0  0  0  0  0  0  0  0  0
    2.7409   -0.9190    0.0000 C   0  0  0  0  0  0  0  0  0
    3.2929   -1.5321    0.0000 C   0  0  0  0  0  0  0  0  0
    3.0380   -2.3167    0.0000 C   0  0  0  0  0  0  0  0  0
    2.2310   -2.4882    0.0000 C   0  0  0  0  0  0  0  0  0
    2.1448   -3.3087    0.0000 C   0  0  0  0  0  0  0  0  0
    2.8984   -3.6443    0.0000 C   0  0  0  0  0  0  0  0  0
    3.4505   -3.0312    0.0000 C   0  0  0  0  0  0  0  0  0
    4.2709   -3.1174    0.0000 N   0  0  0  0  0  0  0  0  0
    4.6065   -3.8711    0.0000 C   0  0  0  0  0  0  0  0  0
    4.1216   -4.5385    0.0000 O   0  0  0  0  0  0  0  0  0
    5.4270   -3.9573    0.0000 C   0  0  0  0  0  0  0  0  0
    6.1807   -3.6218    0.0000 C   0  0  0  0  0  0  0  0  0
    6.0944   -4.4423    0.0000 C   0  0  0  0  0  0  0  0  0
    1.6790   -1.8751    0.0000 C   0  0  0  0  0  0  0  0  0
    1.9339   -1.0905    0.0000 C   0  0  0  0  0  0  0  0  0
    5.6072    3.4306    0.0000 C   0  0  0  0  0  0  0  0  0
    5.6072    4.2556    0.0000 C   0  0  0  0  0  0  0  0  0
    6.3216    4.6681    0.0000 C   0  0  0  0  0  0  0  0  0
    7.0361    4.2556    0.0000 C   0  0  0  0  0  0  0  0  0
    7.0361    3.4306    0.0000 C   0  0  0  0  0  0  0  0  0
    6.3216    3.0181    0.0000 C   0  0  0  0  0  0  0  0  0
  1  2  4  0  0  0  0
  1 28  4  0  0  0  0
  2  3  4  0  0  0  0
  3  4  1  0  0  0  0
  3 27  4  0  0  0  0
  4  5  1  0  0  0  0
  4  9  1  0  0  0  0
  5  6  1  0  0  0  0
  6  7  1  0  0  0  0
  7  8  1  0  0  0  0
  7 10  1  0  0  0  0
  8  9  1  0  0  0  0
 10 11  1  0  0  0  0
 11 12  1  0  0  0  0
 12 13  4  0  0  0  0
 12 26  4  0  0  0  0
 13 14  4  0  0  0  0
 14 15  4  0  0  0  0
 14 18  1  0  0  0  0
 15 16  1  0  0  0  0
 15 25  4  0  0  0  0
 16 17  1  0  0  0  0
 17 18  1  0  0  0  0
 18 19  1  0  0  0  0
 19 20  1  0  0  0  0
 20 21  2  0  0  0  0
 20 22  1  0  0  0  0
 22 23  1  0  0  0  0
 22 24  1  0  0  0  0
 23 24  1  0  0  0  0
 25 26  4  0  0  0  0
 27 28  4  0  0  0  0
 27 32  4  0  0  0  0
 28 29  4  0  0  0  0
 29 30  4  0  0  0  0
 30 31  4  0  0  0  0
 31 32  4  0  0  0  0
M  END
>  <Name_Molregno>
423212

>  <5-HT1A>
7.92

>  <5-HT2A>
9.52

>  <DOPAMINE D2>
7.68

$$$$
423214
  Marvin  02231216192D 0   1.00000     0.00000     0

 32 36  0  0  1  0  0  0  0  0999 V2000
    6.2643    1.8097    0.0000 S   0  0  0  0  0  0  0  0  0
    5.7793    1.1423    0.0000 N   0  0  0  0  0  0  0  0  0
    6.2643    0.4748    0.0000 C   0  0  0  0  0  0  0  0  0
    6.0093   -0.3098    0.0000 N   0  0  0  0  0  0  0  0  0
    6.5614   -0.9229    0.0000 C   0  0  0  0  0  0  0  0  0
    6.3064   -1.7075    0.0000 C   0  0  0  0  0  0  0  0  0
    5.4995   -1.8791    0.0000 N   0  0  0  0  0  0  0  0  0
    4.9474   -1.2660    0.0000 C   0  0  0  0  0  0  0  0  0
    5.2024   -0.4813    0.0000 C   0  0  0  0  0  0  0  0  0
    5.2445   -2.6637    0.0000 C   0  0  0  0  0  0  0  0  0
    4.4375   -2.8352    0.0000 C   0  0  0  0  0  0  0  0  0
    3.8855   -2.2221    0.0000 C   0  0  0  0  0  0  0  0  0
    3.0785   -2.3936    0.0000 C   0  0  0  0  0  0  0  0  0
    2.5265   -1.7805    0.0000 C   0  0  0  0  0  0  0  0  0
    2.7814   -0.9959    0.0000 C   0  0  0  0  0  0  0  0  0
    2.1140   -0.5110    0.0000 C   0  0  0  0  0  0  0  0  0
    1.4466   -0.9959    0.0000 C   0  0  0  0  0  0  0  0  0
    1.7015   -1.7805    0.0000 C   0  0  0  0  0  0  0  0  0
    1.2166   -2.4480    0.0000 N   0  0  0  0  0  0  0  0  0
    0.3961   -2.3617    0.0000 C   0  0  0  0  0  0  0  0  0
    0.0605   -1.6081    0.0000 O   0  0  0  0  0  0  0  0  0
   -0.0888   -3.0292    0.0000 C   0  0  0  0  0  0  0  0  0
   -0.9093   -2.9429    0.0000 C   0  0  0  0  0  0  0  0  0
    0.2467   -3.7829    0.0000 C   0  0  0  0  0  0  0  0  0
    3.5884   -0.8244    0.0000 C   0  0  0  0  0  0  0  0  0
    4.1404   -1.4375    0.0000 C   0  0  0  0  0  0  0  0  0
    7.0489    0.7298    0.0000 C   0  0  0  0  0  0  0  0  0
    7.0489    1.5548    0.0000 C   0  0  0  0  0  0  0  0  0
    7.7634    1.9673    0.0000 C   0  0  0  0  0  0  0  0  0
    8.4778    1.5548    0.0000 C   0  0  0  0  0  0  0  0  0
    8.4778    0.7298    0.0000 C   0  0  0  0  0  0  0  0  0
    7.7634    0.3173    0.0000 C   0  0  0  0  0  0  0  0  0
  1  2  4  0  0  0  0
  1 28  4  0  0  0  0
  2  3  4  0  0  0  0
  3  4  1  0  0  0  0
  3 27  4  0  0  0  0
  4  5  1  0  0  0  0
  4  9  1  0  0  0  0
  5  6  1  0  0  0  0
  6  7  1  0  0  0  0
  7  8  1  0  0  0  0
  7 10  1  0  0  0  0
  8  9  1  0  0  0  0
 10 11  1  0  0  0  0
 11 12  1  0  0  0  0
 12 13  4  0  0  0  0
 12 26  4  0  0  0  0
 13 14  4  0  0  0  0
 14 15  4  0  0  0  0
 14 18  1  0  0  0  0
 15 16  1  0  0  0  0
 15 25  4  0  0  0  0
 16 17  1  0  0  0  0
 17 18  1  0  0  0  0
 18 19  1  0  0  0  0
 19 20  1  0  0  0  0
 20 21  2  0  0  0  0
 20 22  1  0  0  0  0
 22 23  1  0  0  0  0
 22 24  1  0  0  0  0
 25 26  4  0  0  0  0
 27 28  4  0  0  0  0
 27 32  4  0  0  0  0
 28 29  4  0  0  0  0
 29 30  4  0  0  0  0
 30 31  4  0  0  0  0
 31 32  4  0  0  0  0
M  END
>  <Name_Molregno>
423214

>  <5-HT1A>
7.92

>  <5-HT2A>
9.12

>  <DOPAMINE D2>
7.17

$$$$
423215
  Marvin  02231216192D 0   1.00000     0.00000     0

 35 40  0  0  1  0  0  0  0  0999 V2000
   -4.3197    5.4164    0.0000 S   0  0  0  0  0  0  0  0  0
   -4.8046    4.7490    0.0000 N   0  0  0  0  0  0  0  0  0
   -4.3197    4.0815    0.0000 C   0  0  0  0  0  0  0  0  0
   -4.5746    3.2969    0.0000 N   0  0  0  0  0  0  0  0  0
   -4.0226    2.6838    0.0000 C   0  0  0  0  0  0  0  0  0
   -4.2775    1.8992    0.0000 C   0  0  0  0  0  0  0  0  0
   -5.0845    1.7277    0.0000 N   0  0  0  0  0  0  0  0  0
   -5.6365    2.3408    0.0000 C   0  0  0  0  0  0  0  0  0
   -5.3816    3.1254    0.0000 C   0  0  0  0  0  0  0  0  0
   -5.3395    0.9431    0.0000 C   0  0  0  0  0  0  0  0  0
   -6.1464    0.7715    0.0000 C   0  0  0  0  0  0  0  0  0
   -6.4014   -0.0131    0.0000 C   0  0  0  0  0  0  0  0  0
   -5.8493   -0.6262    0.0000 C   0  0  0  0  0  0  0  0  0
   -6.1043   -1.4108    0.0000 C   0  0  0  0  0  0  0  0  0
   -6.9112   -1.5823    0.0000 C   0  0  0  0  0  0  0  0  0
   -6.9975   -2.4028    0.0000 C   0  0  0  0  0  0  0  0  0
   -6.2438   -2.7384    0.0000 C   0  0  0  0  0  0  0  0  0
   -5.6918   -2.1253    0.0000 C   0  0  0  0  0  0  0  0  0
   -4.8713   -2.2115    0.0000 N   0  0  0  0  0  0  0  0  0
   -4.5357   -2.9652    0.0000 C   0  0  0  0  0  0  0  0  0
   -5.0207   -3.6326    0.0000 O   0  0  0  0  0  0  0  0  0
   -3.7152   -3.0514    0.0000 C   0  0  0  0  0  0  0  0  0
   -3.2303   -2.3840    0.0000 C   0  0  0  0  0  0  0  0  0
   -2.4098   -2.4702    0.0000 C   0  0  0  0  0  0  0  0  0
   -2.0743   -3.2239    0.0000 C   0  0  0  0  0  0  0  0  0
   -2.5592   -3.8913    0.0000 C   0  0  0  0  0  0  0  0  0
   -3.3797   -3.8051    0.0000 C   0  0  0  0  0  0  0  0  0
   -7.4633   -0.9692    0.0000 C   0  0  0  0  0  0  0  0  0
   -7.2083   -0.1846    0.0000 C   0  0  0  0  0  0  0  0  0
   -3.5351    4.3365    0.0000 C   0  0  0  0  0  0  0  0  0
   -3.5351    5.1615    0.0000 C   0  0  0  0  0  0  0  0  0
   -2.8206    5.5740    0.0000 C   0  0  0  0  0  0  0  0  0
   -2.1061    5.1615    0.0000 C   0  0  0  0  0  0  0  0  0
   -2.1061    4.3365    0.0000 C   0  0  0  0  0  0  0  0  0
   -2.8206    3.9240    0.0000 C   0  0  0  0  0  0  0  0  0
  1  2  4  0  0  0  0
  1 31  4  0  0  0  0
  2  3  4  0  0  0  0
  3  4  1  0  0  0  0
  3 30  4  0  0  0  0
  4  5  1  0  0  0  0
  4  9  1  0  0  0  0
  5  6  1  0  0  0  0
  6  7  1  0  0  0  0
  7  8  1  0  0  0  0
  7 10  1  0  0  0  0
  8  9  1  0  0  0  0
 10 11  1  0  0  0  0
 11 12  1  0  0  0  0
 12 13  4  0  0  0  0
 12 29  4  0  0  0  0
 13 14  4  0  0  0  0
 14 15  4  0  0  0  0
 14 18  1  0  0  0  0
 15 16  1  0  0  0  0
 15 28  4  0  0  0  0
 16 17  1  0  0  0  0
 17 18  1  0  0  0  0
 18 19  1  0  0  0  0
 19 20  1  0  0  0  0
 20 21  2  0  0  0  0
 20 22  1  0  0  0  0
 22 23  4  0  0  0  0
 22 27  4  0  0  0  0
 23 24  4  0  0  0  0
 24 25  4  0  0  0  0
 25 26  4  0  0  0  0
 26 27  4  0  0  0  0
 28 29  4  0  0  0  0
 30 31  4  0  0  0  0
 30 35  4  0  0  0  0
 31 32  4  0  0  0  0
 32 33  4  0  0  0  0
 33 34  4  0  0  0  0
 34 35  4  0  0  0  0
M  END
>  <Name_Molregno>
423215

>  <5-HT1A>
7.38

>  <5-HT2A>
8.32

>  <DOPAMINE D2>
7.66

$$$$
423217
  Marvin  02231216192D 0   1.00000     0.00000     0

 36 41  0  0  1  0  0  0  0  0999 V2000
   -4.1127    2.9781    0.0000 S   0  0  0  0  0  0  0  0  0
   -4.5977    2.3106    0.0000 N   0  0  0  0  0  0  0  0  0
   -4.1127    1.6432    0.0000 C   0  0  0  0  0  0  0  0  0
   -4.3677    0.8586    0.0000 N   0  0  0  0  0  0  0  0  0
   -3.8156    0.2455    0.0000 C   0  0  0  0  0  0  0  0  0
   -4.0706   -0.5391    0.0000 C   0  0  0  0  0  0  0  0  0
   -4.8776   -0.7107    0.0000 N   0  0  0  0  0  0  0  0  0
   -5.4296   -0.0976    0.0000 C   0  0  0  0  0  0  0  0  0
   -5.1746    0.6870    0.0000 C   0  0  0  0  0  0  0  0  0
   -5.1325   -1.4953    0.0000 C   0  0  0  0  0  0  0  0  0
   -5.9395   -1.6668    0.0000 C   0  0  0  0  0  0  0  0  0
   -6.1944   -2.4514    0.0000 C   0  0  0  0  0  0  0  0  0
   -5.6424   -3.0645    0.0000 C   0  0  0  0  0  0  0  0  0
   -5.8973   -3.8492    0.0000 C   0  0  0  0  0  0  0  0  0
   -6.7043   -4.0207    0.0000 C   0  0  0  0  0  0  0  0  0
   -6.7905   -4.8412    0.0000 C   0  0  0  0  0  0  0  0  0
   -6.0368   -5.1767    0.0000 C   0  0  0  0  0  0  0  0  0
   -5.4848   -4.5636    0.0000 C   0  0  0  0  0  0  0  0  0
   -4.6643   -4.6499    0.0000 N   0  0  0  0  0  0  0  0  0
   -4.3288   -5.4035    0.0000 C   0  0  0  0  0  0  0  0  0
   -4.8137   -6.0710    0.0000 O   0  0  0  0  0  0  0  0  0
   -3.5083   -5.4898    0.0000 C   0  0  0  0  0  0  0  0  0
   -3.0234   -4.8223    0.0000 C   0  0  0  0  0  0  0  0  0
   -2.2029   -4.9086    0.0000 C   0  0  0  0  0  0  0  0  0
   -1.8673   -5.6622    0.0000 C   0  0  0  0  0  0  0  0  0
   -2.3523   -6.3297    0.0000 C   0  0  0  0  0  0  0  0  0
   -3.1727   -6.2434    0.0000 C   0  0  0  0  0  0  0  0  0
   -1.0469   -5.7485    0.0000 C   0  0  0  0  0  0  0  0  0
   -7.2563   -3.4076    0.0000 C   0  0  0  0  0  0  0  0  0
   -7.0014   -2.6230    0.0000 C   0  0  0  0  0  0  0  0  0
   -3.3281    1.8981    0.0000 C   0  0  0  0  0  0  0  0  0
   -3.3281    2.7231    0.0000 C   0  0  0  0  0  0  0  0  0
   -2.6136    3.1356    0.0000 C   0  0  0  0  0  0  0  0  0
   -1.8992    2.7231    0.0000 C   0  0  0  0  0  0  0  0  0
   -1.8992    1.8981    0.0000 C   0  0  0  0  0  0  0  0  0
   -2.6136    1.4856    0.0000 C   0  0  0  0  0  0  0  0  0
  1  2  4  0  0  0  0
  1 32  4  0  0  0  0
  2  3  4  0  0  0  0
  3  4  1  0  0  0  0
  3 31  4  0  0  0  0
  4  5  1  0  0  0  0
  4  9  1  0  0  0  0
  5  6  1  0  0  0  0
  6  7  1  0  0  0  0
  7  8  1  0  0  0  0
  7 10  1  0  0  0  0
  8  9  1  0  0  0  0
 10 11  1  0  0  0  0
 11 12  1  0  0  0  0
 12 13  4  0  0  0  0
 12 30  4  0  0  0  0
 13 14  4  0  0  0  0
 14 15  4  0  0  0  0
 14 18  1  0  0  0  0
 15 16  1  0  0  0  0
 15 29  4  0  0  0  0
 16 17  1  0  0  0  0
 17 18  1  0  0  0  0
 18 19  1  0  0  0  0
 19 20  1  0  0  0  0
 20 21  2  0  0  0  0
 20 22  1  0  0  0  0
 22 23  4  0  0  0  0
 22 27  4  0  0  0  0
 23 24  4  0  0  0  0
 24 25  4  0  0  0  0
 25 26  4  0  0  0  0
 25 28  1  0  0  0  0
 26 27  4  0  0  0  0
 29 30  4  0  0  0  0
 31 32  4  0  0  0  0
 31 36  4  0  0  0  0
 32 33  4  0  0  0  0
 33 34  4  0  0  0  0
 34 35  4  0  0  0  0
 35 36  4  0  0  0  0
M  END
>  <Name_Molregno>
423217

>  <5-HT1A>
7.55

>  <5-HT2A>
8.52

>  <DOPAMINE D2>
7.82

$$$$
423219
  Marvin  02231216192D 0   1.00000     0.00000     0

 36 41  0  0  1  0  0  0  0  0999 V2000
    8.5567    1.6489    0.0000 Cl  0  0  0  0  0  0  0  0  0
    7.7362    1.5626    0.0000 C   0  0  0  0  0  0  0  0  0
    7.4007    0.8089    0.0000 C   0  0  0  0  0  0  0  0  0
    6.5802    0.7227    0.0000 C   0  0  0  0  0  0  0  0  0
    6.0953    1.3901    0.0000 C   0  0  0  0  0  0  0  0  0
    6.4308    2.1438    0.0000 C   0  0  0  0  0  0  0  0  0
    7.2513    2.2301    0.0000 C   0  0  0  0  0  0  0  0  0
    5.2748    1.3039    0.0000 C   0  0  0  0  0  0  0  0  0
    4.7899    1.9713    0.0000 O   0  0  0  0  0  0  0  0  0
    4.9392    0.5502    0.0000 N   0  0  0  0  0  0  0  0  0
    4.1188    0.4640    0.0000 C   0  0  0  0  0  0  0  0  0
    3.5667    1.0771    0.0000 C   0  0  0  0  0  0  0  0  0
    2.8131    0.7415    0.0000 C   0  0  0  0  0  0  0  0  0
    2.8993   -0.0789    0.0000 C   0  0  0  0  0  0  0  0  0
    3.7063   -0.2505    0.0000 C   0  0  0  0  0  0  0  0  0
    3.9612   -1.0351    0.0000 C   0  0  0  0  0  0  0  0  0
    3.4092   -1.6482    0.0000 C   0  0  0  0  0  0  0  0  0
    2.6022   -1.4767    0.0000 C   0  0  0  0  0  0  0  0  0
    2.3473   -0.6920    0.0000 C   0  0  0  0  0  0  0  0  0
    3.6641   -2.4328    0.0000 C   0  0  0  0  0  0  0  0  0
    4.4711   -2.6043    0.0000 C   0  0  0  0  0  0  0  0  0
    4.7260   -3.3890    0.0000 N   0  0  0  0  0  0  0  0  0
    5.5330   -3.5605    0.0000 C   0  0  0  0  0  0  0  0  0
    5.7879   -4.3451    0.0000 C   0  0  0  0  0  0  0  0  0
    5.2359   -4.9582    0.0000 N   0  0  0  0  0  0  0  0  0
    4.4289   -4.7867    0.0000 C   0  0  0  0  0  0  0  0  0
    4.1740   -4.0021    0.0000 C   0  0  0  0  0  0  0  0  0
    5.4908   -5.7428    0.0000 C   0  0  0  0  0  0  0  0  0
    5.0059   -6.4103    0.0000 N   0  0  0  0  0  0  0  0  0
    5.4908   -7.0777    0.0000 S   0  0  0  0  0  0  0  0  0
    6.2755   -6.8228    0.0000 C   0  0  0  0  0  0  0  0  0
    6.2755   -5.9978    0.0000 C   0  0  0  0  0  0  0  0  0
    6.9899   -5.5853    0.0000 C   0  0  0  0  0  0  0  0  0
    7.7044   -5.9978    0.0000 C   0  0  0  0  0  0  0  0  0
    7.7044   -6.8228    0.0000 C   0  0  0  0  0  0  0  0  0
    6.9899   -7.2353    0.0000 C   0  0  0  0  0  0  0  0  0
  1  2  1  0  0  0  0
  2  3  4  0  0  0  0
  2  7  4  0  0  0  0
  3  4  4  0  0  0  0
  4  5  4  0  0  0  0
  5  6  4  0  0  0  0
  5  8  1  0  0  0  0
  6  7  4  0  0  0  0
  8  9  2  0  0  0  0
  8 10  1  0  0  0  0
 10 11  1  0  0  0  0
 11 12  1  0  0  0  0
 11 15  1  0  0  0  0
 12 13  1  0  0  0  0
 13 14  1  0  0  0  0
 14 15  4  0  0  0  0
 14 19  4  0  0  0  0
 15 16  4  0  0  0  0
 16 17  4  0  0  0  0
 17 18  4  0  0  0  0
 17 20  1  0  0  0  0
 18 19  4  0  0  0  0
 20 21  1  0  0  0  0
 21 22  1  0  0  0  0
 22 23  1  0  0  0  0
 22 27  1  0  0  0  0
 23 24  1  0  0  0  0
 24 25  1  0  0  0  0
 25 26  1  0  0  0  0
 25 28  1  0  0  0  0
 26 27  1  0  0  0  0
 28 29  4  0  0  0  0
 28 32  4  0  0  0  0
 29 30  4  0  0  0  0
 30 31  4  0  0  0  0
 31 32  4  0  0  0  0
 31 36  4  0  0  0  0
 32 33  4  0  0  0  0
 33 34  4  0  0  0  0
 34 35  4  0  0  0  0
 35 36  4  0  0  0  0
M  END
>  <Name_Molregno>
423219

>  <5-HT1A>
7.25

>  <5-HT2A>
10

>  <DOPAMINE D2>
8.3

$$$$
423220
  Marvin  02231216192D 0   1.00000     0.00000     0

 36 41  0  0  1  0  0  0  0  0999 V2000
   -4.1127    2.9781    0.0000 S   0  0  0  0  0  0  0  0  0
   -4.5977    2.3106    0.0000 N   0  0  0  0  0  0  0  0  0
   -4.1127    1.6432    0.0000 C   0  0  0  0  0  0  0  0  0
   -4.3677    0.8586    0.0000 N   0  0  0  0  0  0  0  0  0
   -3.8156    0.2455    0.0000 C   0  0  0  0  0  0  0  0  0
   -4.0706   -0.5391    0.0000 C   0  0  0  0  0  0  0  0  0
   -4.8776   -0.7107    0.0000 N   0  0  0  0  0  0  0  0  0
   -5.4296   -0.0976    0.0000 C   0  0  0  0  0  0  0  0  0
   -5.1746    0.6870    0.0000 C   0  0  0  0  0  0  0  0  0
   -5.1325   -1.4953    0.0000 C   0  0  0  0  0  0  0  0  0
   -5.9395   -1.6668    0.0000 C   0  0  0  0  0  0  0  0  0
   -6.1944   -2.4514    0.0000 C   0  0  0  0  0  0  0  0  0
   -5.6424   -3.0645    0.0000 C   0  0  0  0  0  0  0  0  0
   -5.8973   -3.8492    0.0000 C   0  0  0  0  0  0  0  0  0
   -6.7043   -4.0207    0.0000 C   0  0  0  0  0  0  0  0  0
   -6.7905   -4.8412    0.0000 C   0  0  0  0  0  0  0  0  0
   -6.0368   -5.1767    0.0000 C   0  0  0  0  0  0  0  0  0
   -5.4848   -4.5636    0.0000 C   0  0  0  0  0  0  0  0  0
   -4.6643   -4.6499    0.0000 N   0  0  0  0  0  0  0  0  0
   -4.3288   -5.4035    0.0000 C   0  0  0  0  0  0  0  0  0
   -4.8137   -6.0710    0.0000 O   0  0  0  0  0  0  0  0  0
   -3.5083   -5.4898    0.0000 C   0  0  0  0  0  0  0  0  0
   -3.0234   -4.8223    0.0000 C   0  0  0  0  0  0  0  0  0
   -2.2029   -4.9086    0.0000 C   0  0  0  0  0  0  0  0  0
   -1.8673   -5.6622    0.0000 C   0  0  0  0  0  0  0  0  0
   -1.0469   -5.7485    0.0000 F   0  0  0  0  0  0  0  0  0
   -2.3523   -6.3297    0.0000 C   0  0  0  0  0  0  0  0  0
   -3.1727   -6.2434    0.0000 C   0  0  0  0  0  0  0  0  0
   -7.2563   -3.4076    0.0000 C   0  0  0  0  0  0  0  0  0
   -7.0014   -2.6230    0.0000 C   0  0  0  0  0  0  0  0  0
   -3.3281    1.8981    0.0000 C   0  0  0  0  0  0  0  0  0
   -3.3281    2.7231    0.0000 C   0  0  0  0  0  0  0  0  0
   -2.6136    3.1356    0.0000 C   0  0  0  0  0  0  0  0  0
   -1.8992    2.7231    0.0000 C   0  0  0  0  0  0  0  0  0
   -1.8992    1.8981    0.0000 C   0  0  0  0  0  0  0  0  0
   -2.6136    1.4856    0.0000 C   0  0  0  0  0  0  0  0  0
  1  2  4  0  0  0  0
  1 32  4  0  0  0  0
  2  3  4  0  0  0  0
  3  4  1  0  0  0  0
  3 31  4  0  0  0  0
  4  5  1  0  0  0  0
  4  9  1  0  0  0  0
  5  6  1  0  0  0  0
  6  7  1  0  0  0  0
  7  8  1  0  0  0  0
  7 10  1  0  0  0  0
  8  9  1  0  0  0  0
 10 11  1  0  0  0  0
 11 12  1  0  0  0  0
 12 13  4  0  0  0  0
 12 30  4  0  0  0  0
 13 14  4  0  0  0  0
 14 15  4  0  0  0  0
 14 18  1  0  0  0  0
 15 16  1  0  0  0  0
 15 29  4  0  0  0  0
 16 17  1  0  0  0  0
 17 18  1  0  0  0  0
 18 19  1  0  0  0  0
 19 20  1  0  0  0  0
 20 21  2  0  0  0  0
 20 22  1  0  0  0  0
 22 23  4  0  0  0  0
 22 28  4  0  0  0  0
 23 24  4  0  0  0  0
 24 25  4  0  0  0  0
 25 26  1  0  0  0  0
 25 27  4  0  0  0  0
 27 28  4  0  0  0  0
 29 30  4  0  0  0  0
 31 32  4  0  0  0  0
 31 36  4  0  0  0  0
 32 33  4  0  0  0  0
 33 34  4  0  0  0  0
 34 35  4  0  0  0  0
 35 36  4  0  0  0  0
M  END
>  <Name_Molregno>
423220

>  <5-HT1A>
7.18

>  <5-HT2A>
8.61

>  <DOPAMINE D2>
8.22

$$$$
423222
  Marvin  02231216192D 0   1.00000     0.00000     0

 35 40  0  0  1  0  0  0  0  0999 V2000
   -4.3197    5.4164    0.0000 S   0  0  0  0  0  0  0  0  0
   -4.8046    4.7490    0.0000 N   0  0  0  0  0  0  0  0  0
   -4.3197    4.0815    0.0000 C   0  0  0  0  0  0  0  0  0
   -4.5746    3.2969    0.0000 N   0  0  0  0  0  0  0  0  0
   -4.0226    2.6838    0.0000 C   0  0  0  0  0  0  0  0  0
   -4.2775    1.8992    0.0000 C   0  0  0  0  0  0  0  0  0
   -5.0845    1.7277    0.0000 N   0  0  0  0  0  0  0  0  0
   -5.6365    2.3408    0.0000 C   0  0  0  0  0  0  0  0  0
   -5.3816    3.1254    0.0000 C   0  0  0  0  0  0  0  0  0
   -5.3395    0.9431    0.0000 C   0  0  0  0  0  0  0  0  0
   -6.1464    0.7715    0.0000 C   0  0  0  0  0  0  0  0  0
   -6.4014   -0.0131    0.0000 C   0  0  0  0  0  0  0  0  0
   -5.8493   -0.6262    0.0000 C   0  0  0  0  0  0  0  0  0
   -6.1043   -1.4108    0.0000 C   0  0  0  0  0  0  0  0  0
   -6.9112   -1.5823    0.0000 C   0  0  0  0  0  0  0  0  0
   -6.9975   -2.4028    0.0000 C   0  0  0  0  0  0  0  0  0
   -6.2438   -2.7384    0.0000 C   0  0  0  0  0  0  0  0  0
   -5.6918   -2.1253    0.0000 C   0  0  0  0  0  0  0  0  0
   -4.8713   -2.2115    0.0000 N   0  0  0  0  0  0  0  0  0
   -4.5357   -2.9652    0.0000 C   0  0  0  0  0  0  0  0  0
   -5.0207   -3.6326    0.0000 O   0  0  0  0  0  0  0  0  0
   -3.7152   -3.0514    0.0000 C   0  0  0  0  0  0  0  0  0
   -3.2303   -2.3840    0.0000 C   0  0  0  0  0  0  0  0  0
   -2.4098   -2.4702    0.0000 C   0  0  0  0  0  0  0  0  0
   -2.0743   -3.2239    0.0000 C   0  0  0  0  0  0  0  0  0
   -2.5592   -3.8913    0.0000 N   0  0  0  0  0  0  0  0  0
   -3.3797   -3.8051    0.0000 C   0  0  0  0  0  0  0  0  0
   -7.4633   -0.9692    0.0000 C   0  0  0  0  0  0  0  0  0
   -7.2083   -0.1846    0.0000 C   0  0  0  0  0  0  0  0  0
   -3.5351    4.3365    0.0000 C   0  0  0  0  0  0  0  0  0
   -3.5351    5.1615    0.0000 C   0  0  0  0  0  0  0  0  0
   -2.8206    5.5740    0.0000 C   0  0  0  0  0  0  0  0  0
   -2.1061    5.1615    0.0000 C   0  0  0  0  0  0  0  0  0
   -2.1061    4.3365    0.0000 C   0  0  0  0  0  0  0  0  0
   -2.8206    3.9240    0.0000 C   0  0  0  0  0  0  0  0  0
  1  2  4  0  0  0  0
  1 31  4  0  0  0  0
  2  3  4  0  0  0  0
  3  4  1  0  0  0  0
  3 30  4  0  0  0  0
  4  5  1  0  0  0  0
  4  9  1  0  0  0  0
  5  6  1  0  0  0  0
  6  7  1  0  0  0  0
  7  8  1  0  0  0  0
  7 10  1  0  0  0  0
  8  9  1  0  0  0  0
 10 11  1  0  0  0  0
 11 12  1  0  0  0  0
 12 13  4  0  0  0  0
 12 29  4  0  0  0  0
 13 14  4  0  0  0  0
 14 15  4  0  0  0  0
 14 18  1  0  0  0  0
 15 16  1  0  0  0  0
 15 28  4  0  0  0  0
 16 17  1  0  0  0  0
 17 18  1  0  0  0  0
 18 19  1  0  0  0  0
 19 20  1  0  0  0  0
 20 21  2  0  0  0  0
 20 22  1  0  0  0  0
 22 23  4  0  0  0  0
 22 27  4  0  0  0  0
 23 24  4  0  0  0  0
 24 25  4  0  0  0  0
 25 26  4  0  0  0  0
 26 27  4  0  0  0  0
 28 29  4  0  0  0  0
 30 31  4  0  0  0  0
 30 35  4  0  0  0  0
 31 32  4  0  0  0  0
 32 33  4  0  0  0  0
 33 34  4  0  0  0  0
 34 35  4  0  0  0  0
M  END
>  <Name_Molregno>
423222

>  <5-HT1A>
8.35

>  <5-HT2A>
9.02

>  <DOPAMINE D2>
8.22

$$$$
423225
  Marvin  02231216192D 0   1.00000     0.00000     0

 36 41  0  0  1  0  0  0  0  0999 V2000
    7.7141    2.3142    0.0000 S   0  0  0  0  0  0  0  0  0
    7.2292    1.6468    0.0000 N   0  0  0  0  0  0  0  0  0
    7.7141    0.9793    0.0000 C   0  0  0  0  0  0  0  0  0
    7.4591    0.1947    0.0000 N   0  0  0  0  0  0  0  0  0
    8.0112   -0.4184    0.0000 C   0  0  0  0  0  0  0  0  0
    7.7562   -1.2030    0.0000 C   0  0  0  0  0  0  0  0  0
    6.9493   -1.3746    0.0000 N   0  0  0  0  0  0  0  0  0
    6.3972   -0.7615    0.0000 C   0  0  0  0  0  0  0  0  0
    6.6522    0.0232    0.0000 C   0  0  0  0  0  0  0  0  0
    6.6943   -2.1592    0.0000 C   0  0  0  0  0  0  0  0  0
    5.8873   -2.3307    0.0000 C   0  0  0  0  0  0  0  0  0
    5.3353   -1.7176    0.0000 C   0  0  0  0  0  0  0  0  0
    4.5283   -1.8891    0.0000 C   0  0  0  0  0  0  0  0  0
    3.9763   -1.2760    0.0000 C   0  0  0  0  0  0  0  0  0
    4.2312   -0.4914    0.0000 C   0  0  0  0  0  0  0  0  0
    3.5638   -0.0065    0.0000 C   0  0  0  0  0  0  0  0  0
    2.8964   -0.4914    0.0000 C   0  0  0  0  0  0  0  0  0
    3.1513   -1.2760    0.0000 C   0  0  0  0  0  0  0  0  0
    2.6664   -1.9435    0.0000 N   0  0  0  0  0  0  0  0  0
    1.8459   -1.8572    0.0000 C   0  0  0  0  0  0  0  0  0
    1.5103   -1.1036    0.0000 O   0  0  0  0  0  0  0  0  0
    1.3610   -2.5247    0.0000 C   0  0  0  0  0  0  0  0  0
    0.5405   -2.4384    0.0000 C   0  0  0  0  0  0  0  0  0
    0.0556   -3.1059    0.0000 C   0  0  0  0  0  0  0  0  0
   -0.7649   -3.0196    0.0000 C   0  0  0  0  0  0  0  0  0
   -1.1005   -2.2660    0.0000 C   0  0  0  0  0  0  0  0  0
   -0.6155   -1.5985    0.0000 C   0  0  0  0  0  0  0  0  0
    0.2049   -1.6848    0.0000 C   0  0  0  0  0  0  0  0  0
    5.0382   -0.3199    0.0000 C   0  0  0  0  0  0  0  0  0
    5.5903   -0.9330    0.0000 C   0  0  0  0  0  0  0  0  0
    8.4987    1.2343    0.0000 C   0  0  0  0  0  0  0  0  0
    8.4987    2.0593    0.0000 C   0  0  0  0  0  0  0  0  0
    9.2132    2.4718    0.0000 C   0  0  0  0  0  0  0  0  0
    9.9276    2.0593    0.0000 C   0  0  0  0  0  0  0  0  0
    9.9276    1.2343    0.0000 C   0  0  0  0  0  0  0  0  0
    9.2132    0.8218    0.0000 C   0  0  0  0  0  0  0  0  0
  1  2  4  0  0  0  0
  1 32  4  0  0  0  0
  2  3  4  0  0  0  0
  3  4  1  0  0  0  0
  3 31  4  0  0  0  0
  4  5  1  0  0  0  0
  4  9  1  0  0  0  0
  5  6  1  0  0  0  0
  6  7  1  0  0  0  0
  7  8  1  0  0  0  0
  7 10  1  0  0  0  0
  8  9  1  0  0  0  0
 10 11  1  0  0  0  0
 11 12  1  0  0  0  0
 12 13  4  0  0  0  0
 12 30  4  0  0  0  0
 13 14  4  0  0  0  0
 14 15  4  0  0  0  0
 14 18  1  0  0  0  0
 15 16  1  0  0  0  0
 15 29  4  0  0  0  0
 16 17  1  0  0  0  0
 17 18  1  0  0  0  0
 18 19  1  0  0  0  0
 19 20  1  0  0  0  0
 20 21  2  0  0  0  0
 20 22  1  0  0  0  0
 22 23  1  0  0  0  0
 23 24  4  0  0  0  0
 23 28  4  0  0  0  0
 24 25  4  0  0  0  0
 25 26  4  0  0  0  0
 26 27  4  0  0  0  0
 27 28  4  0  0  0  0
 29 30  4  0  0  0  0
 31 32  4  0  0  0  0
 31 36  4  0  0  0  0
 32 33  4  0  0  0  0
 33 34  4  0  0  0  0
 34 35  4  0  0  0  0
 35 36  4  0  0  0  0
M  END
>  <Name_Molregno>
423225

>  <5-HT1A>
7.68

>  <5-HT2A>
10.4

>  <DOPAMINE D2>
7.59

$$$$
423235
  Marvin  02231216192D 0   1.00000     0.00000     0

 37 42  0  0  1  0  0  0  0  0999 V2000
    6.5609   -0.1533    0.0000 S   0  0  0  0  0  0  0  0  0
    6.0760   -0.8208    0.0000 N   0  0  0  0  0  0  0  0  0
    6.5609   -1.4882    0.0000 C   0  0  0  0  0  0  0  0  0
    6.3060   -2.2728    0.0000 N   0  0  0  0  0  0  0  0  0
    6.8580   -2.8859    0.0000 C   0  0  0  0  0  0  0  0  0
    6.6031   -3.6705    0.0000 C   0  0  0  0  0  0  0  0  0
    5.7961   -3.8421    0.0000 N   0  0  0  0  0  0  0  0  0
    5.2441   -3.2290    0.0000 C   0  0  0  0  0  0  0  0  0
    5.4990   -2.4443    0.0000 C   0  0  0  0  0  0  0  0  0
    5.5412   -4.6267    0.0000 C   0  0  0  0  0  0  0  0  0
    4.7342   -4.7982    0.0000 C   0  0  0  0  0  0  0  0  0
    4.1822   -4.1851    0.0000 C   0  0  0  0  0  0  0  0  0
    3.3752   -4.3566    0.0000 C   0  0  0  0  0  0  0  0  0
    2.8232   -3.7436    0.0000 C   0  0  0  0  0  0  0  0  0
    3.0781   -2.9589    0.0000 C   0  0  0  0  0  0  0  0  0
    2.4107   -2.4740    0.0000 C   0  0  0  0  0  0  0  0  0
    1.7432   -2.9589    0.0000 C   0  0  0  0  0  0  0  0  0
    1.9982   -3.7436    0.0000 C   0  0  0  0  0  0  0  0  0
    1.5132   -4.4110    0.0000 N   0  0  0  0  0  0  0  0  0
    0.6928   -4.3248    0.0000 C   0  0  0  0  0  0  0  0  0
    0.3572   -3.5711    0.0000 O   0  0  0  0  0  0  0  0  0
    0.2078   -4.9922    0.0000 C   0  0  0  0  0  0  0  0  0
   -0.6126   -4.9060    0.0000 C   0  0  0  0  0  0  0  0  0
   -1.0976   -5.5734    0.0000 C   0  0  0  0  0  0  0  0  0
   -0.7620   -6.3271    0.0000 C   0  0  0  0  0  0  0  0  0
   -1.2469   -6.9945    0.0000 C   0  0  0  0  0  0  0  0  0
   -2.0674   -6.9083    0.0000 C   0  0  0  0  0  0  0  0  0
   -2.4030   -6.1546    0.0000 C   0  0  0  0  0  0  0  0  0
   -1.9180   -5.4872    0.0000 C   0  0  0  0  0  0  0  0  0
    3.8851   -2.7874    0.0000 C   0  0  0  0  0  0  0  0  0
    4.4371   -3.4005    0.0000 C   0  0  0  0  0  0  0  0  0
    7.3455   -1.2333    0.0000 C   0  0  0  0  0  0  0  0  0
    7.3455   -0.4083    0.0000 C   0  0  0  0  0  0  0  0  0
    8.0600    0.0042    0.0000 C   0  0  0  0  0  0  0  0  0
    8.7745   -0.4083    0.0000 C   0  0  0  0  0  0  0  0  0
    8.7745   -1.2333    0.0000 C   0  0  0  0  0  0  0  0  0
    8.0600   -1.6458    0.0000 C   0  0  0  0  0  0  0  0  0
  1  2  4  0  0  0  0
  1 33  4  0  0  0  0
  2  3  4  0  0  0  0
  3  4  1  0  0  0  0
  3 32  4  0  0  0  0
  4  5  1  0  0  0  0
  4  9  1  0  0  0  0
  5  6  1  0  0  0  0
  6  7  1  0  0  0  0
  7  8  1  0  0  0  0
  7 10  1  0  0  0  0
  8  9  1  0  0  0  0
 10 11  1  0  0  0  0
 11 12  1  0  0  0  0
 12 13  4  0  0  0  0
 12 31  4  0  0  0  0
 13 14  4  0  0  0  0
 14 15  4  0  0  0  0
 14 18  1  0  0  0  0
 15 16  1  0  0  0  0
 15 30  4  0  0  0  0
 16 17  1  0  0  0  0
 17 18  1  0  0  0  0
 18 19  1  0  0  0  0
 19 20  1  0  0  0  0
 20 21  2  0  0  0  0
 20 22  1  0  0  0  0
 22 23  1  0  0  0  0
 23 24  1  0  0  0  0
 24 25  4  0  0  0  0
 24 29  4  0  0  0  0
 25 26  4  0  0  0  0
 26 27  4  0  0  0  0
 27 28  4  0  0  0  0
 28 29  4  0  0  0  0
 30 31  4  0  0  0  0
 32 33  4  0  0  0  0
 32 37  4  0  0  0  0
 33 34  4  0  0  0  0
 34 35  4  0  0  0  0
 35 36  4  0  0  0  0
 36 37  4  0  0  0  0
M  END
>  <Name_Molregno>
423235

>  <5-HT1A>
7.43

>  <5-HT2A>
9.02

>  <DOPAMINE D2>
7.48

$$$$
423248
  Marvin  02231216192D 0   1.00000     0.00000     0

 34 39  0  0  1  0  0  0  0  0999 V2000
    4.8459    3.9713    0.0000 S   0  0  0  0  0  0  0  0  0
    4.3610    3.3039    0.0000 N   0  0  0  0  0  0  0  0  0
    4.8459    2.6364    0.0000 C   0  0  0  0  0  0  0  0  0
    4.5910    1.8518    0.0000 N   0  0  0  0  0  0  0  0  0
    5.1430    1.2387    0.0000 C   0  0  0  0  0  0  0  0  0
    4.8881    0.4541    0.0000 C   0  0  0  0  0  0  0  0  0
    4.0811    0.2826    0.0000 N   0  0  0  0  0  0  0  0  0
    3.5291    0.8957    0.0000 C   0  0  0  0  0  0  0  0  0
    3.7840    1.6803    0.0000 C   0  0  0  0  0  0  0  0  0
    3.8262   -0.5020    0.0000 C   0  0  0  0  0  0  0  0  0
    3.0192   -0.6736    0.0000 C   0  0  0  0  0  0  0  0  0
    2.7642   -1.4582    0.0000 C   0  0  0  0  0  0  0  0  0
    3.3163   -2.0713    0.0000 C   0  0  0  0  0  0  0  0  0
    3.0613   -2.8559    0.0000 C   0  0  0  0  0  0  0  0  0
    2.2544   -3.0274    0.0000 C   0  0  0  0  0  0  0  0  0
    2.1681   -3.8479    0.0000 C   0  0  0  0  0  0  0  0  0
    2.9218   -4.1835    0.0000 C   0  0  0  0  0  0  0  0  0
    3.4738   -3.5704    0.0000 C   0  0  0  0  0  0  0  0  0
    4.2943   -3.6566    0.0000 N   0  0  0  0  0  0  0  0  0
    4.6299   -4.4103    0.0000 C   0  0  0  0  0  0  0  0  0
    4.1449   -5.0777    0.0000 O   0  0  0  0  0  0  0  0  0
    5.4504   -4.4965    0.0000 C   0  0  0  0  0  0  0  0  0
    6.0024   -3.8834    0.0000 O   0  0  0  0  0  0  0  0  0
    6.7561   -4.2190    0.0000 C   0  0  0  0  0  0  0  0  0
    6.6698   -5.0395    0.0000 C   0  0  0  0  0  0  0  0  0
    5.8629   -5.2110    0.0000 C   0  0  0  0  0  0  0  0  0
    1.7023   -2.4143    0.0000 C   0  0  0  0  0  0  0  0  0
    1.9573   -1.6297    0.0000 C   0  0  0  0  0  0  0  0  0
    5.6305    2.8914    0.0000 C   0  0  0  0  0  0  0  0  0
    5.6305    3.7164    0.0000 C   0  0  0  0  0  0  0  0  0
    6.3450    4.1289    0.0000 C   0  0  0  0  0  0  0  0  0
    7.0595    3.7164    0.0000 C   0  0  0  0  0  0  0  0  0
    7.0595    2.8914    0.0000 C   0  0  0  0  0  0  0  0  0
    6.3450    2.4789    0.0000 C   0  0  0  0  0  0  0  0  0
  1  2  4  0  0  0  0
  1 30  4  0  0  0  0
  2  3  4  0  0  0  0
  3  4  1  0  0  0  0
  3 29  4  0  0  0  0
  4  5  1  0  0  0  0
  4  9  1  0  0  0  0
  5  6  1  0  0  0  0
  6  7  1  0  0  0  0
  7  8  1  0  0  0  0
  7 10  1  0  0  0  0
  8  9  1  0  0  0  0
 10 11  1  0  0  0  0
 11 12  1  0  0  0  0
 12 13  4  0  0  0  0
 12 28  4  0  0  0  0
 13 14  4  0  0  0  0
 14 15  4  0  0  0  0
 14 18  1  0  0  0  0
 15 16  1  0  0  0  0
 15 27  4  0  0  0  0
 16 17  1  0  0  0  0
 17 18  1  0  0  0  0
 18 19  1  0  0  0  0
 19 20  1  0  0  0  0
 20 21  2  0  0  0  0
 20 22  1  0  0  0  0
 22 23  4  0  0  0  0
 22 26  4  0  0  0  0
 23 24  4  0  0  0  0
 24 25  4  0  0  0  0
 25 26  4  0  0  0  0
 27 28  4  0  0  0  0
 29 30  4  0  0  0  0
 29 34  4  0  0  0  0
 30 31  4  0  0  0  0
 31 32  4  0  0  0  0
 32 33  4  0  0  0  0
 33 34  4  0  0  0  0
M  END
>  <Name_Molregno>
423248

>  <5-HT1A>
8.1

>  <5-HT2A>
9.26

>  <DOPAMINE D2>
8.3

$$$$
423265
  Marvin  02231216192D 0   1.00000     0.00000     0

 34 39  0  0  1  0  0  0  0  0999 V2000
    4.8459    3.9713    0.0000 S   0  0  0  0  0  0  0  0  0
    4.3610    3.3039    0.0000 N   0  0  0  0  0  0  0  0  0
    4.8459    2.6364    0.0000 C   0  0  0  0  0  0  0  0  0
    4.5910    1.8518    0.0000 N   0  0  0  0  0  0  0  0  0
    5.1430    1.2387    0.0000 C   0  0  0  0  0  0  0  0  0
    4.8881    0.4541    0.0000 C   0  0  0  0  0  0  0  0  0
    4.0811    0.2826    0.0000 N   0  0  0  0  0  0  0  0  0
    3.5291    0.8957    0.0000 C   0  0  0  0  0  0  0  0  0
    3.7840    1.6803    0.0000 C   0  0  0  0  0  0  0  0  0
    3.8262   -0.5020    0.0000 C   0  0  0  0  0  0  0  0  0
    3.0192   -0.6736    0.0000 C   0  0  0  0  0  0  0  0  0
    2.7642   -1.4582    0.0000 C   0  0  0  0  0  0  0  0  0
    3.3163   -2.0713    0.0000 C   0  0  0  0  0  0  0  0  0
    3.0613   -2.8559    0.0000 C   0  0  0  0  0  0  0  0  0
    2.2544   -3.0274    0.0000 C   0  0  0  0  0  0  0  0  0
    2.1681   -3.8479    0.0000 C   0  0  0  0  0  0  0  0  0
    2.9218   -4.1835    0.0000 C   0  0  0  0  0  0  0  0  0
    3.4738   -3.5704    0.0000 C   0  0  0  0  0  0  0  0  0
    4.2943   -3.6566    0.0000 N   0  0  0  0  0  0  0  0  0
    4.6299   -4.4103    0.0000 C   0  0  0  0  0  0  0  0  0
    4.1449   -5.0777    0.0000 O   0  0  0  0  0  0  0  0  0
    5.4504   -4.4965    0.0000 C   0  0  0  0  0  0  0  0  0
    6.0024   -3.8834    0.0000 O   0  0  0  0  0  0  0  0  0
    6.7561   -4.2190    0.0000 N   0  0  0  0  0  0  0  0  0
    6.6698   -5.0395    0.0000 C   0  0  0  0  0  0  0  0  0
    5.8629   -5.2110    0.0000 C   0  0  0  0  0  0  0  0  0
    1.7023   -2.4143    0.0000 C   0  0  0  0  0  0  0  0  0
    1.9573   -1.6297    0.0000 C   0  0  0  0  0  0  0  0  0
    5.6305    2.8914    0.0000 C   0  0  0  0  0  0  0  0  0
    5.6305    3.7164    0.0000 C   0  0  0  0  0  0  0  0  0
    6.3450    4.1289    0.0000 C   0  0  0  0  0  0  0  0  0
    7.0595    3.7164    0.0000 C   0  0  0  0  0  0  0  0  0
    7.0595    2.8914    0.0000 C   0  0  0  0  0  0  0  0  0
    6.3450    2.4789    0.0000 C   0  0  0  0  0  0  0  0  0
  1  2  4  0  0  0  0
  1 30  4  0  0  0  0
  2  3  4  0  0  0  0
  3  4  1  0  0  0  0
  3 29  4  0  0  0  0
  4  5  1  0  0  0  0
  4  9  1  0  0  0  0
  5  6  1  0  0  0  0
  6  7  1  0  0  0  0
  7  8  1  0  0  0  0
  7 10  1  0  0  0  0
  8  9  1  0  0  0  0
 10 11  1  0  0  0  0
 11 12  1  0  0  0  0
 12 13  4  0  0  0  0
 12 28  4  0  0  0  0
 13 14  4  0  0  0  0
 14 15  4  0  0  0  0
 14 18  1  0  0  0  0
 15 16  1  0  0  0  0
 15 27  4  0  0  0  0
 16 17  1  0  0  0  0
 17 18  1  0  0  0  0
 18 19  1  0  0  0  0
 19 20  1  0  0  0  0
 20 21  2  0  0  0  0
 20 22  1  0  0  0  0
 22 23  4  0  0  0  0
 22 26  4  0  0  0  0
 23 24  4  0  0  0  0
 24 25  4  0  0  0  0
 25 26  4  0  0  0  0
 27 28  4  0  0  0  0
 29 30  4  0  0  0  0
 29 34  4  0  0  0  0
 30 31  4  0  0  0  0
 31 32  4  0  0  0  0
 32 33  4  0  0  0  0
 33 34  4  0  0  0  0
M  END
>  <Name_Molregno>
423265

>  <5-HT1A>
8.19

>  <5-HT2A>
10.1

>  <DOPAMINE D2>
8.52

$$$$
423267
  Marvin  02231216192D 0   1.00000     0.00000     0

 33 37  0  0  1  0  0  0  0  0999 V2000
    6.1288    4.0507    0.0000 S   0  0  0  0  0  0  0  0  0
    5.6439    3.3833    0.0000 N   0  0  0  0  0  0  0  0  0
    6.1288    2.7158    0.0000 C   0  0  0  0  0  0  0  0  0
    5.8739    1.9312    0.0000 N   0  0  0  0  0  0  0  0  0
    6.4259    1.3181    0.0000 C   0  0  0  0  0  0  0  0  0
    6.1710    0.5335    0.0000 C   0  0  0  0  0  0  0  0  0
    5.3640    0.3620    0.0000 N   0  0  0  0  0  0  0  0  0
    4.8120    0.9751    0.0000 C   0  0  0  0  0  0  0  0  0
    5.0669    1.7597    0.0000 C   0  0  0  0  0  0  0  0  0
    5.1091   -0.4227    0.0000 C   0  0  0  0  0  0  0  0  0
    4.3021   -0.5942    0.0000 C   0  0  0  0  0  0  0  0  0
    4.0471   -1.3788    0.0000 C   0  0  0  0  0  0  0  0  0
    4.5992   -1.9919    0.0000 C   0  0  0  0  0  0  0  0  0
    4.3442   -2.7765    0.0000 C   0  0  0  0  0  0  0  0  0
    3.5373   -2.9480    0.0000 C   0  0  0  0  0  0  0  0  0
    2.9852   -2.3350    0.0000 C   0  0  0  0  0  0  0  0  0
    3.2402   -1.5503    0.0000 C   0  0  0  0  0  0  0  0  0
    3.4510   -3.7685    0.0000 C   0  0  0  0  0  0  0  0  0
    2.7366   -4.1810    0.0000 N   0  0  0  0  0  0  0  0  0
    2.7366   -5.0060    0.0000 C   0  0  0  0  0  0  0  0  0
    3.4510   -5.4185    0.0000 O   0  0  0  0  0  0  0  0  0
    2.0221   -5.4185    0.0000 C   0  0  0  0  0  0  0  0  0
    1.3076   -5.8310    0.0000 F   0  0  0  0  0  0  0  0  0
    2.4346   -6.1330    0.0000 F   0  0  0  0  0  0  0  0  0
    1.6096   -4.7041    0.0000 F   0  0  0  0  0  0  0  0  0
    4.2047   -4.1041    0.0000 C   0  0  0  0  0  0  0  0  0
    4.7567   -3.4910    0.0000 C   0  0  0  0  0  0  0  0  0
    6.9134    2.9708    0.0000 C   0  0  0  0  0  0  0  0  0
    6.9134    3.7958    0.0000 C   0  0  0  0  0  0  0  0  0
    7.6279    4.2083    0.0000 C   0  0  0  0  0  0  0  0  0
    8.3424    3.7958    0.0000 C   0  0  0  0  0  0  0  0  0
    8.3424    2.9708    0.0000 C   0  0  0  0  0  0  0  0  0
    7.6279    2.5583    0.0000 C   0  0  0  0  0  0  0  0  0
  1  2  4  0  0  0  0
  1 29  4  0  0  0  0
  2  3  4  0  0  0  0
  3  4  1  0  0  0  0
  3 28  4  0  0  0  0
  4  5  1  0  0  0  0
  4  9  1  0  0  0  0
  5  6  1  0  0  0  0
  6  7  1  0  0  0  0
  7  8  1  0  0  0  0
  7 10  1  0  0  0  0
  8  9  1  0  0  0  0
 10 11  1  0  0  0  0
 11 12  1  0  0  0  0
 12 13  4  0  0  0  0
 12 17  4  0  0  0  0
 13 14  4  0  0  0  0
 14 15  4  0  0  0  0
 14 27  1  0  0  0  0
 15 16  4  0  0  0  0
 15 18  1  0  0  0  0
 16 17  4  0  0  0  0
 18 19  1  0  0  0  0
 18 26  1  0  0  0  0
 19 20  1  0  0  0  0
 20 21  2  0  0  0  0
 20 22  1  0  0  0  0
 22 23  1  0  0  0  0
 22 24  1  0  0  0  0
 22 25  1  0  0  0  0
 26 27  1  0  0  0  0
 28 29  4  0  0  0  0
 28 33  4  0  0  0  0
 29 30  4  0  0  0  0
 30 31  4  0  0  0  0
 31 32  4  0  0  0  0
 32 33  4  0  0  0  0
M  END
>  <Name_Molregno>
423267

>  <5-HT1A>
9

>  <5-HT2A>
9.82

>  <DOPAMINE D2>
8.1

$$$$
423269
  Marvin  02231216192D 0   1.00000     0.00000     0

 30 34  0  0  1  0  0  0  0  0999 V2000
    5.2970    3.6508    0.0000 S   0  0  0  0  0  0  0  0  0
    4.8121    2.9834    0.0000 N   0  0  0  0  0  0  0  0  0
    5.2970    2.3160    0.0000 C   0  0  0  0  0  0  0  0  0
    5.0421    1.5313    0.0000 N   0  0  0  0  0  0  0  0  0
    5.5941    0.9182    0.0000 C   0  0  0  0  0  0  0  0  0
    5.3392    0.1336    0.0000 C   0  0  0  0  0  0  0  0  0
    4.5322   -0.0379    0.0000 N   0  0  0  0  0  0  0  0  0
    3.9802    0.5752    0.0000 C   0  0  0  0  0  0  0  0  0
    4.2351    1.3598    0.0000 C   0  0  0  0  0  0  0  0  0
    4.2773   -0.8225    0.0000 C   0  0  0  0  0  0  0  0  0
    3.4703   -0.9941    0.0000 C   0  0  0  0  0  0  0  0  0
    3.2154   -1.7787    0.0000 C   0  0  0  0  0  0  0  0  0
    3.7674   -2.3918    0.0000 C   0  0  0  0  0  0  0  0  0
    3.5125   -3.1764    0.0000 C   0  0  0  0  0  0  0  0  0
    2.7055   -3.3479    0.0000 C   0  0  0  0  0  0  0  0  0
    2.1535   -2.7348    0.0000 C   0  0  0  0  0  0  0  0  0
    2.4084   -1.9502    0.0000 C   0  0  0  0  0  0  0  0  0
    2.6192   -4.1684    0.0000 C   0  0  0  0  0  0  0  0  0
    1.9048   -4.5809    0.0000 N   0  0  0  0  0  0  0  0  0
    1.9048   -5.4059    0.0000 C   0  0  0  0  0  0  0  0  0
    1.1903   -5.8184    0.0000 O   0  0  0  0  0  0  0  0  0
    2.6192   -5.8184    0.0000 C   0  0  0  0  0  0  0  0  0
    3.3729   -4.5040    0.0000 C   0  0  0  0  0  0  0  0  0
    3.9250   -3.8909    0.0000 C   0  0  0  0  0  0  0  0  0
    6.0817    2.5709    0.0000 C   0  0  0  0  0  0  0  0  0
    6.0817    3.3959    0.0000 C   0  0  0  0  0  0  0  0  0
    6.7961    3.8084    0.0000 C   0  0  0  0  0  0  0  0  0
    7.5106    3.3959    0.0000 C   0  0  0  0  0  0  0  0  0
    7.5106    2.5709    0.0000 C   0  0  0  0  0  0  0  0  0
    6.7961    2.1584    0.0000 C   0  0  0  0  0  0  0  0  0
  1  2  4  0  0  0  0
  1 26  4  0  0  0  0
  2  3  4  0  0  0  0
  3  4  1  0  0  0  0
  3 25  4  0  0  0  0
  4  5  1  0  0  0  0
  4  9  1  0  0  0  0
  5  6  1  0  0  0  0
  6  7  1  0  0  0  0
  7  8  1  0  0  0  0
  7 10  1  0  0  0  0
  8  9  1  0  0  0  0
 10 11  1  0  0  0  0
 11 12  1  0  0  0  0
 12 13  4  0  0  0  0
 12 17  4  0  0  0  0
 13 14  4  0  0  0  0
 14 15  4  0  0  0  0
 14 24  1  0  0  0  0
 15 16  4  0  0  0  0
 15 18  1  0  0  0  0
 16 17  4  0  0  0  0
 18 19  1  0  0  0  0
 18 23  1  0  0  0  0
 19 20  1  0  0  0  0
 20 21  2  0  0  0  0
 20 22  1  0  0  0  0
 23 24  1  0  0  0  0
 25 26  4  0  0  0  0
 25 30  4  0  0  0  0
 26 27  4  0  0  0  0
 27 28  4  0  0  0  0
 28 29  4  0  0  0  0
 29 30  4  0  0  0  0
M  END
>  <Name_Molregno>
423269

>  <5-HT1A>
8.96

>  <5-HT2A>
9.48

>  <DOPAMINE D2>
7.82

$$$$
423270
  Marvin  02231216192D 0   1.00000     0.00000     0

 31 35  0  0  1  0  0  0  0  0999 V2000
    5.6049    3.8319    0.0000 S   0  0  0  0  0  0  0  0  0
    5.1200    3.1645    0.0000 N   0  0  0  0  0  0  0  0  0
    5.6049    2.4971    0.0000 C   0  0  0  0  0  0  0  0  0
    5.3500    1.7124    0.0000 N   0  0  0  0  0  0  0  0  0
    5.9020    1.0993    0.0000 C   0  0  0  0  0  0  0  0  0
    5.6471    0.3147    0.0000 C   0  0  0  0  0  0  0  0  0
    4.8401    0.1432    0.0000 N   0  0  0  0  0  0  0  0  0
    4.2881    0.7563    0.0000 C   0  0  0  0  0  0  0  0  0
    4.5430    1.5409    0.0000 C   0  0  0  0  0  0  0  0  0
    4.5852   -0.6414    0.0000 C   0  0  0  0  0  0  0  0  0
    3.7782   -0.8129    0.0000 C   0  0  0  0  0  0  0  0  0
    3.5232   -1.5976    0.0000 C   0  0  0  0  0  0  0  0  0
    4.0753   -2.2107    0.0000 C   0  0  0  0  0  0  0  0  0
    3.8203   -2.9953    0.0000 C   0  0  0  0  0  0  0  0  0
    3.0134   -3.1668    0.0000 C   0  0  0  0  0  0  0  0  0
    2.4613   -2.5537    0.0000 C   0  0  0  0  0  0  0  0  0
    2.7163   -1.7691    0.0000 C   0  0  0  0  0  0  0  0  0
    2.9271   -3.9873    0.0000 C   0  0  0  0  0  0  0  0  0
    2.2127   -4.3998    0.0000 N   0  0  0  0  0  0  0  0  0
    2.2127   -5.2248    0.0000 C   0  0  0  0  0  0  0  0  0
    2.9271   -5.6373    0.0000 O   0  0  0  0  0  0  0  0  0
    1.4982   -5.6373    0.0000 C   0  0  0  0  0  0  0  0  0
    1.4982   -6.4623    0.0000 C   0  0  0  0  0  0  0  0  0
    3.6808   -4.3229    0.0000 C   0  0  0  0  0  0  0  0  0
    4.2328   -3.7098    0.0000 C   0  0  0  0  0  0  0  0  0
    6.3895    2.7520    0.0000 C   0  0  0  0  0  0  0  0  0
    6.3895    3.5770    0.0000 C   0  0  0  0  0  0  0  0  0
    7.1040    3.9895    0.0000 C   0  0  0  0  0  0  0  0  0
    7.8185    3.5770    0.0000 C   0  0  0  0  0  0  0  0  0
    7.8185    2.7520    0.0000 C   0  0  0  0  0  0  0  0  0
    7.1040    2.3395    0.0000 C   0  0  0  0  0  0  0  0  0
  1  2  4  0  0  0  0
  1 27  4  0  0  0  0
  2  3  4  0  0  0  0
  3  4  1  0  0  0  0
  3 26  4  0  0  0  0
  4  5  1  0  0  0  0
  4  9  1  0  0  0  0
  5  6  1  0  0  0  0
  6  7  1  0  0  0  0
  7  8  1  0  0  0  0
  7 10  1  0  0  0  0
  8  9  1  0  0  0  0
 10 11  1  0  0  0  0
 11 12  1  0  0  0  0
 12 13  4  0  0  0  0
 12 17  4  0  0  0  0
 13 14  4  0  0  0  0
 14 15  4  0  0  0  0
 14 25  1  0  0  0  0
 15 16  4  0  0  0  0
 15 18  1  0  0  0  0
 16 17  4  0  0  0  0
 18 19  1  0  0  0  0
 18 24  1  0  0  0  0
 19 20  1  0  0  0  0
 20 21  2  0  0  0  0
 20 22  1  0  0  0  0
 22 23  1  0  0  0  0
 24 25  1  0  0  0  0
 26 27  4  0  0  0  0
 26 31  4  0  0  0  0
 27 28  4  0  0  0  0
 28 29  4  0  0  0  0
 29 30  4  0  0  0  0
 30 31  4  0  0  0  0
M  END
>  <Name_Molregno>
423270

>  <5-HT1A>
8.7

>  <5-HT2A>
9.6

$$$$
423272
  Marvin  02231216192D 0   1.00000     0.00000     0

 32 36  0  0  1  0  0  0  0  0999 V2000
    5.9856    4.7696    0.0000 S   0  0  0  0  0  0  0  0  0
    5.5007    4.1022    0.0000 N   0  0  0  0  0  0  0  0  0
    5.9856    3.4347    0.0000 C   0  0  0  0  0  0  0  0  0
    5.7306    2.6501    0.0000 N   0  0  0  0  0  0  0  0  0
    6.2827    2.0370    0.0000 C   0  0  0  0  0  0  0  0  0
    6.0277    1.2524    0.0000 C   0  0  0  0  0  0  0  0  0
    5.2208    1.0808    0.0000 N   0  0  0  0  0  0  0  0  0
    4.6687    1.6939    0.0000 C   0  0  0  0  0  0  0  0  0
    4.9237    2.4786    0.0000 C   0  0  0  0  0  0  0  0  0
    4.9658    0.2962    0.0000 C   0  0  0  0  0  0  0  0  0
    4.1589    0.1247    0.0000 C   0  0  0  0  0  0  0  0  0
    3.9039   -0.6599    0.0000 C   0  0  0  0  0  0  0  0  0
    4.4560   -1.2730    0.0000 C   0  0  0  0  0  0  0  0  0
    4.2010   -2.0576    0.0000 C   0  0  0  0  0  0  0  0  0
    3.3940   -2.2292    0.0000 C   0  0  0  0  0  0  0  0  0
    2.8420   -1.6161    0.0000 C   0  0  0  0  0  0  0  0  0
    3.0969   -0.8314    0.0000 C   0  0  0  0  0  0  0  0  0
    3.3078   -3.0496    0.0000 C   0  0  0  0  0  0  0  0  0
    2.5933   -3.4621    0.0000 N   0  0  0  0  0  0  0  0  0
    2.5933   -4.2871    0.0000 C   0  0  0  0  0  0  0  0  0
    3.3078   -4.6996    0.0000 O   0  0  0  0  0  0  0  0  0
    1.8789   -4.6996    0.0000 C   0  0  0  0  0  0  0  0  0
    1.8789   -5.5246    0.0000 C   0  0  0  0  0  0  0  0  0
    1.1644   -5.9371    0.0000 C   0  0  0  0  0  0  0  0  0
    4.0615   -3.3852    0.0000 C   0  0  0  0  0  0  0  0  0
    4.6135   -2.7721    0.0000 C   0  0  0  0  0  0  0  0  0
    6.7702    3.6897    0.0000 C   0  0  0  0  0  0  0  0  0
    6.7702    4.5147    0.0000 C   0  0  0  0  0  0  0  0  0
    7.4847    4.9272    0.0000 C   0  0  0  0  0  0  0  0  0
    8.1992    4.5147    0.0000 C   0  0  0  0  0  0  0  0  0
    8.1992    3.6897    0.0000 C   0  0  0  0  0  0  0  0  0
    7.4847    3.2772    0.0000 C   0  0  0  0  0  0  0  0  0
  1  2  4  0  0  0  0
  1 28  4  0  0  0  0
  2  3  4  0  0  0  0
  3  4  1  0  0  0  0
  3 27  4  0  0  0  0
  4  5  1  0  0  0  0
  4  9  1  0  0  0  0
  5  6  1  0  0  0  0
  6  7  1  0  0  0  0
  7  8  1  0  0  0  0
  7 10  1  0  0  0  0
  8  9  1  0  0  0  0
 10 11  1  0  0  0  0
 11 12  1  0  0  0  0
 12 13  4  0  0  0  0
 12 17  4  0  0  0  0
 13 14  4  0  0  0  0
 14 15  4  0  0  0  0
 14 26  1  0  0  0  0
 15 16  4  0  0  0  0
 15 18  1  0  0  0  0
 16 17  4  0  0  0  0
 18 19  1  0  0  0  0
 18 25  1  0  0  0  0
 19 20  1  0  0  0  0
 20 21  2  0  0  0  0
 20 22  1  0  0  0  0
 22 23  1  0  0  0  0
 23 24  1  0  0  0  0
 25 26  1  0  0  0  0
 27 28  4  0  0  0  0
 27 32  4  0  0  0  0
 28 29  4  0  0  0  0
 29 30  4  0  0  0  0
 30 31  4  0  0  0  0
 31 32  4  0  0  0  0
M  END
>  <Name_Molregno>
423272

>  <5-HT1A>
8.7

>  <5-HT2A>
9.3

$$$$
423274
  Marvin  02231216192D 0   1.00000     0.00000     0

 32 37  0  0  1  0  0  0  0  0999 V2000
    5.9088    3.9085    0.0000 S   0  0  0  0  0  0  0  0  0
    5.4238    3.2411    0.0000 N   0  0  0  0  0  0  0  0  0
    5.9088    2.5736    0.0000 C   0  0  0  0  0  0  0  0  0
    5.6538    1.7890    0.0000 N   0  0  0  0  0  0  0  0  0
    6.2058    1.1759    0.0000 C   0  0  0  0  0  0  0  0  0
    5.9509    0.3913    0.0000 C   0  0  0  0  0  0  0  0  0
    5.1439    0.2198    0.0000 N   0  0  0  0  0  0  0  0  0
    4.5919    0.8329    0.0000 C   0  0  0  0  0  0  0  0  0
    4.8468    1.6175    0.0000 C   0  0  0  0  0  0  0  0  0
    4.8890   -0.5648    0.0000 C   0  0  0  0  0  0  0  0  0
    4.0820   -0.7364    0.0000 C   0  0  0  0  0  0  0  0  0
    3.8271   -1.5210    0.0000 C   0  0  0  0  0  0  0  0  0
    4.3791   -2.1341    0.0000 C   0  0  0  0  0  0  0  0  0
    4.1242   -2.9187    0.0000 C   0  0  0  0  0  0  0  0  0
    3.3172   -3.0902    0.0000 C   0  0  0  0  0  0  0  0  0
    2.7652   -2.4771    0.0000 C   0  0  0  0  0  0  0  0  0
    3.0201   -1.6925    0.0000 C   0  0  0  0  0  0  0  0  0
    3.2310   -3.9107    0.0000 C   0  0  0  0  0  0  0  0  0
    2.5165   -4.3232    0.0000 N   0  0  0  0  0  0  0  0  0
    2.5165   -5.1482    0.0000 C   0  0  0  0  0  0  0  0  0
    3.2310   -5.5607    0.0000 O   0  0  0  0  0  0  0  0  0
    1.8020   -5.5607    0.0000 C   0  0  0  0  0  0  0  0  0
    1.3895   -6.2752    0.0000 C   0  0  0  0  0  0  0  0  0
    0.9770   -5.5607    0.0000 C   0  0  0  0  0  0  0  0  0
    3.9846   -4.2463    0.0000 C   0  0  0  0  0  0  0  0  0
    4.5367   -3.6332    0.0000 C   0  0  0  0  0  0  0  0  0
    6.6934    2.8286    0.0000 C   0  0  0  0  0  0  0  0  0
    6.6934    3.6536    0.0000 C   0  0  0  0  0  0  0  0  0
    7.4078    4.0661    0.0000 C   0  0  0  0  0  0  0  0  0
    8.1223    3.6536    0.0000 C   0  0  0  0  0  0  0  0  0
    8.1223    2.8286    0.0000 C   0  0  0  0  0  0  0  0  0
    7.4078    2.4161    0.0000 C   0  0  0  0  0  0  0  0  0
  1  2  4  0  0  0  0
  1 28  4  0  0  0  0
  2  3  4  0  0  0  0
  3  4  1  0  0  0  0
  3 27  4  0  0  0  0
  4  5  1  0  0  0  0
  4  9  1  0  0  0  0
  5  6  1  0  0  0  0
  6  7  1  0  0  0  0
  7  8  1  0  0  0  0
  7 10  1  0  0  0  0
  8  9  1  0  0  0  0
 10 11  1  0  0  0  0
 11 12  1  0  0  0  0
 12 13  4  0  0  0  0
 12 17  4  0  0  0  0
 13 14  4  0  0  0  0
 14 15  4  0  0  0  0
 14 26  1  0  0  0  0
 15 16  4  0  0  0  0
 15 18  1  0  0  0  0
 16 17  4  0  0  0  0
 18 19  1  0  0  0  0
 18 25  1  0  0  0  0
 19 20  1  0  0  0  0
 20 21  2  0  0  0  0
 20 22  1  0  0  0  0
 22 23  1  0  0  0  0
 22 24  1  0  0  0  0
 23 24  1  0  0  0  0
 25 26  1  0  0  0  0
 27 28  4  0  0  0  0
 27 32  4  0  0  0  0
 28 29  4  0  0  0  0
 29 30  4  0  0  0  0
 30 31  4  0  0  0  0
 31 32  4  0  0  0  0
M  END
>  <Name_Molregno>
423274

>  <5-HT1A>
8.7

>  <5-HT2A>
9.35

$$$$
423275
  Marvin  02231216192D 0   1.00000     0.00000     0

 32 36  0  0  1  0  0  0  0  0999 V2000
    5.8866    3.9542    0.0000 S   0  0  0  0  0  0  0  0  0
    5.4017    3.2868    0.0000 N   0  0  0  0  0  0  0  0  0
    5.8866    2.6194    0.0000 C   0  0  0  0  0  0  0  0  0
    5.6317    1.8347    0.0000 N   0  0  0  0  0  0  0  0  0
    6.1837    1.2216    0.0000 C   0  0  0  0  0  0  0  0  0
    5.9288    0.4370    0.0000 C   0  0  0  0  0  0  0  0  0
    5.1218    0.2655    0.0000 N   0  0  0  0  0  0  0  0  0
    4.5698    0.8786    0.0000 C   0  0  0  0  0  0  0  0  0
    4.8247    1.6632    0.0000 C   0  0  0  0  0  0  0  0  0
    4.8669   -0.5191    0.0000 C   0  0  0  0  0  0  0  0  0
    4.0599   -0.6907    0.0000 C   0  0  0  0  0  0  0  0  0
    3.8049   -1.4753    0.0000 C   0  0  0  0  0  0  0  0  0
    4.3570   -2.0884    0.0000 C   0  0  0  0  0  0  0  0  0
    4.1020   -2.8730    0.0000 C   0  0  0  0  0  0  0  0  0
    3.2951   -3.0445    0.0000 C   0  0  0  0  0  0  0  0  0
    2.7430   -2.4314    0.0000 C   0  0  0  0  0  0  0  0  0
    2.9980   -1.6468    0.0000 C   0  0  0  0  0  0  0  0  0
    3.2088   -3.8650    0.0000 C   0  0  0  0  0  0  0  0  0
    2.4944   -4.2775    0.0000 N   0  0  0  0  0  0  0  0  0
    2.4944   -5.1025    0.0000 C   0  0  0  0  0  0  0  0  0
    3.2088   -5.5150    0.0000 O   0  0  0  0  0  0  0  0  0
    1.7799   -5.5150    0.0000 C   0  0  0  0  0  0  0  0  0
    1.7799   -6.3400    0.0000 C   0  0  0  0  0  0  0  0  0
    1.0654   -5.1025    0.0000 C   0  0  0  0  0  0  0  0  0
    3.9625   -4.2006    0.0000 C   0  0  0  0  0  0  0  0  0
    4.5145   -3.5875    0.0000 C   0  0  0  0  0  0  0  0  0
    6.6712    2.8743    0.0000 C   0  0  0  0  0  0  0  0  0
    6.6712    3.6993    0.0000 C   0  0  0  0  0  0  0  0  0
    7.3857    4.1118    0.0000 C   0  0  0  0  0  0  0  0  0
    8.1002    3.6993    0.0000 C   0  0  0  0  0  0  0  0  0
    8.1002    2.8743    0.0000 C   0  0  0  0  0  0  0  0  0
    7.3857    2.4618    0.0000 C   0  0  0  0  0  0  0  0  0
  1  2  4  0  0  0  0
  1 28  4  0  0  0  0
  2  3  4  0  0  0  0
  3  4  1  0  0  0  0
  3 27  4  0  0  0  0
  4  5  1  0  0  0  0
  4  9  1  0  0  0  0
  5  6  1  0  0  0  0
  6  7  1  0  0  0  0
  7  8  1  0  0  0  0
  7 10  1  0  0  0  0
  8  9  1  0  0  0  0
 10 11  1  0  0  0  0
 11 12  1  0  0  0  0
 12 13  4  0  0  0  0
 12 17  4  0  0  0  0
 13 14  4  0  0  0  0
 14 15  4  0  0  0  0
 14 26  1  0  0  0  0
 15 16  4  0  0  0  0
 15 18  1  0  0  0  0
 16 17  4  0  0  0  0
 18 19  1  0  0  0  0
 18 25  1  0  0  0  0
 19 20  1  0  0  0  0
 20 21  2  0  0  0  0
 20 22  1  0  0  0  0
 22 23  1  0  0  0  0
 22 24  1  0  0  0  0
 25 26  1  0  0  0  0
 27 28  4  0  0  0  0
 27 32  4  0  0  0  0
 28 29  4  0  0  0  0
 29 30  4  0  0  0  0
 30 31  4  0  0  0  0
 31 32  4  0  0  0  0
M  END
>  <Name_Molregno>
423275

>  <5-HT1A>
9

>  <5-HT2A>
9.19

$$$$
423277
  Marvin  02231216192D 0   1.00000     0.00000     0

 36 41  0  0  1  0  0  0  0  0999 V2000
    7.1026    4.5935    0.0000 S   0  0  0  0  0  0  0  0  0
    6.6177    3.9261    0.0000 N   0  0  0  0  0  0  0  0  0
    7.1026    3.2586    0.0000 C   0  0  0  0  0  0  0  0  0
    6.8477    2.4740    0.0000 N   0  0  0  0  0  0  0  0  0
    7.3997    1.8609    0.0000 C   0  0  0  0  0  0  0  0  0
    7.1448    1.0763    0.0000 C   0  0  0  0  0  0  0  0  0
    6.3378    0.9048    0.0000 N   0  0  0  0  0  0  0  0  0
    5.7858    1.5179    0.0000 C   0  0  0  0  0  0  0  0  0
    6.0407    2.3025    0.0000 C   0  0  0  0  0  0  0  0  0
    6.0829    0.1202    0.0000 C   0  0  0  0  0  0  0  0  0
    5.2759   -0.0514    0.0000 C   0  0  0  0  0  0  0  0  0
    5.0210   -0.8360    0.0000 C   0  0  0  0  0  0  0  0  0
    5.5730   -1.4491    0.0000 C   0  0  0  0  0  0  0  0  0
    5.3181   -2.2337    0.0000 C   0  0  0  0  0  0  0  0  0
    4.5111   -2.4052    0.0000 C   0  0  0  0  0  0  0  0  0
    3.9591   -1.7921    0.0000 C   0  0  0  0  0  0  0  0  0
    4.2140   -1.0075    0.0000 C   0  0  0  0  0  0  0  0  0
    4.4249   -3.2257    0.0000 C   0  0  0  0  0  0  0  0  0
    3.7104   -3.6382    0.0000 N   0  0  0  0  0  0  0  0  0
    3.7104   -4.4632    0.0000 C   0  0  0  0  0  0  0  0  0
    4.4249   -4.8757    0.0000 O   0  0  0  0  0  0  0  0  0
    2.9959   -4.8757    0.0000 C   0  0  0  0  0  0  0  0  0
    2.9959   -5.7007    0.0000 C   0  0  0  0  0  0  0  0  0
    2.2815   -6.1132    0.0000 C   0  0  0  0  0  0  0  0  0
    1.5670   -5.7007    0.0000 C   0  0  0  0  0  0  0  0  0
    0.8525   -6.1132    0.0000 F   0  0  0  0  0  0  0  0  0
    1.5670   -4.8757    0.0000 C   0  0  0  0  0  0  0  0  0
    2.2815   -4.4632    0.0000 C   0  0  0  0  0  0  0  0  0
    5.1785   -3.5613    0.0000 C   0  0  0  0  0  0  0  0  0
    5.7306   -2.9482    0.0000 C   0  0  0  0  0  0  0  0  0
    7.8873    3.5136    0.0000 C   0  0  0  0  0  0  0  0  0
    7.8873    4.3386    0.0000 C   0  0  0  0  0  0  0  0  0
    8.6017    4.7511    0.0000 C   0  0  0  0  0  0  0  0  0
    9.3162    4.3386    0.0000 C   0  0  0  0  0  0  0  0  0
    9.3162    3.5136    0.0000 C   0  0  0  0  0  0  0  0  0
    8.6017    3.1011    0.0000 C   0  0  0  0  0  0  0  0  0
  1  2  4  0  0  0  0
  1 32  4  0  0  0  0
  2  3  4  0  0  0  0
  3  4  1  0  0  0  0
  3 31  4  0  0  0  0
  4  5  1  0  0  0  0
  4  9  1  0  0  0  0
  5  6  1  0  0  0  0
  6  7  1  0  0  0  0
  7  8  1  0  0  0  0
  7 10  1  0  0  0  0
  8  9  1  0  0  0  0
 10 11  1  0  0  0  0
 11 12  1  0  0  0  0
 12 13  4  0  0  0  0
 12 17  4  0  0  0  0
 13 14  4  0  0  0  0
 14 15  4  0  0  0  0
 14 30  1  0  0  0  0
 15 16  4  0  0  0  0
 15 18  1  0  0  0  0
 16 17  4  0  0  0  0
 18 19  1  0  0  0  0
 18 29  1  0  0  0  0
 19 20  1  0  0  0  0
 20 21  2  0  0  0  0
 20 22  1  0  0  0  0
 22 23  4  0  0  0  0
 22 28  4  0  0  0  0
 23 24  4  0  0  0  0
 24 25  4  0  0  0  0
 25 26  1  0  0  0  0
 25 27  4  0  0  0  0
 27 28  4  0  0  0  0
 29 30  1  0  0  0  0
 31 32  4  0  0  0  0
 31 36  4  0  0  0  0
 32 33  4  0  0  0  0
 33 34  4  0  0  0  0
 34 35  4  0  0  0  0
 35 36  4  0  0  0  0
M  END
>  <Name_Molregno>
423277

>  <5-HT1A>
8.11

>  <5-HT2A>
8.78

>  <DOPAMINE D2>
8

$$$$
423279
  Marvin  02231216192D 0   1.00000     0.00000     0

 35 40  0  0  1  0  0  0  0  0999 V2000
    6.7613    4.2686    0.0000 S   0  0  0  0  0  0  0  0  0
    6.2764    3.6011    0.0000 N   0  0  0  0  0  0  0  0  0
    6.7613    2.9337    0.0000 C   0  0  0  0  0  0  0  0  0
    6.5063    2.1491    0.0000 N   0  0  0  0  0  0  0  0  0
    7.0584    1.5360    0.0000 C   0  0  0  0  0  0  0  0  0
    6.8034    0.7513    0.0000 C   0  0  0  0  0  0  0  0  0
    5.9965    0.5798    0.0000 N   0  0  0  0  0  0  0  0  0
    5.4444    1.1929    0.0000 C   0  0  0  0  0  0  0  0  0
    5.6994    1.9775    0.0000 C   0  0  0  0  0  0  0  0  0
    5.7415   -0.2048    0.0000 C   0  0  0  0  0  0  0  0  0
    4.9346   -0.3763    0.0000 C   0  0  0  0  0  0  0  0  0
    4.6796   -1.1610    0.0000 C   0  0  0  0  0  0  0  0  0
    5.2316   -1.7740    0.0000 C   0  0  0  0  0  0  0  0  0
    4.9767   -2.5587    0.0000 C   0  0  0  0  0  0  0  0  0
    4.1697   -2.7302    0.0000 C   0  0  0  0  0  0  0  0  0
    3.6177   -2.1171    0.0000 C   0  0  0  0  0  0  0  0  0
    3.8726   -1.3325    0.0000 C   0  0  0  0  0  0  0  0  0
    4.0835   -3.5507    0.0000 C   0  0  0  0  0  0  0  0  0
    3.3690   -3.9632    0.0000 N   0  0  0  0  0  0  0  0  0
    3.3690   -4.7882    0.0000 C   0  0  0  0  0  0  0  0  0
    4.0835   -5.2007    0.0000 O   0  0  0  0  0  0  0  0  0
    2.6546   -5.2007    0.0000 C   0  0  0  0  0  0  0  0  0
    2.6546   -6.0257    0.0000 C   0  0  0  0  0  0  0  0  0
    1.9401   -6.4382    0.0000 C   0  0  0  0  0  0  0  0  0
    1.2256   -6.0257    0.0000 C   0  0  0  0  0  0  0  0  0
    1.2256   -5.2007    0.0000 N   0  0  0  0  0  0  0  0  0
    1.9401   -4.7882    0.0000 C   0  0  0  0  0  0  0  0  0
    4.8372   -3.8862    0.0000 C   0  0  0  0  0  0  0  0  0
    5.3892   -3.2731    0.0000 C   0  0  0  0  0  0  0  0  0
    7.5459    3.1886    0.0000 C   0  0  0  0  0  0  0  0  0
    7.5459    4.0136    0.0000 C   0  0  0  0  0  0  0  0  0
    8.2604    4.4261    0.0000 C   0  0  0  0  0  0  0  0  0
    8.9748    4.0136    0.0000 C   0  0  0  0  0  0  0  0  0
    8.9748    3.1886    0.0000 C   0  0  0  0  0  0  0  0  0
    8.2604    2.7761    0.0000 C   0  0  0  0  0  0  0  0  0
  1  2  4  0  0  0  0
  1 31  4  0  0  0  0
  2  3  4  0  0  0  0
  3  4  1  0  0  0  0
  3 30  4  0  0  0  0
  4  5  1  0  0  0  0
  4  9  1  0  0  0  0
  5  6  1  0  0  0  0
  6  7  1  0  0  0  0
  7  8  1  0  0  0  0
  7 10  1  0  0  0  0
  8  9  1  0  0  0  0
 10 11  1  0  0  0  0
 11 12  1  0  0  0  0
 12 13  4  0  0  0  0
 12 17  4  0  0  0  0
 13 14  4  0  0  0  0
 14 15  4  0  0  0  0
 14 29  1  0  0  0  0
 15 16  4  0  0  0  0
 15 18  1  0  0  0  0
 16 17  4  0  0  0  0
 18 19  1  0  0  0  0
 18 28  1  0  0  0  0
 19 20  1  0  0  0  0
 20 21  2  0  0  0  0
 20 22  1  0  0  0  0
 22 23  4  0  0  0  0
 22 27  4  0  0  0  0
 23 24  4  0  0  0  0
 24 25  4  0  0  0  0
 25 26  4  0  0  0  0
 26 27  4  0  0  0  0
 28 29  1  0  0  0  0
 30 31  4  0  0  0  0
 30 35  4  0  0  0  0
 31 32  4  0  0  0  0
 32 33  4  0  0  0  0
 33 34  4  0  0  0  0
 34 35  4  0  0  0  0
M  END
>  <Name_Molregno>
423279

>  <5-HT1A>
8.11

>  <5-HT2A>
9.17

>  <DOPAMINE D2>
8.3

$$$$
425206
  Marvin  02231216192D 0   1.00000     0.00000     0

 26 28  0  0  1  0  0  0  0  0999 V2000
    1.1152    2.9536    0.0000 Br  0  0  0  0  0  0  0  0  0
    1.6672    2.3405    0.0000 C   0  0  0  0  0  0  0  0  0
    2.4742    2.5120    0.0000 C   0  0  0  0  0  0  0  0  0
    3.0262    1.8989    0.0000 C   0  0  0  0  0  0  0  0  0
    3.8512    1.8989    0.0000 N   0  0  0  0  0  0  0  0  0
    4.1061    1.1143    0.0000 C   0  0  0  0  0  0  0  0  0
    3.4387    0.6294    0.0000 C   0  0  0  0  0  0  0  0  0
    2.7713    1.1143    0.0000 C   0  0  0  0  0  0  0  0  0
    1.9643    0.9428    0.0000 C   0  0  0  0  0  0  0  0  0
    1.4123    1.5559    0.0000 C   0  0  0  0  0  0  0  0  0
    3.4387   -0.1956    0.0000 C   0  0  0  0  0  0  0  0  0
    4.1532   -0.6081    0.0000 C   0  0  0  0  0  0  0  0  0
    4.8676   -0.1956    0.0000 N   0  0  0  0  0  0  0  0  0
    5.5821   -0.6081    0.0000 C   0  0  0  0  0  0  0  0  0
    6.2966   -0.1956    0.0000 O   0  0  0  0  0  0  0  0  0
    5.5821   -1.4331    0.0000 C   0  0  0  0  0  0  0  0  0
    4.8676   -1.8456    0.0000 N   0  0  0  0  0  0  0  0  0
    4.1532   -1.4331    0.0000 C   0  0  0  0  0  0  0  0  0
    3.4387   -1.8456    0.0000 O   0  0  0  0  0  0  0  0  0
    6.2966   -1.8456    0.0000 C   0  0  0  0  0  0  0  0  0
    7.0111   -1.4331    0.0000 C   0  0  0  0  0  0  0  0  0
    7.7255   -1.8456    0.0000 C   0  0  0  0  0  0  0  0  0
    8.4400   -1.4331    0.0000 N   0  0  0  0  0  0  0  0  0
    9.1545   -1.8456    0.0000 C   0  0  0  0  0  0  0  0  0
    9.8689   -1.4331    0.0000 N   0  0  0  0  0  0  0  0  0
    9.1545   -2.6706    0.0000 N   0  0  0  0  0  0  0  0  0
  1  2  1  0  0  0  0
  2  3  4  0  0  0  0
  2 10  4  0  0  0  0
  3  4  4  0  0  0  0
  4  5  4  0  0  0  0
  4  8  4  0  0  0  0
  5  6  4  0  0  0  0
  6  7  4  0  0  0  0
  7  8  4  0  0  0  0
  7 11  1  0  0  0  0
  8  9  4  0  0  0  0
  9 10  4  0  0  0  0
 11 12  2  0  0  0  0
 12 13  1  0  0  0  0
 12 18  1  0  0  0  0
 13 14  1  0  0  0  0
 14 15  2  0  0  0  0
 14 16  1  0  0  0  0
 16 17  1  0  0  0  0
 16 20  1  0  0  0  0
 17 18  1  0  0  0  0
 18 19  2  0  0  0  0
 20 21  1  0  0  0  0
 21 22  1  0  0  0  0
 22 23  1  0  0  0  0
 23 24  1  0  0  0  0
 24 25  1  0  0  0  0
 24 26  2  0  0  0  0
M  STY  1   1 DAT
M  SAL   1  1   5
M  SDT   1 MRV_IMPLICIT_H                                        
M  SDD   1     0.0000    0.0000    DR    ALL  0       0  
M  SED   1 IMPL_H1
M  END
>  <Name_Molregno>
425206

>  <5-HT1A>
5

>  <5-HT1D>
5

>  <5-HT2A>
5.71

>  <5-HT2C>
6.47

>  <5-HT3>
5

>  <5-HT5>
5

>  <5-HT6>
5

>  <5-HT7>
5

$$$$
431635
  Marvin  02231216192D 0   1.00000     0.00000     0

 18 20  0  0  1  0  0  0  0  0999 V2000
   -0.1508    0.9322    0.0000 O   0  0  0  0  0  0  0  0  0
   -0.9578    1.1037    0.0000 C   0  0  0  0  0  0  0  0  0
   -1.3703    0.3892    0.0000 C   0  0  0  0  0  0  0  0  0
   -0.8183   -0.2239    0.0000 C   0  0  0  0  0  0  0  0  0
   -0.0646    0.1117    0.0000 C   0  0  0  0  0  0  0  0  0
    0.6499   -0.3008    0.0000 C   0  0  0  0  0  0  0  0  0
    1.3643    0.1117    0.0000 C   0  0  0  0  0  0  0  0  0
   -2.1953    0.3892    0.0000 C   0  0  0  0  0  0  0  0  0
   -2.7474   -0.2239    0.0000 N   0  0  0  0  0  0  0  0  0
   -3.5010    0.1117    0.0000 N   0  0  0  0  0  0  0  0  0
   -3.4148    0.9322    0.0000 C   0  0  0  0  0  0  0  0  0
   -2.6078    1.1037    0.0000 C   0  0  0  0  0  0  0  0  0
   -2.1953    1.8182    0.0000 C   0  0  0  0  0  0  0  0  0
   -1.3703    1.8182    0.0000 C   0  0  0  0  0  0  0  0  0
   -2.5758   -1.0308    0.0000 C   0  0  0  0  0  0  0  0  0
   -3.1889   -1.5829    0.0000 C   0  0  0  0  0  0  0  0  0
   -3.0174   -2.3898    0.0000 N   0  0  0  0  0  0  0  0  0
   -3.9735   -1.3279    0.0000 C   0  0  0  0  0  0  0  0  0
  1  2  4  0  0  0  0
  1  5  4  0  0  0  0
  2  3  4  0  0  0  0
  2 14  4  0  0  0  0
  3  4  4  0  0  0  0
  3  8  4  0  0  0  0
  4  5  4  0  0  0  0
  5  6  1  0  0  0  0
  6  7  1  0  0  0  0
  8  9  4  0  0  0  0
  8 12  4  0  0  0  0
  9 10  4  0  0  0  0
  9 15  1  0  0  0  0
 10 11  4  0  0  0  0
 11 12  4  0  0  0  0
 12 13  4  0  0  0  0
 13 14  4  0  0  0  0
 15 16  1  0  0  0  0
 16 17  1  0  0  0  0
 16 18  1  0  0  0  0
M  END
>  <Name_Molregno>
431635

>  <5-HT1A>
6.89

>  <5-HT2A>
7.89

>  <5-HT2C>
9.05

>  <5-HT7>
6.75

>  <Alpha-2A>
6.9

$$$$
437622
  Marvin  02231216192D 0   1.00000     0.00000     0

 29 31  0  0  1  0  0  0  0  0999 V2000
    4.6273    6.8992    0.0000 F   0  0  0  0  0  0  0  0  0
    4.6273    6.0742    0.0000 C   0  0  0  0  0  0  0  0  0
    5.3417    5.6617    0.0000 C   0  0  0  0  0  0  0  0  0
    5.3417    4.8367    0.0000 C   0  0  0  0  0  0  0  0  0
    4.6273    4.4242    0.0000 C   0  0  0  0  0  0  0  0  0
    3.9128    4.8367    0.0000 C   0  0  0  0  0  0  0  0  0
    3.9128    5.6617    0.0000 C   0  0  0  0  0  0  0  0  0
    4.6273    3.5992    0.0000 C   0  0  0  0  0  0  0  0  0
    5.3417    3.1867    0.0000 C   0  0  0  0  0  0  0  0  0
    5.3417    2.3617    0.0000 N   0  0  0  0  0  0  0  0  0
    6.0562    1.9492    0.0000 C   0  0  0  0  0  0  0  0  0
    6.0562    1.1242    0.0000 C   0  0  0  0  0  0  0  0  0
    5.3417    0.7117    0.0000 C   0  0  0  0  0  0  0  0  0
    4.6273    1.1242    0.0000 C   0  0  0  0  0  0  0  0  0
    4.6273    1.9492    0.0000 C   0  0  0  0  0  0  0  0  0
    5.3417   -0.1133    0.0000 C   0  0  0  0  0  0  0  0  0
    4.6273   -0.5258    0.0000 O   0  0  0  0  0  0  0  0  0
    6.0562   -0.5258    0.0000 C   0  0  0  0  0  0  0  0  0
    6.7707   -0.1133    0.0000 C   0  0  0  0  0  0  0  0  0
    7.4851   -0.5258    0.0000 C   0  0  0  0  0  0  0  0  0
    7.4851   -1.3508    0.0000 C   0  0  0  0  0  0  0  0  0
    6.7707   -1.7633    0.0000 C   0  0  0  0  0  0  0  0  0
    6.7707   -2.5883    0.0000 O   0  0  0  0  0  0  0  0  0
    7.4851   -3.0008    0.0000 C   0  0  0  0  0  0  0  0  0
    7.4851   -3.8258    0.0000 C   0  0  0  0  0  0  0  0  0
    8.1996   -4.2383    0.0000 F   0  0  0  0  0  0  0  0  0
    6.0562   -1.3508    0.0000 C   0  0  0  0  0  0  0  0  0
    5.3417   -1.7633    0.0000 O   0  0  0  0  0  0  0  0  0
    5.3417   -2.5883    0.0000 C   0  0  0  0  0  0  0  0  0
  1  2  1  0  0  0  0
  2  3  4  0  0  0  0
  2  7  4  0  0  0  0
  3  4  4  0  0  0  0
  4  5  4  0  0  0  0
  5  6  4  0  0  0  0
  5  8  1  0  0  0  0
  6  7  4  0  0  0  0
  8  9  1  0  0  0  0
  9 10  1  0  0  0  0
 10 11  1  0  0  0  0
 10 15  1  0  0  0  0
 11 12  1  0  0  0  0
 12 13  1  0  0  0  0
 13 14  1  0  0  0  0
 13 16  1  0  0  0  0
 14 15  1  0  0  0  0
 16 17  1  0  0  0  0
 16 18  1  0  0  0  0
 18 19  4  0  0  0  0
 18 27  4  0  0  0  0
 19 20  4  0  0  0  0
 20 21  4  0  0  0  0
 21 22  4  0  0  0  0
 22 23  1  0  0  0  0
 22 27  4  0  0  0  0
 23 24  1  0  0  0  0
 24 25  1  0  0  0  0
 25 26  1  0  0  0  0
 27 28  1  0  0  0  0
 28 29  1  0  0  0  0
M  END
>  <Name_Molregno>
437622

>  <5-HT1A>
5

>  <5-HT1B>
5.89

>  <5-HT1D>
6.06

>  <5-HT1E>
5

>  <5-HT2C>
7.22

>  <5-HT3>
5

>  <5-HT5>
5.09

>  <5-HT6>
5.41

>  <5-HT7>
7.09

>  <Alpha-1A>
6.47

>  <Alpha-1B>
6.4

>  <Alpha-2A>
5

>  <Alpha-2C>
6.83

>  <DOPAMINE D1>
5.74

>  <DOPAMINE D2>
5.29

>  <DOPAMINE D4>
6.31

>  <DOPAMINE D5>
5.13

>  <Dopamine transporter>
5

>  <HISTAMINE H1>
6.36

>  <HISTAMINE H2>
5.56

>  <HISTAMINE H3>
5

>  <Serotonin transporter>
5.55

$$$$
438449
  Marvin  02231216192D 0   1.00000     0.00000     0

 17 18  0  0  1  0  0  0  0  0999 V2000
   -3.7560   -2.6119    0.0000 Cl  0  0  0  0  0  0  0  0  0
   -3.7560   -1.7869    0.0000 C   0  0  0  0  0  0  0  0  0
   -3.0416   -1.3744    0.0000 C   0  0  0  0  0  0  0  0  0
   -3.0416   -0.5494    0.0000 C   0  0  0  0  0  0  0  0  0
   -2.3271   -0.1369    0.0000 N   0  0  0  0  0  0  0  0  0
   -1.6126   -0.5494    0.0000 C   0  0  0  0  0  0  0  0  0
   -1.6126   -1.3744    0.0000 N   0  0  0  0  0  0  0  0  0
   -2.3271   -1.7869    0.0000 C   0  0  0  0  0  0  0  0  0
   -2.3271   -2.6119    0.0000 C   0  0  0  0  0  0  0  0  0
   -0.8981   -0.1369    0.0000 N   0  0  0  0  0  0  0  0  0
   -0.8981    0.6881    0.0000 C   0  0  0  0  0  0  0  0  0
   -0.1837    1.1006    0.0000 C   0  0  0  0  0  0  0  0  0
   -0.1837    1.9256    0.0000 F   0  0  0  0  0  0  0  0  0
    0.5308    0.6881    0.0000 F   0  0  0  0  0  0  0  0  0
   -3.7560   -0.1369    0.0000 C   0  0  0  0  0  0  0  0  0
   -4.4705   -0.5494    0.0000 C   0  0  0  0  0  0  0  0  0
   -4.4705   -1.3744    0.0000 C   0  0  0  0  0  0  0  0  0
  1  2  1  0  0  0  0
  2  3  4  0  0  0  0
  2 17  4  0  0  0  0
  3  4  4  0  0  0  0
  3  8  1  0  0  0  0
  4  5  1  0  0  0  0
  4 15  4  0  0  0  0
  5  6  2  0  0  0  0
  6  7  1  0  0  0  0
  6 10  1  0  0  0  0
  7  8  1  0  0  0  0
  8  9  1  0  0  0  0
 10 11  1  0  0  0  0
 11 12  1  0  0  0  0
 12 13  1  0  0  0  0
 12 14  1  0  0  0  0
 15 16  4  0  0  0  0
 16 17  4  0  0  0  0
M  END
>  <Name_Molregno>
438449

>  <5-HT1A>
7.25

>  <5-HT1D>
5.84

>  <5-HT2A>
6.31

>  <5-HT2C>
6.45

>  <5-HT5>
7.55

>  <5-HT6>
5.35

>  <5-HT7>
7.55

$$$$
438465
  Marvin  02231216192D 0   1.00000     0.00000     0

 15 16  0  0  1  0  0  0  0  0999 V2000
   -2.1169   -1.9984    0.0000 Cl  0  0  0  0  0  0  0  0  0
   -2.1169   -1.1734    0.0000 C   0  0  0  0  0  0  0  0  0
   -1.4024   -0.7609    0.0000 C   0  0  0  0  0  0  0  0  0
   -1.4024    0.0641    0.0000 C   0  0  0  0  0  0  0  0  0
   -0.6879    0.4766    0.0000 N   0  0  0  0  0  0  0  0  0
    0.0265    0.0641    0.0000 C   0  0  0  0  0  0  0  0  0
    0.0265   -0.7609    0.0000 N   0  0  0  0  0  0  0  0  0
   -0.6879   -1.1734    0.0000 C   0  0  0  0  0  0  0  0  0
   -0.6879   -1.9984    0.0000 C   0  0  0  0  0  0  0  0  0
    0.0265   -2.4109    0.0000 C   0  0  0  0  0  0  0  0  0
    0.7410    0.4766    0.0000 N   0  0  0  0  0  0  0  0  0
   -2.1169    0.4766    0.0000 C   0  0  0  0  0  0  0  0  0
   -2.8313    0.0641    0.0000 C   0  0  0  0  0  0  0  0  0
   -2.8313   -0.7609    0.0000 C   0  0  0  0  0  0  0  0  0
   -3.5458   -1.1734    0.0000 Cl  0  0  0  0  0  0  0  0  0
  1  2  1  0  0  0  0
  2  3  4  0  0  0  0
  2 14  4  0  0  0  0
  3  4  4  0  0  0  0
  3  8  1  0  0  0  0
  4  5  1  0  0  0  0
  4 12  4  0  0  0  0
  5  6  2  0  0  0  0
  6  7  1  0  0  0  0
  6 11  1  0  0  0  0
  7  8  1  0  0  0  0
  8  9  1  0  0  0  0
  9 10  1  0  0  0  0
 12 13  4  0  0  0  0
 13 14  4  0  0  0  0
 14 15  1  0  0  0  0
M  END
>  <Name_Molregno>
438465

>  <5-HT1A>
6.12

>  <5-HT1D>
5.89

>  <5-HT2C>
6.81

>  <5-HT5>
7.58

>  <5-HT7>
7.14

$$$$
438466
  Marvin  02231216192D 0   1.00000     0.00000     0

 14 15  0  0  1  0  0  0  0  0999 V2000
   -2.0029   -2.2639    0.0000 Cl  0  0  0  0  0  0  0  0  0
   -2.0029   -1.4389    0.0000 C   0  0  0  0  0  0  0  0  0
   -1.2884   -1.0264    0.0000 C   0  0  0  0  0  0  0  0  0
   -1.2884   -0.2014    0.0000 C   0  0  0  0  0  0  0  0  0
   -0.5740    0.2111    0.0000 N   0  0  0  0  0  0  0  0  0
    0.1405   -0.2014    0.0000 C   0  0  0  0  0  0  0  0  0
    0.1405   -1.0264    0.0000 N   0  0  0  0  0  0  0  0  0
   -0.5740   -1.4389    0.0000 C   0  0  0  0  0  0  0  0  0
   -0.5740   -2.2639    0.0000 C   0  0  0  0  0  0  0  0  0
    0.8550    0.2111    0.0000 N   0  0  0  0  0  0  0  0  0
   -2.0029    0.2111    0.0000 C   0  0  0  0  0  0  0  0  0
   -2.7174   -0.2014    0.0000 C   0  0  0  0  0  0  0  0  0
   -2.7174   -1.0264    0.0000 C   0  0  0  0  0  0  0  0  0
   -3.4318   -1.4389    0.0000 Cl  0  0  0  0  0  0  0  0  0
  1  2  1  0  0  0  0
  2  3  4  0  0  0  0
  2 13  4  0  0  0  0
  3  4  4  0  0  0  0
  3  8  1  0  0  0  0
  4  5  1  0  0  0  0
  4 11  4  0  0  0  0
  5  6  2  0  0  0  0
  6  7  1  0  0  0  0
  6 10  1  0  0  0  0
  7  8  1  0  0  0  0
  8  9  1  0  0  0  0
 11 12  4  0  0  0  0
 12 13  4  0  0  0  0
 13 14  1  0  0  0  0
M  END
>  <Name_Molregno>
438466

>  <5-HT1A>
6.74

>  <5-HT1D>
6.59

>  <5-HT2C>
7.59

>  <5-HT5>
8.7

>  <5-HT7>
8.06

$$$$
438470
  Marvin  02231216192D 0   1.00000     0.00000     0

 14 15  0  0  1  0  0  0  0  0999 V2000
   -2.6603   -2.3284    0.0000 Cl  0  0  0  0  0  0  0  0  0
   -2.6603   -1.5034    0.0000 C   0  0  0  0  0  0  0  0  0
   -1.9458   -1.0909    0.0000 C   0  0  0  0  0  0  0  0  0
   -1.9458   -0.2659    0.0000 C   0  0  0  0  0  0  0  0  0
   -1.2313    0.1466    0.0000 N   0  0  0  0  0  0  0  0  0
   -0.5169   -0.2659    0.0000 C   0  0  0  0  0  0  0  0  0
   -0.5169   -1.0909    0.0000 N   0  0  0  0  0  0  0  0  0
   -1.2313   -1.5034    0.0000 C   0  0  0  0  0  0  0  0  0
   -1.2313   -2.3284    0.0000 C   0  0  0  0  0  0  0  0  0
    0.1976    0.1466    0.0000 N   0  0  0  0  0  0  0  0  0
    0.1976    0.9716    0.0000 C   0  0  0  0  0  0  0  0  0
   -2.6603    0.1466    0.0000 C   0  0  0  0  0  0  0  0  0
   -3.3747   -0.2659    0.0000 C   0  0  0  0  0  0  0  0  0
   -3.3747   -1.0909    0.0000 C   0  0  0  0  0  0  0  0  0
  1  2  1  0  0  0  0
  2  3  4  0  0  0  0
  2 14  4  0  0  0  0
  3  4  4  0  0  0  0
  3  8  1  0  0  0  0
  4  5  1  0  0  0  0
  4 12  4  0  0  0  0
  5  6  2  0  0  0  0
  6  7  1  0  0  0  0
  6 10  1  0  0  0  0
  7  8  1  0  0  0  0
  8  9  1  0  0  0  0
 10 11  1  0  0  0  0
 12 13  4  0  0  0  0
 13 14  4  0  0  0  0
M  END
>  <Name_Molregno>
438470

>  <5-HT1A>
6.41

>  <5-HT1D>
5.84

>  <5-HT2C>
6.63

>  <5-HT5>
7.97

>  <5-HT7>
7.82

$$$$
438497
  Marvin  02231216192D 0   1.00000     0.00000     0

 13 14  0  0  1  0  0  0  0  0999 V2000
   -2.3294   -2.2673    0.0000 Cl  0  0  0  0  0  0  0  0  0
   -2.3294   -1.4423    0.0000 C   0  0  0  0  0  0  0  0  0
   -1.6149   -1.0298    0.0000 C   0  0  0  0  0  0  0  0  0
   -1.6149   -0.2048    0.0000 C   0  0  0  0  0  0  0  0  0
   -0.9005    0.2077    0.0000 N   0  0  0  0  0  0  0  0  0
   -0.1860   -0.2048    0.0000 C   0  0  0  0  0  0  0  0  0
   -0.1860   -1.0298    0.0000 N   0  0  0  0  0  0  0  0  0
   -0.9005   -1.4423    0.0000 C   0  0  0  0  0  0  0  0  0
   -0.9005   -2.2673    0.0000 C   0  0  0  0  0  0  0  0  0
    0.5285    0.2077    0.0000 N   0  0  0  0  0  0  0  0  0
   -2.3294    0.2077    0.0000 C   0  0  0  0  0  0  0  0  0
   -3.0439   -0.2048    0.0000 C   0  0  0  0  0  0  0  0  0
   -3.0439   -1.0298    0.0000 C   0  0  0  0  0  0  0  0  0
  1  2  1  0  0  0  0
  2  3  4  0  0  0  0
  2 13  4  0  0  0  0
  3  4  4  0  0  0  0
  3  8  1  0  0  0  0
  4  5  1  0  0  0  0
  4 11  4  0  0  0  0
  5  6  2  0  0  0  0
  6  7  1  0  0  0  0
  6 10  1  0  0  0  0
  7  8  1  0  0  0  0
  8  9  1  0  0  0  0
 11 12  4  0  0  0  0
 12 13  4  0  0  0  0
M  END
>  <Name_Molregno>
438497

>  <5-HT1A>
6.87

>  <5-HT1D>
5.93

>  <5-HT2A>
6.59

>  <5-HT2C>
7.04

>  <5-HT3>
5.97

>  <5-HT5>
8.01

>  <5-HT6>
5.99

>  <5-HT7>
7.94

$$$$
438512
  Marvin  02231216192D 0   1.00000     0.00000     0

 14 15  0  0  1  0  0  0  0  0999 V2000
   -1.9078   -2.6220    0.0000 Cl  0  0  0  0  0  0  0  0  0
   -1.9078   -1.7970    0.0000 C   0  0  0  0  0  0  0  0  0
   -1.1934   -1.3845    0.0000 C   0  0  0  0  0  0  0  0  0
   -1.1934   -0.5595    0.0000 C   0  0  0  0  0  0  0  0  0
   -0.4789   -0.1470    0.0000 N   0  0  0  0  0  0  0  0  0
    0.2356   -0.5595    0.0000 C   0  0  0  0  0  0  0  0  0
    0.2356   -1.3845    0.0000 N   0  0  0  0  0  0  0  0  0
   -0.4789   -1.7970    0.0000 C   0  0  0  0  0  0  0  0  0
   -0.4789   -2.6220    0.0000 C   0  0  0  0  0  0  0  0  0
    0.2356   -3.0345    0.0000 C   0  0  0  0  0  0  0  0  0
    0.9501   -0.1470    0.0000 N   0  0  0  0  0  0  0  0  0
   -1.9078   -0.1470    0.0000 C   0  0  0  0  0  0  0  0  0
   -2.6223   -0.5595    0.0000 C   0  0  0  0  0  0  0  0  0
   -2.6223   -1.3845    0.0000 C   0  0  0  0  0  0  0  0  0
  1  2  1  0  0  0  0
  2  3  4  0  0  0  0
  2 14  4  0  0  0  0
  3  4  4  0  0  0  0
  3  8  1  0  0  0  0
  4  5  1  0  0  0  0
  4 12  4  0  0  0  0
  5  6  2  0  0  0  0
  6  7  1  0  0  0  0
  6 11  1  0  0  0  0
  7  8  1  0  0  0  0
  8  9  1  0  0  0  0
  9 10  1  0  0  0  0
 12 13  4  0  0  0  0
 13 14  4  0  0  0  0
M  END
>  <Name_Molregno>
438512

>  <5-HT1A>
5.97

>  <5-HT1D>
5

>  <5-HT2C>
6.42

>  <5-HT5>
7.07

>  <5-HT7>
7.01

$$$$
438696
  Marvin  02231216192D 0   1.00000     0.00000     0

 12 13  0  0  0  0  0  0  0  0999 V2000
   -2.2994    0.6418    0.0000 Cl  0  0  0  0  0  0  0  0  0
   -2.2994   -0.1832    0.0000 C   0  0  0  0  0  0  0  0  0
   -1.5850   -0.5957    0.0000 C   0  0  0  0  0  0  0  0  0
   -0.8705   -0.1832    0.0000 C   0  0  0  0  0  0  0  0  0
   -0.1560   -0.5957    0.0000 N   0  0  0  0  0  0  0  0  0
   -0.1560   -1.4207    0.0000 C   0  0  0  0  0  0  0  0  0
   -0.8705   -1.8332    0.0000 N   0  0  0  0  0  0  0  0  0
   -1.5850   -1.4207    0.0000 C   0  0  0  0  0  0  0  0  0
   -2.2994   -1.8332    0.0000 C   0  0  0  0  0  0  0  0  0
   -3.0139   -1.4207    0.0000 C   0  0  0  0  0  0  0  0  0
   -3.0139   -0.5957    0.0000 C   0  0  0  0  0  0  0  0  0
    0.5584   -1.8332    0.0000 N   0  0  0  0  0  0  0  0  0
  1  2  1  0  0  0  0
  2  3  4  0  0  0  0
  2 11  4  0  0  0  0
  3  4  1  0  0  0  0
  3  8  4  0  0  0  0
  4  5  1  0  0  0  0
  5  6  1  0  0  0  0
  6  7  2  0  0  0  0
  6 12  1  0  0  0  0
  7  8  1  0  0  0  0
  8  9  4  0  0  0  0
  9 10  4  0  0  0  0
 10 11  4  0  0  0  0
M  END
>  <Name_Molregno>
438696

>  <5-HT1A>
5.77

>  <5-HT1D>
5.44

>  <5-HT2A>
5.93

>  <5-HT2C>
6.18

>  <5-HT3>
5.98

>  <5-HT5>
7

>  <5-HT6>
5

>  <5-HT7>
6.1

$$$$
438697
  Marvin  02231216192D 0   1.00000     0.00000     0

 13 14  0  0  0  0  0  0  0  0999 V2000
   -1.9496    0.5488    0.0000 Cl  0  0  0  0  0  0  0  0  0
   -1.9496   -0.2762    0.0000 C   0  0  0  0  0  0  0  0  0
   -1.2351   -0.6887    0.0000 C   0  0  0  0  0  0  0  0  0
   -0.5207   -0.2762    0.0000 C   0  0  0  0  0  0  0  0  0
    0.1938   -0.6887    0.0000 N   0  0  0  0  0  0  0  0  0
    0.1938   -1.5137    0.0000 C   0  0  0  0  0  0  0  0  0
   -0.5207   -1.9262    0.0000 N   0  0  0  0  0  0  0  0  0
   -1.2351   -1.5137    0.0000 C   0  0  0  0  0  0  0  0  0
   -1.9496   -1.9262    0.0000 C   0  0  0  0  0  0  0  0  0
   -2.6641   -1.5137    0.0000 C   0  0  0  0  0  0  0  0  0
   -2.6641   -0.6887    0.0000 C   0  0  0  0  0  0  0  0  0
   -3.3785   -0.2762    0.0000 Cl  0  0  0  0  0  0  0  0  0
    0.9083   -1.9262    0.0000 N   0  0  0  0  0  0  0  0  0
  1  2  1  0  0  0  0
  2  3  4  0  0  0  0
  2 11  4  0  0  0  0
  3  4  1  0  0  0  0
  3  8  4  0  0  0  0
  4  5  1  0  0  0  0
  5  6  1  0  0  0  0
  6  7  2  0  0  0  0
  6 13  1  0  0  0  0
  7  8  1  0  0  0  0
  8  9  4  0  0  0  0
  9 10  4  0  0  0  0
 10 11  4  0  0  0  0
 11 12  1  0  0  0  0
M  END
>  <Name_Molregno>
438697

>  <5-HT1A>
5.97

>  <5-HT1D>
5.9

>  <5-HT2A>
6.36

>  <5-HT2C>
6.68

>  <5-HT3>
6.76

>  <5-HT5>
7.37

>  <5-HT6>
5.94

>  <5-HT7>
6.53

$$$$
438989
  Marvin  02231216192D 0   1.00000     0.00000     0

 14 15  0  0  1  0  0  0  0  0999 V2000
   -2.2824   -2.5320    0.0000 Cl  0  0  0  0  0  0  0  0  0
   -2.2824   -1.7070    0.0000 C   0  0  0  0  0  0  0  0  0
   -1.5680   -1.2945    0.0000 C   0  0  0  0  0  0  0  0  0
   -1.5680   -0.4695    0.0000 C   0  0  0  0  0  0  0  0  0
   -0.8535   -0.0570    0.0000 N   0  0  0  0  0  0  0  0  0
   -0.1390   -0.4695    0.0000 C   0  0  0  0  0  0  0  0  0
   -0.1390   -1.2945    0.0000 N   0  0  0  0  0  0  0  0  0
   -0.8535   -1.7070    0.0000 C   0  0  0  0  0  0  0  0  0
   -0.8535   -2.5320    0.0000 C   0  0  0  0  0  0  0  0  0
    0.5754   -0.0570    0.0000 N   0  0  0  0  0  0  0  0  0
   -2.2824   -0.0570    0.0000 C   0  0  0  0  0  0  0  0  0
   -2.2824    0.7680    0.0000 Cl  0  0  0  0  0  0  0  0  0
   -2.9969   -0.4695    0.0000 C   0  0  0  0  0  0  0  0  0
   -2.9969   -1.2945    0.0000 C   0  0  0  0  0  0  0  0  0
  1  2  1  0  0  0  0
  2  3  4  0  0  0  0
  2 14  4  0  0  0  0
  3  4  4  0  0  0  0
  3  8  1  0  0  0  0
  4  5  1  0  0  0  0
  4 11  4  0  0  0  0
  5  6  2  0  0  0  0
  6  7  1  0  0  0  0
  6 10  1  0  0  0  0
  7  8  1  0  0  0  0
  8  9  1  0  0  0  0
 11 12  1  0  0  0  0
 11 13  4  0  0  0  0
 13 14  4  0  0  0  0
M  END
>  <Name_Molregno>
438989

>  <5-HT1A>
7.04

>  <5-HT1D>
6.02

>  <5-HT2C>
7.13

>  <5-HT5>
8.19

>  <5-HT7>
8.62

$$$$
439034
  Marvin  02231216192D 0   1.00000     0.00000     0

 16 17  0  0  1  0  0  0  0  0999 V2000
   -0.1392   -1.6739    0.0000 Cl  0  0  0  0  0  0  0  0  0
    0.5753   -1.2614    0.0000 C   0  0  0  0  0  0  0  0  0
    0.5753   -0.4364    0.0000 C   0  0  0  0  0  0  0  0  0
    1.2897   -0.0239    0.0000 C   0  0  0  0  0  0  0  0  0
    1.2897    0.8011    0.0000 O   0  0  0  0  0  0  0  0  0
    2.0042    1.2136    0.0000 C   0  0  0  0  0  0  0  0  0
    2.0042   -0.4364    0.0000 C   0  0  0  0  0  0  0  0  0
    2.7187   -0.0239    0.0000 N   0  0  0  0  0  0  0  0  0
    3.4331   -0.4364    0.0000 C   0  0  0  0  0  0  0  0  0
    3.4331   -1.2614    0.0000 N   0  0  0  0  0  0  0  0  0
    2.7187   -1.6739    0.0000 C   0  0  0  0  0  0  0  0  0
    2.0042   -1.2614    0.0000 C   0  0  0  0  0  0  0  0  0
    1.2897   -1.6739    0.0000 C   0  0  0  0  0  0  0  0  0
    1.2897   -2.4989    0.0000 C   0  0  0  0  0  0  0  0  0
    2.7187   -2.4989    0.0000 C   0  0  0  0  0  0  0  0  0
    4.1476   -0.0239    0.0000 N   0  0  0  0  0  0  0  0  0
  1  2  1  0  0  0  0
  2  3  4  0  0  0  0
  2 13  4  0  0  0  0
  3  4  4  0  0  0  0
  4  5  1  0  0  0  0
  4  7  4  0  0  0  0
  5  6  1  0  0  0  0
  7  8  1  0  0  0  0
  7 12  4  0  0  0  0
  8  9  2  0  0  0  0
  9 10  1  0  0  0  0
  9 16  1  0  0  0  0
 10 11  1  0  0  0  0
 11 12  1  0  0  0  0
 11 15  1  0  0  0  0
 12 13  4  0  0  0  0
 13 14  1  0  0  0  0
M  END
>  <Name_Molregno>
439034

>  <5-HT1A>
6.98

>  <5-HT1D>
6.84

>  <5-HT2C>
7.72

>  <5-HT5>
8.33

>  <5-HT7>
8.6

$$$$
439035
  Marvin  02231216192D 0   1.00000     0.00000     0

 15 16  0  0  1  0  0  0  0  0999 V2000
   -0.1864    0.1304    0.0000 Cl  0  0  0  0  0  0  0  0  0
    0.5280    0.5429    0.0000 C   0  0  0  0  0  0  0  0  0
    0.5280    1.3679    0.0000 C   0  0  0  0  0  0  0  0  0
    1.2425    1.7804    0.0000 C   0  0  0  0  0  0  0  0  0
    1.9570    1.3679    0.0000 C   0  0  0  0  0  0  0  0  0
    2.6714    1.7804    0.0000 N   0  0  0  0  0  0  0  0  0
    3.3859    1.3679    0.0000 C   0  0  0  0  0  0  0  0  0
    3.3859    0.5429    0.0000 N   0  0  0  0  0  0  0  0  0
    2.6714    0.1304    0.0000 C   0  0  0  0  0  0  0  0  0
    1.9570    0.5429    0.0000 C   0  0  0  0  0  0  0  0  0
    1.2425    0.1304    0.0000 C   0  0  0  0  0  0  0  0  0
    1.2425   -0.6946    0.0000 O   0  0  0  0  0  0  0  0  0
    1.9570   -1.1071    0.0000 C   0  0  0  0  0  0  0  0  0
    2.6714   -0.6946    0.0000 C   0  0  0  0  0  0  0  0  0
    4.1004    1.7804    0.0000 N   0  0  0  0  0  0  0  0  0
  1  2  1  0  0  0  0
  2  3  4  0  0  0  0
  2 11  4  0  0  0  0
  3  4  4  0  0  0  0
  4  5  4  0  0  0  0
  5  6  1  0  0  0  0
  5 10  4  0  0  0  0
  6  7  2  0  0  0  0
  7  8  1  0  0  0  0
  7 15  1  0  0  0  0
  8  9  1  0  0  0  0
  9 10  1  0  0  0  0
  9 14  1  0  0  0  0
 10 11  4  0  0  0  0
 11 12  1  0  0  0  0
 12 13  1  0  0  0  0
M  END
>  <Name_Molregno>
439035

>  <5-HT1A>
6.47

>  <5-HT1D>
5.94

>  <5-HT2C>
7.13

>  <5-HT5>
7.64

>  <5-HT7>
7.91

$$$$
439036
  Marvin  02231216192D 0   1.00000     0.00000     0

 17 18  0  0  1  0  0  0  0  0999 V2000
   -1.8506    0.4549    0.0000 O   0  0  0  0  0  0  0  0  0
   -2.5651    0.8674    0.0000 C   0  0  0  0  0  0  0  0  0
   -2.5651    1.6924    0.0000 C   0  0  0  0  0  0  0  0  0
   -3.2796    0.4549    0.0000 C   0  0  0  0  0  0  0  0  0
   -1.8506   -0.3701    0.0000 C   0  0  0  0  0  0  0  0  0
   -1.1362   -0.7826    0.0000 C   0  0  0  0  0  0  0  0  0
   -0.4217   -0.3701    0.0000 N   0  0  0  0  0  0  0  0  0
    0.2928   -0.7826    0.0000 C   0  0  0  0  0  0  0  0  0
    0.2928   -1.6076    0.0000 N   0  0  0  0  0  0  0  0  0
   -0.4217   -2.0201    0.0000 C   0  0  0  0  0  0  0  0  0
   -1.1362   -1.6076    0.0000 C   0  0  0  0  0  0  0  0  0
   -1.8506   -2.0201    0.0000 C   0  0  0  0  0  0  0  0  0
   -2.5651   -1.6076    0.0000 C   0  0  0  0  0  0  0  0  0
   -2.5651   -0.7826    0.0000 C   0  0  0  0  0  0  0  0  0
   -0.4217   -2.8451    0.0000 C   0  0  0  0  0  0  0  0  0
    1.0072   -0.3701    0.0000 N   0  0  0  0  0  0  0  0  0
    1.0072    0.4549    0.0000 C   0  0  0  0  0  0  0  0  0
  1  2  1  0  0  0  0
  1  5  1  0  0  0  0
  2  3  1  0  0  0  0
  2  4  1  0  0  0  0
  5  6  4  0  0  0  0
  5 14  4  0  0  0  0
  6  7  1  0  0  0  0
  6 11  4  0  0  0  0
  7  8  2  0  0  0  0
  8  9  1  0  0  0  0
  8 16  1  0  0  0  0
  9 10  1  0  0  0  0
 10 11  1  0  0  0  0
 10 15  1  0  0  0  0
 11 12  4  0  0  0  0
 12 13  4  0  0  0  0
 13 14  4  0  0  0  0
 16 17  1  0  0  0  0
M  END
>  <Name_Molregno>
439036

>  <5-HT1A>
6.17

>  <5-HT1D>
6.8

>  <5-HT2C>
6.01

>  <5-HT5>
7.6

>  <5-HT7>
8.62

$$$$
439038
  Marvin  02231216192D 0   1.00000     0.00000     0

 16 17  0  0  1  0  0  0  0  0999 V2000
   -1.5621    0.4420    0.0000 O   0  0  0  0  0  0  0  0  0
   -2.2766    0.8545    0.0000 C   0  0  0  0  0  0  0  0  0
   -2.2766    1.6795    0.0000 C   0  0  0  0  0  0  0  0  0
   -2.9910    0.4420    0.0000 C   0  0  0  0  0  0  0  0  0
   -1.5621   -0.3830    0.0000 C   0  0  0  0  0  0  0  0  0
   -0.8476   -0.7955    0.0000 C   0  0  0  0  0  0  0  0  0
   -0.1331   -0.3830    0.0000 N   0  0  0  0  0  0  0  0  0
    0.5813   -0.7955    0.0000 C   0  0  0  0  0  0  0  0  0
    0.5813   -1.6205    0.0000 N   0  0  0  0  0  0  0  0  0
   -0.1331   -2.0330    0.0000 C   0  0  0  0  0  0  0  0  0
   -0.8476   -1.6205    0.0000 C   0  0  0  0  0  0  0  0  0
   -1.5621   -2.0330    0.0000 C   0  0  0  0  0  0  0  0  0
   -2.2766   -1.6205    0.0000 C   0  0  0  0  0  0  0  0  0
   -2.2766   -0.7955    0.0000 C   0  0  0  0  0  0  0  0  0
   -0.1331   -2.8580    0.0000 C   0  0  0  0  0  0  0  0  0
    1.2958   -0.3830    0.0000 N   0  0  0  0  0  0  0  0  0
  1  2  1  0  0  0  0
  1  5  1  0  0  0  0
  2  3  1  0  0  0  0
  2  4  1  0  0  0  0
  5  6  4  0  0  0  0
  5 14  4  0  0  0  0
  6  7  1  0  0  0  0
  6 11  4  0  0  0  0
  7  8  2  0  0  0  0
  8  9  1  0  0  0  0
  8 16  1  0  0  0  0
  9 10  1  0  0  0  0
 10 11  1  0  0  0  0
 10 15  1  0  0  0  0
 11 12  4  0  0  0  0
 12 13  4  0  0  0  0
 13 14  4  0  0  0  0
M  END
>  <Name_Molregno>
439038

>  <5-HT1A>
6.58

>  <5-HT1D>
7.15

>  <5-HT2C>
6.31

>  <5-HT5>
8

>  <5-HT7>
9

$$$$
439126
  Marvin  02231216192D 0   1.00000     0.00000     0

 15 16  0  0  1  0  0  0  0  0999 V2000
   -2.3816   -2.2398    0.0000 Cl  0  0  0  0  0  0  0  0  0
   -2.3816   -1.4148    0.0000 C   0  0  0  0  0  0  0  0  0
   -1.6672   -1.0023    0.0000 C   0  0  0  0  0  0  0  0  0
   -1.6672   -0.1773    0.0000 C   0  0  0  0  0  0  0  0  0
   -0.9527    0.2353    0.0000 N   0  0  0  0  0  0  0  0  0
   -0.2382   -0.1773    0.0000 C   0  0  0  0  0  0  0  0  0
   -0.2382   -1.0023    0.0000 N   0  0  0  0  0  0  0  0  0
   -0.9527   -1.4147    0.0000 C   0  0  0  0  0  0  0  0  0
   -0.9527   -2.2397    0.0000 C   0  0  0  0  0  0  0  0  0
    0.4762    0.2352    0.0000 N   0  0  0  0  0  0  0  0  0
    1.1907   -0.1773    0.0000 C   0  0  0  0  0  0  0  0  0
   -2.3816    0.2353    0.0000 C   0  0  0  0  0  0  0  0  0
   -3.0961   -0.1772    0.0000 C   0  0  0  0  0  0  0  0  0
   -3.0961   -1.0022    0.0000 C   0  0  0  0  0  0  0  0  0
   -3.8106   -1.4147    0.0000 Cl  0  0  0  0  0  0  0  0  0
  1  2  1  0  0  0  0
  2  3  4  0  0  0  0
  2 14  4  0  0  0  0
  3  4  4  0  0  0  0
  3  8  1  0  0  0  0
  4  5  1  0  0  0  0
  4 12  4  0  0  0  0
  5  6  2  0  0  0  0
  6  7  1  0  0  0  0
  6 10  1  0  0  0  0
  7  8  1  0  0  0  0
  8  9  1  0  0  0  0
 10 11  1  0  0  0  0
 12 13  4  0  0  0  0
 13 14  4  0  0  0  0
 14 15  1  0  0  0  0
M  END
>  <Name_Molregno>
439126

>  <5-HT1A>
6.61

>  <5-HT1D>
6.34

>  <5-HT2C>
7.03

>  <5-HT5>
8.2

>  <5-HT7>
7.88

$$$$
439127
  Marvin  02231216192D 0   1.00000     0.00000     0

 14 15  0  0  1  0  0  0  0  0999 V2000
   -2.1123    0.5954    0.0000 O   0  0  0  0  0  0  0  0  0
   -2.8268    1.0079    0.0000 C   0  0  0  0  0  0  0  0  0
   -2.1123   -0.2296    0.0000 C   0  0  0  0  0  0  0  0  0
   -1.3978   -0.6421    0.0000 C   0  0  0  0  0  0  0  0  0
   -0.6833   -0.2296    0.0000 N   0  0  0  0  0  0  0  0  0
    0.0311   -0.6421    0.0000 C   0  0  0  0  0  0  0  0  0
    0.0311   -1.4671    0.0000 N   0  0  0  0  0  0  0  0  0
   -0.6833   -1.8796    0.0000 C   0  0  0  0  0  0  0  0  0
   -1.3978   -1.4671    0.0000 C   0  0  0  0  0  0  0  0  0
   -2.1123   -1.8796    0.0000 C   0  0  0  0  0  0  0  0  0
   -2.8268   -1.4671    0.0000 C   0  0  0  0  0  0  0  0  0
   -2.8268   -0.6421    0.0000 C   0  0  0  0  0  0  0  0  0
   -0.6833   -2.7046    0.0000 C   0  0  0  0  0  0  0  0  0
    0.7456   -0.2296    0.0000 N   0  0  0  0  0  0  0  0  0
  1  2  1  0  0  0  0
  1  3  1  0  0  0  0
  3  4  4  0  0  0  0
  3 12  4  0  0  0  0
  4  5  1  0  0  0  0
  4  9  4  0  0  0  0
  5  6  2  0  0  0  0
  6  7  1  0  0  0  0
  6 14  1  0  0  0  0
  7  8  1  0  0  0  0
  8  9  1  0  0  0  0
  8 13  1  0  0  0  0
  9 10  4  0  0  0  0
 10 11  4  0  0  0  0
 11 12  4  0  0  0  0
M  END
>  <Name_Molregno>
439127

>  <5-HT1A>
7.49

>  <5-HT1D>
6.35

>  <5-HT2C>
6.25

>  <5-HT5>
8.2

>  <5-HT7>
8.09

$$$$
441656
  Marvin  02231216192D 0   1.00000     0.00000     0

 30 33  0  0  0  0  0  0  0  0999 V2000
   -8.7885    0.0094    0.0000 O   0  0  0  0  0  0  0  0  0
   -9.5030   -0.4031    0.0000 C   0  0  0  0  0  0  0  0  0
   -8.7885    0.8344    0.0000 C   0  0  0  0  0  0  0  0  0
   -9.5030    1.2469    0.0000 C   0  0  0  0  0  0  0  0  0
   -9.5030    2.0719    0.0000 C   0  0  0  0  0  0  0  0  0
   -8.7885    2.4844    0.0000 C   0  0  0  0  0  0  0  0  0
   -8.0740    2.0719    0.0000 C   0  0  0  0  0  0  0  0  0
   -8.0740    1.2469    0.0000 C   0  0  0  0  0  0  0  0  0
   -7.3595    0.8344    0.0000 N   0  0  0  0  0  0  0  0  0
   -6.6451    1.2469    0.0000 C   0  0  0  0  0  0  0  0  0
   -5.9306    0.8344    0.0000 C   0  0  0  0  0  0  0  0  0
   -5.9306    0.0094    0.0000 N   0  0  0  0  0  0  0  0  0
   -6.6451   -0.4031    0.0000 C   0  0  0  0  0  0  0  0  0
   -7.3595    0.0094    0.0000 C   0  0  0  0  0  0  0  0  0
   -5.2161   -0.4031    0.0000 C   0  0  0  0  0  0  0  0  0
   -4.5017    0.0094    0.0000 C   0  0  0  0  0  0  0  0  0
   -3.7872   -0.4031    0.0000 C   0  0  0  0  0  0  0  0  0
   -3.0727    0.0094    0.0000 C   0  0  0  0  0  0  0  0  0
   -2.3582   -0.4031    0.0000 N   0  0  0  0  0  0  0  0  0
   -1.6438    0.0094    0.0000 C   0  0  0  0  0  0  0  0  0
   -0.9293   -0.4031    0.0000 N   0  0  0  0  0  0  0  0  0
   -0.2148    0.0094    0.0000 C   0  0  0  0  0  0  0  0  0
   -0.2148    0.8344    0.0000 C   0  0  0  0  0  0  0  0  0
    0.4996    1.2469    0.0000 C   0  0  0  0  0  0  0  0  0
    1.2141    0.8344    0.0000 C   0  0  0  0  0  0  0  0  0
    1.9286    1.2469    0.0000 N   0  0  0  0  0  0  0  0  0
    1.2141    0.0094    0.0000 C   0  0  0  0  0  0  0  0  0
    0.4996   -0.4031    0.0000 C   0  0  0  0  0  0  0  0  0
   -0.9293    1.2469    0.0000 C   0  0  0  0  0  0  0  0  0
   -1.6438    0.8344    0.0000 C   0  0  0  0  0  0  0  0  0
  1  2  1  0  0  0  0
  1  3  1  0  0  0  0
  3  4  4  0  0  0  0
  3  8  4  0  0  0  0
  4  5  4  0  0  0  0
  5  6  4  0  0  0  0
  6  7  4  0  0  0  0
  7  8  4  0  0  0  0
  8  9  1  0  0  0  0
  9 10  1  0  0  0  0
  9 14  1  0  0  0  0
 10 11  1  0  0  0  0
 11 12  1  0  0  0  0
 12 13  1  0  0  0  0
 12 15  1  0  0  0  0
 13 14  1  0  0  0  0
 15 16  1  0  0  0  0
 16 17  1  0  0  0  0
 17 18  1  0  0  0  0
 18 19  1  0  0  0  0
 19 20  1  0  0  0  0
 20 21  4  0  0  0  0
 20 30  4  0  0  0  0
 21 22  4  0  0  0  0
 22 23  4  0  0  0  0
 22 28  4  0  0  0  0
 23 24  4  0  0  0  0
 23 29  4  0  0  0  0
 24 25  4  0  0  0  0
 25 26  1  0  0  0  0
 25 27  4  0  0  0  0
 27 28  4  0  0  0  0
 29 30  4  0  0  0  0
M  END
>  <Name_Molregno>
441656

>  <5-HT1A>
9.42

$$$$
441658
  Marvin  02231216192D 0   1.00000     0.00000     0

 32 35  0  0  0  0  0  0  0  0999 V2000
   -9.9170   -0.0249    0.0000 O   0  0  0  0  0  0  0  0  0
  -10.6315   -0.4374    0.0000 C   0  0  0  0  0  0  0  0  0
   -9.9170    0.8001    0.0000 C   0  0  0  0  0  0  0  0  0
  -10.6315    1.2126    0.0000 C   0  0  0  0  0  0  0  0  0
  -10.6315    2.0376    0.0000 C   0  0  0  0  0  0  0  0  0
   -9.9170    2.4501    0.0000 C   0  0  0  0  0  0  0  0  0
   -9.2026    2.0376    0.0000 C   0  0  0  0  0  0  0  0  0
   -9.2026    1.2126    0.0000 C   0  0  0  0  0  0  0  0  0
   -8.4881    0.8001    0.0000 N   0  0  0  0  0  0  0  0  0
   -7.7736    1.2126    0.0000 C   0  0  0  0  0  0  0  0  0
   -7.0592    0.8001    0.0000 C   0  0  0  0  0  0  0  0  0
   -7.0592   -0.0249    0.0000 N   0  0  0  0  0  0  0  0  0
   -7.7736   -0.4374    0.0000 C   0  0  0  0  0  0  0  0  0
   -8.4881   -0.0249    0.0000 C   0  0  0  0  0  0  0  0  0
   -6.3447   -0.4374    0.0000 C   0  0  0  0  0  0  0  0  0
   -5.6302   -0.0249    0.0000 C   0  0  0  0  0  0  0  0  0
   -4.9157   -0.4374    0.0000 C   0  0  0  0  0  0  0  0  0
   -4.2013   -0.0249    0.0000 C   0  0  0  0  0  0  0  0  0
   -3.4868   -0.4374    0.0000 C   0  0  0  0  0  0  0  0  0
   -2.7723   -0.0249    0.0000 N   0  0  0  0  0  0  0  0  0
   -2.0579   -0.4374    0.0000 C   0  0  0  0  0  0  0  0  0
   -1.3434   -0.0249    0.0000 N   0  0  0  0  0  0  0  0  0
   -0.6289   -0.4374    0.0000 C   0  0  0  0  0  0  0  0  0
    0.0856   -0.0249    0.0000 C   0  0  0  0  0  0  0  0  0
    0.8000   -0.4374    0.0000 C   0  0  0  0  0  0  0  0  0
    1.5145   -0.0249    0.0000 O   0  0  0  0  0  0  0  0  0
    2.2290   -0.4374    0.0000 C   0  0  0  0  0  0  0  0  0
    0.8000   -1.2624    0.0000 C   0  0  0  0  0  0  0  0  0
    0.0856   -1.6749    0.0000 C   0  0  0  0  0  0  0  0  0
   -0.6289   -1.2624    0.0000 C   0  0  0  0  0  0  0  0  0
   -1.3434   -1.6749    0.0000 C   0  0  0  0  0  0  0  0  0
   -2.0579   -1.2624    0.0000 C   0  0  0  0  0  0  0  0  0
  1  2  1  0  0  0  0
  1  3  1  0  0  0  0
  3  4  4  0  0  0  0
  3  8  4  0  0  0  0
  4  5  4  0  0  0  0
  5  6  4  0  0  0  0
  6  7  4  0  0  0  0
  7  8  4  0  0  0  0
  8  9  1  0  0  0  0
  9 10  1  0  0  0  0
  9 14  1  0  0  0  0
 10 11  1  0  0  0  0
 11 12  1  0  0  0  0
 12 13  1  0  0  0  0
 12 15  1  0  0  0  0
 13 14  1  0  0  0  0
 15 16  1  0  0  0  0
 16 17  1  0  0  0  0
 17 18  1  0  0  0  0
 18 19  1  0  0  0  0
 19 20  1  0  0  0  0
 20 21  1  0  0  0  0
 21 22  4  0  0  0  0
 21 32  4  0  0  0  0
 22 23  4  0  0  0  0
 23 24  4  0  0  0  0
 23 30  4  0  0  0  0
 24 25  4  0  0  0  0
 25 26  1  0  0  0  0
 25 28  4  0  0  0  0
 26 27  1  0  0  0  0
 28 29  4  0  0  0  0
 29 30  4  0  0  0  0
 30 31  4  0  0  0  0
 31 32  4  0  0  0  0
M  END
>  <Name_Molregno>
441658

>  <5-HT1A>
9.3

$$$$
441659
  Marvin  02231216192D 0   1.00000     0.00000     0

 30 33  0  0  0  0  0  0  0  0999 V2000
   -8.7885    0.0094    0.0000 O   0  0  0  0  0  0  0  0  0
   -9.5030   -0.4031    0.0000 C   0  0  0  0  0  0  0  0  0
   -8.7885    0.8344    0.0000 C   0  0  0  0  0  0  0  0  0
   -9.5030    1.2469    0.0000 C   0  0  0  0  0  0  0  0  0
   -9.5030    2.0719    0.0000 C   0  0  0  0  0  0  0  0  0
   -8.7885    2.4844    0.0000 C   0  0  0  0  0  0  0  0  0
   -8.0740    2.0719    0.0000 C   0  0  0  0  0  0  0  0  0
   -8.0740    1.2469    0.0000 C   0  0  0  0  0  0  0  0  0
   -7.3595    0.8344    0.0000 N   0  0  0  0  0  0  0  0  0
   -6.6451    1.2469    0.0000 C   0  0  0  0  0  0  0  0  0
   -5.9306    0.8344    0.0000 C   0  0  0  0  0  0  0  0  0
   -5.9306    0.0094    0.0000 N   0  0  0  0  0  0  0  0  0
   -6.6451   -0.4031    0.0000 C   0  0  0  0  0  0  0  0  0
   -7.3595    0.0094    0.0000 C   0  0  0  0  0  0  0  0  0
   -5.2161   -0.4031    0.0000 C   0  0  0  0  0  0  0  0  0
   -4.5017    0.0094    0.0000 C   0  0  0  0  0  0  0  0  0
   -3.7872   -0.4031    0.0000 C   0  0  0  0  0  0  0  0  0
   -3.0727    0.0094    0.0000 C   0  0  0  0  0  0  0  0  0
   -2.3582   -0.4031    0.0000 N   0  0  0  0  0  0  0  0  0
   -1.6438    0.0094    0.0000 C   0  0  0  0  0  0  0  0  0
   -0.9293   -0.4031    0.0000 N   0  0  0  0  0  0  0  0  0
   -0.2148    0.0094    0.0000 C   0  0  0  0  0  0  0  0  0
   -0.2148    0.8344    0.0000 C   0  0  0  0  0  0  0  0  0
    0.4996    1.2469    0.0000 C   0  0  0  0  0  0  0  0  0
    1.2141    0.8344    0.0000 C   0  0  0  0  0  0  0  0  0
    1.2141    0.0094    0.0000 C   0  0  0  0  0  0  0  0  0
    0.4996   -0.4031    0.0000 C   0  0  0  0  0  0  0  0  0
    1.9286    1.2469    0.0000 C   0  0  0  0  0  0  0  0  0
   -0.9293    1.2469    0.0000 C   0  0  0  0  0  0  0  0  0
   -1.6438    0.8344    0.0000 C   0  0  0  0  0  0  0  0  0
  1  2  1  0  0  0  0
  1  3  1  0  0  0  0
  3  4  4  0  0  0  0
  3  8  4  0  0  0  0
  4  5  4  0  0  0  0
  5  6  4  0  0  0  0
  6  7  4  0  0  0  0
  7  8  4  0  0  0  0
  8  9  1  0  0  0  0
  9 10  1  0  0  0  0
  9 14  1  0  0  0  0
 10 11  1  0  0  0  0
 11 12  1  0  0  0  0
 12 13  1  0  0  0  0
 12 15  1  0  0  0  0
 13 14  1  0  0  0  0
 15 16  1  0  0  0  0
 16 17  1  0  0  0  0
 17 18  1  0  0  0  0
 18 19  1  0  0  0  0
 19 20  1  0  0  0  0
 20 21  4  0  0  0  0
 20 30  4  0  0  0  0
 21 22  4  0  0  0  0
 22 23  4  0  0  0  0
 22 27  4  0  0  0  0
 23 24  4  0  0  0  0
 23 29  4  0  0  0  0
 24 25  4  0  0  0  0
 25 26  4  0  0  0  0
 25 28  1  0  0  0  0
 26 27  4  0  0  0  0
 29 30  4  0  0  0  0
M  END
>  <Name_Molregno>
441659

>  <5-HT1A>
9.27

$$$$
441702
  Marvin  02231216192D 0   1.00000     0.00000     0

 31 34  0  0  0  0  0  0  0  0999 V2000
   -7.9016   -2.2759    0.0000 O   0  0  0  0  0  0  0  0  0
   -7.9016   -3.1009    0.0000 C   0  0  0  0  0  0  0  0  0
   -8.6161   -1.8634    0.0000 C   0  0  0  0  0  0  0  0  0
   -9.3306   -2.2759    0.0000 C   0  0  0  0  0  0  0  0  0
  -10.0450   -1.8634    0.0000 C   0  0  0  0  0  0  0  0  0
  -10.0450   -1.0384    0.0000 C   0  0  0  0  0  0  0  0  0
   -9.3306   -0.6259    0.0000 C   0  0  0  0  0  0  0  0  0
   -8.6161   -1.0384    0.0000 C   0  0  0  0  0  0  0  0  0
   -7.9016   -0.6259    0.0000 N   0  0  0  0  0  0  0  0  0
   -7.9016    0.1991    0.0000 C   0  0  0  0  0  0  0  0  0
   -7.1872    0.6116    0.0000 C   0  0  0  0  0  0  0  0  0
   -6.4727    0.1991    0.0000 N   0  0  0  0  0  0  0  0  0
   -6.4727   -0.6259    0.0000 C   0  0  0  0  0  0  0  0  0
   -7.1872   -1.0384    0.0000 C   0  0  0  0  0  0  0  0  0
   -5.7582    0.6116    0.0000 C   0  0  0  0  0  0  0  0  0
   -5.0437    0.1991    0.0000 C   0  0  0  0  0  0  0  0  0
   -4.3293    0.6116    0.0000 C   0  0  0  0  0  0  0  0  0
   -3.6148    0.1991    0.0000 C   0  0  0  0  0  0  0  0  0
   -2.9003    0.6116    0.0000 N   0  0  0  0  0  0  0  0  0
   -2.1859    0.1991    0.0000 C   0  0  0  0  0  0  0  0  0
   -1.4714    0.6116    0.0000 N   0  0  0  0  0  0  0  0  0
   -0.7569    0.1991    0.0000 C   0  0  0  0  0  0  0  0  0
   -0.0424    0.6116    0.0000 C   0  0  0  0  0  0  0  0  0
    0.6720    0.1991    0.0000 C   0  0  0  0  0  0  0  0  0
    1.3865    0.6116    0.0000 O   0  0  0  0  0  0  0  0  0
    1.3865    1.4366    0.0000 C   0  0  0  0  0  0  0  0  0
    0.6720   -0.6259    0.0000 C   0  0  0  0  0  0  0  0  0
   -0.0424   -1.0384    0.0000 C   0  0  0  0  0  0  0  0  0
   -0.7569   -0.6259    0.0000 C   0  0  0  0  0  0  0  0  0
   -1.4714   -1.0384    0.0000 C   0  0  0  0  0  0  0  0  0
   -2.1859   -0.6259    0.0000 C   0  0  0  0  0  0  0  0  0
  1  2  1  0  0  0  0
  1  3  1  0  0  0  0
  3  4  4  0  0  0  0
  3  8  4  0  0  0  0
  4  5  4  0  0  0  0
  5  6  4  0  0  0  0
  6  7  4  0  0  0  0
  7  8  4  0  0  0  0
  8  9  1  0  0  0  0
  9 10  1  0  0  0  0
  9 14  1  0  0  0  0
 10 11  1  0  0  0  0
 11 12  1  0  0  0  0
 12 13  1  0  0  0  0
 12 15  1  0  0  0  0
 13 14  1  0  0  0  0
 15 16  1  0  0  0  0
 16 17  1  0  0  0  0
 17 18  1  0  0  0  0
 18 19  1  0  0  0  0
 19 20  1  0  0  0  0
 20 21  4  0  0  0  0
 20 31  4  0  0  0  0
 21 22  4  0  0  0  0
 22 23  4  0  0  0  0
 22 29  4  0  0  0  0
 23 24  4  0  0  0  0
 24 25  1  0  0  0  0
 24 27  4  0  0  0  0
 25 26  1  0  0  0  0
 27 28  4  0  0  0  0
 28 29  4  0  0  0  0
 29 30  4  0  0  0  0
 30 31  4  0  0  0  0
M  END
>  <Name_Molregno>
441702

>  <5-HT1A>
8.34

$$$$
441755
  Marvin  02231216192D 0   1.00000     0.00000     0

 30 33  0  0  0  0  0  0  0  0999 V2000
   -8.5554   -0.1986    0.0000 O   0  0  0  0  0  0  0  0  0
   -9.2699   -0.6111    0.0000 C   0  0  0  0  0  0  0  0  0
   -8.5554    0.6264    0.0000 C   0  0  0  0  0  0  0  0  0
   -9.2699    1.0389    0.0000 C   0  0  0  0  0  0  0  0  0
   -9.2699    1.8639    0.0000 C   0  0  0  0  0  0  0  0  0
   -8.5554    2.2764    0.0000 C   0  0  0  0  0  0  0  0  0
   -7.8410    1.8639    0.0000 C   0  0  0  0  0  0  0  0  0
   -7.8410    1.0389    0.0000 C   0  0  0  0  0  0  0  0  0
   -7.1265    0.6264    0.0000 N   0  0  0  0  0  0  0  0  0
   -6.4120    1.0389    0.0000 C   0  0  0  0  0  0  0  0  0
   -5.6976    0.6264    0.0000 C   0  0  0  0  0  0  0  0  0
   -5.6976   -0.1986    0.0000 N   0  0  0  0  0  0  0  0  0
   -6.4120   -0.6111    0.0000 C   0  0  0  0  0  0  0  0  0
   -7.1265   -0.1986    0.0000 C   0  0  0  0  0  0  0  0  0
   -4.9831   -0.6111    0.0000 C   0  0  0  0  0  0  0  0  0
   -4.2686   -0.1986    0.0000 C   0  0  0  0  0  0  0  0  0
   -3.5541   -0.6111    0.0000 C   0  0  0  0  0  0  0  0  0
   -2.8397   -0.1986    0.0000 N   0  0  0  0  0  0  0  0  0
   -2.1252   -0.6111    0.0000 C   0  0  0  0  0  0  0  0  0
   -1.4107   -0.1986    0.0000 N   0  0  0  0  0  0  0  0  0
   -0.6963   -0.6111    0.0000 C   0  0  0  0  0  0  0  0  0
    0.0182   -0.1986    0.0000 C   0  0  0  0  0  0  0  0  0
    0.7327   -0.6111    0.0000 C   0  0  0  0  0  0  0  0  0
    1.4472   -0.1986    0.0000 O   0  0  0  0  0  0  0  0  0
    2.1616   -0.6111    0.0000 C   0  0  0  0  0  0  0  0  0
    0.7327   -1.4361    0.0000 C   0  0  0  0  0  0  0  0  0
    0.0182   -1.8486    0.0000 C   0  0  0  0  0  0  0  0  0
   -0.6963   -1.4361    0.0000 C   0  0  0  0  0  0  0  0  0
   -1.4107   -1.8486    0.0000 C   0  0  0  0  0  0  0  0  0
   -2.1252   -1.4361    0.0000 C   0  0  0  0  0  0  0  0  0
  1  2  1  0  0  0  0
  1  3  1  0  0  0  0
  3  4  4  0  0  0  0
  3  8  4  0  0  0  0
  4  5  4  0  0  0  0
  5  6  4  0  0  0  0
  6  7  4  0  0  0  0
  7  8  4  0  0  0  0
  8  9  1  0  0  0  0
  9 10  1  0  0  0  0
  9 14  1  0  0  0  0
 10 11  1  0  0  0  0
 11 12  1  0  0  0  0
 12 13  1  0  0  0  0
 12 15  1  0  0  0  0
 13 14  1  0  0  0  0
 15 16  1  0  0  0  0
 16 17  1  0  0  0  0
 17 18  1  0  0  0  0
 18 19  1  0  0  0  0
 19 20  4  0  0  0  0
 19 30  4  0  0  0  0
 20 21  4  0  0  0  0
 21 22  4  0  0  0  0
 21 28  4  0  0  0  0
 22 23  4  0  0  0  0
 23 24  1  0  0  0  0
 23 26  4  0  0  0  0
 24 25  1  0  0  0  0
 26 27  4  0  0  0  0
 27 28  4  0  0  0  0
 28 29  4  0  0  0  0
 29 30  4  0  0  0  0
M  END
>  <Name_Molregno>
441755

>  <5-HT1A>
9.7

$$$$
441797
  Marvin  02231216192D 0   1.00000     0.00000     0

 29 32  0  0  0  0  0  0  0  0999 V2000
   -6.5508   -2.2703    0.0000 O   0  0  0  0  0  0  0  0  0
   -6.5508   -3.0953    0.0000 C   0  0  0  0  0  0  0  0  0
   -7.2653   -1.8578    0.0000 C   0  0  0  0  0  0  0  0  0
   -7.9798   -2.2703    0.0000 C   0  0  0  0  0  0  0  0  0
   -8.6943   -1.8578    0.0000 C   0  0  0  0  0  0  0  0  0
   -8.6943   -1.0328    0.0000 C   0  0  0  0  0  0  0  0  0
   -7.9798   -0.6203    0.0000 C   0  0  0  0  0  0  0  0  0
   -7.2653   -1.0328    0.0000 C   0  0  0  0  0  0  0  0  0
   -6.5508   -0.6203    0.0000 N   0  0  0  0  0  0  0  0  0
   -6.5508    0.2047    0.0000 C   0  0  0  0  0  0  0  0  0
   -5.8364    0.6172    0.0000 C   0  0  0  0  0  0  0  0  0
   -5.1219    0.2047    0.0000 N   0  0  0  0  0  0  0  0  0
   -5.1219   -0.6203    0.0000 C   0  0  0  0  0  0  0  0  0
   -5.8364   -1.0328    0.0000 C   0  0  0  0  0  0  0  0  0
   -4.4074    0.6172    0.0000 C   0  0  0  0  0  0  0  0  0
   -3.6930    0.2047    0.0000 C   0  0  0  0  0  0  0  0  0
   -2.9785    0.6172    0.0000 N   0  0  0  0  0  0  0  0  0
   -2.2640    0.2047    0.0000 C   0  0  0  0  0  0  0  0  0
   -1.5496    0.6172    0.0000 N   0  0  0  0  0  0  0  0  0
   -0.8351    0.2047    0.0000 C   0  0  0  0  0  0  0  0  0
   -0.1206    0.6172    0.0000 C   0  0  0  0  0  0  0  0  0
    0.5939    0.2047    0.0000 C   0  0  0  0  0  0  0  0  0
    1.3083    0.6172    0.0000 O   0  0  0  0  0  0  0  0  0
    1.3083    1.4422    0.0000 C   0  0  0  0  0  0  0  0  0
    0.5939   -0.6203    0.0000 C   0  0  0  0  0  0  0  0  0
   -0.1206   -1.0328    0.0000 C   0  0  0  0  0  0  0  0  0
   -0.8351   -0.6203    0.0000 C   0  0  0  0  0  0  0  0  0
   -1.5496   -1.0328    0.0000 C   0  0  0  0  0  0  0  0  0
   -2.2640   -0.6203    0.0000 C   0  0  0  0  0  0  0  0  0
  1  2  1  0  0  0  0
  1  3  1  0  0  0  0
  3  4  4  0  0  0  0
  3  8  4  0  0  0  0
  4  5  4  0  0  0  0
  5  6  4  0  0  0  0
  6  7  4  0  0  0  0
  7  8  4  0  0  0  0
  8  9  1  0  0  0  0
  9 10  1  0  0  0  0
  9 14  1  0  0  0  0
 10 11  1  0  0  0  0
 11 12  1  0  0  0  0
 12 13  1  0  0  0  0
 12 15  1  0  0  0  0
 13 14  1  0  0  0  0
 15 16  1  0  0  0  0
 16 17  1  0  0  0  0
 17 18  1  0  0  0  0
 18 19  4  0  0  0  0
 18 29  4  0  0  0  0
 19 20  4  0  0  0  0
 20 21  4  0  0  0  0
 20 27  4  0  0  0  0
 21 22  4  0  0  0  0
 22 23  1  0  0  0  0
 22 25  4  0  0  0  0
 23 24  1  0  0  0  0
 25 26  4  0  0  0  0
 26 27  4  0  0  0  0
 27 28  4  0  0  0  0
 28 29  4  0  0  0  0
M  END
>  <Name_Molregno>
441797

>  <5-HT1A>
8.68

$$$$
441843
  Marvin  02231216192D 0   1.00000     0.00000     0

 32 35  0  0  0  0  0  0  0  0999 V2000
   -8.5771   -2.3527    0.0000 O   0  0  0  0  0  0  0  0  0
   -8.5771   -3.1777    0.0000 C   0  0  0  0  0  0  0  0  0
   -9.2915   -1.9402    0.0000 C   0  0  0  0  0  0  0  0  0
  -10.0060   -2.3527    0.0000 C   0  0  0  0  0  0  0  0  0
  -10.7205   -1.9402    0.0000 C   0  0  0  0  0  0  0  0  0
  -10.7205   -1.1152    0.0000 C   0  0  0  0  0  0  0  0  0
  -10.0060   -0.7027    0.0000 C   0  0  0  0  0  0  0  0  0
   -9.2915   -1.1152    0.0000 C   0  0  0  0  0  0  0  0  0
   -8.5771   -0.7027    0.0000 N   0  0  0  0  0  0  0  0  0
   -8.5771    0.1223    0.0000 C   0  0  0  0  0  0  0  0  0
   -7.8626    0.5348    0.0000 C   0  0  0  0  0  0  0  0  0
   -7.1481    0.1223    0.0000 N   0  0  0  0  0  0  0  0  0
   -7.1481   -0.7027    0.0000 C   0  0  0  0  0  0  0  0  0
   -7.8626   -1.1152    0.0000 C   0  0  0  0  0  0  0  0  0
   -6.4337    0.5348    0.0000 C   0  0  0  0  0  0  0  0  0
   -5.7192    0.1223    0.0000 C   0  0  0  0  0  0  0  0  0
   -5.0047    0.5348    0.0000 C   0  0  0  0  0  0  0  0  0
   -4.2902    0.1223    0.0000 C   0  0  0  0  0  0  0  0  0
   -3.5758    0.5348    0.0000 C   0  0  0  0  0  0  0  0  0
   -2.8613    0.1223    0.0000 N   0  0  0  0  0  0  0  0  0
   -2.1468    0.5348    0.0000 C   0  0  0  0  0  0  0  0  0
   -1.4324    0.1223    0.0000 N   0  0  0  0  0  0  0  0  0
   -0.7179    0.5348    0.0000 C   0  0  0  0  0  0  0  0  0
   -0.7179    1.3598    0.0000 C   0  0  0  0  0  0  0  0  0
   -0.0034    1.7723    0.0000 C   0  0  0  0  0  0  0  0  0
    0.7111    1.3598    0.0000 C   0  0  0  0  0  0  0  0  0
    1.4255    1.7723    0.0000 O   0  0  0  0  0  0  0  0  0
    1.4255    2.5973    0.0000 C   0  0  0  0  0  0  0  0  0
    0.7111    0.5348    0.0000 C   0  0  0  0  0  0  0  0  0
   -0.0034    0.1223    0.0000 C   0  0  0  0  0  0  0  0  0
   -1.4324    1.7723    0.0000 C   0  0  0  0  0  0  0  0  0
   -2.1468    1.3598    0.0000 C   0  0  0  0  0  0  0  0  0
  1  2  1  0  0  0  0
  1  3  1  0  0  0  0
  3  4  4  0  0  0  0
  3  8  4  0  0  0  0
  4  5  4  0  0  0  0
  5  6  4  0  0  0  0
  6  7  4  0  0  0  0
  7  8  4  0  0  0  0
  8  9  1  0  0  0  0
  9 10  1  0  0  0  0
  9 14  1  0  0  0  0
 10 11  1  0  0  0  0
 11 12  1  0  0  0  0
 12 13  1  0  0  0  0
 12 15  1  0  0  0  0
 13 14  1  0  0  0  0
 15 16  1  0  0  0  0
 16 17  1  0  0  0  0
 17 18  1  0  0  0  0
 18 19  1  0  0  0  0
 19 20  1  0  0  0  0
 20 21  1  0  0  0  0
 21 22  4  0  0  0  0
 21 32  4  0  0  0  0
 22 23  4  0  0  0  0
 23 24  4  0  0  0  0
 23 30  4  0  0  0  0
 24 25  4  0  0  0  0
 24 31  4  0  0  0  0
 25 26  4  0  0  0  0
 26 27  1  0  0  0  0
 26 29  4  0  0  0  0
 27 28  1  0  0  0  0
 29 30  4  0  0  0  0
 31 32  4  0  0  0  0
M  END
>  <Name_Molregno>
441843

>  <5-HT1A>
8.59

$$$$
441845
  Marvin  02231216192D 0   1.00000     0.00000     0

 30 33  0  0  0  0  0  0  0  0999 V2000
   -7.2225   -2.3465    0.0000 O   0  0  0  0  0  0  0  0  0
   -7.2225   -3.1715    0.0000 C   0  0  0  0  0  0  0  0  0
   -7.9369   -1.9340    0.0000 C   0  0  0  0  0  0  0  0  0
   -8.6514   -2.3465    0.0000 C   0  0  0  0  0  0  0  0  0
   -9.3659   -1.9340    0.0000 C   0  0  0  0  0  0  0  0  0
   -9.3659   -1.1090    0.0000 C   0  0  0  0  0  0  0  0  0
   -8.6514   -0.6965    0.0000 C   0  0  0  0  0  0  0  0  0
   -7.9369   -1.1090    0.0000 C   0  0  0  0  0  0  0  0  0
   -7.2225   -0.6965    0.0000 N   0  0  0  0  0  0  0  0  0
   -7.2225    0.1285    0.0000 C   0  0  0  0  0  0  0  0  0
   -6.5080    0.5410    0.0000 C   0  0  0  0  0  0  0  0  0
   -5.7935    0.1285    0.0000 N   0  0  0  0  0  0  0  0  0
   -5.7935   -0.6965    0.0000 C   0  0  0  0  0  0  0  0  0
   -6.5080   -1.1090    0.0000 C   0  0  0  0  0  0  0  0  0
   -5.0791    0.5410    0.0000 C   0  0  0  0  0  0  0  0  0
   -4.3646    0.1285    0.0000 C   0  0  0  0  0  0  0  0  0
   -3.6501    0.5410    0.0000 C   0  0  0  0  0  0  0  0  0
   -2.9356    0.1285    0.0000 N   0  0  0  0  0  0  0  0  0
   -2.2212    0.5410    0.0000 C   0  0  0  0  0  0  0  0  0
   -1.5067    0.1285    0.0000 N   0  0  0  0  0  0  0  0  0
   -0.7922    0.5410    0.0000 C   0  0  0  0  0  0  0  0  0
   -0.7922    1.3660    0.0000 C   0  0  0  0  0  0  0  0  0
   -0.0778    1.7785    0.0000 C   0  0  0  0  0  0  0  0  0
    0.6367    1.3660    0.0000 C   0  0  0  0  0  0  0  0  0
    1.3512    1.7785    0.0000 O   0  0  0  0  0  0  0  0  0
    1.3512    2.6035    0.0000 C   0  0  0  0  0  0  0  0  0
    0.6367    0.5410    0.0000 C   0  0  0  0  0  0  0  0  0
   -0.0778    0.1285    0.0000 C   0  0  0  0  0  0  0  0  0
   -1.5067    1.7785    0.0000 C   0  0  0  0  0  0  0  0  0
   -2.2212    1.3660    0.0000 C   0  0  0  0  0  0  0  0  0
  1  2  1  0  0  0  0
  1  3  1  0  0  0  0
  3  4  4  0  0  0  0
  3  8  4  0  0  0  0
  4  5  4  0  0  0  0
  5  6  4  0  0  0  0
  6  7  4  0  0  0  0
  7  8  4  0  0  0  0
  8  9  1  0  0  0  0
  9 10  1  0  0  0  0
  9 14  1  0  0  0  0
 10 11  1  0  0  0  0
 11 12  1  0  0  0  0
 12 13  1  0  0  0  0
 12 15  1  0  0  0  0
 13 14  1  0  0  0  0
 15 16  1  0  0  0  0
 16 17  1  0  0  0  0
 17 18  1  0  0  0  0
 18 19  1  0  0  0  0
 19 20  4  0  0  0  0
 19 30  4  0  0  0  0
 20 21  4  0  0  0  0
 21 22  4  0  0  0  0
 21 28  4  0  0  0  0
 22 23  4  0  0  0  0
 22 29  4  0  0  0  0
 23 24  4  0  0  0  0
 24 25  1  0  0  0  0
 24 27  4  0  0  0  0
 25 26  1  0  0  0  0
 27 28  4  0  0  0  0
 29 30  4  0  0  0  0
M  END
>  <Name_Molregno>
441845

>  <5-HT1A>
7.66

$$$$
441846
  Marvin  02231216192D 0   1.00000     0.00000     0

 31 34  0  0  0  0  0  0  0  0999 V2000
   -9.2382   -0.0360    0.0000 O   0  0  0  0  0  0  0  0  0
   -9.9527   -0.4485    0.0000 C   0  0  0  0  0  0  0  0  0
   -9.2382    0.7890    0.0000 C   0  0  0  0  0  0  0  0  0
   -9.9527    1.2015    0.0000 C   0  0  0  0  0  0  0  0  0
   -9.9527    2.0265    0.0000 C   0  0  0  0  0  0  0  0  0
   -9.2382    2.4390    0.0000 C   0  0  0  0  0  0  0  0  0
   -8.5238    2.0265    0.0000 C   0  0  0  0  0  0  0  0  0
   -8.5238    1.2015    0.0000 C   0  0  0  0  0  0  0  0  0
   -7.8093    0.7890    0.0000 N   0  0  0  0  0  0  0  0  0
   -7.0948    1.2015    0.0000 C   0  0  0  0  0  0  0  0  0
   -6.3804    0.7890    0.0000 C   0  0  0  0  0  0  0  0  0
   -6.3804   -0.0360    0.0000 N   0  0  0  0  0  0  0  0  0
   -7.0948   -0.4485    0.0000 C   0  0  0  0  0  0  0  0  0
   -7.8093   -0.0360    0.0000 C   0  0  0  0  0  0  0  0  0
   -5.6659   -0.4485    0.0000 C   0  0  0  0  0  0  0  0  0
   -4.9514   -0.0360    0.0000 C   0  0  0  0  0  0  0  0  0
   -4.2369   -0.4485    0.0000 C   0  0  0  0  0  0  0  0  0
   -3.5225   -0.0360    0.0000 C   0  0  0  0  0  0  0  0  0
   -2.8080   -0.4485    0.0000 N   0  0  0  0  0  0  0  0  0
   -2.0935   -0.0360    0.0000 C   0  0  0  0  0  0  0  0  0
   -1.3791   -0.4485    0.0000 N   0  0  0  0  0  0  0  0  0
   -0.6646   -0.0360    0.0000 C   0  0  0  0  0  0  0  0  0
   -0.6646    0.7890    0.0000 C   0  0  0  0  0  0  0  0  0
    0.0499    1.2015    0.0000 C   0  0  0  0  0  0  0  0  0
    0.7644    0.7890    0.0000 C   0  0  0  0  0  0  0  0  0
    1.4788    1.2015    0.0000 O   0  0  0  0  0  0  0  0  0
    2.1933    0.7890    0.0000 C   0  0  0  0  0  0  0  0  0
    0.7644   -0.0360    0.0000 C   0  0  0  0  0  0  0  0  0
    0.0499   -0.4485    0.0000 C   0  0  0  0  0  0  0  0  0
   -1.3791    1.2015    0.0000 C   0  0  0  0  0  0  0  0  0
   -2.0935    0.7890    0.0000 C   0  0  0  0  0  0  0  0  0
  1  2  1  0  0  0  0
  1  3  1  0  0  0  0
  3  4  4  0  0  0  0
  3  8  4  0  0  0  0
  4  5  4  0  0  0  0
  5  6  4  0  0  0  0
  6  7  4  0  0  0  0
  7  8  4  0  0  0  0
  8  9  1  0  0  0  0
  9 10  1  0  0  0  0
  9 14  1  0  0  0  0
 10 11  1  0  0  0  0
 11 12  1  0  0  0  0
 12 13  1  0  0  0  0
 12 15  1  0  0  0  0
 13 14  1  0  0  0  0
 15 16  1  0  0  0  0
 16 17  1  0  0  0  0
 17 18  1  0  0  0  0
 18 19  1  0  0  0  0
 19 20  1  0  0  0  0
 20 21  4  0  0  0  0
 20 31  4  0  0  0  0
 21 22  4  0  0  0  0
 22 23  4  0  0  0  0
 22 29  4  0  0  0  0
 23 24  4  0  0  0  0
 23 30  4  0  0  0  0
 24 25  4  0  0  0  0
 25 26  1  0  0  0  0
 25 28  4  0  0  0  0
 26 27  1  0  0  0  0
 28 29  4  0  0  0  0
 30 31  4  0  0  0  0
M  END
>  <Name_Molregno>
441846

>  <5-HT1A>
9.7

$$$$
441848
  Marvin  02231216192D 0   1.00000     0.00000     0

 29 32  0  0  0  0  0  0  0  0999 V2000
   -7.8761   -1.1959    0.0000 O   0  0  0  0  0  0  0  0  0
   -8.5906   -1.6084    0.0000 C   0  0  0  0  0  0  0  0  0
   -7.8761   -0.3709    0.0000 C   0  0  0  0  0  0  0  0  0
   -8.5906    0.0416    0.0000 C   0  0  0  0  0  0  0  0  0
   -8.5906    0.8666    0.0000 C   0  0  0  0  0  0  0  0  0
   -7.8761    1.2791    0.0000 C   0  0  0  0  0  0  0  0  0
   -7.1617    0.8666    0.0000 C   0  0  0  0  0  0  0  0  0
   -7.1617    0.0416    0.0000 C   0  0  0  0  0  0  0  0  0
   -6.4472   -0.3709    0.0000 N   0  0  0  0  0  0  0  0  0
   -5.7327    0.0416    0.0000 C   0  0  0  0  0  0  0  0  0
   -5.0183   -0.3709    0.0000 C   0  0  0  0  0  0  0  0  0
   -5.0183   -1.1959    0.0000 N   0  0  0  0  0  0  0  0  0
   -5.7327   -1.6084    0.0000 C   0  0  0  0  0  0  0  0  0
   -6.4472   -1.1959    0.0000 C   0  0  0  0  0  0  0  0  0
   -4.3038   -1.6084    0.0000 C   0  0  0  0  0  0  0  0  0
   -3.5893   -1.1959    0.0000 C   0  0  0  0  0  0  0  0  0
   -2.8748   -1.6084    0.0000 N   0  0  0  0  0  0  0  0  0
   -2.1604   -1.1959    0.0000 C   0  0  0  0  0  0  0  0  0
   -1.4459   -1.6084    0.0000 N   0  0  0  0  0  0  0  0  0
   -0.7314   -1.1959    0.0000 C   0  0  0  0  0  0  0  0  0
   -0.7314   -0.3709    0.0000 C   0  0  0  0  0  0  0  0  0
   -0.0170    0.0416    0.0000 C   0  0  0  0  0  0  0  0  0
    0.6975   -0.3709    0.0000 C   0  0  0  0  0  0  0  0  0
    1.4120    0.0416    0.0000 O   0  0  0  0  0  0  0  0  0
    2.1264   -0.3709    0.0000 C   0  0  0  0  0  0  0  0  0
    0.6975   -1.1959    0.0000 C   0  0  0  0  0  0  0  0  0
   -0.0170   -1.6084    0.0000 C   0  0  0  0  0  0  0  0  0
   -1.4459    0.0416    0.0000 C   0  0  0  0  0  0  0  0  0
   -2.1604   -0.3709    0.0000 C   0  0  0  0  0  0  0  0  0
  1  2  1  0  0  0  0
  1  3  1  0  0  0  0
  3  4  4  0  0  0  0
  3  8  4  0  0  0  0
  4  5  4  0  0  0  0
  5  6  4  0  0  0  0
  6  7  4  0  0  0  0
  7  8  4  0  0  0  0
  8  9  1  0  0  0  0
  9 10  1  0  0  0  0
  9 14  1  0  0  0  0
 10 11  1  0  0  0  0
 11 12  1  0  0  0  0
 12 13  1  0  0  0  0
 12 15  1  0  0  0  0
 13 14  1  0  0  0  0
 15 16  1  0  0  0  0
 16 17  1  0  0  0  0
 17 18  1  0  0  0  0
 18 19  4  0  0  0  0
 18 29  4  0  0  0  0
 19 20  4  0  0  0  0
 20 21  4  0  0  0  0
 20 27  4  0  0  0  0
 21 22  4  0  0  0  0
 21 28  4  0  0  0  0
 22 23  4  0  0  0  0
 23 24  1  0  0  0  0
 23 26  4  0  0  0  0
 24 25  1  0  0  0  0
 26 27  4  0  0  0  0
 28 29  4  0  0  0  0
M  END
>  <Name_Molregno>
441848

>  <5-HT1A>
7.55

$$$$
441890
  Marvin  02231216192D 0   1.00000     0.00000     0

 30 33  0  0  0  0  0  0  0  0999 V2000
    0.5539   -1.9273    0.0000 O   0  0  0  0  0  0  0  0  0
    0.5539   -2.7523    0.0000 C   0  0  0  0  0  0  0  0  0
   -0.1605   -1.5148    0.0000 C   0  0  0  0  0  0  0  0  0
   -0.8750   -1.9273    0.0000 C   0  0  0  0  0  0  0  0  0
   -1.5895   -1.5147    0.0000 C   0  0  0  0  0  0  0  0  0
   -1.5895   -0.6897    0.0000 C   0  0  0  0  0  0  0  0  0
   -0.8750   -0.2773    0.0000 C   0  0  0  0  0  0  0  0  0
   -0.1605   -0.6898    0.0000 C   0  0  0  0  0  0  0  0  0
    0.5539   -0.2773    0.0000 N   0  0  0  0  0  0  0  0  0
    0.5539    0.5477    0.0000 C   0  0  0  0  0  0  0  0  0
    1.2684    0.9603    0.0000 C   0  0  0  0  0  0  0  0  0
    1.9829    0.5477    0.0000 N   0  0  0  0  0  0  0  0  0
    1.9829   -0.2773    0.0000 C   0  0  0  0  0  0  0  0  0
    1.2684   -0.6898    0.0000 C   0  0  0  0  0  0  0  0  0
    2.6974    0.9603    0.0000 C   0  0  0  0  0  0  0  0  0
    3.4118    0.5477    0.0000 C   0  0  0  0  0  0  0  0  0
    4.1263    0.9602    0.0000 C   0  0  0  0  0  0  0  0  0
    4.8408    0.5477    0.0000 C   0  0  0  0  0  0  0  0  0
    5.5552    0.9602    0.0000 C   0  0  0  0  0  0  0  0  0
    6.2697    0.5477    0.0000 N   0  0  0  0  0  0  0  0  0
    6.9842    0.9602    0.0000 C   0  0  0  0  0  0  0  0  0
    7.6987    0.5477    0.0000 N   0  0  0  0  0  0  0  0  0
    8.4131    0.9602    0.0000 C   0  0  0  0  0  0  0  0  0
    8.4131    1.7853    0.0000 C   0  0  0  0  0  0  0  0  0
    7.6987    2.1977    0.0000 C   0  0  0  0  0  0  0  0  0
    6.9842    1.7853    0.0000 C   0  0  0  0  0  0  0  0  0
    9.1276    2.1978    0.0000 C   0  0  0  0  0  0  0  0  0
    9.8421    1.7853    0.0000 C   0  0  0  0  0  0  0  0  0
    9.8421    0.9603    0.0000 C   0  0  0  0  0  0  0  0  0
    9.1276    0.5478    0.0000 C   0  0  0  0  0  0  0  0  0
  1  2  1  0  0  0  0
  1  3  1  0  0  0  0
  3  4  4  0  0  0  0
  3  8  4  0  0  0  0
  4  5  4  0  0  0  0
  5  6  4  0  0  0  0
  6  7  4  0  0  0  0
  7  8  4  0  0  0  0
  8  9  1  0  0  0  0
  9 10  1  0  0  0  0
  9 14  1  0  0  0  0
 10 11  1  0  0  0  0
 11 12  1  0  0  0  0
 12 13  1  0  0  0  0
 12 15  1  0  0  0  0
 13 14  1  0  0  0  0
 15 16  1  0  0  0  0
 16 17  1  0  0  0  0
 17 18  1  0  0  0  0
 18 19  1  0  0  0  0
 19 20  1  0  0  0  0
 20 21  1  0  0  0  0
 21 22  4  0  0  0  0
 21 26  4  0  0  0  0
 22 23  4  0  0  0  0
 23 24  4  0  0  0  0
 23 30  4  0  0  0  0
 24 25  4  0  0  0  0
 24 27  4  0  0  0  0
 25 26  4  0  0  0  0
 27 28  4  0  0  0  0
 28 29  4  0  0  0  0
 29 30  4  0  0  0  0
M  END
>  <Name_Molregno>
441890

>  <5-HT1A>
10.52

$$$$
441892
  Marvin  02231216192D 0   1.00000     0.00000     0

 28 31  0  0  0  0  0  0  0  0999 V2000
   -6.4061   -2.2202    0.0000 O   0  0  0  0  0  0  0  0  0
   -6.4061   -3.0452    0.0000 C   0  0  0  0  0  0  0  0  0
   -7.1206   -1.8077    0.0000 C   0  0  0  0  0  0  0  0  0
   -7.8350   -2.2202    0.0000 C   0  0  0  0  0  0  0  0  0
   -8.5495   -1.8077    0.0000 C   0  0  0  0  0  0  0  0  0
   -8.5495   -0.9827    0.0000 C   0  0  0  0  0  0  0  0  0
   -7.8350   -0.5702    0.0000 C   0  0  0  0  0  0  0  0  0
   -7.1206   -0.9827    0.0000 C   0  0  0  0  0  0  0  0  0
   -6.4061   -0.5702    0.0000 N   0  0  0  0  0  0  0  0  0
   -6.4061    0.2548    0.0000 C   0  0  0  0  0  0  0  0  0
   -5.6916    0.6673    0.0000 C   0  0  0  0  0  0  0  0  0
   -4.9772    0.2548    0.0000 N   0  0  0  0  0  0  0  0  0
   -4.9772   -0.5702    0.0000 C   0  0  0  0  0  0  0  0  0
   -5.6916   -0.9827    0.0000 C   0  0  0  0  0  0  0  0  0
   -4.2627    0.6673    0.0000 C   0  0  0  0  0  0  0  0  0
   -3.5482    0.2548    0.0000 C   0  0  0  0  0  0  0  0  0
   -2.8337    0.6673    0.0000 C   0  0  0  0  0  0  0  0  0
   -2.1193    0.2548    0.0000 N   0  0  0  0  0  0  0  0  0
   -1.4048    0.6673    0.0000 C   0  0  0  0  0  0  0  0  0
   -0.6903    0.2548    0.0000 N   0  0  0  0  0  0  0  0  0
    0.0241    0.6673    0.0000 C   0  0  0  0  0  0  0  0  0
    0.0241    1.4923    0.0000 C   0  0  0  0  0  0  0  0  0
   -0.6903    1.9048    0.0000 C   0  0  0  0  0  0  0  0  0
   -1.4048    1.4923    0.0000 C   0  0  0  0  0  0  0  0  0
    0.7386    1.9048    0.0000 C   0  0  0  0  0  0  0  0  0
    1.4531    1.4923    0.0000 C   0  0  0  0  0  0  0  0  0
    1.4531    0.6673    0.0000 C   0  0  0  0  0  0  0  0  0
    0.7386    0.2548    0.0000 C   0  0  0  0  0  0  0  0  0
  1  2  1  0  0  0  0
  1  3  1  0  0  0  0
  3  4  4  0  0  0  0
  3  8  4  0  0  0  0
  4  5  4  0  0  0  0
  5  6  4  0  0  0  0
  6  7  4  0  0  0  0
  7  8  4  0  0  0  0
  8  9  1  0  0  0  0
  9 10  1  0  0  0  0
  9 14  1  0  0  0  0
 10 11  1  0  0  0  0
 11 12  1  0  0  0  0
 12 13  1  0  0  0  0
 12 15  1  0  0  0  0
 13 14  1  0  0  0  0
 15 16  1  0  0  0  0
 16 17  1  0  0  0  0
 17 18  1  0  0  0  0
 18 19  1  0  0  0  0
 19 20  4  0  0  0  0
 19 24  4  0  0  0  0
 20 21  4  0  0  0  0
 21 22  4  0  0  0  0
 21 28  4  0  0  0  0
 22 23  4  0  0  0  0
 22 25  4  0  0  0  0
 23 24  4  0  0  0  0
 25 26  4  0  0  0  0
 26 27  4  0  0  0  0
 27 28  4  0  0  0  0
M  END
>  <Name_Molregno>
441892

>  <5-HT1A>
7.89

$$$$
441893
  Marvin  02231216192D 0   1.00000     0.00000     0

 29 32  0  0  0  0  0  0  0  0999 V2000
   -8.3619    0.0128    0.0000 O   0  0  0  0  0  0  0  0  0
   -9.0763   -0.3997    0.0000 C   0  0  0  0  0  0  0  0  0
   -8.3619    0.8378    0.0000 C   0  0  0  0  0  0  0  0  0
   -9.0763    1.2503    0.0000 C   0  0  0  0  0  0  0  0  0
   -9.0763    2.0753    0.0000 C   0  0  0  0  0  0  0  0  0
   -8.3619    2.4878    0.0000 C   0  0  0  0  0  0  0  0  0
   -7.6474    2.0753    0.0000 C   0  0  0  0  0  0  0  0  0
   -7.6474    1.2503    0.0000 C   0  0  0  0  0  0  0  0  0
   -6.9329    0.8378    0.0000 N   0  0  0  0  0  0  0  0  0
   -6.2185    1.2503    0.0000 C   0  0  0  0  0  0  0  0  0
   -5.5040    0.8378    0.0000 C   0  0  0  0  0  0  0  0  0
   -5.5040    0.0128    0.0000 N   0  0  0  0  0  0  0  0  0
   -6.2185   -0.3997    0.0000 C   0  0  0  0  0  0  0  0  0
   -6.9329    0.0128    0.0000 C   0  0  0  0  0  0  0  0  0
   -4.7895   -0.3997    0.0000 C   0  0  0  0  0  0  0  0  0
   -4.0750    0.0128    0.0000 C   0  0  0  0  0  0  0  0  0
   -3.3606   -0.3997    0.0000 C   0  0  0  0  0  0  0  0  0
   -2.6461    0.0128    0.0000 C   0  0  0  0  0  0  0  0  0
   -1.9316   -0.3997    0.0000 N   0  0  0  0  0  0  0  0  0
   -1.2172    0.0128    0.0000 C   0  0  0  0  0  0  0  0  0
   -0.5027   -0.3997    0.0000 N   0  0  0  0  0  0  0  0  0
    0.2118    0.0128    0.0000 C   0  0  0  0  0  0  0  0  0
    0.2118    0.8378    0.0000 C   0  0  0  0  0  0  0  0  0
   -0.5027    1.2503    0.0000 C   0  0  0  0  0  0  0  0  0
   -1.2172    0.8378    0.0000 C   0  0  0  0  0  0  0  0  0
    0.9263    1.2503    0.0000 C   0  0  0  0  0  0  0  0  0
    1.6407    0.8378    0.0000 C   0  0  0  0  0  0  0  0  0
    1.6407    0.0128    0.0000 C   0  0  0  0  0  0  0  0  0
    0.9263   -0.3997    0.0000 C   0  0  0  0  0  0  0  0  0
  1  2  1  0  0  0  0
  1  3  1  0  0  0  0
  3  4  4  0  0  0  0
  3  8  4  0  0  0  0
  4  5  4  0  0  0  0
  5  6  4  0  0  0  0
  6  7  4  0  0  0  0
  7  8  4  0  0  0  0
  8  9  1  0  0  0  0
  9 10  1  0  0  0  0
  9 14  1  0  0  0  0
 10 11  1  0  0  0  0
 11 12  1  0  0  0  0
 12 13  1  0  0  0  0
 12 15  1  0  0  0  0
 13 14  1  0  0  0  0
 15 16  1  0  0  0  0
 16 17  1  0  0  0  0
 17 18  1  0  0  0  0
 18 19  1  0  0  0  0
 19 20  1  0  0  0  0
 20 21  4  0  0  0  0
 20 25  4  0  0  0  0
 21 22  4  0  0  0  0
 22 23  4  0  0  0  0
 22 29  4  0  0  0  0
 23 24  4  0  0  0  0
 23 26  4  0  0  0  0
 24 25  4  0  0  0  0
 26 27  4  0  0  0  0
 27 28  4  0  0  0  0
 28 29  4  0  0  0  0
M  END
>  <Name_Molregno>
441893

>  <5-HT1A>
7.01

>  <Alpha-1A>
8.22

>  <DOPAMINE D2>
8.25

>  <DOPAMINE D3>
7.82

$$$$
441935
  Marvin  02231216192D 0   1.00000     0.00000     0

 27 30  0  0  0  0  0  0  0  0999 V2000
   -7.0489    0.0035    0.0000 O   0  0  0  0  0  0  0  0  0
   -7.7634   -0.4090    0.0000 C   0  0  0  0  0  0  0  0  0
   -7.0489    0.8285    0.0000 C   0  0  0  0  0  0  0  0  0
   -7.7634    1.2410    0.0000 C   0  0  0  0  0  0  0  0  0
   -7.7634    2.0660    0.0000 C   0  0  0  0  0  0  0  0  0
   -7.0489    2.4785    0.0000 C   0  0  0  0  0  0  0  0  0
   -6.3344    2.0660    0.0000 C   0  0  0  0  0  0  0  0  0
   -6.3344    1.2410    0.0000 C   0  0  0  0  0  0  0  0  0
   -5.6199    0.8285    0.0000 N   0  0  0  0  0  0  0  0  0
   -4.9055    1.2410    0.0000 C   0  0  0  0  0  0  0  0  0
   -4.1910    0.8285    0.0000 C   0  0  0  0  0  0  0  0  0
   -4.1910    0.0035    0.0000 N   0  0  0  0  0  0  0  0  0
   -4.9055   -0.4090    0.0000 C   0  0  0  0  0  0  0  0  0
   -5.6199    0.0035    0.0000 C   0  0  0  0  0  0  0  0  0
   -3.4765   -0.4090    0.0000 C   0  0  0  0  0  0  0  0  0
   -2.7621    0.0035    0.0000 C   0  0  0  0  0  0  0  0  0
   -2.0476   -0.4090    0.0000 N   0  0  0  0  0  0  0  0  0
   -1.3331    0.0035    0.0000 C   0  0  0  0  0  0  0  0  0
   -0.6186   -0.4090    0.0000 N   0  0  0  0  0  0  0  0  0
    0.0958    0.0035    0.0000 C   0  0  0  0  0  0  0  0  0
    0.0958    0.8285    0.0000 C   0  0  0  0  0  0  0  0  0
   -0.6186    1.2410    0.0000 C   0  0  0  0  0  0  0  0  0
   -1.3331    0.8285    0.0000 C   0  0  0  0  0  0  0  0  0
    0.8103    1.2410    0.0000 C   0  0  0  0  0  0  0  0  0
    1.5248    0.8285    0.0000 C   0  0  0  0  0  0  0  0  0
    1.5248    0.0035    0.0000 C   0  0  0  0  0  0  0  0  0
    0.8103   -0.4090    0.0000 C   0  0  0  0  0  0  0  0  0
  1  2  1  0  0  0  0
  1  3  1  0  0  0  0
  3  4  4  0  0  0  0
  3  8  4  0  0  0  0
  4  5  4  0  0  0  0
  5  6  4  0  0  0  0
  6  7  4  0  0  0  0
  7  8  4  0  0  0  0
  8  9  1  0  0  0  0
  9 10  1  0  0  0  0
  9 14  1  0  0  0  0
 10 11  1  0  0  0  0
 11 12  1  0  0  0  0
 12 13  1  0  0  0  0
 12 15  1  0  0  0  0
 13 14  1  0  0  0  0
 15 16  1  0  0  0  0
 16 17  1  0  0  0  0
 17 18  1  0  0  0  0
 18 19  4  0  0  0  0
 18 23  4  0  0  0  0
 19 20  4  0  0  0  0
 20 21  4  0  0  0  0
 20 27  4  0  0  0  0
 21 22  4  0  0  0  0
 21 24  4  0  0  0  0
 22 23  4  0  0  0  0
 24 25  4  0  0  0  0
 25 26  4  0  0  0  0
 26 27  4  0  0  0  0
M  END
>  <Name_Molregno>
441935

>  <5-HT1A>
7.48

$$$$
441938
  Marvin  02231216192D 0   1.00000     0.00000     0

 30 33  0  0  0  0  0  0  0  0999 V2000
   -8.2300   -1.2579    0.0000 O   0  0  0  0  0  0  0  0  0
   -8.9445   -1.6704    0.0000 C   0  0  0  0  0  0  0  0  0
   -8.2300   -0.4329    0.0000 C   0  0  0  0  0  0  0  0  0
   -8.9445   -0.0204    0.0000 C   0  0  0  0  0  0  0  0  0
   -8.9445    0.8046    0.0000 C   0  0  0  0  0  0  0  0  0
   -8.2300    1.2171    0.0000 C   0  0  0  0  0  0  0  0  0
   -7.5155    0.8046    0.0000 C   0  0  0  0  0  0  0  0  0
   -7.5155   -0.0204    0.0000 C   0  0  0  0  0  0  0  0  0
   -6.8010   -0.4329    0.0000 N   0  0  0  0  0  0  0  0  0
   -6.0866   -0.0204    0.0000 C   0  0  0  0  0  0  0  0  0
   -5.3721   -0.4329    0.0000 C   0  0  0  0  0  0  0  0  0
   -5.3721   -1.2579    0.0000 N   0  0  0  0  0  0  0  0  0
   -6.0866   -1.6704    0.0000 C   0  0  0  0  0  0  0  0  0
   -6.8010   -1.2579    0.0000 C   0  0  0  0  0  0  0  0  0
   -4.6576   -1.6704    0.0000 C   0  0  0  0  0  0  0  0  0
   -3.9432   -1.2579    0.0000 C   0  0  0  0  0  0  0  0  0
   -3.2287   -1.6704    0.0000 N   0  0  0  0  0  0  0  0  0
   -2.5142   -1.2579    0.0000 C   0  0  0  0  0  0  0  0  0
   -1.7997   -1.6704    0.0000 N   0  0  0  0  0  0  0  0  0
   -1.0853   -1.2579    0.0000 C   0  0  0  0  0  0  0  0  0
   -1.0853   -0.4329    0.0000 C   0  0  0  0  0  0  0  0  0
   -0.3708   -0.0204    0.0000 C   0  0  0  0  0  0  0  0  0
    0.3437   -0.4329    0.0000 C   0  0  0  0  0  0  0  0  0
    1.0581   -0.0204    0.0000 N   0  3  0  0  0  0  0  0  0
    1.7726   -0.4329    0.0000 O   0  5  0  0  0  0  0  0  0
    1.0581    0.8046    0.0000 O   0  5  0  0  0  0  0  0  0
    0.3437   -1.2579    0.0000 C   0  0  0  0  0  0  0  0  0
   -0.3708   -1.6704    0.0000 C   0  0  0  0  0  0  0  0  0
   -1.7997   -0.0204    0.0000 C   0  0  0  0  0  0  0  0  0
   -2.5142   -0.4329    0.0000 C   0  0  0  0  0  0  0  0  0
  1  2  1  0  0  0  0
  1  3  1  0  0  0  0
  3  4  4  0  0  0  0
  3  8  4  0  0  0  0
  4  5  4  0  0  0  0
  5  6  4  0  0  0  0
  6  7  4  0  0  0  0
  7  8  4  0  0  0  0
  8  9  1  0  0  0  0
  9 10  1  0  0  0  0
  9 14  1  0  0  0  0
 10 11  1  0  0  0  0
 11 12  1  0  0  0  0
 12 13  1  0  0  0  0
 12 15  1  0  0  0  0
 13 14  1  0  0  0  0
 15 16  1  0  0  0  0
 16 17  1  0  0  0  0
 17 18  1  0  0  0  0
 18 19  4  0  0  0  0
 18 30  4  0  0  0  0
 19 20  4  0  0  0  0
 20 21  4  0  0  0  0
 20 28  4  0  0  0  0
 21 22  4  0  0  0  0
 21 29  4  0  0  0  0
 22 23  4  0  0  0  0
 23 24  1  0  0  0  0
 23 27  4  0  0  0  0
 24 25  1  0  0  0  0
 24 26  1  0  0  0  0
 27 28  4  0  0  0  0
 29 30  4  0  0  0  0
M  CHG  3  24   1  25  -1  26  -1
M  END
>  <Name_Molregno>
441938

>  <5-HT1A>
7.85

$$$$
443503
  Marvin  02231216192D 0   1.00000     0.00000     0

 26 28  0  0  1  0  0  0  0  0999 V2000
    5.1037   -3.2541    0.0000 Br  0  0  0  0  0  0  0  0  0
    4.5517   -2.6410    0.0000 C   0  0  0  0  0  0  0  0  0
    3.7447   -2.8125    0.0000 C   0  0  0  0  0  0  0  0  0
    3.1927   -2.1994    0.0000 C   0  0  0  0  0  0  0  0  0
    2.3677   -2.1994    0.0000 N   0  0  0  0  0  0  0  0  0
    2.1128   -1.4148    0.0000 C   0  0  0  0  0  0  0  0  0
    2.7802   -0.9299    0.0000 C   0  0  0  0  0  0  0  0  0
    3.4476   -1.4148    0.0000 C   0  0  0  0  0  0  0  0  0
    4.2546   -1.2433    0.0000 C   0  0  0  0  0  0  0  0  0
    4.8067   -1.8564    0.0000 C   0  0  0  0  0  0  0  0  0
    2.7802   -0.1049    0.0000 C   0  0  0  0  0  0  0  0  0
    3.4947    0.3076    0.0000 C   0  0  0  0  0  0  0  0  0
    4.2091   -0.1049    0.0000 N   0  0  0  0  0  0  0  0  0
    4.9236    0.3076    0.0000 C   0  0  0  0  0  0  0  0  0
    5.6381   -0.1049    0.0000 O   0  0  0  0  0  0  0  0  0
    4.9236    1.1326    0.0000 C   0  0  0  0  0  0  0  0  0
    4.2091    1.5451    0.0000 N   0  0  0  0  0  0  0  0  0
    3.4947    1.1326    0.0000 C   0  0  0  0  0  0  0  0  0
    2.7802    1.5451    0.0000 O   0  0  0  0  0  0  0  0  0
    5.6381    1.5451    0.0000 C   0  0  0  0  0  0  0  0  0
    6.3526    1.1326    0.0000 C   0  0  0  0  0  0  0  0  0
    7.0670    1.5451    0.0000 C   0  0  0  0  0  0  0  0  0
    7.7815    1.1326    0.0000 N   0  0  0  0  0  0  0  0  0
    8.4960    1.5451    0.0000 C   0  0  0  0  0  0  0  0  0
    9.2104    1.1326    0.0000 N   0  0  0  0  0  0  0  0  0
    8.4960    2.3701    0.0000 N   0  0  0  0  0  0  0  0  0
  1  2  1  0  0  0  0
  2  3  4  0  0  0  0
  2 10  4  0  0  0  0
  3  4  4  0  0  0  0
  4  5  4  0  0  0  0
  4  8  4  0  0  0  0
  5  6  4  0  0  0  0
  6  7  4  0  0  0  0
  7  8  4  0  0  0  0
  7 11  1  0  0  0  0
  8  9  4  0  0  0  0
  9 10  4  0  0  0  0
 11 12  1  0  0  0  0
 12 13  1  0  0  0  0
 12 18  1  0  0  0  0
 13 14  1  0  0  0  0
 14 15  2  0  0  0  0
 14 16  1  0  0  0  0
 16 17  1  0  0  0  0
 16 20  1  0  0  0  0
 17 18  1  0  0  0  0
 18 19  2  0  0  0  0
 20 21  1  0  0  0  0
 21 22  1  0  0  0  0
 22 23  1  0  0  0  0
 23 24  1  0  0  0  0
 24 25  1  0  0  0  0
 24 26  2  0  0  0  0
M  STY  1   1 DAT
M  SAL   1  1   5
M  SDT   1 MRV_IMPLICIT_H                                        
M  SDD   1     0.0000    0.0000    DR    ALL  0       0  
M  SED   1 IMPL_H1
M  END
>  <Name_Molregno>
443503

>  <5-HT1A>
5

>  <5-HT1D>
5

>  <5-HT2A>
5

>  <5-HT2C>
5.33

>  <5-HT3>
5

>  <5-HT5>
5

>  <5-HT6>
5

>  <5-HT7>
5

$$$$
448838
  Marvin  02231216192D 0   1.00000     0.00000     0

 35 39  0  0  0  0  0  0  0  0999 V2000
   -1.4572   -7.8444    0.0000 F   0  0  0  0  0  0  0  0  0
   -1.0447   -7.1300    0.0000 C   0  0  0  0  0  0  0  0  0
   -0.3302   -7.5425    0.0000 F   0  0  0  0  0  0  0  0  0
   -1.7591   -6.7175    0.0000 F   0  0  0  0  0  0  0  0  0
   -0.6322   -6.4155    0.0000 C   0  0  0  0  0  0  0  0  0
    0.1883   -6.3293    0.0000 N   0  0  0  0  0  0  0  0  0
    0.3598   -5.5223    0.0000 C   0  0  0  0  0  0  0  0  0
   -0.3546   -5.1098    0.0000 C   0  0  0  0  0  0  0  0  0
   -0.9677   -5.6618    0.0000 N   0  0  0  0  0  0  0  0  0
   -0.3546   -4.2848    0.0000 C   0  0  0  0  0  0  0  0  0
   -1.0691   -3.8723    0.0000 N   0  0  0  0  0  0  0  0  0
   -1.7836   -4.2848    0.0000 C   0  0  0  0  0  0  0  0  0
   -2.4980   -3.8723    0.0000 C   0  0  0  0  0  0  0  0  0
   -2.4980   -3.0473    0.0000 N   0  0  0  0  0  0  0  0  0
   -1.7836   -2.6348    0.0000 C   0  0  0  0  0  0  0  0  0
   -1.0691   -3.0473    0.0000 C   0  0  0  0  0  0  0  0  0
   -3.2125   -2.6348    0.0000 C   0  0  0  0  0  0  0  0  0
   -3.2125   -1.8098    0.0000 C   0  0  0  0  0  0  0  0  0
   -3.9270   -1.3973    0.0000 O   0  0  0  0  0  0  0  0  0
   -3.9270   -0.5723    0.0000 C   0  0  0  0  0  0  0  0  0
   -4.6415   -0.1598    0.0000 C   0  0  0  0  0  0  0  0  0
   -5.4261   -0.4147    0.0000 N   0  0  0  0  0  0  0  0  0
   -5.9110    0.2527    0.0000 C   0  0  0  0  0  0  0  0  0
   -5.4261    0.9202    0.0000 N   0  0  0  0  0  0  0  0  0
   -4.6415    0.6652    0.0000 C   0  0  0  0  0  0  0  0  0
   -3.9270    1.0777    0.0000 C   0  0  0  0  0  0  0  0  0
   -3.2125    0.6652    0.0000 C   0  0  0  0  0  0  0  0  0
   -3.2125   -0.1598    0.0000 C   0  0  0  0  0  0  0  0  0
   -6.7360    0.2527    0.0000 C   0  0  0  0  0  0  0  0  0
   -7.5610    0.2527    0.0000 F   0  0  0  0  0  0  0  0  0
   -6.7360    1.0777    0.0000 F   0  0  0  0  0  0  0  0  0
   -6.7360   -0.5723    0.0000 F   0  0  0  0  0  0  0  0  0
    0.3598   -3.8723    0.0000 C   0  0  0  0  0  0  0  0  0
    1.0743   -4.2848    0.0000 C   0  0  0  0  0  0  0  0  0
    1.0743   -5.1098    0.0000 C   0  0  0  0  0  0  0  0  0
  1  2  1  0  0  0  0
  2  3  1  0  0  0  0
  2  4  1  0  0  0  0
  2  5  1  0  0  0  0
  5  6  4  0  0  0  0
  5  9  4  0  0  0  0
  6  7  4  0  0  0  0
  7  8  4  0  0  0  0
  7 35  4  0  0  0  0
  8  9  4  0  0  0  0
  8 10  4  0  0  0  0
 10 11  1  0  0  0  0
 10 33  4  0  0  0  0
 11 12  1  0  0  0  0
 11 16  1  0  0  0  0
 12 13  1  0  0  0  0
 13 14  1  0  0  0  0
 14 15  1  0  0  0  0
 14 17  1  0  0  0  0
 15 16  1  0  0  0  0
 17 18  1  0  0  0  0
 18 19  1  0  0  0  0
 19 20  1  0  0  0  0
 20 21  4  0  0  0  0
 20 28  4  0  0  0  0
 21 22  4  0  0  0  0
 21 25  4  0  0  0  0
 22 23  4  0  0  0  0
 23 24  4  0  0  0  0
 23 29  1  0  0  0  0
 24 25  4  0  0  0  0
 25 26  4  0  0  0  0
 26 27  4  0  0  0  0
 27 28  4  0  0  0  0
 29 30  1  0  0  0  0
 29 31  1  0  0  0  0
 29 32  1  0  0  0  0
 33 34  4  0  0  0  0
 34 35  4  0  0  0  0
M  STY  2   1 DAT   2 DAT
M  SAL   1  1   6
M  SDT   1 MRV_IMPLICIT_H                                        
M  SDD   1     0.0000    0.0000    DR    ALL  0       0  
M  SED   1 IMPL_H1
M  SAL   2  1  22
M  SDT   2 MRV_IMPLICIT_H                                        
M  SDD   2     0.0000    0.0000    DR    ALL  0       0  
M  SED   2 IMPL_H1
M  END
>  <Name_Molregno>
448838

>  <5-HT1A>
7.72

>  <5-HT1B>
7.22

>  <5-HT1D>
9.26

$$$$
448839
  Marvin  02231216192D 0   1.00000     0.00000     0

 32 36  0  0  0  0  0  0  0  0999 V2000
   -2.1879   -0.4989    0.0000 S   0  0  0  0  0  0  0  0  0
   -2.6004   -1.2133    0.0000 C   0  0  0  0  0  0  0  0  0
   -3.4209   -1.2996    0.0000 N   0  0  0  0  0  0  0  0  0
   -3.5924   -2.1065    0.0000 C   0  0  0  0  0  0  0  0  0
   -2.8780   -2.5190    0.0000 C   0  0  0  0  0  0  0  0  0
   -2.2649   -1.9670    0.0000 N   0  0  0  0  0  0  0  0  0
   -2.8780   -3.3440    0.0000 C   0  0  0  0  0  0  0  0  0
   -3.5924   -3.7565    0.0000 C   0  0  0  0  0  0  0  0  0
   -4.3069   -3.3440    0.0000 C   0  0  0  0  0  0  0  0  0
   -4.3069   -2.5190    0.0000 C   0  0  0  0  0  0  0  0  0
   -5.0214   -2.1065    0.0000 O   0  0  0  0  0  0  0  0  0
   -5.0214   -1.2815    0.0000 C   0  0  0  0  0  0  0  0  0
   -5.7359   -0.8690    0.0000 C   0  0  0  0  0  0  0  0  0
   -5.7359   -0.0440    0.0000 N   0  0  0  0  0  0  0  0  0
   -6.4503    0.3685    0.0000 C   0  0  0  0  0  0  0  0  0
   -6.4503    1.1935    0.0000 C   0  0  0  0  0  0  0  0  0
   -5.7359    1.6060    0.0000 N   0  0  0  0  0  0  0  0  0
   -5.0214    1.1935    0.0000 C   0  0  0  0  0  0  0  0  0
   -5.0214    0.3685    0.0000 C   0  0  0  0  0  0  0  0  0
   -5.7359    2.4310    0.0000 C   0  0  0  0  0  0  0  0  0
   -6.4503    2.8435    0.0000 C   0  0  0  0  0  0  0  0  0
   -7.2349    2.5885    0.0000 N   0  0  0  0  0  0  0  0  0
   -7.7199    3.2560    0.0000 C   0  0  0  0  0  0  0  0  0
   -7.2349    3.9234    0.0000 N   0  0  0  0  0  0  0  0  0
   -6.4503    3.6685    0.0000 C   0  0  0  0  0  0  0  0  0
   -5.7359    4.0810    0.0000 C   0  0  0  0  0  0  0  0  0
   -5.0214    3.6685    0.0000 C   0  0  0  0  0  0  0  0  0
   -5.0214    2.8435    0.0000 C   0  0  0  0  0  0  0  0  0
   -8.5449    3.2560    0.0000 C   0  0  0  0  0  0  0  0  0
   -9.3699    3.2560    0.0000 F   0  0  0  0  0  0  0  0  0
   -8.5449    4.0810    0.0000 F   0  0  0  0  0  0  0  0  0
   -8.5449    2.4310    0.0000 F   0  0  0  0  0  0  0  0  0
  1  2  2  0  0  0  0
  2  3  1  0  0  0  0
  2  6  1  0  0  0  0
  3  4  1  0  0  0  0
  4  5  4  0  0  0  0
  4 10  4  0  0  0  0
  5  6  1  0  0  0  0
  5  7  4  0  0  0  0
  7  8  4  0  0  0  0
  8  9  4  0  0  0  0
  9 10  4  0  0  0  0
 10 11  1  0  0  0  0
 11 12  1  0  0  0  0
 12 13  1  0  0  0  0
 13 14  1  0  0  0  0
 14 15  1  0  0  0  0
 14 19  1  0  0  0  0
 15 16  1  0  0  0  0
 16 17  1  0  0  0  0
 17 18  1  0  0  0  0
 17 20  1  0  0  0  0
 18 19  1  0  0  0  0
 20 21  4  0  0  0  0
 20 28  4  0  0  0  0
 21 22  4  0  0  0  0
 21 25  4  0  0  0  0
 22 23  4  0  0  0  0
 23 24  4  0  0  0  0
 23 29  1  0  0  0  0
 24 25  4  0  0  0  0
 25 26  4  0  0  0  0
 26 27  4  0  0  0  0
 27 28  4  0  0  0  0
 29 30  1  0  0  0  0
 29 31  1  0  0  0  0
 29 32  1  0  0  0  0
M  STY  1   1 DAT
M  SAL   1  1  24
M  SDT   1 MRV_IMPLICIT_H                                        
M  SDD   1     0.0000    0.0000    DR    ALL  0       0  
M  SED   1 IMPL_H1
M  END
>  <Name_Molregno>
448839

>  <5-HT1A>
8.55

$$$$
462554
  Marvin  02231216192D 0   1.00000     0.00000     0

 25 28  0  0  1  0  0  0  0  0999 V2000
    0.2291    2.9267    0.0000 O   0  0  0  0  0  0  0  0  0
    0.2291    3.7517    0.0000 C   0  0  0  0  0  0  0  0  0
   -0.4854    2.5142    0.0000 C   0  0  0  0  0  0  0  0  0
   -0.4854    1.6892    0.0000 C   0  0  0  0  0  0  0  0  0
    0.2291    1.2767    0.0000 C   0  0  0  0  0  0  0  0  0
    0.9436    1.6892    0.0000 C   0  0  0  0  0  0  0  0  0
    1.6581    1.2767    0.0000 C   0  0  0  0  0  0  0  0  0
    2.3725    1.6892    0.0000 O   0  0  0  0  0  0  0  0  0
    3.0870    1.2767    0.0000 C   0  0  0  0  0  0  0  0  0
    1.6581    0.4517    0.0000 C   0  0  0  0  0  0  0  0  0
    2.3725    0.0392    0.0000 O   0  0  0  0  0  0  0  0  0
    0.9436    0.0392    0.0000 C   0  0  0  0  0  0  0  0  0
    0.2291    0.4517    0.0000 C   0  0  0  0  0  0  0  0  0
   -0.4854    0.0392    0.0000 C   0  0  0  0  0  0  0  0  0
   -1.1998    0.4517    0.0000 C   0  0  0  0  0  0  0  0  0
   -1.9143    0.0392    0.0000 N   0  0  0  0  0  0  0  0  0
   -2.6288    0.4517    0.0000 C   0  0  0  0  0  0  0  0  0
   -2.6288    1.2767    0.0000 C   0  0  0  0  0  0  0  0  0
   -1.9143    1.6892    0.0000 C   0  0  0  0  0  0  0  0  0
   -1.9143    2.5142    0.0000 C   0  0  0  0  0  0  0  0  0
   -1.1998    2.9267    0.0000 C   0  0  0  0  0  0  0  0  0
   -1.1998    3.7517    0.0000 O   0  0  0  0  0  0  0  0  0
   -1.9143    4.1642    0.0000 C   0  0  0  0  0  0  0  0  0
   -1.1998    1.2767    0.0000 C   0  0  0  0  0  0  0  0  0
   -1.9143   -0.7858    0.0000 C   0  0  0  0  0  0  0  0  0
  1  2  1  0  0  0  0
  1  3  1  0  0  0  0
  3  4  4  0  0  0  0
  3 21  4  0  0  0  0
  4  5  1  0  0  0  0
  4 24  4  0  0  0  0
  5  6  4  0  0  0  0
  5 13  4  0  0  0  0
  6  7  4  0  0  0  0
  7  8  1  0  0  0  0
  7 10  4  0  0  0  0
  8  9  1  0  0  0  0
 10 11  1  0  0  0  0
 10 12  4  0  0  0  0
 12 13  4  0  0  0  0
 13 14  1  0  0  0  0
 14 15  1  0  0  0  0
 15 16  1  0  0  0  0
 15 24  1  0  0  0  0
 16 17  1  0  0  0  0
 16 25  1  0  0  0  0
 17 18  1  0  0  0  0
 18 19  1  0  0  0  0
 19 20  4  0  0  0  0
 19 24  4  0  0  0  0
 20 21  4  0  0  0  0
 21 22  1  0  0  0  0
 22 23  1  0  0  0  0
M  END
>  <Name_Molregno>
462554

>  <5-HT1A>
7.07

$$$$
467698
  Marvin  02231216192D 0   1.00000     0.00000     0

 34 39  0  0  0  0  0  0  0  0999 V2000
   -5.5154    4.4583    0.0000 N   0  0  0  0  0  0  0  0  0
   -6.1828    3.9734    0.0000 C   0  0  0  0  0  0  0  0  0
   -5.9279    3.1888    0.0000 C   0  0  0  0  0  0  0  0  0
   -5.1029    3.1888    0.0000 C   0  0  0  0  0  0  0  0  0
   -4.8479    3.9734    0.0000 C   0  0  0  0  0  0  0  0  0
   -6.4799    2.5757    0.0000 C   0  0  0  0  0  0  0  0  0
   -6.2250    1.7911    0.0000 N   0  0  0  0  0  0  0  0  0
   -5.4180    1.6195    0.0000 C   0  0  0  0  0  0  0  0  0
   -5.1631    0.8349    0.0000 C   0  0  0  0  0  0  0  0  0
   -5.7151    0.2218    0.0000 N   0  0  0  0  0  0  0  0  0
   -6.5221    0.3933    0.0000 C   0  0  0  0  0  0  0  0  0
   -6.7770    1.1780    0.0000 C   0  0  0  0  0  0  0  0  0
   -5.4602   -0.5628    0.0000 C   0  0  0  0  0  0  0  0  0
   -4.6532   -0.7343    0.0000 C   0  0  0  0  0  0  0  0  0
   -4.3982   -1.5190    0.0000 C   0  0  0  0  0  0  0  0  0
   -4.9503   -2.1321    0.0000 C   0  0  0  0  0  0  0  0  0
   -5.7572   -1.9605    0.0000 C   0  0  0  0  0  0  0  0  0
   -6.0122   -1.1759    0.0000 C   0  0  0  0  0  0  0  0  0
   -4.6953   -2.9167    0.0000 C   0  0  0  0  0  0  0  0  0
   -3.9107   -3.1716    0.0000 C   0  0  0  0  0  0  0  0  0
   -3.1962   -2.7591    0.0000 C   0  0  0  0  0  0  0  0  0
   -2.4818   -3.1716    0.0000 C   0  0  0  0  0  0  0  0  0
   -2.4818   -3.9966    0.0000 C   0  0  0  0  0  0  0  0  0
   -3.1962   -4.4091    0.0000 C   0  0  0  0  0  0  0  0  0
   -3.9107   -3.9966    0.0000 C   0  0  0  0  0  0  0  0  0
   -4.6953   -4.2516    0.0000 N   0  0  0  0  0  0  0  0  0
   -5.1803   -3.5841    0.0000 C   0  0  0  0  0  0  0  0  0
   -4.9503   -5.0362    0.0000 C   0  0  0  0  0  0  0  0  0
   -5.7572   -5.2077    0.0000 C   0  0  0  0  0  0  0  0  0
   -1.7673   -2.7591    0.0000 C   0  0  0  0  0  0  0  0  0
   -1.0528   -2.3466    0.0000 N   0  0  0  0  0  0  0  0  0
   -7.2869    2.7472    0.0000 C   0  0  0  0  0  0  0  0  0
   -7.5418    3.5318    0.0000 C   0  0  0  0  0  0  0  0  0
   -6.9898    4.1449    0.0000 C   0  0  0  0  0  0  0  0  0
  1  2  4  0  0  0  0
  1  5  4  0  0  0  0
  2  3  4  0  0  0  0
  2 34  4  0  0  0  0
  3  4  4  0  0  0  0
  3  6  4  0  0  0  0
  4  5  4  0  0  0  0
  6  7  1  0  0  0  0
  6 32  4  0  0  0  0
  7  8  1  0  0  0  0
  7 12  1  0  0  0  0
  8  9  1  0  0  0  0
  9 10  1  0  0  0  0
 10 11  1  0  0  0  0
 10 13  1  0  0  0  0
 11 12  1  0  0  0  0
 13 14  1  0  0  0  0
 13 18  1  0  0  0  0
 14 15  1  0  0  0  0
 15 16  1  0  0  0  0
 16 17  1  0  0  0  0
 16 19  1  0  0  0  0
 17 18  1  0  0  0  0
 19 20  4  0  0  0  0
 19 27  4  0  0  0  0
 20 21  4  0  0  0  0
 20 25  4  0  0  0  0
 21 22  4  0  0  0  0
 22 23  4  0  0  0  0
 22 30  1  0  0  0  0
 23 24  4  0  0  0  0
 24 25  4  0  0  0  0
 25 26  4  0  0  0  0
 26 27  4  0  0  0  0
 26 28  1  0  0  0  0
 28 29  1  0  0  0  0
 30 31  3  0  0  0  0
 32 33  4  0  0  0  0
 33 34  4  0  0  0  0
M  STY  1   1 DAT
M  SAL   1  1   1
M  SDT   1 MRV_IMPLICIT_H                                        
M  SDD   1     0.0000    0.0000    DR    ALL  0       0  
M  SED   1 IMPL_H1
M  END
>  <Name_Molregno>
467698

>  <5-HT1A>
6.16

$$$$
467699
  Marvin  02231216192D 0   1.00000     0.00000     0

 35 40  0  0  0  0  0  0  0  0999 V2000
   -5.5418    4.2284    0.0000 N   0  0  0  0  0  0  0  0  0
   -6.2092    3.7435    0.0000 C   0  0  0  0  0  0  0  0  0
   -5.9543    2.9589    0.0000 C   0  0  0  0  0  0  0  0  0
   -5.1293    2.9589    0.0000 C   0  0  0  0  0  0  0  0  0
   -4.8743    3.7435    0.0000 C   0  0  0  0  0  0  0  0  0
   -6.5063    2.3458    0.0000 C   0  0  0  0  0  0  0  0  0
   -6.2514    1.5611    0.0000 N   0  0  0  0  0  0  0  0  0
   -5.4444    1.3896    0.0000 C   0  0  0  0  0  0  0  0  0
   -5.1895    0.6050    0.0000 C   0  0  0  0  0  0  0  0  0
   -5.7415   -0.0081    0.0000 N   0  0  0  0  0  0  0  0  0
   -6.5485    0.1634    0.0000 C   0  0  0  0  0  0  0  0  0
   -6.8034    0.9480    0.0000 C   0  0  0  0  0  0  0  0  0
   -5.4866   -0.7927    0.0000 C   0  0  0  0  0  0  0  0  0
   -4.6796   -0.9643    0.0000 C   0  0  0  0  0  0  0  0  0
   -4.4247   -1.7489    0.0000 C   0  0  0  0  0  0  0  0  0
   -4.9767   -2.3620    0.0000 C   0  0  0  0  0  0  0  0  0
   -5.7837   -2.1904    0.0000 C   0  0  0  0  0  0  0  0  0
   -6.0386   -1.4058    0.0000 C   0  0  0  0  0  0  0  0  0
   -4.7217   -3.1466    0.0000 C   0  0  0  0  0  0  0  0  0
   -3.9371   -3.4015    0.0000 C   0  0  0  0  0  0  0  0  0
   -3.2227   -2.9890    0.0000 C   0  0  0  0  0  0  0  0  0
   -2.5082   -3.4015    0.0000 C   0  0  0  0  0  0  0  0  0
   -2.5082   -4.2265    0.0000 C   0  0  0  0  0  0  0  0  0
   -3.2227   -4.6390    0.0000 C   0  0  0  0  0  0  0  0  0
   -3.9371   -4.2265    0.0000 C   0  0  0  0  0  0  0  0  0
   -4.7217   -4.4815    0.0000 N   0  0  0  0  0  0  0  0  0
   -5.2067   -3.8140    0.0000 C   0  0  0  0  0  0  0  0  0
   -4.9767   -5.2661    0.0000 C   0  0  0  0  0  0  0  0  0
   -5.7837   -5.4376    0.0000 C   0  0  0  0  0  0  0  0  0
   -6.0386   -6.2222    0.0000 C   0  0  0  0  0  0  0  0  0
   -1.7937   -2.9890    0.0000 C   0  0  0  0  0  0  0  0  0
   -1.0792   -2.5765    0.0000 N   0  0  0  0  0  0  0  0  0
   -7.3133    2.5173    0.0000 C   0  0  0  0  0  0  0  0  0
   -7.5682    3.3019    0.0000 C   0  0  0  0  0  0  0  0  0
   -7.0162    3.9150    0.0000 C   0  0  0  0  0  0  0  0  0
  1  2  4  0  0  0  0
  1  5  4  0  0  0  0
  2  3  4  0  0  0  0
  2 35  4  0  0  0  0
  3  4  4  0  0  0  0
  3  6  4  0  0  0  0
  4  5  4  0  0  0  0
  6  7  1  0  0  0  0
  6 33  4  0  0  0  0
  7  8  1  0  0  0  0
  7 12  1  0  0  0  0
  8  9  1  0  0  0  0
  9 10  1  0  0  0  0
 10 11  1  0  0  0  0
 10 13  1  0  0  0  0
 11 12  1  0  0  0  0
 13 14  1  0  0  0  0
 13 18  1  0  0  0  0
 14 15  1  0  0  0  0
 15 16  1  0  0  0  0
 16 17  1  0  0  0  0
 16 19  1  0  0  0  0
 17 18  1  0  0  0  0
 19 20  4  0  0  0  0
 19 27  4  0  0  0  0
 20 21  4  0  0  0  0
 20 25  4  0  0  0  0
 21 22  4  0  0  0  0
 22 23  4  0  0  0  0
 22 31  1  0  0  0  0
 23 24  4  0  0  0  0
 24 25  4  0  0  0  0
 25 26  4  0  0  0  0
 26 27  4  0  0  0  0
 26 28  1  0  0  0  0
 28 29  1  0  0  0  0
 29 30  1  0  0  0  0
 31 32  3  0  0  0  0
 33 34  4  0  0  0  0
 34 35  4  0  0  0  0
M  STY  1   1 DAT
M  SAL   1  1   1
M  SDT   1 MRV_IMPLICIT_H                                        
M  SDD   1     0.0000    0.0000    DR    ALL  0       0  
M  SED   1 IMPL_H1
M  END
>  <Name_Molregno>
467699

>  <5-HT1A>
6.09

$$$$
467701
  Marvin  02231216192D 0   1.00000     0.00000     0

 35 40  0  0  0  0  0  0  0  0999 V2000
   -5.6637    4.6317    0.0000 N   0  0  0  0  0  0  0  0  0
   -6.3311    4.1468    0.0000 C   0  0  0  0  0  0  0  0  0
   -6.0762    3.3621    0.0000 C   0  0  0  0  0  0  0  0  0
   -5.2512    3.3621    0.0000 C   0  0  0  0  0  0  0  0  0
   -4.9962    4.1468    0.0000 C   0  0  0  0  0  0  0  0  0
   -6.6282    2.7491    0.0000 C   0  0  0  0  0  0  0  0  0
   -6.3733    1.9644    0.0000 N   0  0  0  0  0  0  0  0  0
   -5.5663    1.7929    0.0000 C   0  0  0  0  0  0  0  0  0
   -5.3113    1.0083    0.0000 C   0  0  0  0  0  0  0  0  0
   -5.8634    0.3952    0.0000 N   0  0  0  0  0  0  0  0  0
   -6.6704    0.5667    0.0000 C   0  0  0  0  0  0  0  0  0
   -6.9253    1.3513    0.0000 C   0  0  0  0  0  0  0  0  0
   -5.6084   -0.3894    0.0000 C   0  0  0  0  0  0  0  0  0
   -4.8015   -0.5610    0.0000 C   0  0  0  0  0  0  0  0  0
   -4.5465   -1.3456    0.0000 C   0  0  0  0  0  0  0  0  0
   -5.0986   -1.9587    0.0000 C   0  0  0  0  0  0  0  0  0
   -5.9055   -1.7871    0.0000 C   0  0  0  0  0  0  0  0  0
   -6.1605   -1.0025    0.0000 C   0  0  0  0  0  0  0  0  0
   -4.8436   -2.7433    0.0000 C   0  0  0  0  0  0  0  0  0
   -4.0590   -2.9982    0.0000 C   0  0  0  0  0  0  0  0  0
   -3.3445   -2.5857    0.0000 C   0  0  0  0  0  0  0  0  0
   -2.6301   -2.9982    0.0000 C   0  0  0  0  0  0  0  0  0
   -2.6301   -3.8232    0.0000 C   0  0  0  0  0  0  0  0  0
   -3.3445   -4.2357    0.0000 C   0  0  0  0  0  0  0  0  0
   -4.0590   -3.8232    0.0000 C   0  0  0  0  0  0  0  0  0
   -4.8436   -4.0782    0.0000 N   0  0  0  0  0  0  0  0  0
   -5.3285   -3.4107    0.0000 C   0  0  0  0  0  0  0  0  0
   -5.0986   -4.8628    0.0000 C   0  0  0  0  0  0  0  0  0
   -5.9055   -5.0343    0.0000 C   0  0  0  0  0  0  0  0  0
   -4.5465   -5.4759    0.0000 C   0  0  0  0  0  0  0  0  0
   -1.9156   -2.5857    0.0000 C   0  0  0  0  0  0  0  0  0
   -1.2011   -2.1732    0.0000 N   0  0  0  0  0  0  0  0  0
   -7.4352    2.9206    0.0000 C   0  0  0  0  0  0  0  0  0
   -7.6901    3.7052    0.0000 C   0  0  0  0  0  0  0  0  0
   -7.1381    4.3183    0.0000 C   0  0  0  0  0  0  0  0  0
  1  2  4  0  0  0  0
  1  5  4  0  0  0  0
  2  3  4  0  0  0  0
  2 35  4  0  0  0  0
  3  4  4  0  0  0  0
  3  6  4  0  0  0  0
  4  5  4  0  0  0  0
  6  7  1  0  0  0  0
  6 33  4  0  0  0  0
  7  8  1  0  0  0  0
  7 12  1  0  0  0  0
  8  9  1  0  0  0  0
  9 10  1  0  0  0  0
 10 11  1  0  0  0  0
 10 13  1  0  0  0  0
 11 12  1  0  0  0  0
 13 14  1  0  0  0  0
 13 18  1  0  0  0  0
 14 15  1  0  0  0  0
 15 16  1  0  0  0  0
 16 17  1  0  0  0  0
 16 19  1  0  0  0  0
 17 18  1  0  0  0  0
 19 20  4  0  0  0  0
 19 27  4  0  0  0  0
 20 21  4  0  0  0  0
 20 25  4  0  0  0  0
 21 22  4  0  0  0  0
 22 23  4  0  0  0  0
 22 31  1  0  0  0  0
 23 24  4  0  0  0  0
 24 25  4  0  0  0  0
 25 26  4  0  0  0  0
 26 27  4  0  0  0  0
 26 28  1  0  0  0  0
 28 29  1  0  0  0  0
 28 30  1  0  0  0  0
 31 32  3  0  0  0  0
 33 34  4  0  0  0  0
 34 35  4  0  0  0  0
M  STY  1   1 DAT
M  SAL   1  1   1
M  SDT   1 MRV_IMPLICIT_H                                        
M  SDD   1     0.0000    0.0000    DR    ALL  0       0  
M  SED   1 IMPL_H1
M  END
>  <Name_Molregno>
467701

>  <5-HT1A>
6.16

$$$$
467922
  Marvin  02231216192D 0   1.00000     0.00000     0

 32 37  0  0  0  0  0  0  0  0999 V2000
   -5.6176   -5.8337    0.0000 O   0  0  0  0  0  0  0  0  0
   -6.1697   -6.4468    0.0000 C   0  0  0  0  0  0  0  0  0
   -4.8107   -6.0052    0.0000 C   0  0  0  0  0  0  0  0  0
   -4.2586   -5.3921    0.0000 C   0  0  0  0  0  0  0  0  0
   -3.4517   -5.5637    0.0000 C   0  0  0  0  0  0  0  0  0
   -3.1967   -6.3483    0.0000 C   0  0  0  0  0  0  0  0  0
   -2.3717   -6.3483    0.0000 N   0  0  0  0  0  0  0  0  0
   -2.1168   -5.5637    0.0000 C   0  0  0  0  0  0  0  0  0
   -2.7842   -5.0787    0.0000 C   0  0  0  0  0  0  0  0  0
   -2.7842   -4.2537    0.0000 C   0  0  0  0  0  0  0  0  0
   -3.4987   -3.8412    0.0000 C   0  0  0  0  0  0  0  0  0
   -3.4987   -3.0162    0.0000 C   0  0  0  0  0  0  0  0  0
   -2.7842   -2.6037    0.0000 C   0  0  0  0  0  0  0  0  0
   -2.7842   -1.7787    0.0000 N   0  0  0  0  0  0  0  0  0
   -3.4987   -1.3662    0.0000 C   0  0  0  0  0  0  0  0  0
   -3.4987   -0.5412    0.0000 C   0  0  0  0  0  0  0  0  0
   -2.7842   -0.1287    0.0000 N   0  0  0  0  0  0  0  0  0
   -2.0698   -0.5412    0.0000 C   0  0  0  0  0  0  0  0  0
   -2.0698   -1.3662    0.0000 C   0  0  0  0  0  0  0  0  0
   -2.7842    0.6963    0.0000 C   0  0  0  0  0  0  0  0  0
   -3.4987    1.1088    0.0000 C   0  0  0  0  0  0  0  0  0
   -3.4987    1.9338    0.0000 C   0  0  0  0  0  0  0  0  0
   -4.2833    2.1887    0.0000 N   0  0  0  0  0  0  0  0  0
   -4.7682    1.5213    0.0000 C   0  0  0  0  0  0  0  0  0
   -4.2833    0.8538    0.0000 C   0  0  0  0  0  0  0  0  0
   -2.7842    2.3463    0.0000 C   0  0  0  0  0  0  0  0  0
   -2.0698    1.9338    0.0000 C   0  0  0  0  0  0  0  0  0
   -2.0698    1.1088    0.0000 C   0  0  0  0  0  0  0  0  0
   -2.0698   -3.0162    0.0000 C   0  0  0  0  0  0  0  0  0
   -2.0698   -3.8412    0.0000 C   0  0  0  0  0  0  0  0  0
   -3.7488   -6.9614    0.0000 C   0  0  0  0  0  0  0  0  0
   -4.5557   -6.7899    0.0000 C   0  0  0  0  0  0  0  0  0
  1  2  1  0  0  0  0
  1  3  1  0  0  0  0
  3  4  4  0  0  0  0
  3 32  4  0  0  0  0
  4  5  4  0  0  0  0
  5  6  4  0  0  0  0
  5  9  4  0  0  0  0
  6  7  4  0  0  0  0
  6 31  4  0  0  0  0
  7  8  4  0  0  0  0
  8  9  4  0  0  0  0
  9 10  1  0  0  0  0
 10 11  1  0  0  0  0
 10 30  1  0  0  0  0
 11 12  1  0  0  0  0
 12 13  1  0  0  0  0
 13 14  1  0  0  0  0
 13 29  1  0  0  0  0
 14 15  1  0  0  0  0
 14 19  1  0  0  0  0
 15 16  1  0  0  0  0
 16 17  1  0  0  0  0
 17 18  1  0  0  0  0
 17 20  1  0  0  0  0
 18 19  1  0  0  0  0
 20 21  4  0  0  0  0
 20 28  4  0  0  0  0
 21 22  4  0  0  0  0
 21 25  4  0  0  0  0
 22 23  4  0  0  0  0
 22 26  4  0  0  0  0
 23 24  4  0  0  0  0
 24 25  4  0  0  0  0
 26 27  4  0  0  0  0
 27 28  4  0  0  0  0
 29 30  1  0  0  0  0
 31 32  4  0  0  0  0
M  STY  2   1 DAT   2 DAT
M  SAL   1  1   7
M  SDT   1 MRV_IMPLICIT_H                                        
M  SDD   1     0.0000    0.0000    DR    ALL  0       0  
M  SED   1 IMPL_H1
M  SAL   2  1  23
M  SDT   2 MRV_IMPLICIT_H                                        
M  SDD   2     0.0000    0.0000    DR    ALL  0       0  
M  SED   2 IMPL_H1
M  END
>  <Name_Molregno>
467922

>  <5-HT1A>
7.88

$$$$
467924
  Marvin  02231216192D 0   1.00000     0.00000     0

 31 36  0  0  0  0  0  0  0  0999 V2000
   -5.8329   -6.0632    0.0000 Cl  0  0  0  0  0  0  0  0  0
   -5.0259   -6.2347    0.0000 C   0  0  0  0  0  0  0  0  0
   -4.4739   -5.6216    0.0000 C   0  0  0  0  0  0  0  0  0
   -3.6669   -5.7932    0.0000 C   0  0  0  0  0  0  0  0  0
   -3.4120   -6.5778    0.0000 C   0  0  0  0  0  0  0  0  0
   -2.5870   -6.5778    0.0000 N   0  0  0  0  0  0  0  0  0
   -2.3321   -5.7932    0.0000 C   0  0  0  0  0  0  0  0  0
   -2.9995   -5.3082    0.0000 C   0  0  0  0  0  0  0  0  0
   -2.9995   -4.4832    0.0000 C   0  0  0  0  0  0  0  0  0
   -3.7140   -4.0707    0.0000 C   0  0  0  0  0  0  0  0  0
   -3.7140   -3.2457    0.0000 C   0  0  0  0  0  0  0  0  0
   -2.9995   -2.8332    0.0000 C   0  0  0  0  0  0  0  0  0
   -2.9995   -2.0082    0.0000 N   0  0  0  0  0  0  0  0  0
   -3.7140   -1.5957    0.0000 C   0  0  0  0  0  0  0  0  0
   -3.7140   -0.7707    0.0000 C   0  0  0  0  0  0  0  0  0
   -2.9995   -0.3582    0.0000 N   0  0  0  0  0  0  0  0  0
   -2.2850   -0.7707    0.0000 C   0  0  0  0  0  0  0  0  0
   -2.2850   -1.5957    0.0000 C   0  0  0  0  0  0  0  0  0
   -2.9995    0.4668    0.0000 C   0  0  0  0  0  0  0  0  0
   -3.7140    0.8793    0.0000 C   0  0  0  0  0  0  0  0  0
   -3.7140    1.7043    0.0000 C   0  0  0  0  0  0  0  0  0
   -4.4986    1.9592    0.0000 N   0  0  0  0  0  0  0  0  0
   -4.9835    1.2918    0.0000 C   0  0  0  0  0  0  0  0  0
   -4.4986    0.6243    0.0000 C   0  0  0  0  0  0  0  0  0
   -2.9995    2.1168    0.0000 C   0  0  0  0  0  0  0  0  0
   -2.2850    1.7043    0.0000 C   0  0  0  0  0  0  0  0  0
   -2.2850    0.8793    0.0000 C   0  0  0  0  0  0  0  0  0
   -2.2850   -3.2457    0.0000 C   0  0  0  0  0  0  0  0  0
   -2.2850   -4.0707    0.0000 C   0  0  0  0  0  0  0  0  0
   -3.9640   -7.1909    0.0000 C   0  0  0  0  0  0  0  0  0
   -4.7710   -7.0193    0.0000 C   0  0  0  0  0  0  0  0  0
  1  2  1  0  0  0  0
  2  3  4  0  0  0  0
  2 31  4  0  0  0  0
  3  4  4  0  0  0  0
  4  5  4  0  0  0  0
  4  8  4  0  0  0  0
  5  6  4  0  0  0  0
  5 30  4  0  0  0  0
  6  7  4  0  0  0  0
  7  8  4  0  0  0  0
  8  9  1  0  0  0  0
  9 10  1  0  0  0  0
  9 29  1  0  0  0  0
 10 11  1  0  0  0  0
 11 12  1  0  0  0  0
 12 13  1  0  0  0  0
 12 28  1  0  0  0  0
 13 14  1  0  0  0  0
 13 18  1  0  0  0  0
 14 15  1  0  0  0  0
 15 16  1  0  0  0  0
 16 17  1  0  0  0  0
 16 19  1  0  0  0  0
 17 18  1  0  0  0  0
 19 20  4  0  0  0  0
 19 27  4  0  0  0  0
 20 21  4  0  0  0  0
 20 24  4  0  0  0  0
 21 22  4  0  0  0  0
 21 25  4  0  0  0  0
 22 23  4  0  0  0  0
 23 24  4  0  0  0  0
 25 26  4  0  0  0  0
 26 27  4  0  0  0  0
 28 29  1  0  0  0  0
 30 31  4  0  0  0  0
M  STY  2   1 DAT   2 DAT
M  SAL   1  1   6
M  SDT   1 MRV_IMPLICIT_H                                        
M  SDD   1     0.0000    0.0000    DR    ALL  0       0  
M  SED   1 IMPL_H1
M  SAL   2  1  22
M  SDT   2 MRV_IMPLICIT_H                                        
M  SDD   2     0.0000    0.0000    DR    ALL  0       0  
M  SED   2 IMPL_H1
M  END
>  <Name_Molregno>
467924

>  <5-HT1A>
6.86

$$$$
468003
  Marvin  02231216192D 0   1.00000     0.00000     0

 31 36  0  0  0  0  0  0  0  0999 V2000
   -4.2311   -4.9810    0.0000 N   0  0  0  0  0  0  0  0  0
   -3.4061   -4.9810    0.0000 C   0  0  0  0  0  0  0  0  0
   -3.1512   -4.1964    0.0000 C   0  0  0  0  0  0  0  0  0
   -2.3442   -4.0248    0.0000 C   0  0  0  0  0  0  0  0  0
   -1.7922   -4.6379    0.0000 C   0  0  0  0  0  0  0  0  0
   -2.0471   -5.4226    0.0000 C   0  0  0  0  0  0  0  0  0
   -2.8541   -5.5941    0.0000 C   0  0  0  0  0  0  0  0  0
   -3.8186   -3.7114    0.0000 C   0  0  0  0  0  0  0  0  0
   -3.8186   -2.8864    0.0000 C   0  0  0  0  0  0  0  0  0
   -4.5331   -2.4739    0.0000 C   0  0  0  0  0  0  0  0  0
   -4.5331   -1.6489    0.0000 C   0  0  0  0  0  0  0  0  0
   -3.8186   -1.2364    0.0000 C   0  0  0  0  0  0  0  0  0
   -3.8186   -0.4114    0.0000 N   0  0  0  0  0  0  0  0  0
   -4.5331    0.0011    0.0000 C   0  0  0  0  0  0  0  0  0
   -4.5331    0.8261    0.0000 C   0  0  0  0  0  0  0  0  0
   -3.8186    1.2386    0.0000 N   0  0  0  0  0  0  0  0  0
   -3.1041    0.8261    0.0000 C   0  0  0  0  0  0  0  0  0
   -3.1041    0.0011    0.0000 C   0  0  0  0  0  0  0  0  0
   -3.8186    2.0636    0.0000 C   0  0  0  0  0  0  0  0  0
   -4.5331    2.4761    0.0000 C   0  0  0  0  0  0  0  0  0
   -4.5331    3.3011    0.0000 C   0  0  0  0  0  0  0  0  0
   -5.3177    3.5560    0.0000 N   0  0  0  0  0  0  0  0  0
   -5.8026    2.8886    0.0000 C   0  0  0  0  0  0  0  0  0
   -5.3177    2.2211    0.0000 C   0  0  0  0  0  0  0  0  0
   -3.8186    3.7136    0.0000 C   0  0  0  0  0  0  0  0  0
   -3.1041    3.3011    0.0000 C   0  0  0  0  0  0  0  0  0
   -3.1041    2.4761    0.0000 C   0  0  0  0  0  0  0  0  0
   -3.1041   -1.6489    0.0000 C   0  0  0  0  0  0  0  0  0
   -3.1041   -2.4739    0.0000 C   0  0  0  0  0  0  0  0  0
   -4.4861   -4.1964    0.0000 C   0  0  0  0  0  0  0  0  0
   -5.2707   -3.9414    0.0000 C   0  0  0  0  0  0  0  0  0
  1  2  4  0  0  0  0
  1 30  4  0  0  0  0
  2  3  4  0  0  0  0
  2  7  4  0  0  0  0
  3  4  4  0  0  0  0
  3  8  4  0  0  0  0
  4  5  4  0  0  0  0
  5  6  4  0  0  0  0
  6  7  4  0  0  0  0
  8  9  1  0  0  0  0
  8 30  4  0  0  0  0
  9 10  1  0  0  0  0
  9 29  1  0  0  0  0
 10 11  1  0  0  0  0
 11 12  1  0  0  0  0
 12 13  1  0  0  0  0
 12 28  1  0  0  0  0
 13 14  1  0  0  0  0
 13 18  1  0  0  0  0
 14 15  1  0  0  0  0
 15 16  1  0  0  0  0
 16 17  1  0  0  0  0
 16 19  1  0  0  0  0
 17 18  1  0  0  0  0
 19 20  4  0  0  0  0
 19 27  4  0  0  0  0
 20 21  4  0  0  0  0
 20 24  4  0  0  0  0
 21 22  4  0  0  0  0
 21 25  4  0  0  0  0
 22 23  4  0  0  0  0
 23 24  4  0  0  0  0
 25 26  4  0  0  0  0
 26 27  4  0  0  0  0
 28 29  1  0  0  0  0
 30 31  1  0  0  0  0
M  STY  2   1 DAT   2 DAT
M  SAL   1  1   1
M  SDT   1 MRV_IMPLICIT_H                                        
M  SDD   1     0.0000    0.0000    DR    ALL  0       0  
M  SED   1 IMPL_H1
M  SAL   2  1  22
M  SDT   2 MRV_IMPLICIT_H                                        
M  SDD   2     0.0000    0.0000    DR    ALL  0       0  
M  SED   2 IMPL_H1
M  END
>  <Name_Molregno>
468003

>  <5-HT1A>
7.47

$$$$
468005
  Marvin  02231216192D 0   1.00000     0.00000     0

 30 35  0  0  0  0  0  0  0  0999 V2000
    4.7160   -3.1728    0.0000 N   0  0  0  0  0  0  0  0  0
    4.9709   -2.3882    0.0000 C   0  0  0  0  0  0  0  0  0
    4.3035   -1.9032    0.0000 C   0  0  0  0  0  0  0  0  0
    3.6360   -2.3882    0.0000 C   0  0  0  0  0  0  0  0  0
    3.8910   -3.1728    0.0000 C   0  0  0  0  0  0  0  0  0
    3.3390   -3.7859    0.0000 C   0  0  0  0  0  0  0  0  0
    2.5320   -3.6143    0.0000 C   0  0  0  0  0  0  0  0  0
    2.2770   -2.8297    0.0000 C   0  0  0  0  0  0  0  0  0
    2.8291   -2.2166    0.0000 C   0  0  0  0  0  0  0  0  0
    4.3035   -1.0782    0.0000 C   0  0  0  0  0  0  0  0  0
    3.5890   -0.6657    0.0000 C   0  0  0  0  0  0  0  0  0
    3.5890    0.1593    0.0000 C   0  0  0  0  0  0  0  0  0
    4.3035    0.5718    0.0000 C   0  0  0  0  0  0  0  0  0
    4.3035    1.3968    0.0000 N   0  0  0  0  0  0  0  0  0
    3.5890    1.8093    0.0000 C   0  0  0  0  0  0  0  0  0
    3.5890    2.6343    0.0000 C   0  0  0  0  0  0  0  0  0
    4.3035    3.0468    0.0000 N   0  0  0  0  0  0  0  0  0
    5.0180    2.6343    0.0000 C   0  0  0  0  0  0  0  0  0
    5.0180    1.8093    0.0000 C   0  0  0  0  0  0  0  0  0
    4.3035    3.8718    0.0000 C   0  0  0  0  0  0  0  0  0
    3.5890    4.2843    0.0000 C   0  0  0  0  0  0  0  0  0
    2.8044    4.0293    0.0000 N   0  0  0  0  0  0  0  0  0
    2.3195    4.6968    0.0000 C   0  0  0  0  0  0  0  0  0
    2.8044    5.3642    0.0000 N   0  0  0  0  0  0  0  0  0
    3.5890    5.1093    0.0000 C   0  0  0  0  0  0  0  0  0
    4.3035    5.5218    0.0000 C   0  0  0  0  0  0  0  0  0
    5.0180    5.1093    0.0000 C   0  0  0  0  0  0  0  0  0
    5.0180    4.2843    0.0000 C   0  0  0  0  0  0  0  0  0
    5.0180    0.1593    0.0000 C   0  0  0  0  0  0  0  0  0
    5.0180   -0.6657    0.0000 C   0  0  0  0  0  0  0  0  0
  1  2  4  0  0  0  0
  1  5  4  0  0  0  0
  2  3  4  0  0  0  0
  3  4  4  0  0  0  0
  3 10  1  0  0  0  0
  4  5  4  0  0  0  0
  4  9  4  0  0  0  0
  5  6  4  0  0  0  0
  6  7  4  0  0  0  0
  7  8  4  0  0  0  0
  8  9  4  0  0  0  0
 10 11  1  0  0  0  0
 10 30  1  0  0  0  0
 11 12  1  0  0  0  0
 12 13  1  0  0  0  0
 13 14  1  0  0  0  0
 13 29  1  0  0  0  0
 14 15  1  0  0  0  0
 14 19  1  0  0  0  0
 15 16  1  0  0  0  0
 16 17  1  0  0  0  0
 17 18  1  0  0  0  0
 17 20  1  0  0  0  0
 18 19  1  0  0  0  0
 20 21  4  0  0  0  0
 20 28  4  0  0  0  0
 21 22  4  0  0  0  0
 21 25  4  0  0  0  0
 22 23  4  0  0  0  0
 23 24  4  0  0  0  0
 24 25  4  0  0  0  0
 25 26  4  0  0  0  0
 26 27  4  0  0  0  0
 27 28  4  0  0  0  0
 29 30  1  0  0  0  0
M  STY  2   1 DAT   2 DAT
M  SAL   1  1   1
M  SDT   1 MRV_IMPLICIT_H                                        
M  SDD   1     0.0000    0.0000    DR    ALL  0       0  
M  SED   1 IMPL_H1
M  SAL   2  1  24
M  SDT   2 MRV_IMPLICIT_H                                        
M  SDD   2     0.0000    0.0000    DR    ALL  0       0  
M  SED   2 IMPL_H1
M  END
>  <Name_Molregno>
468005

>  <5-HT1A>
8.44

$$$$
468069
  Marvin  02231216192D 0   1.00000     0.00000     0

 31 36  0  0  0  0  0  0  0  0999 V2000
   -7.0854   -4.1327    0.0000 N   0  0  0  0  0  0  0  0  0
   -6.2604   -4.1327    0.0000 C   0  0  0  0  0  0  0  0  0
   -6.0055   -3.3481    0.0000 C   0  0  0  0  0  0  0  0  0
   -6.6729   -2.8632    0.0000 N   0  0  0  0  0  0  0  0  0
   -7.3404   -3.3481    0.0000 C   0  0  0  0  0  0  0  0  0
   -8.1250   -3.0931    0.0000 C   0  0  0  0  0  0  0  0  0
   -5.1985   -3.1766    0.0000 C   0  0  0  0  0  0  0  0  0
   -4.9436   -2.3919    0.0000 N   0  0  0  0  0  0  0  0  0
   -5.4956   -1.7788    0.0000 C   0  0  0  0  0  0  0  0  0
   -5.2407   -0.9942    0.0000 C   0  0  0  0  0  0  0  0  0
   -4.4337   -0.8227    0.0000 N   0  0  0  0  0  0  0  0  0
   -3.8817   -1.4358    0.0000 C   0  0  0  0  0  0  0  0  0
   -4.1366   -2.2204    0.0000 C   0  0  0  0  0  0  0  0  0
   -4.1787   -0.0381    0.0000 C   0  0  0  0  0  0  0  0  0
   -4.7308    0.5750    0.0000 C   0  0  0  0  0  0  0  0  0
   -4.4758    1.3596    0.0000 C   0  0  0  0  0  0  0  0  0
   -3.6689    1.5312    0.0000 C   0  0  0  0  0  0  0  0  0
   -3.1168    0.9181    0.0000 C   0  0  0  0  0  0  0  0  0
   -3.3718    0.1335    0.0000 C   0  0  0  0  0  0  0  0  0
   -3.4139    2.3158    0.0000 C   0  0  0  0  0  0  0  0  0
   -2.6293    2.5707    0.0000 C   0  0  0  0  0  0  0  0  0
   -2.6293    3.3957    0.0000 C   0  0  0  0  0  0  0  0  0
   -3.4139    3.6507    0.0000 N   0  0  0  0  0  0  0  0  0
   -3.8989    2.9832    0.0000 C   0  0  0  0  0  0  0  0  0
   -1.9148    3.8082    0.0000 C   0  0  0  0  0  0  0  0  0
   -1.2004    3.3957    0.0000 C   0  0  0  0  0  0  0  0  0
   -1.2004    2.5707    0.0000 C   0  0  0  0  0  0  0  0  0
   -1.9148    2.1582    0.0000 C   0  0  0  0  0  0  0  0  0
   -4.6465   -3.7897    0.0000 C   0  0  0  0  0  0  0  0  0
   -4.9014   -4.5743    0.0000 C   0  0  0  0  0  0  0  0  0
   -5.7084   -4.7458    0.0000 C   0  0  0  0  0  0  0  0  0
  1  2  4  0  0  0  0
  1  5  4  0  0  0  0
  2  3  4  0  0  0  0
  2 31  4  0  0  0  0
  3  4  4  0  0  0  0
  3  7  4  0  0  0  0
  4  5  4  0  0  0  0
  5  6  1  0  0  0  0
  7  8  1  0  0  0  0
  7 29  4  0  0  0  0
  8  9  1  0  0  0  0
  8 13  1  0  0  0  0
  9 10  1  0  0  0  0
 10 11  1  0  0  0  0
 11 12  1  0  0  0  0
 11 14  1  0  0  0  0
 12 13  1  0  0  0  0
 14 15  1  0  0  0  0
 14 19  1  0  0  0  0
 15 16  1  0  0  0  0
 16 17  1  0  0  0  0
 17 18  1  0  0  0  0
 17 20  1  0  0  0  0
 18 19  1  0  0  0  0
 20 21  4  0  0  0  0
 20 24  4  0  0  0  0
 21 22  4  0  0  0  0
 21 28  4  0  0  0  0
 22 23  4  0  0  0  0
 22 25  4  0  0  0  0
 23 24  4  0  0  0  0
 25 26  4  0  0  0  0
 26 27  4  0  0  0  0
 27 28  4  0  0  0  0
 29 30  4  0  0  0  0
 30 31  4  0  0  0  0
M  STY  2   1 DAT   2 DAT
M  SAL   1  1   1
M  SDT   1 MRV_IMPLICIT_H                                        
M  SDD   1     0.0000    0.0000    DR    ALL  0       0  
M  SED   1 IMPL_H1
M  SAL   2  1  23
M  SDT   2 MRV_IMPLICIT_H                                        
M  SDD   2     0.0000    0.0000    DR    ALL  0       0  
M  SED   2 IMPL_H1
M  END
>  <Name_Molregno>
468069

>  <5-HT1A>
8.25

$$$$
468071
  Marvin  02231216192D 0   1.00000     0.00000     0

 34 39  0  0  0  0  0  0  0  0999 V2000
    0.5201   -2.0021    0.0000 F   0  0  0  0  0  0  0  0  0
    1.3047   -2.2570    0.0000 C   0  0  0  0  0  0  0  0  0
    1.0498   -3.0416    0.0000 F   0  0  0  0  0  0  0  0  0
    1.5596   -1.4724    0.0000 F   0  0  0  0  0  0  0  0  0
    2.0893   -2.5120    0.0000 C   0  0  0  0  0  0  0  0  0
    2.3443   -3.2966    0.0000 N   0  0  0  0  0  0  0  0  0
    3.1693   -3.2966    0.0000 C   0  0  0  0  0  0  0  0  0
    3.4242   -2.5120    0.0000 C   0  0  0  0  0  0  0  0  0
    2.7568   -2.0270    0.0000 N   0  0  0  0  0  0  0  0  0
    4.2312   -2.3404    0.0000 C   0  0  0  0  0  0  0  0  0
    4.4861   -1.5558    0.0000 N   0  0  0  0  0  0  0  0  0
    3.9341   -0.9427    0.0000 C   0  0  0  0  0  0  0  0  0
    4.1890   -0.1581    0.0000 C   0  0  0  0  0  0  0  0  0
    4.9960    0.0134    0.0000 N   0  0  0  0  0  0  0  0  0
    5.5480   -0.5997    0.0000 C   0  0  0  0  0  0  0  0  0
    5.2931   -1.3843    0.0000 C   0  0  0  0  0  0  0  0  0
    5.2509    0.7980    0.0000 C   0  0  0  0  0  0  0  0  0
    4.6989    1.4111    0.0000 C   0  0  0  0  0  0  0  0  0
    4.9538    2.1958    0.0000 C   0  0  0  0  0  0  0  0  0
    5.7608    2.3673    0.0000 C   0  0  0  0  0  0  0  0  0
    6.3128    1.7542    0.0000 C   0  0  0  0  0  0  0  0  0
    6.0579    0.9696    0.0000 C   0  0  0  0  0  0  0  0  0
    6.0157    3.1519    0.0000 C   0  0  0  0  0  0  0  0  0
    6.8004    3.4069    0.0000 C   0  0  0  0  0  0  0  0  0
    6.8004    4.2319    0.0000 C   0  0  0  0  0  0  0  0  0
    6.0157    4.4868    0.0000 N   0  0  0  0  0  0  0  0  0
    5.5308    3.8194    0.0000 C   0  0  0  0  0  0  0  0  0
    7.5148    4.6444    0.0000 C   0  0  0  0  0  0  0  0  0
    8.2293    4.2319    0.0000 C   0  0  0  0  0  0  0  0  0
    8.2293    3.4069    0.0000 C   0  0  0  0  0  0  0  0  0
    7.5148    2.9944    0.0000 C   0  0  0  0  0  0  0  0  0
    4.7832   -2.9535    0.0000 C   0  0  0  0  0  0  0  0  0
    4.5283   -3.7382    0.0000 C   0  0  0  0  0  0  0  0  0
    3.7213   -3.9097    0.0000 C   0  0  0  0  0  0  0  0  0
  1  2  1  0  0  0  0
  2  3  1  0  0  0  0
  2  4  1  0  0  0  0
  2  5  1  0  0  0  0
  5  6  4  0  0  0  0
  5  9  4  0  0  0  0
  6  7  4  0  0  0  0
  7  8  4  0  0  0  0
  7 34  4  0  0  0  0
  8  9  4  0  0  0  0
  8 10  4  0  0  0  0
 10 11  1  0  0  0  0
 10 32  4  0  0  0  0
 11 12  1  0  0  0  0
 11 16  1  0  0  0  0
 12 13  1  0  0  0  0
 13 14  1  0  0  0  0
 14 15  1  0  0  0  0
 14 17  1  0  0  0  0
 15 16  1  0  0  0  0
 17 18  1  0  0  0  0
 17 22  1  0  0  0  0
 18 19  1  0  0  0  0
 19 20  1  0  0  0  0
 20 21  1  0  0  0  0
 20 23  1  0  0  0  0
 21 22  1  0  0  0  0
 23 24  4  0  0  0  0
 23 27  4  0  0  0  0
 24 25  4  0  0  0  0
 24 31  4  0  0  0  0
 25 26  4  0  0  0  0
 25 28  4  0  0  0  0
 26 27  4  0  0  0  0
 28 29  4  0  0  0  0
 29 30  4  0  0  0  0
 30 31  4  0  0  0  0
 32 33  4  0  0  0  0
 33 34  4  0  0  0  0
M  STY  2   1 DAT   2 DAT
M  SAL   1  1   6
M  SDT   1 MRV_IMPLICIT_H                                        
M  SDD   1     0.0000    0.0000    DR    ALL  0       0  
M  SED   1 IMPL_H1
M  SAL   2  1  26
M  SDT   2 MRV_IMPLICIT_H                                        
M  SDD   2     0.0000    0.0000    DR    ALL  0       0  
M  SED   2 IMPL_H1
M  END
>  <Name_Molregno>
468071

>  <5-HT1A>
8.11

$$$$
468135
  Marvin  02231216192D 0   1.00000     0.00000     0

 32 37  0  0  0  0  0  0  0  0999 V2000
   -6.7873   -5.5103    0.0000 F   0  0  0  0  0  0  0  0  0
   -5.9803   -5.6818    0.0000 C   0  0  0  0  0  0  0  0  0
   -5.4283   -5.0687    0.0000 C   0  0  0  0  0  0  0  0  0
   -4.6213   -5.2402    0.0000 C   0  0  0  0  0  0  0  0  0
   -4.3664   -6.0248    0.0000 C   0  0  0  0  0  0  0  0  0
   -3.5414   -6.0248    0.0000 N   0  0  0  0  0  0  0  0  0
   -3.2864   -5.2402    0.0000 C   0  0  0  0  0  0  0  0  0
   -3.9539   -4.7553    0.0000 C   0  0  0  0  0  0  0  0  0
   -3.9539   -3.9303    0.0000 C   0  0  0  0  0  0  0  0  0
   -4.6683   -3.5178    0.0000 C   0  0  0  0  0  0  0  0  0
   -4.6683   -2.6928    0.0000 C   0  0  0  0  0  0  0  0  0
   -3.9539   -2.2803    0.0000 C   0  0  0  0  0  0  0  0  0
   -3.9539   -1.4553    0.0000 N   0  0  0  0  0  0  0  0  0
   -4.6683   -1.0428    0.0000 C   0  0  0  0  0  0  0  0  0
   -4.6683   -0.2178    0.0000 C   0  0  0  0  0  0  0  0  0
   -3.9539    0.1947    0.0000 N   0  0  0  0  0  0  0  0  0
   -3.2394   -0.2178    0.0000 C   0  0  0  0  0  0  0  0  0
   -3.2394   -1.0428    0.0000 C   0  0  0  0  0  0  0  0  0
   -3.9539    1.0197    0.0000 C   0  0  0  0  0  0  0  0  0
   -3.2394    1.4322    0.0000 C   0  0  0  0  0  0  0  0  0
   -3.2394    2.2572    0.0000 C   0  0  0  0  0  0  0  0  0
   -2.5249    2.6697    0.0000 N   0  0  0  0  0  0  0  0  0
   -1.8105    2.2572    0.0000 C   0  0  0  0  0  0  0  0  0
   -1.8105    1.4322    0.0000 C   0  0  0  0  0  0  0  0  0
   -2.5249    1.0197    0.0000 C   0  0  0  0  0  0  0  0  0
   -3.9539    2.6697    0.0000 C   0  0  0  0  0  0  0  0  0
   -4.6683    2.2572    0.0000 C   0  0  0  0  0  0  0  0  0
   -4.6683    1.4322    0.0000 C   0  0  0  0  0  0  0  0  0
   -3.2394   -2.6928    0.0000 C   0  0  0  0  0  0  0  0  0
   -3.2394   -3.5178    0.0000 C   0  0  0  0  0  0  0  0  0
   -4.9184   -6.6379    0.0000 C   0  0  0  0  0  0  0  0  0
   -5.7254   -6.4664    0.0000 C   0  0  0  0  0  0  0  0  0
  1  2  1  0  0  0  0
  2  3  4  0  0  0  0
  2 32  4  0  0  0  0
  3  4  4  0  0  0  0
  4  5  4  0  0  0  0
  4  8  4  0  0  0  0
  5  6  4  0  0  0  0
  5 31  4  0  0  0  0
  6  7  4  0  0  0  0
  7  8  4  0  0  0  0
  8  9  1  0  0  0  0
  9 10  1  0  0  0  0
  9 30  1  0  0  0  0
 10 11  1  0  0  0  0
 11 12  1  0  0  0  0
 12 13  1  0  0  0  0
 12 29  1  0  0  0  0
 13 14  1  0  0  0  0
 13 18  1  0  0  0  0
 14 15  1  0  0  0  0
 15 16  1  0  0  0  0
 16 17  1  0  0  0  0
 16 19  1  0  0  0  0
 17 18  1  0  0  0  0
 19 20  4  0  0  0  0
 19 28  4  0  0  0  0
 20 21  4  0  0  0  0
 20 25  4  0  0  0  0
 21 22  4  0  0  0  0
 21 26  4  0  0  0  0
 22 23  4  0  0  0  0
 23 24  4  0  0  0  0
 24 25  4  0  0  0  0
 26 27  4  0  0  0  0
 27 28  4  0  0  0  0
 29 30  1  0  0  0  0
 31 32  4  0  0  0  0
M  STY  1   1 DAT
M  SAL   1  1   6
M  SDT   1 MRV_IMPLICIT_H                                        
M  SDD   1     0.0000    0.0000    DR    ALL  0       0  
M  SED   1 IMPL_H1
M  END
>  <Name_Molregno>
468135

>  <5-HT1A>
7.55

$$$$
468137
  Marvin  02231216192D 0   1.00000     0.00000     0

 33 38  0  0  0  0  0  0  0  0999 V2000
    2.8220   -3.0348    0.0000 N   0  0  0  0  0  0  0  0  0
    2.5671   -2.2502    0.0000 C   0  0  0  0  0  0  0  0  0
    3.2345   -1.7652    0.0000 C   0  0  0  0  0  0  0  0  0
    3.9020   -2.2502    0.0000 C   0  0  0  0  0  0  0  0  0
    4.7089   -2.0786    0.0000 C   0  0  0  0  0  0  0  0  0
    5.2610   -2.6917    0.0000 C   0  0  0  0  0  0  0  0  0
    5.0060   -3.4764    0.0000 C   0  0  0  0  0  0  0  0  0
    4.1991   -3.6479    0.0000 C   0  0  0  0  0  0  0  0  0
    3.6470   -3.0348    0.0000 C   0  0  0  0  0  0  0  0  0
    6.0679   -2.5202    0.0000 C   0  0  0  0  0  0  0  0  0
    6.8749   -2.3487    0.0000 N   0  0  0  0  0  0  0  0  0
    3.2345   -0.9402    0.0000 C   0  0  0  0  0  0  0  0  0
    2.5201   -0.5277    0.0000 C   0  0  0  0  0  0  0  0  0
    2.5201    0.2973    0.0000 C   0  0  0  0  0  0  0  0  0
    3.2345    0.7098    0.0000 C   0  0  0  0  0  0  0  0  0
    3.2345    1.5348    0.0000 N   0  0  0  0  0  0  0  0  0
    2.5201    1.9473    0.0000 C   0  0  0  0  0  0  0  0  0
    2.5201    2.7723    0.0000 C   0  0  0  0  0  0  0  0  0
    3.2345    3.1848    0.0000 N   0  0  0  0  0  0  0  0  0
    3.9490    2.7723    0.0000 C   0  0  0  0  0  0  0  0  0
    3.9490    1.9473    0.0000 C   0  0  0  0  0  0  0  0  0
    3.2345    4.0098    0.0000 C   0  0  0  0  0  0  0  0  0
    3.9490    4.4223    0.0000 C   0  0  0  0  0  0  0  0  0
    3.9490    5.2473    0.0000 C   0  0  0  0  0  0  0  0  0
    4.6635    5.6598    0.0000 N   0  0  0  0  0  0  0  0  0
    5.3779    5.2473    0.0000 C   0  0  0  0  0  0  0  0  0
    5.3779    4.4223    0.0000 C   0  0  0  0  0  0  0  0  0
    4.6635    4.0098    0.0000 C   0  0  0  0  0  0  0  0  0
    3.2345    5.6598    0.0000 C   0  0  0  0  0  0  0  0  0
    2.5201    5.2473    0.0000 C   0  0  0  0  0  0  0  0  0
    2.5201    4.4223    0.0000 C   0  0  0  0  0  0  0  0  0
    3.9490    0.2973    0.0000 C   0  0  0  0  0  0  0  0  0
    3.9490   -0.5277    0.0000 C   0  0  0  0  0  0  0  0  0
  1  2  4  0  0  0  0
  1  9  4  0  0  0  0
  2  3  4  0  0  0  0
  3  4  4  0  0  0  0
  3 12  1  0  0  0  0
  4  5  4  0  0  0  0
  4  9  4  0  0  0  0
  5  6  4  0  0  0  0
  6  7  4  0  0  0  0
  6 10  1  0  0  0  0
  7  8  4  0  0  0  0
  8  9  4  0  0  0  0
 10 11  3  0  0  0  0
 12 13  1  0  0  0  0
 12 33  1  0  0  0  0
 13 14  1  0  0  0  0
 14 15  1  0  0  0  0
 15 16  1  0  0  0  0
 15 32  1  0  0  0  0
 16 17  1  0  0  0  0
 16 21  1  0  0  0  0
 17 18  1  0  0  0  0
 18 19  1  0  0  0  0
 19 20  1  0  0  0  0
 19 22  1  0  0  0  0
 20 21  1  0  0  0  0
 22 23  4  0  0  0  0
 22 31  4  0  0  0  0
 23 24  4  0  0  0  0
 23 28  4  0  0  0  0
 24 25  4  0  0  0  0
 24 29  4  0  0  0  0
 25 26  4  0  0  0  0
 26 27  4  0  0  0  0
 27 28  4  0  0  0  0
 29 30  4  0  0  0  0
 30 31  4  0  0  0  0
 32 33  1  0  0  0  0
M  STY  1   1 DAT
M  SAL   1  1   1
M  SDT   1 MRV_IMPLICIT_H                                        
M  SDD   1     0.0000    0.0000    DR    ALL  0       0  
M  SED   1 IMPL_H1
M  END
>  <Name_Molregno>
468137

>  <5-HT1A>
7.72

$$$$
468207
  Marvin  02231216192D 0   1.00000     0.00000     0

 32 37  0  0  0  0  0  0  0  0999 V2000
   -1.6873    1.7217    0.0000 F   0  0  0  0  0  0  0  0  0
   -2.4943    1.8932    0.0000 C   0  0  0  0  0  0  0  0  0
   -3.0463    1.2801    0.0000 C   0  0  0  0  0  0  0  0  0
   -3.8533    1.4517    0.0000 C   0  0  0  0  0  0  0  0  0
   -4.1083    2.2363    0.0000 C   0  0  0  0  0  0  0  0  0
   -4.9333    2.2363    0.0000 N   0  0  0  0  0  0  0  0  0
   -5.1882    1.4517    0.0000 C   0  0  0  0  0  0  0  0  0
   -4.5208    0.9667    0.0000 C   0  0  0  0  0  0  0  0  0
   -4.5208    0.1417    0.0000 C   0  0  0  0  0  0  0  0  0
   -3.8063   -0.2708    0.0000 C   0  0  0  0  0  0  0  0  0
   -3.8063   -1.0958    0.0000 C   0  0  0  0  0  0  0  0  0
   -4.5208   -1.5083    0.0000 C   0  0  0  0  0  0  0  0  0
   -4.5208   -2.3333    0.0000 N   0  0  0  0  0  0  0  0  0
   -3.8063   -2.7458    0.0000 C   0  0  0  0  0  0  0  0  0
   -3.8063   -3.5708    0.0000 C   0  0  0  0  0  0  0  0  0
   -4.5208   -3.9833    0.0000 N   0  0  0  0  0  0  0  0  0
   -5.2352   -3.5708    0.0000 C   0  0  0  0  0  0  0  0  0
   -5.2352   -2.7458    0.0000 C   0  0  0  0  0  0  0  0  0
   -4.5208   -4.8083    0.0000 C   0  0  0  0  0  0  0  0  0
   -3.8063   -5.2208    0.0000 C   0  0  0  0  0  0  0  0  0
   -3.0918   -4.8083    0.0000 N   0  0  0  0  0  0  0  0  0
   -2.3773   -5.2208    0.0000 C   0  0  0  0  0  0  0  0  0
   -2.3773   -6.0458    0.0000 C   0  0  0  0  0  0  0  0  0
   -3.0918   -6.4583    0.0000 C   0  0  0  0  0  0  0  0  0
   -3.8063   -6.0458    0.0000 C   0  0  0  0  0  0  0  0  0
   -4.5208   -6.4583    0.0000 C   0  0  0  0  0  0  0  0  0
   -5.2352   -6.0458    0.0000 C   0  0  0  0  0  0  0  0  0
   -5.2352   -5.2208    0.0000 C   0  0  0  0  0  0  0  0  0
   -5.2352   -1.0958    0.0000 C   0  0  0  0  0  0  0  0  0
   -5.2352   -0.2708    0.0000 C   0  0  0  0  0  0  0  0  0
   -3.5562    2.8494    0.0000 C   0  0  0  0  0  0  0  0  0
   -2.7493    2.6778    0.0000 C   0  0  0  0  0  0  0  0  0
  1  2  1  0  0  0  0
  2  3  4  0  0  0  0
  2 32  4  0  0  0  0
  3  4  4  0  0  0  0
  4  5  4  0  0  0  0
  4  8  4  0  0  0  0
  5  6  4  0  0  0  0
  5 31  4  0  0  0  0
  6  7  4  0  0  0  0
  7  8  4  0  0  0  0
  8  9  1  0  0  0  0
  9 10  1  0  0  0  0
  9 30  1  0  0  0  0
 10 11  1  0  0  0  0
 11 12  1  0  0  0  0
 12 13  1  0  0  0  0
 12 29  1  0  0  0  0
 13 14  1  0  0  0  0
 13 18  1  0  0  0  0
 14 15  1  0  0  0  0
 15 16  1  0  0  0  0
 16 17  1  0  0  0  0
 16 19  1  0  0  0  0
 17 18  1  0  0  0  0
 19 20  4  0  0  0  0
 19 28  4  0  0  0  0
 20 21  4  0  0  0  0
 20 25  4  0  0  0  0
 21 22  4  0  0  0  0
 22 23  4  0  0  0  0
 23 24  4  0  0  0  0
 24 25  4  0  0  0  0
 25 26  4  0  0  0  0
 26 27  4  0  0  0  0
 27 28  4  0  0  0  0
 29 30  1  0  0  0  0
 31 32  4  0  0  0  0
M  STY  1   1 DAT
M  SAL   1  1   6
M  SDT   1 MRV_IMPLICIT_H                                        
M  SDD   1     0.0000    0.0000    DR    ALL  0       0  
M  SED   1 IMPL_H1
M  END
>  <Name_Molregno>
468207

>  <5-HT1A>
7.67

$$$$
468209
  Marvin  02231216192D 0   1.00000     0.00000     0

 33 38  0  0  0  0  0  0  0  0999 V2000
   -3.2550    5.0176    0.0000 N   0  0  0  0  0  0  0  0  0
   -3.0001    4.2330    0.0000 C   0  0  0  0  0  0  0  0  0
   -3.6675    3.7480    0.0000 C   0  0  0  0  0  0  0  0  0
   -4.3350    4.2330    0.0000 C   0  0  0  0  0  0  0  0  0
   -5.1419    4.0614    0.0000 C   0  0  0  0  0  0  0  0  0
   -5.6940    4.6745    0.0000 C   0  0  0  0  0  0  0  0  0
   -5.4390    5.4591    0.0000 C   0  0  0  0  0  0  0  0  0
   -4.6321    5.6307    0.0000 C   0  0  0  0  0  0  0  0  0
   -4.0800    5.0176    0.0000 C   0  0  0  0  0  0  0  0  0
   -6.5010    4.5030    0.0000 C   0  0  0  0  0  0  0  0  0
   -7.3079    4.3315    0.0000 N   0  0  0  0  0  0  0  0  0
   -3.6675    2.9230    0.0000 C   0  0  0  0  0  0  0  0  0
   -2.9531    2.5105    0.0000 C   0  0  0  0  0  0  0  0  0
   -2.9531    1.6855    0.0000 C   0  0  0  0  0  0  0  0  0
   -3.6675    1.2730    0.0000 C   0  0  0  0  0  0  0  0  0
   -3.6675    0.4480    0.0000 N   0  0  0  0  0  0  0  0  0
   -2.9531    0.0355    0.0000 C   0  0  0  0  0  0  0  0  0
   -2.9531   -0.7895    0.0000 C   0  0  0  0  0  0  0  0  0
   -3.6675   -1.2020    0.0000 N   0  0  0  0  0  0  0  0  0
   -4.3820   -0.7895    0.0000 C   0  0  0  0  0  0  0  0  0
   -4.3820    0.0355    0.0000 C   0  0  0  0  0  0  0  0  0
   -3.6675   -2.0270    0.0000 C   0  0  0  0  0  0  0  0  0
   -2.9531   -2.4395    0.0000 C   0  0  0  0  0  0  0  0  0
   -2.2386   -2.0270    0.0000 N   0  0  0  0  0  0  0  0  0
   -1.5241   -2.4395    0.0000 C   0  0  0  0  0  0  0  0  0
   -1.5241   -3.2645    0.0000 C   0  0  0  0  0  0  0  0  0
   -2.2386   -3.6770    0.0000 C   0  0  0  0  0  0  0  0  0
   -2.9531   -3.2645    0.0000 C   0  0  0  0  0  0  0  0  0
   -3.6675   -3.6770    0.0000 C   0  0  0  0  0  0  0  0  0
   -4.3820   -3.2645    0.0000 C   0  0  0  0  0  0  0  0  0
   -4.3820   -2.4395    0.0000 C   0  0  0  0  0  0  0  0  0
   -4.3820    1.6855    0.0000 C   0  0  0  0  0  0  0  0  0
   -4.3820    2.5105    0.0000 C   0  0  0  0  0  0  0  0  0
  1  2  4  0  0  0  0
  1  9  4  0  0  0  0
  2  3  4  0  0  0  0
  3  4  4  0  0  0  0
  3 12  1  0  0  0  0
  4  5  4  0  0  0  0
  4  9  4  0  0  0  0
  5  6  4  0  0  0  0
  6  7  4  0  0  0  0
  6 10  1  0  0  0  0
  7  8  4  0  0  0  0
  8  9  4  0  0  0  0
 10 11  3  0  0  0  0
 12 13  1  0  0  0  0
 12 33  1  0  0  0  0
 13 14  1  0  0  0  0
 14 15  1  0  0  0  0
 15 16  1  0  0  0  0
 15 32  1  0  0  0  0
 16 17  1  0  0  0  0
 16 21  1  0  0  0  0
 17 18  1  0  0  0  0
 18 19  1  0  0  0  0
 19 20  1  0  0  0  0
 19 22  1  0  0  0  0
 20 21  1  0  0  0  0
 22 23  4  0  0  0  0
 22 31  4  0  0  0  0
 23 24  4  0  0  0  0
 23 28  4  0  0  0  0
 24 25  4  0  0  0  0
 25 26  4  0  0  0  0
 26 27  4  0  0  0  0
 27 28  4  0  0  0  0
 28 29  4  0  0  0  0
 29 30  4  0  0  0  0
 30 31  4  0  0  0  0
 32 33  1  0  0  0  0
M  STY  1   1 DAT
M  SAL   1  1   1
M  SDT   1 MRV_IMPLICIT_H                                        
M  SDD   1     0.0000    0.0000    DR    ALL  0       0  
M  SED   1 IMPL_H1
M  END
>  <Name_Molregno>
468209

>  <5-HT1A>
7.95

$$$$
468297
  Marvin  02231216192D 0   1.00000     0.00000     0

 33 38  0  0  0  0  0  0  0  0999 V2000
   -3.2550    5.0176    0.0000 N   0  0  0  0  0  0  0  0  0
   -3.0001    4.2330    0.0000 C   0  0  0  0  0  0  0  0  0
   -3.6675    3.7480    0.0000 C   0  0  0  0  0  0  0  0  0
   -4.3350    4.2330    0.0000 C   0  0  0  0  0  0  0  0  0
   -5.1419    4.0614    0.0000 C   0  0  0  0  0  0  0  0  0
   -5.6940    4.6745    0.0000 C   0  0  0  0  0  0  0  0  0
   -5.4390    5.4591    0.0000 C   0  0  0  0  0  0  0  0  0
   -4.6321    5.6307    0.0000 C   0  0  0  0  0  0  0  0  0
   -4.0800    5.0176    0.0000 C   0  0  0  0  0  0  0  0  0
   -6.5010    4.5030    0.0000 C   0  0  0  0  0  0  0  0  0
   -7.3079    4.3315    0.0000 N   0  0  0  0  0  0  0  0  0
   -3.6675    2.9230    0.0000 C   0  0  0  0  0  0  0  0  0
   -2.9531    2.5105    0.0000 C   0  0  0  0  0  0  0  0  0
   -2.9531    1.6855    0.0000 C   0  0  0  0  0  0  0  0  0
   -3.6675    1.2730    0.0000 C   0  0  0  0  0  0  0  0  0
   -3.6675    0.4480    0.0000 N   0  0  0  0  0  0  0  0  0
   -2.9531    0.0355    0.0000 C   0  0  0  0  0  0  0  0  0
   -2.9531   -0.7895    0.0000 C   0  0  0  0  0  0  0  0  0
   -3.6675   -1.2020    0.0000 N   0  0  0  0  0  0  0  0  0
   -4.3820   -0.7895    0.0000 C   0  0  0  0  0  0  0  0  0
   -4.3820    0.0355    0.0000 C   0  0  0  0  0  0  0  0  0
   -3.6675   -2.0270    0.0000 C   0  0  0  0  0  0  0  0  0
   -2.9531   -2.4395    0.0000 C   0  0  0  0  0  0  0  0  0
   -2.2386   -2.0270    0.0000 N   0  0  0  0  0  0  0  0  0
   -1.5241   -2.4395    0.0000 C   0  0  0  0  0  0  0  0  0
   -1.5241   -3.2645    0.0000 C   0  0  0  0  0  0  0  0  0
   -2.2386   -3.6770    0.0000 N   0  0  0  0  0  0  0  0  0
   -2.9531   -3.2645    0.0000 C   0  0  0  0  0  0  0  0  0
   -3.6675   -3.6770    0.0000 C   0  0  0  0  0  0  0  0  0
   -4.3820   -3.2645    0.0000 C   0  0  0  0  0  0  0  0  0
   -4.3820   -2.4395    0.0000 C   0  0  0  0  0  0  0  0  0
   -4.3820    1.6855    0.0000 C   0  0  0  0  0  0  0  0  0
   -4.3820    2.5105    0.0000 C   0  0  0  0  0  0  0  0  0
  1  2  4  0  0  0  0
  1  9  4  0  0  0  0
  2  3  4  0  0  0  0
  3  4  4  0  0  0  0
  3 12  1  0  0  0  0
  4  5  4  0  0  0  0
  4  9  4  0  0  0  0
  5  6  4  0  0  0  0
  6  7  4  0  0  0  0
  6 10  1  0  0  0  0
  7  8  4  0  0  0  0
  8  9  4  0  0  0  0
 10 11  3  0  0  0  0
 12 13  1  0  0  0  0
 12 33  1  0  0  0  0
 13 14  1  0  0  0  0
 14 15  1  0  0  0  0
 15 16  1  0  0  0  0
 15 32  1  0  0  0  0
 16 17  1  0  0  0  0
 16 21  1  0  0  0  0
 17 18  1  0  0  0  0
 18 19  1  0  0  0  0
 19 20  1  0  0  0  0
 19 22  1  0  0  0  0
 20 21  1  0  0  0  0
 22 23  4  0  0  0  0
 22 31  4  0  0  0  0
 23 24  4  0  0  0  0
 23 28  4  0  0  0  0
 24 25  4  0  0  0  0
 25 26  4  0  0  0  0
 26 27  4  0  0  0  0
 27 28  4  0  0  0  0
 28 29  4  0  0  0  0
 29 30  4  0  0  0  0
 30 31  4  0  0  0  0
 32 33  1  0  0  0  0
M  STY  1   1 DAT
M  SAL   1  1   1
M  SDT   1 MRV_IMPLICIT_H                                        
M  SDD   1     0.0000    0.0000    DR    ALL  0       0  
M  SED   1 IMPL_H1
M  END
>  <Name_Molregno>
468297

>  <5-HT1A>
7.42

$$$$
468300
  Marvin  02231216192D 0   1.00000     0.00000     0

 32 37  0  0  0  0  0  0  0  0999 V2000
   -6.7873   -5.5103    0.0000 F   0  0  0  0  0  0  0  0  0
   -5.9803   -5.6818    0.0000 C   0  0  0  0  0  0  0  0  0
   -5.4283   -5.0687    0.0000 C   0  0  0  0  0  0  0  0  0
   -4.6213   -5.2402    0.0000 C   0  0  0  0  0  0  0  0  0
   -4.3664   -6.0248    0.0000 C   0  0  0  0  0  0  0  0  0
   -3.5414   -6.0248    0.0000 N   0  0  0  0  0  0  0  0  0
   -3.2864   -5.2402    0.0000 C   0  0  0  0  0  0  0  0  0
   -3.9539   -4.7553    0.0000 C   0  0  0  0  0  0  0  0  0
   -3.9539   -3.9303    0.0000 C   0  0  0  0  0  0  0  0  0
   -4.6683   -3.5178    0.0000 C   0  0  0  0  0  0  0  0  0
   -4.6683   -2.6928    0.0000 C   0  0  0  0  0  0  0  0  0
   -3.9539   -2.2803    0.0000 C   0  0  0  0  0  0  0  0  0
   -3.9539   -1.4553    0.0000 N   0  0  0  0  0  0  0  0  0
   -4.6683   -1.0428    0.0000 C   0  0  0  0  0  0  0  0  0
   -4.6683   -0.2178    0.0000 C   0  0  0  0  0  0  0  0  0
   -3.9539    0.1947    0.0000 N   0  0  0  0  0  0  0  0  0
   -3.2394   -0.2178    0.0000 C   0  0  0  0  0  0  0  0  0
   -3.2394   -1.0428    0.0000 C   0  0  0  0  0  0  0  0  0
   -3.9539    1.0197    0.0000 C   0  0  0  0  0  0  0  0  0
   -3.2394    1.4322    0.0000 C   0  0  0  0  0  0  0  0  0
   -3.2394    2.2572    0.0000 C   0  0  0  0  0  0  0  0  0
   -3.9539    2.6697    0.0000 C   0  0  0  0  0  0  0  0  0
   -4.6683    2.2572    0.0000 C   0  0  0  0  0  0  0  0  0
   -4.6683    1.4322    0.0000 C   0  0  0  0  0  0  0  0  0
   -2.5249    2.6697    0.0000 C   0  0  0  0  0  0  0  0  0
   -1.8105    2.2572    0.0000 C   0  0  0  0  0  0  0  0  0
   -1.8105    1.4322    0.0000 C   0  0  0  0  0  0  0  0  0
   -2.5249    1.0197    0.0000 C   0  0  0  0  0  0  0  0  0
   -3.2394   -2.6928    0.0000 C   0  0  0  0  0  0  0  0  0
   -3.2394   -3.5178    0.0000 C   0  0  0  0  0  0  0  0  0
   -4.9184   -6.6379    0.0000 C   0  0  0  0  0  0  0  0  0
   -5.7254   -6.4664    0.0000 C   0  0  0  0  0  0  0  0  0
  1  2  1  0  0  0  0
  2  3  4  0  0  0  0
  2 32  4  0  0  0  0
  3  4  4  0  0  0  0
  4  5  4  0  0  0  0
  4  8  4  0  0  0  0
  5  6  4  0  0  0  0
  5 31  4  0  0  0  0
  6  7  4  0  0  0  0
  7  8  4  0  0  0  0
  8  9  1  0  0  0  0
  9 10  1  0  0  0  0
  9 30  1  0  0  0  0
 10 11  1  0  0  0  0
 11 12  1  0  0  0  0
 12 13  1  0  0  0  0
 12 29  1  0  0  0  0
 13 14  1  0  0  0  0
 13 18  1  0  0  0  0
 14 15  1  0  0  0  0
 15 16  1  0  0  0  0
 16 17  1  0  0  0  0
 16 19  1  0  0  0  0
 17 18  1  0  0  0  0
 19 20  4  0  0  0  0
 19 24  4  0  0  0  0
 20 21  4  0  0  0  0
 20 28  4  0  0  0  0
 21 22  4  0  0  0  0
 21 25  4  0  0  0  0
 22 23  4  0  0  0  0
 23 24  4  0  0  0  0
 25 26  4  0  0  0  0
 26 27  4  0  0  0  0
 27 28  4  0  0  0  0
 29 30  1  0  0  0  0
 31 32  4  0  0  0  0
M  STY  1   1 DAT
M  SAL   1  1   6
M  SDT   1 MRV_IMPLICIT_H                                        
M  SDD   1     0.0000    0.0000    DR    ALL  0       0  
M  SED   1 IMPL_H1
M  END
>  <Name_Molregno>
468300

>  <5-HT1A>
7.37

$$$$
468386
  Marvin  02231216192D 0   1.00000     0.00000     0

 30 35  0  0  0  0  0  0  0  0999 V2000
    3.4752   -3.1728    0.0000 N   0  0  0  0  0  0  0  0  0
    3.2203   -2.3882    0.0000 C   0  0  0  0  0  0  0  0  0
    3.8877   -1.9032    0.0000 C   0  0  0  0  0  0  0  0  0
    4.5551   -2.3882    0.0000 C   0  0  0  0  0  0  0  0  0
    5.3621   -2.2166    0.0000 C   0  0  0  0  0  0  0  0  0
    5.9141   -2.8297    0.0000 C   0  0  0  0  0  0  0  0  0
    5.6592   -3.6143    0.0000 C   0  0  0  0  0  0  0  0  0
    4.8522   -3.7859    0.0000 N   0  0  0  0  0  0  0  0  0
    4.3002   -3.1728    0.0000 C   0  0  0  0  0  0  0  0  0
    3.8877   -1.0782    0.0000 C   0  0  0  0  0  0  0  0  0
    3.1732   -0.6657    0.0000 C   0  0  0  0  0  0  0  0  0
    3.1732    0.1593    0.0000 C   0  0  0  0  0  0  0  0  0
    3.8877    0.5718    0.0000 C   0  0  0  0  0  0  0  0  0
    3.8877    1.3968    0.0000 N   0  0  0  0  0  0  0  0  0
    3.1732    1.8093    0.0000 C   0  0  0  0  0  0  0  0  0
    3.1732    2.6343    0.0000 C   0  0  0  0  0  0  0  0  0
    3.8877    3.0468    0.0000 N   0  0  0  0  0  0  0  0  0
    4.6022    2.6343    0.0000 C   0  0  0  0  0  0  0  0  0
    4.6022    1.8093    0.0000 C   0  0  0  0  0  0  0  0  0
    3.8877    3.8718    0.0000 C   0  0  0  0  0  0  0  0  0
    3.1732    4.2843    0.0000 C   0  0  0  0  0  0  0  0  0
    2.3886    4.0293    0.0000 C   0  0  0  0  0  0  0  0  0
    1.9037    4.6968    0.0000 C   0  0  0  0  0  0  0  0  0
    2.3886    5.3642    0.0000 N   0  0  0  0  0  0  0  0  0
    3.1732    5.1093    0.0000 C   0  0  0  0  0  0  0  0  0
    3.8877    5.5218    0.0000 C   0  0  0  0  0  0  0  0  0
    4.6022    5.1093    0.0000 C   0  0  0  0  0  0  0  0  0
    4.6022    4.2843    0.0000 C   0  0  0  0  0  0  0  0  0
    4.6022    0.1593    0.0000 C   0  0  0  0  0  0  0  0  0
    4.6022   -0.6657    0.0000 C   0  0  0  0  0  0  0  0  0
  1  2  4  0  0  0  0
  1  9  4  0  0  0  0
  2  3  4  0  0  0  0
  3  4  4  0  0  0  0
  3 10  1  0  0  0  0
  4  5  4  0  0  0  0
  4  9  4  0  0  0  0
  5  6  4  0  0  0  0
  6  7  4  0  0  0  0
  7  8  4  0  0  0  0
  8  9  4  0  0  0  0
 10 11  1  0  0  0  0
 10 30  1  0  0  0  0
 11 12  1  0  0  0  0
 12 13  1  0  0  0  0
 13 14  1  0  0  0  0
 13 29  1  0  0  0  0
 14 15  1  0  0  0  0
 14 19  1  0  0  0  0
 15 16  1  0  0  0  0
 16 17  1  0  0  0  0
 17 18  1  0  0  0  0
 17 20  1  0  0  0  0
 18 19  1  0  0  0  0
 20 21  4  0  0  0  0
 20 28  4  0  0  0  0
 21 22  1  0  0  0  0
 21 25  4  0  0  0  0
 22 23  1  0  0  0  0
 23 24  2  0  0  0  0
 24 25  1  0  0  0  0
 25 26  4  0  0  0  0
 26 27  4  0  0  0  0
 27 28  4  0  0  0  0
 29 30  1  0  0  0  0
M  STY  1   1 DAT
M  SAL   1  1   1
M  SDT   1 MRV_IMPLICIT_H                                        
M  SDD   1     0.0000    0.0000    DR    ALL  0       0  
M  SED   1 IMPL_H1
M  END
>  <Name_Molregno>
468386

>  <5-HT1A>
7.95

$$$$
468620
  Marvin  02231216192D 0   1.00000     0.00000     0

 30 35  0  0  0  0  0  0  0  0999 V2000
    4.7160   -3.1728    0.0000 N   0  0  0  0  0  0  0  0  0
    4.9709   -2.3882    0.0000 C   0  0  0  0  0  0  0  0  0
    4.3035   -1.9032    0.0000 C   0  0  0  0  0  0  0  0  0
    3.6360   -2.3882    0.0000 C   0  0  0  0  0  0  0  0  0
    3.8910   -3.1728    0.0000 C   0  0  0  0  0  0  0  0  0
    3.3390   -3.7859    0.0000 C   0  0  0  0  0  0  0  0  0
    2.5320   -3.6143    0.0000 C   0  0  0  0  0  0  0  0  0
    2.2770   -2.8297    0.0000 C   0  0  0  0  0  0  0  0  0
    2.8291   -2.2166    0.0000 C   0  0  0  0  0  0  0  0  0
    4.3035   -1.0782    0.0000 C   0  0  0  0  0  0  0  0  0
    3.5890   -0.6657    0.0000 C   0  0  0  0  0  0  0  0  0
    3.5890    0.1593    0.0000 C   0  0  0  0  0  0  0  0  0
    4.3035    0.5718    0.0000 C   0  0  0  0  0  0  0  0  0
    4.3035    1.3968    0.0000 N   0  0  0  0  0  0  0  0  0
    3.5890    1.8093    0.0000 C   0  0  0  0  0  0  0  0  0
    3.5890    2.6343    0.0000 C   0  0  0  0  0  0  0  0  0
    4.3035    3.0468    0.0000 N   0  0  0  0  0  0  0  0  0
    5.0180    2.6343    0.0000 C   0  0  0  0  0  0  0  0  0
    5.0180    1.8093    0.0000 C   0  0  0  0  0  0  0  0  0
    4.3035    3.8718    0.0000 C   0  0  0  0  0  0  0  0  0
    3.5890    4.2843    0.0000 C   0  0  0  0  0  0  0  0  0
    3.5890    5.1093    0.0000 C   0  0  0  0  0  0  0  0  0
    2.8044    5.3642    0.0000 N   0  0  0  0  0  0  0  0  0
    2.3195    4.6968    0.0000 C   0  0  0  0  0  0  0  0  0
    2.8044    4.0293    0.0000 C   0  0  0  0  0  0  0  0  0
    4.3035    5.5218    0.0000 C   0  0  0  0  0  0  0  0  0
    5.0180    5.1093    0.0000 C   0  0  0  0  0  0  0  0  0
    5.0180    4.2843    0.0000 C   0  0  0  0  0  0  0  0  0
    5.0180    0.1593    0.0000 C   0  0  0  0  0  0  0  0  0
    5.0180   -0.6657    0.0000 C   0  0  0  0  0  0  0  0  0
  1  2  4  0  0  0  0
  1  5  4  0  0  0  0
  2  3  4  0  0  0  0
  3  4  4  0  0  0  0
  3 10  1  0  0  0  0
  4  5  4  0  0  0  0
  4  9  4  0  0  0  0
  5  6  4  0  0  0  0
  6  7  4  0  0  0  0
  7  8  4  0  0  0  0
  8  9  4  0  0  0  0
 10 11  1  0  0  0  0
 10 30  1  0  0  0  0
 11 12  1  0  0  0  0
 12 13  1  0  0  0  0
 13 14  1  0  0  0  0
 13 29  1  0  0  0  0
 14 15  1  0  0  0  0
 14 19  1  0  0  0  0
 15 16  1  0  0  0  0
 16 17  1  0  0  0  0
 17 18  1  0  0  0  0
 17 20  1  0  0  0  0
 18 19  1  0  0  0  0
 20 21  4  0  0  0  0
 20 28  4  0  0  0  0
 21 22  4  0  0  0  0
 21 25  4  0  0  0  0
 22 23  4  0  0  0  0
 22 26  4  0  0  0  0
 23 24  4  0  0  0  0
 24 25  4  0  0  0  0
 26 27  4  0  0  0  0
 27 28  4  0  0  0  0
 29 30  1  0  0  0  0
M  STY  2   1 DAT   2 DAT
M  SAL   1  1   1
M  SDT   1 MRV_IMPLICIT_H                                        
M  SDD   1     0.0000    0.0000    DR    ALL  0       0  
M  SED   1 IMPL_H1
M  SAL   2  1  23
M  SDT   2 MRV_IMPLICIT_H                                        
M  SDD   2     0.0000    0.0000    DR    ALL  0       0  
M  SED   2 IMPL_H1
M  END
>  <Name_Molregno>
468620

>  <5-HT1A>
7.88

$$$$
468687
  Marvin  02231216192D 0   1.00000     0.00000     0

 32 37  0  0  0  0  0  0  0  0999 V2000
   -4.6715   -6.9091    0.0000 F   0  0  0  0  0  0  0  0  0
   -3.8646   -7.0806    0.0000 C   0  0  0  0  0  0  0  0  0
   -3.3125   -6.4676    0.0000 C   0  0  0  0  0  0  0  0  0
   -2.5056   -6.6391    0.0000 C   0  0  0  0  0  0  0  0  0
   -2.2506   -7.4237    0.0000 C   0  0  0  0  0  0  0  0  0
   -1.4256   -7.4237    0.0000 N   0  0  0  0  0  0  0  0  0
   -1.1707   -6.6391    0.0000 C   0  0  0  0  0  0  0  0  0
   -1.8381   -6.1542    0.0000 C   0  0  0  0  0  0  0  0  0
   -1.8381   -5.3292    0.0000 C   0  0  0  0  0  0  0  0  0
   -2.5526   -4.9167    0.0000 C   0  0  0  0  0  0  0  0  0
   -2.5526   -4.0917    0.0000 C   0  0  0  0  0  0  0  0  0
   -1.8381   -3.6792    0.0000 C   0  0  0  0  0  0  0  0  0
   -1.8381   -2.8542    0.0000 N   0  0  0  0  0  0  0  0  0
   -2.5526   -2.4417    0.0000 C   0  0  0  0  0  0  0  0  0
   -2.5526   -1.6167    0.0000 C   0  0  0  0  0  0  0  0  0
   -1.8381   -1.2042    0.0000 N   0  0  0  0  0  0  0  0  0
   -1.1237   -1.6167    0.0000 C   0  0  0  0  0  0  0  0  0
   -1.1237   -2.4417    0.0000 C   0  0  0  0  0  0  0  0  0
   -1.8381   -0.3792    0.0000 C   0  0  0  0  0  0  0  0  0
   -2.5526    0.0333    0.0000 C   0  0  0  0  0  0  0  0  0
   -2.5526    0.8583    0.0000 C   0  0  0  0  0  0  0  0  0
   -3.3372    1.1133    0.0000 N   0  0  0  0  0  0  0  0  0
   -3.8221    0.4458    0.0000 C   0  0  0  0  0  0  0  0  0
   -3.3372   -0.2216    0.0000 C   0  0  0  0  0  0  0  0  0
   -1.8381    1.2708    0.0000 C   0  0  0  0  0  0  0  0  0
   -1.1237    0.8583    0.0000 C   0  0  0  0  0  0  0  0  0
   -1.1237    0.0333    0.0000 C   0  0  0  0  0  0  0  0  0
   -1.1237   -4.0917    0.0000 C   0  0  0  0  0  0  0  0  0
   -1.1237   -4.9167    0.0000 C   0  0  0  0  0  0  0  0  0
   -0.9407   -8.0911    0.0000 C   0  0  0  0  0  0  0  0  0
   -2.8027   -8.0368    0.0000 C   0  0  0  0  0  0  0  0  0
   -3.6096   -7.8653    0.0000 C   0  0  0  0  0  0  0  0  0
  1  2  1  0  0  0  0
  2  3  4  0  0  0  0
  2 32  4  0  0  0  0
  3  4  4  0  0  0  0
  4  5  4  0  0  0  0
  4  8  4  0  0  0  0
  5  6  4  0  0  0  0
  5 31  4  0  0  0  0
  6  7  4  0  0  0  0
  6 30  1  0  0  0  0
  7  8  4  0  0  0  0
  8  9  1  0  0  0  0
  9 10  1  0  0  0  0
  9 29  1  0  0  0  0
 10 11  1  0  0  0  0
 11 12  1  0  0  0  0
 12 13  1  0  0  0  0
 12 28  1  0  0  0  0
 13 14  1  0  0  0  0
 13 18  1  0  0  0  0
 14 15  1  0  0  0  0
 15 16  1  0  0  0  0
 16 17  1  0  0  0  0
 16 19  1  0  0  0  0
 17 18  1  0  0  0  0
 19 20  4  0  0  0  0
 19 27  4  0  0  0  0
 20 21  4  0  0  0  0
 20 24  4  0  0  0  0
 21 22  4  0  0  0  0
 21 25  4  0  0  0  0
 22 23  4  0  0  0  0
 23 24  4  0  0  0  0
 25 26  4  0  0  0  0
 26 27  4  0  0  0  0
 28 29  1  0  0  0  0
 31 32  4  0  0  0  0
M  STY  1   1 DAT
M  SAL   1  1  22
M  SDT   1 MRV_IMPLICIT_H                                        
M  SDD   1     0.0000    0.0000    DR    ALL  0       0  
M  SED   1 IMPL_H1
M  END
>  <Name_Molregno>
468687

>  <5-HT1A>
6.98

$$$$
468689
  Marvin  02231216192D 0   1.00000     0.00000     0

 31 36  0  0  0  0  0  0  0  0999 V2000
    7.4081   -3.8155    0.0000 F   0  0  0  0  0  0  0  0  0
    6.8560   -3.2024    0.0000 C   0  0  0  0  0  0  0  0  0
    6.0491   -3.3739    0.0000 C   0  0  0  0  0  0  0  0  0
    5.4970   -2.7608    0.0000 C   0  0  0  0  0  0  0  0  0
    4.6720   -2.7608    0.0000 N   0  0  0  0  0  0  0  0  0
    4.4171   -1.9762    0.0000 C   0  0  0  0  0  0  0  0  0
    5.0845   -1.4913    0.0000 C   0  0  0  0  0  0  0  0  0
    5.7520   -1.9762    0.0000 C   0  0  0  0  0  0  0  0  0
    6.5590   -1.8047    0.0000 C   0  0  0  0  0  0  0  0  0
    7.1110   -2.4178    0.0000 C   0  0  0  0  0  0  0  0  0
    5.0845   -0.6663    0.0000 C   0  0  0  0  0  0  0  0  0
    4.3701   -0.2538    0.0000 C   0  0  0  0  0  0  0  0  0
    4.3701    0.5712    0.0000 C   0  0  0  0  0  0  0  0  0
    5.0845    0.9837    0.0000 C   0  0  0  0  0  0  0  0  0
    5.0845    1.8087    0.0000 N   0  0  0  0  0  0  0  0  0
    4.3701    2.2212    0.0000 C   0  0  0  0  0  0  0  0  0
    4.3701    3.0462    0.0000 C   0  0  0  0  0  0  0  0  0
    5.0845    3.4587    0.0000 N   0  0  0  0  0  0  0  0  0
    5.7990    3.0462    0.0000 C   0  0  0  0  0  0  0  0  0
    5.7990    2.2212    0.0000 C   0  0  0  0  0  0  0  0  0
    5.0845    4.2837    0.0000 C   0  0  0  0  0  0  0  0  0
    4.3701    4.6962    0.0000 C   0  0  0  0  0  0  0  0  0
    4.3701    5.5212    0.0000 C   0  0  0  0  0  0  0  0  0
    3.5855    5.7762    0.0000 N   0  0  0  0  0  0  0  0  0
    3.1005    5.1087    0.0000 C   0  0  0  0  0  0  0  0  0
    3.5855    4.4413    0.0000 C   0  0  0  0  0  0  0  0  0
    5.0845    5.9337    0.0000 C   0  0  0  0  0  0  0  0  0
    5.7990    5.5212    0.0000 C   0  0  0  0  0  0  0  0  0
    5.7990    4.6962    0.0000 C   0  0  0  0  0  0  0  0  0
    5.7990    0.5712    0.0000 C   0  0  0  0  0  0  0  0  0
    5.7990   -0.2538    0.0000 C   0  0  0  0  0  0  0  0  0
  1  2  1  0  0  0  0
  2  3  4  0  0  0  0
  2 10  4  0  0  0  0
  3  4  4  0  0  0  0
  4  5  4  0  0  0  0
  4  8  4  0  0  0  0
  5  6  4  0  0  0  0
  6  7  4  0  0  0  0
  7  8  4  0  0  0  0
  7 11  1  0  0  0  0
  8  9  4  0  0  0  0
  9 10  4  0  0  0  0
 11 12  1  0  0  0  0
 11 31  1  0  0  0  0
 12 13  1  0  0  0  0
 13 14  1  0  0  0  0
 14 15  1  0  0  0  0
 14 30  1  0  0  0  0
 15 16  1  0  0  0  0
 15 20  1  0  0  0  0
 16 17  1  0  0  0  0
 17 18  1  0  0  0  0
 18 19  1  0  0  0  0
 18 21  1  0  0  0  0
 19 20  1  0  0  0  0
 21 22  4  0  0  0  0
 21 29  4  0  0  0  0
 22 23  4  0  0  0  0
 22 26  4  0  0  0  0
 23 24  4  0  0  0  0
 23 27  4  0  0  0  0
 24 25  4  0  0  0  0
 25 26  4  0  0  0  0
 27 28  4  0  0  0  0
 28 29  4  0  0  0  0
 30 31  1  0  0  0  0
M  STY  2   1 DAT   2 DAT
M  SAL   1  1   5
M  SDT   1 MRV_IMPLICIT_H                                        
M  SDD   1     0.0000    0.0000    DR    ALL  0       0  
M  SED   1 IMPL_H1
M  SAL   2  1  24
M  SDT   2 MRV_IMPLICIT_H                                        
M  SDD   2     0.0000    0.0000    DR    ALL  0       0  
M  SED   2 IMPL_H1
M  END
>  <Name_Molregno>
468689

>  <5-HT1A>
7.87

$$$$
468760
  Marvin  02231216192D 0   1.00000     0.00000     0

 31 36  0  0  0  0  0  0  0  0999 V2000
   -4.0586   -2.1049    0.0000 F   0  0  0  0  0  0  0  0  0
   -3.8037   -2.8896    0.0000 C   0  0  0  0  0  0  0  0  0
   -2.9967   -3.0611    0.0000 C   0  0  0  0  0  0  0  0  0
   -2.7417   -3.8457    0.0000 C   0  0  0  0  0  0  0  0  0
   -1.9167   -3.8457    0.0000 N   0  0  0  0  0  0  0  0  0
   -1.6618   -3.0611    0.0000 C   0  0  0  0  0  0  0  0  0
   -2.3292   -2.5762    0.0000 C   0  0  0  0  0  0  0  0  0
   -2.3292   -1.7512    0.0000 C   0  0  0  0  0  0  0  0  0
   -3.0437   -1.3387    0.0000 C   0  0  0  0  0  0  0  0  0
   -3.0437   -0.5137    0.0000 C   0  0  0  0  0  0  0  0  0
   -2.3292   -0.1012    0.0000 C   0  0  0  0  0  0  0  0  0
   -2.3292    0.7238    0.0000 N   0  0  0  0  0  0  0  0  0
   -3.0437    1.1363    0.0000 C   0  0  0  0  0  0  0  0  0
   -3.0437    1.9613    0.0000 C   0  0  0  0  0  0  0  0  0
   -2.3292    2.3738    0.0000 N   0  0  0  0  0  0  0  0  0
   -1.6148    1.9613    0.0000 C   0  0  0  0  0  0  0  0  0
   -1.6148    1.1363    0.0000 C   0  0  0  0  0  0  0  0  0
   -2.3292    3.1988    0.0000 C   0  0  0  0  0  0  0  0  0
   -3.0437    3.6113    0.0000 C   0  0  0  0  0  0  0  0  0
   -3.0437    4.4363    0.0000 C   0  0  0  0  0  0  0  0  0
   -3.8283    4.6913    0.0000 N   0  0  0  0  0  0  0  0  0
   -4.3133    4.0238    0.0000 C   0  0  0  0  0  0  0  0  0
   -3.8283    3.3564    0.0000 C   0  0  0  0  0  0  0  0  0
   -2.3292    4.8488    0.0000 C   0  0  0  0  0  0  0  0  0
   -1.6148    4.4363    0.0000 C   0  0  0  0  0  0  0  0  0
   -1.6148    3.6113    0.0000 C   0  0  0  0  0  0  0  0  0
   -1.6148   -0.5137    0.0000 C   0  0  0  0  0  0  0  0  0
   -1.6148   -1.3387    0.0000 C   0  0  0  0  0  0  0  0  0
   -3.2938   -4.4588    0.0000 C   0  0  0  0  0  0  0  0  0
   -4.1007   -4.2873    0.0000 C   0  0  0  0  0  0  0  0  0
   -4.3557   -3.5027    0.0000 C   0  0  0  0  0  0  0  0  0
  1  2  1  0  0  0  0
  2  3  4  0  0  0  0
  2 31  4  0  0  0  0
  3  4  4  0  0  0  0
  3  7  4  0  0  0  0
  4  5  4  0  0  0  0
  4 29  4  0  0  0  0
  5  6  4  0  0  0  0
  6  7  4  0  0  0  0
  7  8  1  0  0  0  0
  8  9  1  0  0  0  0
  8 28  1  0  0  0  0
  9 10  1  0  0  0  0
 10 11  1  0  0  0  0
 11 12  1  0  0  0  0
 11 27  1  0  0  0  0
 12 13  1  0  0  0  0
 12 17  1  0  0  0  0
 13 14  1  0  0  0  0
 14 15  1  0  0  0  0
 15 16  1  0  0  0  0
 15 18  1  0  0  0  0
 16 17  1  0  0  0  0
 18 19  4  0  0  0  0
 18 26  4  0  0  0  0
 19 20  4  0  0  0  0
 19 23  4  0  0  0  0
 20 21  4  0  0  0  0
 20 24  4  0  0  0  0
 21 22  4  0  0  0  0
 22 23  4  0  0  0  0
 24 25  4  0  0  0  0
 25 26  4  0  0  0  0
 27 28  1  0  0  0  0
 29 30  4  0  0  0  0
 30 31  4  0  0  0  0
M  STY  2   1 DAT   2 DAT
M  SAL   1  1   5
M  SDT   1 MRV_IMPLICIT_H                                        
M  SDD   1     0.0000    0.0000    DR    ALL  0       0  
M  SED   1 IMPL_H1
M  SAL   2  1  21
M  SDT   2 MRV_IMPLICIT_H                                        
M  SDD   2     0.0000    0.0000    DR    ALL  0       0  
M  SED   2 IMPL_H1
M  END
>  <Name_Molregno>
468760

>  <5-HT1A>
7.29

$$$$
468762
  Marvin  02231216192D 0   1.00000     0.00000     0

 32 37  0  0  0  0  0  0  0  0999 V2000
   -4.0704   -2.1147    0.0000 N   0  0  0  0  0  0  0  0  0
   -4.3253   -1.3301    0.0000 C   0  0  0  0  0  0  0  0  0
   -3.6579   -0.8452    0.0000 C   0  0  0  0  0  0  0  0  0
   -2.9905   -1.3301    0.0000 C   0  0  0  0  0  0  0  0  0
   -2.1835   -1.1585    0.0000 C   0  0  0  0  0  0  0  0  0
   -1.6315   -1.7716    0.0000 C   0  0  0  0  0  0  0  0  0
   -1.8864   -2.5563    0.0000 C   0  0  0  0  0  0  0  0  0
   -2.6934   -2.7278    0.0000 C   0  0  0  0  0  0  0  0  0
   -3.2454   -2.1147    0.0000 C   0  0  0  0  0  0  0  0  0
   -0.8245   -1.6001    0.0000 C   0  0  0  0  0  0  0  0  0
   -0.0175   -1.4286    0.0000 N   0  0  0  0  0  0  0  0  0
   -3.6579   -0.0202    0.0000 C   0  0  0  0  0  0  0  0  0
   -4.3724    0.3923    0.0000 C   0  0  0  0  0  0  0  0  0
   -4.3724    1.2173    0.0000 C   0  0  0  0  0  0  0  0  0
   -3.6579    1.6298    0.0000 C   0  0  0  0  0  0  0  0  0
   -3.6579    2.4548    0.0000 N   0  0  0  0  0  0  0  0  0
   -4.3724    2.8673    0.0000 C   0  0  0  0  0  0  0  0  0
   -4.3724    3.6923    0.0000 C   0  0  0  0  0  0  0  0  0
   -3.6579    4.1048    0.0000 N   0  0  0  0  0  0  0  0  0
   -2.9434    3.6923    0.0000 C   0  0  0  0  0  0  0  0  0
   -2.9434    2.8673    0.0000 C   0  0  0  0  0  0  0  0  0
   -3.6579    4.9298    0.0000 C   0  0  0  0  0  0  0  0  0
   -4.3724    5.3423    0.0000 C   0  0  0  0  0  0  0  0  0
   -4.3724    6.1673    0.0000 C   0  0  0  0  0  0  0  0  0
   -5.1570    6.4223    0.0000 N   0  0  0  0  0  0  0  0  0
   -5.6419    5.7548    0.0000 C   0  0  0  0  0  0  0  0  0
   -5.1570    5.0874    0.0000 C   0  0  0  0  0  0  0  0  0
   -3.6579    6.5798    0.0000 C   0  0  0  0  0  0  0  0  0
   -2.9434    6.1673    0.0000 C   0  0  0  0  0  0  0  0  0
   -2.9434    5.3423    0.0000 C   0  0  0  0  0  0  0  0  0
   -2.9434    1.2173    0.0000 C   0  0  0  0  0  0  0  0  0
   -2.9434    0.3923    0.0000 C   0  0  0  0  0  0  0  0  0
  1  2  4  0  0  0  0
  1  9  4  0  0  0  0
  2  3  4  0  0  0  0
  3  4  4  0  0  0  0
  3 12  1  0  0  0  0
  4  5  4  0  0  0  0
  4  9  4  0  0  0  0
  5  6  4  0  0  0  0
  6  7  4  0  0  0  0
  6 10  1  0  0  0  0
  7  8  4  0  0  0  0
  8  9  4  0  0  0  0
 10 11  3  0  0  0  0
 12 13  1  0  0  0  0
 12 32  1  0  0  0  0
 13 14  1  0  0  0  0
 14 15  1  0  0  0  0
 15 16  1  0  0  0  0
 15 31  1  0  0  0  0
 16 17  1  0  0  0  0
 16 21  1  0  0  0  0
 17 18  1  0  0  0  0
 18 19  1  0  0  0  0
 19 20  1  0  0  0  0
 19 22  1  0  0  0  0
 20 21  1  0  0  0  0
 22 23  4  0  0  0  0
 22 30  4  0  0  0  0
 23 24  4  0  0  0  0
 23 27  4  0  0  0  0
 24 25  4  0  0  0  0
 24 28  4  0  0  0  0
 25 26  4  0  0  0  0
 26 27  4  0  0  0  0
 28 29  4  0  0  0  0
 29 30  4  0  0  0  0
 31 32  1  0  0  0  0
M  STY  2   1 DAT   2 DAT
M  SAL   1  1   1
M  SDT   1 MRV_IMPLICIT_H                                        
M  SDD   1     0.0000    0.0000    DR    ALL  0       0  
M  SED   1 IMPL_H1
M  SAL   2  1  25
M  SDT   2 MRV_IMPLICIT_H                                        
M  SDD   2     0.0000    0.0000    DR    ALL  0       0  
M  SED   2 IMPL_H1
M  END
>  <Name_Molregno>
468762

>  <5-HT1A>
7.81

$$$$
468849
  Marvin  02231216192D 0   1.00000     0.00000     0

 33 38  0  0  0  0  0  0  0  0999 V2000
   -5.4550    5.1722    0.0000 N   0  0  0  0  0  0  0  0  0
   -6.1224    4.6873    0.0000 C   0  0  0  0  0  0  0  0  0
   -5.8675    3.9026    0.0000 C   0  0  0  0  0  0  0  0  0
   -5.0425    3.9026    0.0000 C   0  0  0  0  0  0  0  0  0
   -4.7876    4.6873    0.0000 C   0  0  0  0  0  0  0  0  0
   -6.4195    3.2895    0.0000 C   0  0  0  0  0  0  0  0  0
   -6.1646    2.5049    0.0000 N   0  0  0  0  0  0  0  0  0
   -5.3576    2.3334    0.0000 C   0  0  0  0  0  0  0  0  0
   -5.1027    1.5488    0.0000 C   0  0  0  0  0  0  0  0  0
   -5.6547    0.9357    0.0000 N   0  0  0  0  0  0  0  0  0
   -6.4617    1.1072    0.0000 C   0  0  0  0  0  0  0  0  0
   -6.7166    1.8918    0.0000 C   0  0  0  0  0  0  0  0  0
   -5.3998    0.1511    0.0000 C   0  0  0  0  0  0  0  0  0
   -4.5928   -0.0205    0.0000 C   0  0  0  0  0  0  0  0  0
   -4.3379   -0.8051    0.0000 C   0  0  0  0  0  0  0  0  0
   -4.8899   -1.4182    0.0000 C   0  0  0  0  0  0  0  0  0
   -5.6969   -1.2467    0.0000 C   0  0  0  0  0  0  0  0  0
   -5.9518   -0.4620    0.0000 C   0  0  0  0  0  0  0  0  0
   -4.6350   -2.2028    0.0000 C   0  0  0  0  0  0  0  0  0
   -3.8503   -2.4578    0.0000 C   0  0  0  0  0  0  0  0  0
   -3.1359   -2.0453    0.0000 C   0  0  0  0  0  0  0  0  0
   -2.4214   -2.4578    0.0000 C   0  0  0  0  0  0  0  0  0
   -2.4214   -3.2828    0.0000 C   0  0  0  0  0  0  0  0  0
   -3.1359   -3.6953    0.0000 C   0  0  0  0  0  0  0  0  0
   -3.8503   -3.2828    0.0000 C   0  0  0  0  0  0  0  0  0
   -4.6350   -3.5377    0.0000 N   0  0  0  0  0  0  0  0  0
   -5.1199   -2.8703    0.0000 C   0  0  0  0  0  0  0  0  0
   -4.8899   -4.3223    0.0000 C   0  0  0  0  0  0  0  0  0
   -1.7069   -2.0453    0.0000 C   0  0  0  0  0  0  0  0  0
   -0.9925   -1.6328    0.0000 N   0  0  0  0  0  0  0  0  0
   -7.2265    3.4611    0.0000 C   0  0  0  0  0  0  0  0  0
   -7.4814    4.2457    0.0000 C   0  0  0  0  0  0  0  0  0
   -6.9294    4.8588    0.0000 C   0  0  0  0  0  0  0  0  0
  1  2  4  0  0  0  0
  1  5  4  0  0  0  0
  2  3  4  0  0  0  0
  2 33  4  0  0  0  0
  3  4  4  0  0  0  0
  3  6  4  0  0  0  0
  4  5  4  0  0  0  0
  6  7  1  0  0  0  0
  6 31  4  0  0  0  0
  7  8  1  0  0  0  0
  7 12  1  0  0  0  0
  8  9  1  0  0  0  0
  9 10  1  0  0  0  0
 10 11  1  0  0  0  0
 10 13  1  0  0  0  0
 11 12  1  0  0  0  0
 13 14  1  0  0  0  0
 13 18  1  0  0  0  0
 14 15  1  0  0  0  0
 15 16  1  0  0  0  0
 16 17  1  0  0  0  0
 16 19  1  0  0  0  0
 17 18  1  0  0  0  0
 19 20  4  0  0  0  0
 19 27  4  0  0  0  0
 20 21  4  0  0  0  0
 20 25  4  0  0  0  0
 21 22  4  0  0  0  0
 22 23  4  0  0  0  0
 22 29  1  0  0  0  0
 23 24  4  0  0  0  0
 24 25  4  0  0  0  0
 25 26  4  0  0  0  0
 26 27  4  0  0  0  0
 26 28  1  0  0  0  0
 29 30  3  0  0  0  0
 31 32  4  0  0  0  0
 32 33  4  0  0  0  0
M  STY  1   1 DAT
M  SAL   1  1   1
M  SDT   1 MRV_IMPLICIT_H                                        
M  SDD   1     0.0000    0.0000    DR    ALL  0       0  
M  SED   1 IMPL_H1
M  END
>  <Name_Molregno>
468849

>  <5-HT1A>
6.95

$$$$
468926
  Marvin  02231216192D 0   1.00000     0.00000     0

 38 41  0  0  0  0  0  0  0  0999 V2000
  -14.1489   -0.0818    0.0000 S   0  0  0  0  0  0  0  0  0
  -13.4344   -0.4943    0.0000 O   0  0  0  0  0  0  0  0  0
  -12.7200   -0.0818    0.0000 C   0  0  0  0  0  0  0  0  0
  -12.7200    0.7432    0.0000 C   0  0  0  0  0  0  0  0  0
  -12.0055    1.1557    0.0000 C   0  0  0  0  0  0  0  0  0
  -11.2910    0.7432    0.0000 C   0  0  0  0  0  0  0  0  0
  -11.2910   -0.0818    0.0000 C   0  0  0  0  0  0  0  0  0
  -12.0055   -0.4943    0.0000 C   0  0  0  0  0  0  0  0  0
  -10.5765    1.1557    0.0000 C   0  0  0  0  0  0  0  0  0
   -9.8621    0.7432    0.0000 N   0  0  0  0  0  0  0  0  0
   -9.1476    1.1557    0.0000 C   0  0  0  0  0  0  0  0  0
   -9.1476    1.9807    0.0000 O   0  0  0  0  0  0  0  0  0
   -8.4331    0.7432    0.0000 C   0  0  0  0  0  0  0  0  0
   -7.7187    1.1557    0.0000 C   0  0  0  0  0  0  0  0  0
   -7.0042    0.7432    0.0000 C   0  0  0  0  0  0  0  0  0
   -6.2897    1.1557    0.0000 C   0  0  0  0  0  0  0  0  0
   -5.5752    0.7432    0.0000 C   0  0  0  0  0  0  0  0  0
   -4.8608    1.1557    0.0000 N   0  0  0  0  0  0  0  0  0
   -4.8608    1.9807    0.0000 C   0  0  0  0  0  0  0  0  0
   -4.1463    2.3932    0.0000 C   0  0  0  0  0  0  0  0  0
   -3.4318    1.9807    0.0000 N   0  0  0  0  0  0  0  0  0
   -3.4318    1.1557    0.0000 C   0  0  0  0  0  0  0  0  0
   -4.1463    0.7432    0.0000 C   0  0  0  0  0  0  0  0  0
   -2.7174    2.3932    0.0000 C   0  0  0  0  0  0  0  0  0
   -2.7174    3.2182    0.0000 C   0  0  0  0  0  0  0  0  0
   -2.0029    3.6307    0.0000 C   0  0  0  0  0  0  0  0  0
   -1.2884    3.2182    0.0000 C   0  0  0  0  0  0  0  0  0
   -1.2884    2.3932    0.0000 C   0  0  0  0  0  0  0  0  0
   -2.0029    1.9807    0.0000 C   0  0  0  0  0  0  0  0  0
   -2.0029    1.1557    0.0000 C   0  0  0  0  0  0  0  0  0
   -1.2884    0.7432    0.0000 C   0  0  0  0  0  0  0  0  0
   -1.2884   -0.0818    0.0000 C   0  0  0  0  0  0  0  0  0
   -2.0029   -0.4943    0.0000 C   0  0  0  0  0  0  0  0  0
   -2.7174   -0.0818    0.0000 C   0  0  0  0  0  0  0  0  0
   -2.7174    0.7432    0.0000 C   0  0  0  0  0  0  0  0  0
  -14.8634    0.3307    0.0000 O   0  0  0  0  0  0  0  0  0
  -13.7364    0.6327    0.0000 O   0  0  0  0  0  0  0  0  0
  -14.5614   -0.7963    0.0000 C   0  0  0  0  0  0  0  0  0
  1  2  1  0  0  0  0
  1 36  2  0  0  0  0
  1 37  2  0  0  0  0
  1 38  1  0  0  0  0
  2  3  1  0  0  0  0
  3  4  4  0  0  0  0
  3  8  4  0  0  0  0
  4  5  4  0  0  0  0
  5  6  4  0  0  0  0
  6  7  4  0  0  0  0
  6  9  1  0  0  0  0
  7  8  4  0  0  0  0
  9 10  1  0  0  0  0
 10 11  1  0  0  0  0
 11 12  2  0  0  0  0
 11 13  1  0  0  0  0
 13 14  1  0  0  0  0
 14 15  1  0  0  0  0
 15 16  1  0  0  0  0
 16 17  1  0  0  0  0
 17 18  1  0  0  0  0
 18 19  1  0  0  0  0
 18 23  1  0  0  0  0
 19 20  1  0  0  0  0
 20 21  1  0  0  0  0
 21 22  1  0  0  0  0
 21 24  1  0  0  0  0
 22 23  1  0  0  0  0
 24 25  4  0  0  0  0
 24 29  4  0  0  0  0
 25 26  4  0  0  0  0
 26 27  4  0  0  0  0
 27 28  4  0  0  0  0
 28 29  4  0  0  0  0
 29 30  1  0  0  0  0
 30 31  4  0  0  0  0
 30 35  4  0  0  0  0
 31 32  4  0  0  0  0
 32 33  4  0  0  0  0
 33 34  4  0  0  0  0
 34 35  4  0  0  0  0
M  END
>  <Name_Molregno>
468926

>  <5-HT1A>
6.97

>  <DOPAMINE D2>
6.14

$$$$
468927
  Marvin  02231216192D 0   1.00000     0.00000     0

 35 37  0  0  0  0  0  0  0  0999 V2000
  -12.7930   -2.3412    0.0000 S   0  0  0  0  0  0  0  0  0
  -12.7930   -1.5162    0.0000 O   0  0  0  0  0  0  0  0  0
  -12.0785   -1.1037    0.0000 C   0  0  0  0  0  0  0  0  0
  -12.0785   -0.2787    0.0000 C   0  0  0  0  0  0  0  0  0
  -11.3640    0.1338    0.0000 C   0  0  0  0  0  0  0  0  0
  -10.6496   -0.2787    0.0000 C   0  0  0  0  0  0  0  0  0
  -10.6496   -1.1037    0.0000 C   0  0  0  0  0  0  0  0  0
  -11.3640   -1.5162    0.0000 C   0  0  0  0  0  0  0  0  0
   -9.9351    0.1338    0.0000 C   0  0  0  0  0  0  0  0  0
   -9.2206   -0.2787    0.0000 N   0  0  0  0  0  0  0  0  0
   -8.5061    0.1338    0.0000 C   0  0  0  0  0  0  0  0  0
   -8.5061    0.9588    0.0000 O   0  0  0  0  0  0  0  0  0
   -7.7917   -0.2787    0.0000 C   0  0  0  0  0  0  0  0  0
   -7.0772    0.1338    0.0000 C   0  0  0  0  0  0  0  0  0
   -6.3627   -0.2787    0.0000 C   0  0  0  0  0  0  0  0  0
   -5.6483    0.1338    0.0000 C   0  0  0  0  0  0  0  0  0
   -4.9338   -0.2787    0.0000 C   0  0  0  0  0  0  0  0  0
   -4.2193    0.1338    0.0000 N   0  0  0  0  0  0  0  0  0
   -4.2193    0.9588    0.0000 C   0  0  0  0  0  0  0  0  0
   -3.5049    1.3713    0.0000 C   0  0  0  0  0  0  0  0  0
   -2.7904    0.9588    0.0000 N   0  0  0  0  0  0  0  0  0
   -2.7904    0.1338    0.0000 C   0  0  0  0  0  0  0  0  0
   -3.5049   -0.2787    0.0000 C   0  0  0  0  0  0  0  0  0
   -2.0759    1.3713    0.0000 C   0  0  0  0  0  0  0  0  0
   -2.0759    2.1963    0.0000 C   0  0  0  0  0  0  0  0  0
   -1.3614    2.6088    0.0000 C   0  0  0  0  0  0  0  0  0
   -0.6470    2.1963    0.0000 C   0  0  0  0  0  0  0  0  0
   -0.6470    1.3713    0.0000 C   0  0  0  0  0  0  0  0  0
   -1.3614    0.9588    0.0000 C   0  0  0  0  0  0  0  0  0
   -1.3614    0.1338    0.0000 C   0  0  0  0  0  0  0  0  0
   -0.6470   -0.2787    0.0000 C   0  0  0  0  0  0  0  0  0
   -2.0759   -0.2787    0.0000 C   0  0  0  0  0  0  0  0  0
  -12.7930   -3.1662    0.0000 O   0  0  0  0  0  0  0  0  0
  -13.6180   -2.3412    0.0000 O   0  0  0  0  0  0  0  0  0
  -11.9680   -2.3412    0.0000 C   0  0  0  0  0  0  0  0  0
  1  2  1  0  0  0  0
  1 33  2  0  0  0  0
  1 34  2  0  0  0  0
  1 35  1  0  0  0  0
  2  3  1  0  0  0  0
  3  4  4  0  0  0  0
  3  8  4  0  0  0  0
  4  5  4  0  0  0  0
  5  6  4  0  0  0  0
  6  7  4  0  0  0  0
  6  9  1  0  0  0  0
  7  8  4  0  0  0  0
  9 10  1  0  0  0  0
 10 11  1  0  0  0  0
 11 12  2  0  0  0  0
 11 13  1  0  0  0  0
 13 14  1  0  0  0  0
 14 15  1  0  0  0  0
 15 16  1  0  0  0  0
 16 17  1  0  0  0  0
 17 18  1  0  0  0  0
 18 19  1  0  0  0  0
 18 23  1  0  0  0  0
 19 20  1  0  0  0  0
 20 21  1  0  0  0  0
 21 22  1  0  0  0  0
 21 24  1  0  0  0  0
 22 23  1  0  0  0  0
 24 25  4  0  0  0  0
 24 29  4  0  0  0  0
 25 26  4  0  0  0  0
 26 27  4  0  0  0  0
 27 28  4  0  0  0  0
 28 29  4  0  0  0  0
 29 30  1  0  0  0  0
 30 31  1  0  0  0  0
 30 32  1  0  0  0  0
M  END
>  <Name_Molregno>
468927

>  <5-HT1A>
7.24

>  <DOPAMINE D2>
8.11

$$$$
468928
  Marvin  02231216192D 0   1.00000     0.00000     0

 34 36  0  0  0  0  0  0  0  0999 V2000
  -12.5276   -2.3635    0.0000 S   0  0  0  0  0  0  0  0  0
  -12.5276   -1.5385    0.0000 O   0  0  0  0  0  0  0  0  0
  -11.8131   -1.1260    0.0000 C   0  0  0  0  0  0  0  0  0
  -11.8131   -0.3010    0.0000 C   0  0  0  0  0  0  0  0  0
  -11.0987    0.1115    0.0000 C   0  0  0  0  0  0  0  0  0
  -10.3842   -0.3010    0.0000 C   0  0  0  0  0  0  0  0  0
  -10.3842   -1.1260    0.0000 C   0  0  0  0  0  0  0  0  0
  -11.0987   -1.5385    0.0000 C   0  0  0  0  0  0  0  0  0
   -9.6697    0.1115    0.0000 C   0  0  0  0  0  0  0  0  0
   -8.9552   -0.3010    0.0000 N   0  0  0  0  0  0  0  0  0
   -8.2408    0.1115    0.0000 C   0  0  0  0  0  0  0  0  0
   -8.2408    0.9365    0.0000 O   0  0  0  0  0  0  0  0  0
   -7.5263   -0.3010    0.0000 C   0  0  0  0  0  0  0  0  0
   -6.8118    0.1115    0.0000 C   0  0  0  0  0  0  0  0  0
   -6.0974   -0.3010    0.0000 C   0  0  0  0  0  0  0  0  0
   -5.3829    0.1115    0.0000 C   0  0  0  0  0  0  0  0  0
   -4.6684   -0.3010    0.0000 C   0  0  0  0  0  0  0  0  0
   -3.9539    0.1115    0.0000 N   0  0  0  0  0  0  0  0  0
   -3.9539    0.9365    0.0000 C   0  0  0  0  0  0  0  0  0
   -3.2395    1.3490    0.0000 C   0  0  0  0  0  0  0  0  0
   -2.5250    0.9365    0.0000 N   0  0  0  0  0  0  0  0  0
   -2.5250    0.1115    0.0000 C   0  0  0  0  0  0  0  0  0
   -3.2395   -0.3010    0.0000 C   0  0  0  0  0  0  0  0  0
   -1.8105    1.3490    0.0000 C   0  0  0  0  0  0  0  0  0
   -1.8105    2.1740    0.0000 C   0  0  0  0  0  0  0  0  0
   -1.0961    2.5865    0.0000 C   0  0  0  0  0  0  0  0  0
   -0.3816    2.1740    0.0000 C   0  0  0  0  0  0  0  0  0
   -0.3816    1.3490    0.0000 C   0  0  0  0  0  0  0  0  0
   -1.0961    0.9365    0.0000 C   0  0  0  0  0  0  0  0  0
   -1.0961    0.1115    0.0000 O   0  0  0  0  0  0  0  0  0
   -0.3816   -0.3010    0.0000 C   0  0  0  0  0  0  0  0  0
  -12.5276   -3.1885    0.0000 O   0  0  0  0  0  0  0  0  0
  -13.3526   -2.3635    0.0000 O   0  0  0  0  0  0  0  0  0
  -11.7026   -2.3635    0.0000 C   0  0  0  0  0  0  0  0  0
  1  2  1  0  0  0  0
  1 32  2  0  0  0  0
  1 33  2  0  0  0  0
  1 34  1  0  0  0  0
  2  3  1  0  0  0  0
  3  4  4  0  0  0  0
  3  8  4  0  0  0  0
  4  5  4  0  0  0  0
  5  6  4  0  0  0  0
  6  7  4  0  0  0  0
  6  9  1  0  0  0  0
  7  8  4  0  0  0  0
  9 10  1  0  0  0  0
 10 11  1  0  0  0  0
 11 12  2  0  0  0  0
 11 13  1  0  0  0  0
 13 14  1  0  0  0  0
 14 15  1  0  0  0  0
 15 16  1  0  0  0  0
 16 17  1  0  0  0  0
 17 18  1  0  0  0  0
 18 19  1  0  0  0  0
 18 23  1  0  0  0  0
 19 20  1  0  0  0  0
 20 21  1  0  0  0  0
 21 22  1  0  0  0  0
 21 24  1  0  0  0  0
 22 23  1  0  0  0  0
 24 25  4  0  0  0  0
 24 29  4  0  0  0  0
 25 26  4  0  0  0  0
 26 27  4  0  0  0  0
 27 28  4  0  0  0  0
 28 29  4  0  0  0  0
 29 30  1  0  0  0  0
 30 31  1  0  0  0  0
M  END
>  <Name_Molregno>
468928

>  <5-HT1A>
7.54

>  <DOPAMINE D2>
7.04

$$$$
468988
  Marvin  02231216192D 0   1.00000     0.00000     0

 25 27  0  0  1  0  0  0  0  0999 V2000
   -4.4937    0.4136    0.0000 O   0  0  0  0  0  0  0  0  0
   -3.7793    0.8261    0.0000 C   0  0  0  0  0  0  0  0  0
   -3.0648    0.4136    0.0000 C   0  0  0  0  0  0  0  0  0
   -3.0648   -0.4114    0.0000 O   0  0  0  0  0  0  0  0  0
   -3.7793   -0.8239    0.0000 C   0  0  0  0  0  0  0  0  0
   -4.4937   -0.4114    0.0000 C   0  0  0  0  0  0  0  0  0
   -5.2082   -0.8239    0.0000 C   0  0  0  0  0  0  0  0  0
   -5.2082   -1.6489    0.0000 C   0  0  0  0  0  0  0  0  0
   -5.9227   -2.0614    0.0000 C   0  0  0  0  0  0  0  0  0
   -6.6372   -1.6489    0.0000 C   0  0  0  0  0  0  0  0  0
   -6.6372   -0.8239    0.0000 C   0  0  0  0  0  0  0  0  0
   -5.9227   -0.4114    0.0000 C   0  0  0  0  0  0  0  0  0
   -2.3503    0.8261    0.0000 C   0  0  0  0  0  0  0  0  0
   -1.6359    0.4136    0.0000 N   0  0  0  0  0  0  0  0  0
   -0.9214    0.8261    0.0000 C   0  0  0  0  0  0  0  0  0
   -0.2069    0.4136    0.0000 C   0  0  0  0  0  0  0  0  0
    0.5076    0.8261    0.0000 O   0  0  0  0  0  0  0  0  0
    1.2220    0.4136    0.0000 C   0  0  0  0  0  0  0  0  0
    1.9365    0.8261    0.0000 C   0  0  0  0  0  0  0  0  0
    2.6510    0.4136    0.0000 C   0  0  0  0  0  0  0  0  0
    2.6510   -0.4114    0.0000 C   0  0  0  0  0  0  0  0  0
    1.9365   -0.8239    0.0000 C   0  0  0  0  0  0  0  0  0
    1.2220   -0.4114    0.0000 C   0  0  0  0  0  0  0  0  0
    0.5076   -0.8239    0.0000 O   0  0  0  0  0  0  0  0  0
    0.5076   -1.6489    0.0000 C   0  0  0  0  0  0  0  0  0
  1  2  1  0  0  0  0
  1  6  1  0  0  0  0
  2  3  1  0  0  0  0
  3  4  1  0  0  0  0
  3 13  1  0  0  0  0
  4  5  1  0  0  0  0
  5  6  1  0  0  0  0
  6  7  1  0  0  0  0
  7  8  4  0  0  0  0
  7 12  4  0  0  0  0
  8  9  4  0  0  0  0
  9 10  4  0  0  0  0
 10 11  4  0  0  0  0
 11 12  4  0  0  0  0
 13 14  1  0  0  0  0
 14 15  1  0  0  0  0
 15 16  1  0  0  0  0
 16 17  1  0  0  0  0
 17 18  1  0  0  0  0
 18 19  4  0  0  0  0
 18 23  4  0  0  0  0
 19 20  4  0  0  0  0
 20 21  4  0  0  0  0
 21 22  4  0  0  0  0
 22 23  4  0  0  0  0
 23 24  1  0  0  0  0
 24 25  1  0  0  0  0
M  END
>  <Name_Molregno>
468988

>  <5-HT1A>
7.93

>  <Alpha-1A>
6.58

>  <Alpha-1B>
6.57

$$$$
468989
  Marvin  02231216192D 0   1.00000     0.00000     0

 27 29  0  0  1  0  0  0  0  0999 V2000
   -5.5377    0.0168    0.0000 O   0  0  0  0  0  0  0  0  0
   -4.8232    0.4293    0.0000 C   0  0  0  0  0  0  0  0  0
   -4.1087    0.0168    0.0000 C   0  0  0  0  0  0  0  0  0
   -4.1087   -0.8082    0.0000 O   0  0  0  0  0  0  0  0  0
   -4.8232   -1.2207    0.0000 C   0  0  0  0  0  0  0  0  0
   -5.5377   -0.8082    0.0000 C   0  0  0  0  0  0  0  0  0
   -6.2521   -1.2207    0.0000 C   0  0  0  0  0  0  0  0  0
   -6.2521   -2.0457    0.0000 C   0  0  0  0  0  0  0  0  0
   -6.9666   -2.4582    0.0000 C   0  0  0  0  0  0  0  0  0
   -7.6811   -2.0457    0.0000 C   0  0  0  0  0  0  0  0  0
   -7.6811   -1.2207    0.0000 C   0  0  0  0  0  0  0  0  0
   -6.9666   -0.8082    0.0000 C   0  0  0  0  0  0  0  0  0
   -3.3942    0.4293    0.0000 C   0  0  0  0  0  0  0  0  0
   -2.6798    0.0168    0.0000 N   0  0  0  0  0  0  0  0  0
   -1.9653    0.4293    0.0000 C   0  0  0  0  0  0  0  0  0
   -1.2508    0.0168    0.0000 C   0  0  0  0  0  0  0  0  0
   -0.5364    0.4293    0.0000 O   0  0  0  0  0  0  0  0  0
    0.1781    0.0168    0.0000 C   0  0  0  0  0  0  0  0  0
    0.8926    0.4293    0.0000 C   0  0  0  0  0  0  0  0  0
    0.8926    1.2543    0.0000 O   0  0  0  0  0  0  0  0  0
    1.6071    1.6668    0.0000 C   0  0  0  0  0  0  0  0  0
    1.6071    0.0168    0.0000 C   0  0  0  0  0  0  0  0  0
    1.6071   -0.8082    0.0000 C   0  0  0  0  0  0  0  0  0
    0.8926   -1.2207    0.0000 C   0  0  0  0  0  0  0  0  0
    0.1781   -0.8082    0.0000 C   0  0  0  0  0  0  0  0  0
   -0.5364   -1.2207    0.0000 O   0  0  0  0  0  0  0  0  0
   -0.5364   -2.0457    0.0000 C   0  0  0  0  0  0  0  0  0
  1  2  1  0  0  0  0
  1  6  1  0  0  0  0
  2  3  1  0  0  0  0
  3  4  1  0  0  0  0
  3 13  1  0  0  0  0
  4  5  1  0  0  0  0
  5  6  1  0  0  0  0
  6  7  1  0  0  0  0
  7  8  4  0  0  0  0
  7 12  4  0  0  0  0
  8  9  4  0  0  0  0
  9 10  4  0  0  0  0
 10 11  4  0  0  0  0
 11 12  4  0  0  0  0
 13 14  1  0  0  0  0
 14 15  1  0  0  0  0
 15 16  1  0  0  0  0
 16 17  1  0  0  0  0
 17 18  1  0  0  0  0
 18 19  4  0  0  0  0
 18 25  4  0  0  0  0
 19 20  1  0  0  0  0
 19 22  4  0  0  0  0
 20 21  1  0  0  0  0
 22 23  4  0  0  0  0
 23 24  4  0  0  0  0
 24 25  4  0  0  0  0
 25 26  1  0  0  0  0
 26 27  1  0  0  0  0
M  END
>  <Name_Molregno>
468989

>  <5-HT1A>
6.61

>  <Alpha-1A>
6.15

>  <Alpha-1B>
6

$$$$
468991
  Marvin  02231216192D 0   1.00000     0.00000     0

 23 25  0  0  1  0  0  0  0  0999 V2000
   -0.0386   -0.0170    0.0000 O   0  0  0  0  0  0  0  0  0
   -0.7531    0.3955    0.0000 C   0  0  0  0  0  0  0  0  0
   -0.7531    1.2205    0.0000 C   0  0  0  0  0  0  0  0  0
   -0.0386    1.6330    0.0000 O   0  0  0  0  0  0  0  0  0
    0.6759    1.2205    0.0000 C   0  0  0  0  0  0  0  0  0
    0.6759    0.3955    0.0000 C   0  0  0  0  0  0  0  0  0
    1.3903   -0.0170    0.0000 C   0  0  0  0  0  0  0  0  0
    2.1048    0.3955    0.0000 N   0  0  0  0  0  0  0  0  0
    2.8193   -0.0170    0.0000 C   0  0  0  0  0  0  0  0  0
    3.5337    0.3955    0.0000 C   0  0  0  0  0  0  0  0  0
    4.2482   -0.0170    0.0000 O   0  0  0  0  0  0  0  0  0
    4.9627    0.3955    0.0000 C   0  0  0  0  0  0  0  0  0
    4.9627    1.2205    0.0000 C   0  0  0  0  0  0  0  0  0
    5.6772    1.6330    0.0000 C   0  0  0  0  0  0  0  0  0
    6.3916    1.2205    0.0000 C   0  0  0  0  0  0  0  0  0
    6.3916    0.3955    0.0000 C   0  0  0  0  0  0  0  0  0
    5.6772   -0.0170    0.0000 C   0  0  0  0  0  0  0  0  0
   -1.4676   -0.0170    0.0000 C   0  0  0  0  0  0  0  0  0
   -1.4676   -0.8420    0.0000 C   0  0  0  0  0  0  0  0  0
   -2.1820   -1.2545    0.0000 C   0  0  0  0  0  0  0  0  0
   -2.8965   -0.8420    0.0000 C   0  0  0  0  0  0  0  0  0
   -2.8965   -0.0170    0.0000 C   0  0  0  0  0  0  0  0  0
   -2.1820    0.3955    0.0000 C   0  0  0  0  0  0  0  0  0
  1  2  1  0  0  0  0
  1  6  1  0  0  0  0
  2  3  1  0  0  0  0
  2 18  1  0  0  0  0
  3  4  1  0  0  0  0
  4  5  1  0  0  0  0
  5  6  1  0  0  0  0
  6  7  1  0  0  0  0
  7  8  1  0  0  0  0
  8  9  1  0  0  0  0
  9 10  1  0  0  0  0
 10 11  1  0  0  0  0
 11 12  1  0  0  0  0
 12 13  4  0  0  0  0
 12 17  4  0  0  0  0
 13 14  4  0  0  0  0
 14 15  4  0  0  0  0
 15 16  4  0  0  0  0
 16 17  4  0  0  0  0
 18 19  4  0  0  0  0
 18 23  4  0  0  0  0
 19 20  4  0  0  0  0
 20 21  4  0  0  0  0
 21 22  4  0  0  0  0
 22 23  4  0  0  0  0
M  END
>  <Name_Molregno>
468991

>  <5-HT1A>
7.28

>  <Alpha-1A>
6.19

>  <Alpha-1B>
6

$$$$
469049
  Marvin  02231216192D 0   1.00000     0.00000     0

 25 27  0  0  1  0  0  0  0  0999 V2000
   -0.0510   -0.4983    0.0000 O   0  0  0  0  0  0  0  0  0
   -0.7655   -0.0858    0.0000 C   0  0  0  0  0  0  0  0  0
   -0.7655    0.7392    0.0000 C   0  0  0  0  0  0  0  0  0
   -0.0510    1.1517    0.0000 O   0  0  0  0  0  0  0  0  0
    0.6634    0.7392    0.0000 C   0  0  0  0  0  0  0  0  0
    0.6634   -0.0858    0.0000 C   0  0  0  0  0  0  0  0  0
    1.3779   -0.4983    0.0000 C   0  0  0  0  0  0  0  0  0
    2.0924   -0.0858    0.0000 N   0  0  0  0  0  0  0  0  0
    2.8069   -0.4983    0.0000 C   0  0  0  0  0  0  0  0  0
    3.5213   -0.0858    0.0000 C   0  0  0  0  0  0  0  0  0
    4.2358   -0.4983    0.0000 O   0  0  0  0  0  0  0  0  0
    4.9503   -0.0858    0.0000 C   0  0  0  0  0  0  0  0  0
    4.9503    0.7392    0.0000 C   0  0  0  0  0  0  0  0  0
    5.6647    1.1517    0.0000 C   0  0  0  0  0  0  0  0  0
    6.3792    0.7392    0.0000 C   0  0  0  0  0  0  0  0  0
    6.3792   -0.0858    0.0000 C   0  0  0  0  0  0  0  0  0
    5.6647   -0.4983    0.0000 C   0  0  0  0  0  0  0  0  0
    5.6647   -1.3233    0.0000 O   0  0  0  0  0  0  0  0  0
    6.3792   -1.7358    0.0000 C   0  0  0  0  0  0  0  0  0
   -1.4800   -0.4983    0.0000 C   0  0  0  0  0  0  0  0  0
   -1.4800   -1.3233    0.0000 C   0  0  0  0  0  0  0  0  0
   -2.1944   -1.7358    0.0000 C   0  0  0  0  0  0  0  0  0
   -2.9089   -1.3233    0.0000 C   0  0  0  0  0  0  0  0  0
   -2.9089   -0.4983    0.0000 C   0  0  0  0  0  0  0  0  0
   -2.1944   -0.0858    0.0000 C   0  0  0  0  0  0  0  0  0
  1  2  1  0  0  0  0
  1  6  1  0  0  0  0
  2  3  1  0  0  0  0
  2 20  1  0  0  0  0
  3  4  1  0  0  0  0
  4  5  1  0  0  0  0
  5  6  1  0  0  0  0
  6  7  1  0  0  0  0
  7  8  1  0  0  0  0
  8  9  1  0  0  0  0
  9 10  1  0  0  0  0
 10 11  1  0  0  0  0
 11 12  1  0  0  0  0
 12 13  4  0  0  0  0
 12 17  4  0  0  0  0
 13 14  4  0  0  0  0
 14 15  4  0  0  0  0
 15 16  4  0  0  0  0
 16 17  4  0  0  0  0
 17 18  1  0  0  0  0
 18 19  1  0  0  0  0
 20 21  4  0  0  0  0
 20 25  4  0  0  0  0
 21 22  4  0  0  0  0
 22 23  4  0  0  0  0
 23 24  4  0  0  0  0
 24 25  4  0  0  0  0
M  END
>  <Name_Molregno>
469049

>  <5-HT1A>
8.3

>  <Alpha-1A>
6.88

>  <Alpha-1B>
6.55

$$$$
469051
  Marvin  02231216192D 0   1.00000     0.00000     0

 27 29  0  0  1  0  0  0  0  0999 V2000
   -0.0512   -0.0274    0.0000 O   0  0  0  0  0  0  0  0  0
   -0.7657    0.3851    0.0000 C   0  0  0  0  0  0  0  0  0
   -0.7657    1.2101    0.0000 C   0  0  0  0  0  0  0  0  0
   -0.0512    1.6226    0.0000 O   0  0  0  0  0  0  0  0  0
    0.6632    1.2101    0.0000 C   0  0  0  0  0  0  0  0  0
    0.6632    0.3851    0.0000 C   0  0  0  0  0  0  0  0  0
    1.3777   -0.0274    0.0000 C   0  0  0  0  0  0  0  0  0
    2.0922    0.3851    0.0000 N   0  0  0  0  0  0  0  0  0
    2.8066   -0.0274    0.0000 C   0  0  0  0  0  0  0  0  0
    3.5211    0.3851    0.0000 C   0  0  0  0  0  0  0  0  0
    4.2356   -0.0274    0.0000 O   0  0  0  0  0  0  0  0  0
    4.9501    0.3851    0.0000 C   0  0  0  0  0  0  0  0  0
    4.9501    1.2101    0.0000 C   0  0  0  0  0  0  0  0  0
    4.2356    1.6226    0.0000 O   0  0  0  0  0  0  0  0  0
    4.2356    2.4476    0.0000 C   0  0  0  0  0  0  0  0  0
    5.6645    1.6226    0.0000 C   0  0  0  0  0  0  0  0  0
    6.3790    1.2101    0.0000 C   0  0  0  0  0  0  0  0  0
    6.3790    0.3851    0.0000 C   0  0  0  0  0  0  0  0  0
    5.6645   -0.0274    0.0000 C   0  0  0  0  0  0  0  0  0
    5.6645   -0.8524    0.0000 O   0  0  0  0  0  0  0  0  0
    6.3790   -1.2649    0.0000 C   0  0  0  0  0  0  0  0  0
   -1.4802   -0.0274    0.0000 C   0  0  0  0  0  0  0  0  0
   -1.4802   -0.8524    0.0000 C   0  0  0  0  0  0  0  0  0
   -2.1947   -1.2649    0.0000 C   0  0  0  0  0  0  0  0  0
   -2.9091   -0.8524    0.0000 C   0  0  0  0  0  0  0  0  0
   -2.9091   -0.0274    0.0000 C   0  0  0  0  0  0  0  0  0
   -2.1947    0.3851    0.0000 C   0  0  0  0  0  0  0  0  0
  1  2  1  0  0  0  0
  1  6  1  0  0  0  0
  2  3  1  0  0  0  0
  2 22  1  0  0  0  0
  3  4  1  0  0  0  0
  4  5  1  0  0  0  0
  5  6  1  0  0  0  0
  6  7  1  0  0  0  0
  7  8  1  0  0  0  0
  8  9  1  0  0  0  0
  9 10  1  0  0  0  0
 10 11  1  0  0  0  0
 11 12  1  0  0  0  0
 12 13  4  0  0  0  0
 12 19  4  0  0  0  0
 13 14  1  0  0  0  0
 13 16  4  0  0  0  0
 14 15  1  0  0  0  0
 16 17  4  0  0  0  0
 17 18  4  0  0  0  0
 18 19  4  0  0  0  0
 19 20  1  0  0  0  0
 20 21  1  0  0  0  0
 22 23  4  0  0  0  0
 22 27  4  0  0  0  0
 23 24  4  0  0  0  0
 24 25  4  0  0  0  0
 25 26  4  0  0  0  0
 26 27  4  0  0  0  0
M  END
>  <Name_Molregno>
469051

>  <5-HT1A>
6.19

>  <Alpha-1A>
6.16

>  <Alpha-1B>
6

$$$$
469053
  Marvin  02231216192D 0   1.00000     0.00000     0

 29 32  0  0  1  0  0  0  0  0999 V2000
   -3.2937    1.3173    0.0000 O   0  0  0  0  0  0  0  0  0
   -2.5792    1.7298    0.0000 C   0  0  0  0  0  0  0  0  0
   -1.8647    1.3173    0.0000 C   0  0  0  0  0  0  0  0  0
   -1.8647    0.4923    0.0000 O   0  0  0  0  0  0  0  0  0
   -2.5792    0.0798    0.0000 C   0  0  0  0  0  0  0  0  0
   -3.2937    0.4923    0.0000 C   0  0  0  0  0  0  0  0  0
   -4.0867    0.7197    0.0000 C   0  0  0  0  0  0  0  0  0
   -4.6802    0.1466    0.0000 C   0  0  0  0  0  0  0  0  0
   -5.4732    0.3740    0.0000 C   0  0  0  0  0  0  0  0  0
   -5.6728    1.1745    0.0000 C   0  0  0  0  0  0  0  0  0
   -5.0793    1.7476    0.0000 C   0  0  0  0  0  0  0  0  0
   -4.2863    1.5202    0.0000 C   0  0  0  0  0  0  0  0  0
   -3.7309   -0.2074    0.0000 C   0  0  0  0  0  0  0  0  0
   -3.3435   -0.9358    0.0000 C   0  0  0  0  0  0  0  0  0
   -3.7807   -1.6354    0.0000 C   0  0  0  0  0  0  0  0  0
   -4.6052   -1.6066    0.0000 C   0  0  0  0  0  0  0  0  0
   -4.9925   -0.8782    0.0000 C   0  0  0  0  0  0  0  0  0
   -4.5554   -0.1786    0.0000 C   0  0  0  0  0  0  0  0  0
   -1.1503    1.7298    0.0000 C   0  0  0  0  0  0  0  0  0
   -0.4358    1.3173    0.0000 N   0  0  0  0  0  0  0  0  0
    0.2787    1.7298    0.0000 C   0  0  0  0  0  0  0  0  0
    0.9931    1.3173    0.0000 C   0  0  0  0  0  0  0  0  0
    1.7076    1.7298    0.0000 O   0  0  0  0  0  0  0  0  0
    2.4221    1.3173    0.0000 C   0  0  0  0  0  0  0  0  0
    3.1366    1.7298    0.0000 C   0  0  0  0  0  0  0  0  0
    3.8510    1.3173    0.0000 C   0  0  0  0  0  0  0  0  0
    3.8510    0.4923    0.0000 C   0  0  0  0  0  0  0  0  0
    3.1366    0.0798    0.0000 C   0  0  0  0  0  0  0  0  0
    2.4221    0.4923    0.0000 C   0  0  0  0  0  0  0  0  0
  1  2  1  0  0  0  0
  1  6  1  0  0  0  0
  2  3  1  0  0  0  0
  3  4  1  0  0  0  0
  3 19  1  0  0  0  0
  4  5  1  0  0  0  0
  5  6  1  0  0  0  0
  6  7  1  0  0  0  0
  6 13  1  0  0  0  0
  7  8  4  0  0  0  0
  7 12  4  0  0  0  0
  8  9  4  0  0  0  0
  9 10  4  0  0  0  0
 10 11  4  0  0  0  0
 11 12  4  0  0  0  0
 13 14  4  0  0  0  0
 13 18  4  0  0  0  0
 14 15  4  0  0  0  0
 15 16  4  0  0  0  0
 16 17  4  0  0  0  0
 17 18  4  0  0  0  0
 19 20  1  0  0  0  0
 20 21  1  0  0  0  0
 21 22  1  0  0  0  0
 22 23  1  0  0  0  0
 23 24  1  0  0  0  0
 24 25  4  0  0  0  0
 24 29  4  0  0  0  0
 25 26  4  0  0  0  0
 26 27  4  0  0  0  0
 27 28  4  0  0  0  0
 28 29  4  0  0  0  0
M  END
>  <Name_Molregno>
469053

>  <5-HT1A>
7.43

>  <Alpha-1A>
6.65

>  <Alpha-1B>
6.85

$$$$
469597
  Marvin  02231216192D 0   1.00000     0.00000     0

 30 33  0  0  0  0  0  0  0  0999 V2000
   -8.7727   -0.1050    0.0000 S   0  0  0  0  0  0  0  0  0
   -9.4871   -0.5175    0.0000 C   0  0  0  0  0  0  0  0  0
   -8.7727    0.7200    0.0000 C   0  0  0  0  0  0  0  0  0
   -9.4871    1.1325    0.0000 C   0  0  0  0  0  0  0  0  0
   -9.4871    1.9575    0.0000 C   0  0  0  0  0  0  0  0  0
   -8.7727    2.3700    0.0000 C   0  0  0  0  0  0  0  0  0
   -8.0582    1.9575    0.0000 C   0  0  0  0  0  0  0  0  0
   -8.0582    1.1325    0.0000 C   0  0  0  0  0  0  0  0  0
   -7.3437    0.7200    0.0000 N   0  0  0  0  0  0  0  0  0
   -6.6292    1.1325    0.0000 C   0  0  0  0  0  0  0  0  0
   -5.9148    0.7200    0.0000 C   0  0  0  0  0  0  0  0  0
   -5.9148   -0.1050    0.0000 N   0  0  0  0  0  0  0  0  0
   -6.6292   -0.5175    0.0000 C   0  0  0  0  0  0  0  0  0
   -7.3437   -0.1050    0.0000 C   0  0  0  0  0  0  0  0  0
   -5.2003   -0.5175    0.0000 C   0  0  0  0  0  0  0  0  0
   -4.4858   -0.1050    0.0000 C   0  0  0  0  0  0  0  0  0
   -3.7714   -0.5175    0.0000 C   0  0  0  0  0  0  0  0  0
   -3.0569   -0.1050    0.0000 C   0  0  0  0  0  0  0  0  0
   -2.3424   -0.5175    0.0000 C   0  0  0  0  0  0  0  0  0
   -1.6279   -0.1050    0.0000 C   0  0  0  0  0  0  0  0  0
   -1.6279    0.7200    0.0000 O   0  0  0  0  0  0  0  0  0
   -0.9135   -0.5175    0.0000 N   0  0  0  0  0  0  0  0  0
   -0.8272   -1.3380    0.0000 C   0  0  0  0  0  0  0  0  0
   -0.0203   -1.5095    0.0000 C   0  0  0  0  0  0  0  0  0
    0.3922   -0.7951    0.0000 C   0  0  0  0  0  0  0  0  0
   -0.1598   -0.1820    0.0000 C   0  0  0  0  0  0  0  0  0
    1.2172   -0.7951    0.0000 C   0  0  0  0  0  0  0  0  0
    1.6297   -1.5095    0.0000 C   0  0  0  0  0  0  0  0  0
    1.2172   -2.2240    0.0000 C   0  0  0  0  0  0  0  0  0
    0.3922   -2.2240    0.0000 C   0  0  0  0  0  0  0  0  0
  1  2  1  0  0  0  0
  1  3  1  0  0  0  0
  3  4  4  0  0  0  0
  3  8  4  0  0  0  0
  4  5  4  0  0  0  0
  5  6  4  0  0  0  0
  6  7  4  0  0  0  0
  7  8  4  0  0  0  0
  8  9  1  0  0  0  0
  9 10  1  0  0  0  0
  9 14  1  0  0  0  0
 10 11  1  0  0  0  0
 11 12  1  0  0  0  0
 12 13  1  0  0  0  0
 12 15  1  0  0  0  0
 13 14  1  0  0  0  0
 15 16  1  0  0  0  0
 16 17  1  0  0  0  0
 17 18  1  0  0  0  0
 18 19  1  0  0  0  0
 19 20  1  0  0  0  0
 20 21  2  0  0  0  0
 20 22  1  0  0  0  0
 22 23  1  0  0  0  0
 22 26  1  0  0  0  0
 23 24  1  0  0  0  0
 24 25  4  0  0  0  0
 24 30  4  0  0  0  0
 25 26  1  0  0  0  0
 25 27  4  0  0  0  0
 27 28  4  0  0  0  0
 28 29  4  0  0  0  0
 29 30  4  0  0  0  0
M  END
>  <Name_Molregno>
469597

>  <5-HT1A>
8.97

>  <DOPAMINE D2>
7.02

$$$$
469625
  Marvin  02231216192D 0   1.00000     0.00000     0

 23 25  0  0  1  0  0  0  0  0999 V2000
   -4.4797    0.0278    0.0000 O   0  0  0  0  0  0  0  0  0
   -3.7652    0.4403    0.0000 C   0  0  0  0  0  0  0  0  0
   -3.0507    0.0278    0.0000 C   0  0  0  0  0  0  0  0  0
   -3.0507   -0.7972    0.0000 O   0  0  0  0  0  0  0  0  0
   -3.7652   -1.2097    0.0000 C   0  0  0  0  0  0  0  0  0
   -4.4797   -0.7972    0.0000 C   0  0  0  0  0  0  0  0  0
   -5.1941   -1.2097    0.0000 C   0  0  0  0  0  0  0  0  0
   -5.1941   -2.0347    0.0000 C   0  0  0  0  0  0  0  0  0
   -5.9086   -2.4472    0.0000 C   0  0  0  0  0  0  0  0  0
   -6.6231   -2.0347    0.0000 C   0  0  0  0  0  0  0  0  0
   -6.6231   -1.2097    0.0000 C   0  0  0  0  0  0  0  0  0
   -5.9086   -0.7972    0.0000 C   0  0  0  0  0  0  0  0  0
   -2.3362    0.4403    0.0000 C   0  0  0  0  0  0  0  0  0
   -1.6218    0.0278    0.0000 N   0  0  0  0  0  0  0  0  0
   -0.9073    0.4403    0.0000 C   0  0  0  0  0  0  0  0  0
   -0.1928    0.0278    0.0000 C   0  0  0  0  0  0  0  0  0
    0.5216    0.4403    0.0000 O   0  0  0  0  0  0  0  0  0
    1.2361    0.0278    0.0000 C   0  0  0  0  0  0  0  0  0
    1.9506    0.4403    0.0000 C   0  0  0  0  0  0  0  0  0
    2.6651    0.0278    0.0000 C   0  0  0  0  0  0  0  0  0
    2.6651   -0.7972    0.0000 C   0  0  0  0  0  0  0  0  0
    1.9506   -1.2097    0.0000 C   0  0  0  0  0  0  0  0  0
    1.2361   -0.7972    0.0000 C   0  0  0  0  0  0  0  0  0
  1  2  1  0  0  0  0
  1  6  1  0  0  0  0
  2  3  1  0  0  0  0
  3  4  1  0  0  0  0
  3 13  1  0  0  0  0
  4  5  1  0  0  0  0
  5  6  1  0  0  0  0
  6  7  1  0  0  0  0
  7  8  4  0  0  0  0
  7 12  4  0  0  0  0
  8  9  4  0  0  0  0
  9 10  4  0  0  0  0
 10 11  4  0  0  0  0
 11 12  4  0  0  0  0
 13 14  1  0  0  0  0
 14 15  1  0  0  0  0
 15 16  1  0  0  0  0
 16 17  1  0  0  0  0
 17 18  1  0  0  0  0
 18 19  4  0  0  0  0
 18 23  4  0  0  0  0
 19 20  4  0  0  0  0
 20 21  4  0  0  0  0
 21 22  4  0  0  0  0
 22 23  4  0  0  0  0
M  END
>  <Name_Molregno>
469625

>  <5-HT1A>
7.21

>  <Alpha-1A>
6.14

>  <Alpha-1B>
6

$$$$
469628
  Marvin  02231216192D 0   1.00000     0.00000     0

 31 34  0  0  1  0  0  0  0  0999 V2000
   -3.0775   -0.0152    0.0000 O   0  0  0  0  0  0  0  0  0
   -2.3631    0.3973    0.0000 C   0  0  0  0  0  0  0  0  0
   -2.3631    1.2223    0.0000 C   0  0  0  0  0  0  0  0  0
   -3.0775    1.6348    0.0000 O   0  0  0  0  0  0  0  0  0
   -3.7920    1.2223    0.0000 C   0  0  0  0  0  0  0  0  0
   -3.7920    0.3973    0.0000 C   0  0  0  0  0  0  0  0  0
   -4.5851    0.6247    0.0000 C   0  0  0  0  0  0  0  0  0
   -5.1785    0.0516    0.0000 C   0  0  0  0  0  0  0  0  0
   -5.9716    0.2790    0.0000 C   0  0  0  0  0  0  0  0  0
   -6.1711    1.0795    0.0000 C   0  0  0  0  0  0  0  0  0
   -5.5777    1.6526    0.0000 C   0  0  0  0  0  0  0  0  0
   -4.7846    1.4252    0.0000 C   0  0  0  0  0  0  0  0  0
   -4.2292   -0.3023    0.0000 C   0  0  0  0  0  0  0  0  0
   -3.8419   -1.0307    0.0000 C   0  0  0  0  0  0  0  0  0
   -4.2791   -1.7304    0.0000 C   0  0  0  0  0  0  0  0  0
   -5.1036   -1.7016    0.0000 C   0  0  0  0  0  0  0  0  0
   -5.4909   -0.9732    0.0000 C   0  0  0  0  0  0  0  0  0
   -5.0537   -0.2735    0.0000 C   0  0  0  0  0  0  0  0  0
   -1.6486    1.6348    0.0000 C   0  0  0  0  0  0  0  0  0
   -0.9341    1.2223    0.0000 N   0  0  0  0  0  0  0  0  0
   -0.2197    1.6348    0.0000 C   0  0  0  0  0  0  0  0  0
    0.4948    1.2223    0.0000 C   0  0  0  0  0  0  0  0  0
    1.2093    1.6348    0.0000 O   0  0  0  0  0  0  0  0  0
    1.9238    1.2223    0.0000 C   0  0  0  0  0  0  0  0  0
    2.6382    1.6348    0.0000 C   0  0  0  0  0  0  0  0  0
    3.3527    1.2223    0.0000 C   0  0  0  0  0  0  0  0  0
    3.3527    0.3973    0.0000 C   0  0  0  0  0  0  0  0  0
    2.6382   -0.0152    0.0000 C   0  0  0  0  0  0  0  0  0
    1.9238    0.3973    0.0000 C   0  0  0  0  0  0  0  0  0
    1.2093   -0.0152    0.0000 O   0  0  0  0  0  0  0  0  0
    1.2093   -0.8402    0.0000 C   0  0  0  0  0  0  0  0  0
  1  2  1  0  0  0  0
  1  6  1  0  0  0  0
  2  3  1  0  0  0  0
  3  4  1  0  0  0  0
  3 19  1  0  0  0  0
  4  5  1  0  0  0  0
  5  6  1  0  0  0  0
  6  7  1  0  0  0  0
  6 13  1  0  0  0  0
  7  8  4  0  0  0  0
  7 12  4  0  0  0  0
  8  9  4  0  0  0  0
  9 10  4  0  0  0  0
 10 11  4  0  0  0  0
 11 12  4  0  0  0  0
 13 14  4  0  0  0  0
 13 18  4  0  0  0  0
 14 15  4  0  0  0  0
 15 16  4  0  0  0  0
 16 17  4  0  0  0  0
 17 18  4  0  0  0  0
 19 20  1  0  0  0  0
 20 21  1  0  0  0  0
 21 22  1  0  0  0  0
 22 23  1  0  0  0  0
 23 24  1  0  0  0  0
 24 25  4  0  0  0  0
 24 29  4  0  0  0  0
 25 26  4  0  0  0  0
 26 27  4  0  0  0  0
 27 28  4  0  0  0  0
 28 29  4  0  0  0  0
 29 30  1  0  0  0  0
 30 31  1  0  0  0  0
M  END
>  <Name_Molregno>
469628

>  <5-HT1A>
8.12

>  <Alpha-1A>
7.13

>  <Alpha-1B>
7.13

$$$$
469629
  Marvin  02231216192D 0   1.00000     0.00000     0

 33 36  0  0  1  0  0  0  0  0999 V2000
   -3.6522   -1.1307    0.0000 O   0  0  0  0  0  0  0  0  0
   -2.9378   -0.7182    0.0000 C   0  0  0  0  0  0  0  0  0
   -2.9378    0.1068    0.0000 C   0  0  0  0  0  0  0  0  0
   -3.6522    0.5193    0.0000 O   0  0  0  0  0  0  0  0  0
   -4.3667    0.1068    0.0000 C   0  0  0  0  0  0  0  0  0
   -4.3667   -0.7182    0.0000 C   0  0  0  0  0  0  0  0  0
   -4.5663   -1.5187    0.0000 C   0  0  0  0  0  0  0  0  0
   -3.9728   -2.0918    0.0000 C   0  0  0  0  0  0  0  0  0
   -4.1724   -2.8923    0.0000 C   0  0  0  0  0  0  0  0  0
   -4.9655   -3.1197    0.0000 C   0  0  0  0  0  0  0  0  0
   -5.5589   -2.5466    0.0000 C   0  0  0  0  0  0  0  0  0
   -5.3593   -1.7461    0.0000 C   0  0  0  0  0  0  0  0  0
   -5.1912   -0.7470    0.0000 C   0  0  0  0  0  0  0  0  0
   -5.5785   -1.4755    0.0000 C   0  0  0  0  0  0  0  0  0
   -6.4030   -1.5043    0.0000 C   0  0  0  0  0  0  0  0  0
   -6.8402   -0.8046    0.0000 C   0  0  0  0  0  0  0  0  0
   -6.4529   -0.0762    0.0000 C   0  0  0  0  0  0  0  0  0
   -5.6284   -0.0474    0.0000 C   0  0  0  0  0  0  0  0  0
   -2.2233    0.5193    0.0000 C   0  0  0  0  0  0  0  0  0
   -1.5088    0.1068    0.0000 N   0  0  0  0  0  0  0  0  0
   -0.7944    0.5193    0.0000 C   0  0  0  0  0  0  0  0  0
   -0.0799    0.1068    0.0000 C   0  0  0  0  0  0  0  0  0
    0.6346    0.5193    0.0000 O   0  0  0  0  0  0  0  0  0
    1.3491    0.1068    0.0000 C   0  0  0  0  0  0  0  0  0
    2.0635    0.5193    0.0000 C   0  0  0  0  0  0  0  0  0
    2.0635    1.3443    0.0000 O   0  0  0  0  0  0  0  0  0
    2.7780    1.7568    0.0000 C   0  0  0  0  0  0  0  0  0
    2.7780    0.1068    0.0000 C   0  0  0  0  0  0  0  0  0
    2.7780   -0.7182    0.0000 C   0  0  0  0  0  0  0  0  0
    2.0635   -1.1307    0.0000 C   0  0  0  0  0  0  0  0  0
    1.3491   -0.7182    0.0000 C   0  0  0  0  0  0  0  0  0
    0.6346   -1.1307    0.0000 O   0  0  0  0  0  0  0  0  0
    0.6346   -1.9557    0.0000 C   0  0  0  0  0  0  0  0  0
  1  2  1  0  0  0  0
  1  6  1  0  0  0  0
  2  3  1  0  0  0  0
  3  4  1  0  0  0  0
  3 19  1  0  0  0  0
  4  5  1  0  0  0  0
  5  6  1  0  0  0  0
  6  7  1  0  0  0  0
  6 13  1  0  0  0  0
  7  8  4  0  0  0  0
  7 12  4  0  0  0  0
  8  9  4  0  0  0  0
  9 10  4  0  0  0  0
 10 11  4  0  0  0  0
 11 12  4  0  0  0  0
 13 14  4  0  0  0  0
 13 18  4  0  0  0  0
 14 15  4  0  0  0  0
 15 16  4  0  0  0  0
 16 17  4  0  0  0  0
 17 18  4  0  0  0  0
 19 20  1  0  0  0  0
 20 21  1  0  0  0  0
 21 22  1  0  0  0  0
 22 23  1  0  0  0  0
 23 24  1  0  0  0  0
 24 25  4  0  0  0  0
 24 31  4  0  0  0  0
 25 26  1  0  0  0  0
 25 28  4  0  0  0  0
 26 27  1  0  0  0  0
 28 29  4  0  0  0  0
 29 30  4  0  0  0  0
 30 31  4  0  0  0  0
 31 32  1  0  0  0  0
 32 33  1  0  0  0  0
M  END
>  <Name_Molregno>
469629

>  <5-HT1A>
6.64

>  <Alpha-1A>
7.05

>  <Alpha-1B>
6.9

$$$$
469630
  Marvin  02231216192D 0   1.00000     0.00000     0

 29 32  0  0  1  0  0  0  0  0999 V2000
    0.0046    0.1418    0.0000 O   0  0  0  0  0  0  0  0  0
   -0.7098    0.5543    0.0000 C   0  0  0  0  0  0  0  0  0
   -0.7098    1.3793    0.0000 C   0  0  0  0  0  0  0  0  0
    0.0046    1.7918    0.0000 O   0  0  0  0  0  0  0  0  0
    0.7191    1.3793    0.0000 C   0  0  0  0  0  0  0  0  0
    0.7191    0.5543    0.0000 C   0  0  0  0  0  0  0  0  0
    1.4336    0.1418    0.0000 C   0  0  0  0  0  0  0  0  0
    2.1480    0.5543    0.0000 N   0  0  0  0  0  0  0  0  0
    2.8625    0.1418    0.0000 C   0  0  0  0  0  0  0  0  0
    3.5770    0.5543    0.0000 C   0  0  0  0  0  0  0  0  0
    4.2915    0.1418    0.0000 O   0  0  0  0  0  0  0  0  0
    5.0059    0.5543    0.0000 C   0  0  0  0  0  0  0  0  0
    5.0059    1.3793    0.0000 C   0  0  0  0  0  0  0  0  0
    5.7204    1.7918    0.0000 C   0  0  0  0  0  0  0  0  0
    6.4349    1.3793    0.0000 C   0  0  0  0  0  0  0  0  0
    6.4349    0.5543    0.0000 C   0  0  0  0  0  0  0  0  0
    5.7204    0.1418    0.0000 C   0  0  0  0  0  0  0  0  0
   -0.9094   -0.2462    0.0000 C   0  0  0  0  0  0  0  0  0
   -0.3160   -0.8193    0.0000 C   0  0  0  0  0  0  0  0  0
   -0.5156   -1.6198    0.0000 C   0  0  0  0  0  0  0  0  0
   -1.3086   -1.8472    0.0000 C   0  0  0  0  0  0  0  0  0
   -1.9021   -1.2741    0.0000 C   0  0  0  0  0  0  0  0  0
   -1.7025   -0.4736    0.0000 C   0  0  0  0  0  0  0  0  0
   -1.5343    0.5255    0.0000 C   0  0  0  0  0  0  0  0  0
   -1.9217   -0.2030    0.0000 C   0  0  0  0  0  0  0  0  0
   -2.7462   -0.2318    0.0000 C   0  0  0  0  0  0  0  0  0
   -3.1833    0.4679    0.0000 C   0  0  0  0  0  0  0  0  0
   -2.7960    1.1963    0.0000 C   0  0  0  0  0  0  0  0  0
   -1.9715    1.2251    0.0000 C   0  0  0  0  0  0  0  0  0
  1  2  1  0  0  0  0
  1  6  1  0  0  0  0
  2  3  1  0  0  0  0
  2 18  1  0  0  0  0
  2 24  1  0  0  0  0
  3  4  1  0  0  0  0
  4  5  1  0  0  0  0
  5  6  1  0  0  0  0
  6  7  1  0  0  0  0
  7  8  1  0  0  0  0
  8  9  1  0  0  0  0
  9 10  1  0  0  0  0
 10 11  1  0  0  0  0
 11 12  1  0  0  0  0
 12 13  4  0  0  0  0
 12 17  4  0  0  0  0
 13 14  4  0  0  0  0
 14 15  4  0  0  0  0
 15 16  4  0  0  0  0
 16 17  4  0  0  0  0
 18 19  4  0  0  0  0
 18 23  4  0  0  0  0
 19 20  4  0  0  0  0
 20 21  4  0  0  0  0
 21 22  4  0  0  0  0
 22 23  4  0  0  0  0
 24 25  4  0  0  0  0
 24 29  4  0  0  0  0
 25 26  4  0  0  0  0
 26 27  4  0  0  0  0
 27 28  4  0  0  0  0
 28 29  4  0  0  0  0
M  END
>  <Name_Molregno>
469630

>  <5-HT1A>
9.23

>  <Alpha-1A>
6.77

>  <Alpha-1B>
6.92

$$$$
469631
  Marvin  02231216192D 0   1.00000     0.00000     0

 31 34  0  0  1  0  0  0  0  0999 V2000
   -0.0078    0.1387    0.0000 O   0  0  0  0  0  0  0  0  0
   -0.7223    0.5512    0.0000 C   0  0  0  0  0  0  0  0  0
   -0.7223    1.3762    0.0000 C   0  0  0  0  0  0  0  0  0
   -0.0078    1.7887    0.0000 O   0  0  0  0  0  0  0  0  0
    0.7067    1.3762    0.0000 C   0  0  0  0  0  0  0  0  0
    0.7067    0.5512    0.0000 C   0  0  0  0  0  0  0  0  0
    1.4211    0.1387    0.0000 C   0  0  0  0  0  0  0  0  0
    2.1356    0.5512    0.0000 N   0  0  0  0  0  0  0  0  0
    2.8501    0.1387    0.0000 C   0  0  0  0  0  0  0  0  0
    3.5645    0.5512    0.0000 C   0  0  0  0  0  0  0  0  0
    4.2790    0.1387    0.0000 O   0  0  0  0  0  0  0  0  0
    4.9935    0.5512    0.0000 C   0  0  0  0  0  0  0  0  0
    4.9935    1.3762    0.0000 C   0  0  0  0  0  0  0  0  0
    5.7080    1.7887    0.0000 C   0  0  0  0  0  0  0  0  0
    6.4224    1.3762    0.0000 C   0  0  0  0  0  0  0  0  0
    6.4224    0.5512    0.0000 C   0  0  0  0  0  0  0  0  0
    5.7080    0.1387    0.0000 C   0  0  0  0  0  0  0  0  0
    5.7080   -0.6863    0.0000 O   0  0  0  0  0  0  0  0  0
    6.4224   -1.0988    0.0000 C   0  0  0  0  0  0  0  0  0
   -0.9219   -0.2493    0.0000 C   0  0  0  0  0  0  0  0  0
   -0.3284   -0.8224    0.0000 C   0  0  0  0  0  0  0  0  0
   -0.5280   -1.6228    0.0000 C   0  0  0  0  0  0  0  0  0
   -1.3210   -1.8502    0.0000 C   0  0  0  0  0  0  0  0  0
   -1.9145   -1.2772    0.0000 C   0  0  0  0  0  0  0  0  0
   -1.7149   -0.4767    0.0000 C   0  0  0  0  0  0  0  0  0
   -1.5468    0.5224    0.0000 C   0  0  0  0  0  0  0  0  0
   -1.9341   -0.2060    0.0000 C   0  0  0  0  0  0  0  0  0
   -2.7586   -0.2348    0.0000 C   0  0  0  0  0  0  0  0  0
   -3.1958    0.4649    0.0000 C   0  0  0  0  0  0  0  0  0
   -2.8085    1.1933    0.0000 C   0  0  0  0  0  0  0  0  0
   -1.9840    1.2221    0.0000 C   0  0  0  0  0  0  0  0  0
  1  2  1  0  0  0  0
  1  6  1  0  0  0  0
  2  3  1  0  0  0  0
  2 20  1  0  0  0  0
  2 26  1  0  0  0  0
  3  4  1  0  0  0  0
  4  5  1  0  0  0  0
  5  6  1  0  0  0  0
  6  7  1  0  0  0  0
  7  8  1  0  0  0  0
  8  9  1  0  0  0  0
  9 10  1  0  0  0  0
 10 11  1  0  0  0  0
 11 12  1  0  0  0  0
 12 13  4  0  0  0  0
 12 17  4  0  0  0  0
 13 14  4  0  0  0  0
 14 15  4  0  0  0  0
 15 16  4  0  0  0  0
 16 17  4  0  0  0  0
 17 18  1  0  0  0  0
 18 19  1  0  0  0  0
 20 21  4  0  0  0  0
 20 25  4  0  0  0  0
 21 22  4  0  0  0  0
 22 23  4  0  0  0  0
 23 24  4  0  0  0  0
 24 25  4  0  0  0  0
 26 27  4  0  0  0  0
 26 31  4  0  0  0  0
 27 28  4  0  0  0  0
 28 29  4  0  0  0  0
 29 30  4  0  0  0  0
 30 31  4  0  0  0  0
M  END
>  <Name_Molregno>
469631

>  <5-HT1A>
9.18

>  <Alpha-1A>
7.56

>  <Alpha-1B>
7.25

$$$$
469651
  Marvin  02231216192D 0   1.00000     0.00000     0

 34 38  0  0  0  0  0  0  0  0999 V2000
   -5.1939   -3.7516    0.0000 O   0  0  0  0  0  0  0  0  0
   -5.1939   -2.9266    0.0000 C   0  0  0  0  0  0  0  0  0
   -5.9084   -2.5141    0.0000 N   0  0  0  0  0  0  0  0  0
   -5.9946   -1.6936    0.0000 C   0  0  0  0  0  0  0  0  0
   -6.8016   -1.5220    0.0000 C   0  0  0  0  0  0  0  0  0
   -7.2141   -2.2365    0.0000 C   0  0  0  0  0  0  0  0  0
   -6.6620   -2.8496    0.0000 C   0  0  0  0  0  0  0  0  0
   -8.0391   -2.2365    0.0000 C   0  0  0  0  0  0  0  0  0
   -8.4516   -1.5220    0.0000 C   0  0  0  0  0  0  0  0  0
   -8.0391   -0.8076    0.0000 C   0  0  0  0  0  0  0  0  0
   -7.2141   -0.8076    0.0000 C   0  0  0  0  0  0  0  0  0
   -4.4794   -2.5141    0.0000 C   0  0  0  0  0  0  0  0  0
   -3.7649   -2.9266    0.0000 C   0  0  0  0  0  0  0  0  0
   -3.0505   -2.5141    0.0000 C   0  0  0  0  0  0  0  0  0
   -2.3360   -2.9266    0.0000 C   0  0  0  0  0  0  0  0  0
   -1.6215   -2.5141    0.0000 C   0  0  0  0  0  0  0  0  0
   -1.6215   -1.6891    0.0000 N   0  0  0  0  0  0  0  0  0
   -2.3360   -1.2766    0.0000 C   0  0  0  0  0  0  0  0  0
   -2.3360   -0.4516    0.0000 C   0  0  0  0  0  0  0  0  0
   -1.6215   -0.0391    0.0000 N   0  0  0  0  0  0  0  0  0
   -0.9071   -0.4516    0.0000 C   0  0  0  0  0  0  0  0  0
   -0.9071   -1.2766    0.0000 C   0  0  0  0  0  0  0  0  0
   -1.6215    0.7859    0.0000 C   0  0  0  0  0  0  0  0  0
   -2.3360    1.1984    0.0000 C   0  0  0  0  0  0  0  0  0
   -2.3360    2.0234    0.0000 C   0  0  0  0  0  0  0  0  0
   -1.6215    2.4359    0.0000 C   0  0  0  0  0  0  0  0  0
   -0.9071    2.0234    0.0000 C   0  0  0  0  0  0  0  0  0
   -0.9071    1.1984    0.0000 C   0  0  0  0  0  0  0  0  0
   -0.1926    0.7859    0.0000 C   0  0  0  0  0  0  0  0  0
    0.5219    1.1984    0.0000 C   0  0  0  0  0  0  0  0  0
    1.2364    0.7859    0.0000 C   0  0  0  0  0  0  0  0  0
    1.2364   -0.0391    0.0000 C   0  0  0  0  0  0  0  0  0
    0.5219   -0.4516    0.0000 C   0  0  0  0  0  0  0  0  0
   -0.1926   -0.0391    0.0000 C   0  0  0  0  0  0  0  0  0
  1  2  2  0  0  0  0
  2  3  1  0  0  0  0
  2 12  1  0  0  0  0
  3  4  1  0  0  0  0
  3  7  1  0  0  0  0
  4  5  1  0  0  0  0
  5  6  4  0  0  0  0
  5 11  4  0  0  0  0
  6  7  1  0  0  0  0
  6  8  4  0  0  0  0
  8  9  4  0  0  0  0
  9 10  4  0  0  0  0
 10 11  4  0  0  0  0
 12 13  1  0  0  0  0
 13 14  1  0  0  0  0
 14 15  1  0  0  0  0
 15 16  1  0  0  0  0
 16 17  1  0  0  0  0
 17 18  1  0  0  0  0
 17 22  1  0  0  0  0
 18 19  1  0  0  0  0
 19 20  1  0  0  0  0
 20 21  1  0  0  0  0
 20 23  1  0  0  0  0
 21 22  1  0  0  0  0
 23 24  4  0  0  0  0
 23 28  4  0  0  0  0
 24 25  4  0  0  0  0
 25 26  4  0  0  0  0
 26 27  4  0  0  0  0
 27 28  4  0  0  0  0
 28 29  1  0  0  0  0
 29 30  4  0  0  0  0
 29 34  4  0  0  0  0
 30 31  4  0  0  0  0
 31 32  4  0  0  0  0
 32 33  4  0  0  0  0
 33 34  4  0  0  0  0
M  END
>  <Name_Molregno>
469651

>  <5-HT1A>
6.91

>  <DOPAMINE D2>
7.03

$$$$
469652
  Marvin  02231216192D 0   1.00000     0.00000     0

 31 34  0  0  0  0  0  0  0  0999 V2000
    0.0935   -1.2668    0.0000 O   0  0  0  0  0  0  0  0  0
    0.0935   -0.4418    0.0000 C   0  0  0  0  0  0  0  0  0
   -0.6209   -0.0293    0.0000 N   0  0  0  0  0  0  0  0  0
   -0.7072    0.7912    0.0000 C   0  0  0  0  0  0  0  0  0
   -1.5141    0.9627    0.0000 C   0  0  0  0  0  0  0  0  0
   -1.9266    0.2483    0.0000 C   0  0  0  0  0  0  0  0  0
   -1.3746   -0.3648    0.0000 C   0  0  0  0  0  0  0  0  0
   -2.7516    0.2483    0.0000 C   0  0  0  0  0  0  0  0  0
   -3.1641    0.9627    0.0000 C   0  0  0  0  0  0  0  0  0
   -2.7516    1.6772    0.0000 C   0  0  0  0  0  0  0  0  0
   -1.9266    1.6772    0.0000 C   0  0  0  0  0  0  0  0  0
    0.8080   -0.0293    0.0000 C   0  0  0  0  0  0  0  0  0
    1.5225   -0.4418    0.0000 C   0  0  0  0  0  0  0  0  0
    2.2370   -0.0293    0.0000 C   0  0  0  0  0  0  0  0  0
    2.9514   -0.4418    0.0000 C   0  0  0  0  0  0  0  0  0
    3.6659   -0.0293    0.0000 C   0  0  0  0  0  0  0  0  0
    4.3804   -0.4418    0.0000 N   0  0  0  0  0  0  0  0  0
    5.0948   -0.0293    0.0000 C   0  0  0  0  0  0  0  0  0
    5.8093   -0.4418    0.0000 C   0  0  0  0  0  0  0  0  0
    5.8093   -1.2668    0.0000 N   0  0  0  0  0  0  0  0  0
    5.0948   -1.6793    0.0000 C   0  0  0  0  0  0  0  0  0
    4.3804   -1.2668    0.0000 C   0  0  0  0  0  0  0  0  0
    6.5238   -1.6793    0.0000 C   0  0  0  0  0  0  0  0  0
    7.2382   -1.2668    0.0000 C   0  0  0  0  0  0  0  0  0
    7.9527   -1.6793    0.0000 C   0  0  0  0  0  0  0  0  0
    7.9527   -2.5043    0.0000 C   0  0  0  0  0  0  0  0  0
    7.2382   -2.9168    0.0000 C   0  0  0  0  0  0  0  0  0
    6.5238   -2.5043    0.0000 C   0  0  0  0  0  0  0  0  0
    5.8093   -2.9168    0.0000 C   0  0  0  0  0  0  0  0  0
    5.8093   -3.7418    0.0000 C   0  0  0  0  0  0  0  0  0
    5.0948   -2.5043    0.0000 C   0  0  0  0  0  0  0  0  0
  1  2  2  0  0  0  0
  2  3  1  0  0  0  0
  2 12  1  0  0  0  0
  3  4  1  0  0  0  0
  3  7  1  0  0  0  0
  4  5  1  0  0  0  0
  5  6  4  0  0  0  0
  5 11  4  0  0  0  0
  6  7  1  0  0  0  0
  6  8  4  0  0  0  0
  8  9  4  0  0  0  0
  9 10  4  0  0  0  0
 10 11  4  0  0  0  0
 12 13  1  0  0  0  0
 13 14  1  0  0  0  0
 14 15  1  0  0  0  0
 15 16  1  0  0  0  0
 16 17  1  0  0  0  0
 17 18  1  0  0  0  0
 17 22  1  0  0  0  0
 18 19  1  0  0  0  0
 19 20  1  0  0  0  0
 20 21  1  0  0  0  0
 20 23  1  0  0  0  0
 21 22  1  0  0  0  0
 23 24  4  0  0  0  0
 23 28  4  0  0  0  0
 24 25  4  0  0  0  0
 25 26  4  0  0  0  0
 26 27  4  0  0  0  0
 27 28  4  0  0  0  0
 28 29  1  0  0  0  0
 29 30  1  0  0  0  0
 29 31  1  0  0  0  0
M  END
>  <Name_Molregno>
469652

>  <5-HT1A>
7.66

>  <DOPAMINE D2>
7.19

$$$$
469653
  Marvin  02231216192D 0   1.00000     0.00000     0

 30 33  0  0  0  0  0  0  0  0999 V2000
   -8.7727   -0.1050    0.0000 O   0  0  0  0  0  0  0  0  0
   -9.4871   -0.5175    0.0000 C   0  0  0  0  0  0  0  0  0
   -8.7727    0.7200    0.0000 C   0  0  0  0  0  0  0  0  0
   -9.4871    1.1325    0.0000 C   0  0  0  0  0  0  0  0  0
   -9.4871    1.9575    0.0000 C   0  0  0  0  0  0  0  0  0
   -8.7727    2.3700    0.0000 C   0  0  0  0  0  0  0  0  0
   -8.0582    1.9575    0.0000 C   0  0  0  0  0  0  0  0  0
   -8.0582    1.1325    0.0000 C   0  0  0  0  0  0  0  0  0
   -7.3437    0.7200    0.0000 N   0  0  0  0  0  0  0  0  0
   -6.6292    1.1325    0.0000 C   0  0  0  0  0  0  0  0  0
   -5.9148    0.7200    0.0000 C   0  0  0  0  0  0  0  0  0
   -5.9148   -0.1050    0.0000 N   0  0  0  0  0  0  0  0  0
   -6.6292   -0.5175    0.0000 C   0  0  0  0  0  0  0  0  0
   -7.3437   -0.1050    0.0000 C   0  0  0  0  0  0  0  0  0
   -5.2003   -0.5175    0.0000 C   0  0  0  0  0  0  0  0  0
   -4.4858   -0.1050    0.0000 C   0  0  0  0  0  0  0  0  0
   -3.7714   -0.5175    0.0000 C   0  0  0  0  0  0  0  0  0
   -3.0569   -0.1050    0.0000 C   0  0  0  0  0  0  0  0  0
   -2.3424   -0.5175    0.0000 C   0  0  0  0  0  0  0  0  0
   -1.6279   -0.1050    0.0000 C   0  0  0  0  0  0  0  0  0
   -1.6279    0.7200    0.0000 O   0  0  0  0  0  0  0  0  0
   -0.9135   -0.5175    0.0000 N   0  0  0  0  0  0  0  0  0
   -0.8272   -1.3380    0.0000 C   0  0  0  0  0  0  0  0  0
   -0.0203   -1.5095    0.0000 C   0  0  0  0  0  0  0  0  0
    0.3922   -0.7951    0.0000 C   0  0  0  0  0  0  0  0  0
   -0.1598   -0.1820    0.0000 C   0  0  0  0  0  0  0  0  0
    1.2172   -0.7951    0.0000 C   0  0  0  0  0  0  0  0  0
    1.6297   -1.5095    0.0000 C   0  0  0  0  0  0  0  0  0
    1.2172   -2.2240    0.0000 C   0  0  0  0  0  0  0  0  0
    0.3922   -2.2240    0.0000 C   0  0  0  0  0  0  0  0  0
  1  2  1  0  0  0  0
  1  3  1  0  0  0  0
  3  4  4  0  0  0  0
  3  8  4  0  0  0  0
  4  5  4  0  0  0  0
  5  6  4  0  0  0  0
  6  7  4  0  0  0  0
  7  8  4  0  0  0  0
  8  9  1  0  0  0  0
  9 10  1  0  0  0  0
  9 14  1  0  0  0  0
 10 11  1  0  0  0  0
 11 12  1  0  0  0  0
 12 13  1  0  0  0  0
 12 15  1  0  0  0  0
 13 14  1  0  0  0  0
 15 16  1  0  0  0  0
 16 17  1  0  0  0  0
 17 18  1  0  0  0  0
 18 19  1  0  0  0  0
 19 20  1  0  0  0  0
 20 21  2  0  0  0  0
 20 22  1  0  0  0  0
 22 23  1  0  0  0  0
 22 26  1  0  0  0  0
 23 24  1  0  0  0  0
 24 25  4  0  0  0  0
 24 30  4  0  0  0  0
 25 26  1  0  0  0  0
 25 27  4  0  0  0  0
 27 28  4  0  0  0  0
 28 29  4  0  0  0  0
 29 30  4  0  0  0  0
M  END
>  <Name_Molregno>
469653

>  <5-HT1A>
8.49

>  <DOPAMINE D2>
6.14

$$$$
469654
  Marvin  02231216192D 0   1.00000     0.00000     0

 31 34  0  0  0  0  0  0  0  0999 V2000
   -9.1903   -0.2041    0.0000 S   0  0  0  0  0  0  0  0  0
   -9.9048   -0.6166    0.0000 C   0  0  0  0  0  0  0  0  0
   -9.1903    0.6209    0.0000 C   0  0  0  0  0  0  0  0  0
   -9.9048    1.0334    0.0000 C   0  0  0  0  0  0  0  0  0
   -9.9048    1.8584    0.0000 C   0  0  0  0  0  0  0  0  0
   -9.1903    2.2709    0.0000 C   0  0  0  0  0  0  0  0  0
   -8.4758    1.8584    0.0000 C   0  0  0  0  0  0  0  0  0
   -8.4758    1.0334    0.0000 C   0  0  0  0  0  0  0  0  0
   -7.7614    0.6209    0.0000 N   0  0  0  0  0  0  0  0  0
   -7.0469    1.0334    0.0000 C   0  0  0  0  0  0  0  0  0
   -6.3324    0.6209    0.0000 C   0  0  0  0  0  0  0  0  0
   -6.3324   -0.2041    0.0000 N   0  0  0  0  0  0  0  0  0
   -7.0469   -0.6166    0.0000 C   0  0  0  0  0  0  0  0  0
   -7.7614   -0.2041    0.0000 C   0  0  0  0  0  0  0  0  0
   -5.6180   -0.6166    0.0000 C   0  0  0  0  0  0  0  0  0
   -4.9035   -0.2041    0.0000 C   0  0  0  0  0  0  0  0  0
   -4.1890   -0.6166    0.0000 C   0  0  0  0  0  0  0  0  0
   -3.4746   -0.2041    0.0000 C   0  0  0  0  0  0  0  0  0
   -2.7601   -0.6166    0.0000 C   0  0  0  0  0  0  0  0  0
   -2.0456   -0.2041    0.0000 C   0  0  0  0  0  0  0  0  0
   -2.0456    0.6209    0.0000 O   0  0  0  0  0  0  0  0  0
   -1.3311   -0.6166    0.0000 N   0  0  0  0  0  0  0  0  0
   -1.3311   -1.4416    0.0000 C   0  0  0  0  0  0  0  0  0
   -0.6167   -1.8541    0.0000 C   0  0  0  0  0  0  0  0  0
    0.0978   -1.4416    0.0000 C   0  0  0  0  0  0  0  0  0
    0.0978   -0.6166    0.0000 C   0  0  0  0  0  0  0  0  0
   -0.6167   -0.2041    0.0000 C   0  0  0  0  0  0  0  0  0
    0.8123   -0.2041    0.0000 C   0  0  0  0  0  0  0  0  0
    1.5267   -0.6166    0.0000 C   0  0  0  0  0  0  0  0  0
    1.5267   -1.4416    0.0000 C   0  0  0  0  0  0  0  0  0
    0.8123   -1.8541    0.0000 C   0  0  0  0  0  0  0  0  0
  1  2  1  0  0  0  0
  1  3  1  0  0  0  0
  3  4  4  0  0  0  0
  3  8  4  0  0  0  0
  4  5  4  0  0  0  0
  5  6  4  0  0  0  0
  6  7  4  0  0  0  0
  7  8  4  0  0  0  0
  8  9  1  0  0  0  0
  9 10  1  0  0  0  0
  9 14  1  0  0  0  0
 10 11  1  0  0  0  0
 11 12  1  0  0  0  0
 12 13  1  0  0  0  0
 12 15  1  0  0  0  0
 13 14  1  0  0  0  0
 15 16  1  0  0  0  0
 16 17  1  0  0  0  0
 17 18  1  0  0  0  0
 18 19  1  0  0  0  0
 19 20  1  0  0  0  0
 20 21  2  0  0  0  0
 20 22  1  0  0  0  0
 22 23  1  0  0  0  0
 22 27  1  0  0  0  0
 23 24  1  0  0  0  0
 24 25  1  0  0  0  0
 25 26  4  0  0  0  0
 25 31  4  0  0  0  0
 26 27  1  0  0  0  0
 26 28  4  0  0  0  0
 28 29  4  0  0  0  0
 29 30  4  0  0  0  0
 30 31  4  0  0  0  0
M  END
>  <Name_Molregno>
469654

>  <5-HT1A>
8.69

>  <DOPAMINE D2>
7.4

$$$$
469682
  Marvin  02231216192D 0   1.00000     0.00000     0

 33 36  0  0  1  0  0  0  0  0999 V2000
   -0.0570   -0.8720    0.0000 O   0  0  0  0  0  0  0  0  0
   -0.7715   -0.4595    0.0000 C   0  0  0  0  0  0  0  0  0
   -0.7715    0.3655    0.0000 C   0  0  0  0  0  0  0  0  0
   -0.0570    0.7780    0.0000 O   0  0  0  0  0  0  0  0  0
    0.6575    0.3655    0.0000 C   0  0  0  0  0  0  0  0  0
    0.6575   -0.4595    0.0000 C   0  0  0  0  0  0  0  0  0
    1.3719   -0.8720    0.0000 C   0  0  0  0  0  0  0  0  0
    2.0864   -0.4595    0.0000 N   0  0  0  0  0  0  0  0  0
    2.8009   -0.8720    0.0000 C   0  0  0  0  0  0  0  0  0
    3.5153   -0.4595    0.0000 C   0  0  0  0  0  0  0  0  0
    4.2298   -0.8720    0.0000 O   0  0  0  0  0  0  0  0  0
    4.9443   -0.4595    0.0000 C   0  0  0  0  0  0  0  0  0
    4.9443    0.3655    0.0000 C   0  0  0  0  0  0  0  0  0
    4.2298    0.7780    0.0000 O   0  0  0  0  0  0  0  0  0
    4.2298    1.6030    0.0000 C   0  0  0  0  0  0  0  0  0
    5.6588    0.7780    0.0000 C   0  0  0  0  0  0  0  0  0
    6.3732    0.3655    0.0000 C   0  0  0  0  0  0  0  0  0
    6.3732   -0.4595    0.0000 C   0  0  0  0  0  0  0  0  0
    5.6588   -0.8720    0.0000 C   0  0  0  0  0  0  0  0  0
    5.6588   -1.6970    0.0000 O   0  0  0  0  0  0  0  0  0
    6.3732   -2.1095    0.0000 C   0  0  0  0  0  0  0  0  0
   -0.9711   -1.2600    0.0000 C   0  0  0  0  0  0  0  0  0
   -0.3776   -1.8331    0.0000 C   0  0  0  0  0  0  0  0  0
   -0.5772   -2.6336    0.0000 C   0  0  0  0  0  0  0  0  0
   -1.3702   -2.8610    0.0000 C   0  0  0  0  0  0  0  0  0
   -1.9637   -2.2879    0.0000 C   0  0  0  0  0  0  0  0  0
   -1.7641   -1.4874    0.0000 C   0  0  0  0  0  0  0  0  0
   -1.5960   -0.4883    0.0000 C   0  0  0  0  0  0  0  0  0
   -1.9833   -1.2167    0.0000 C   0  0  0  0  0  0  0  0  0
   -2.8078   -1.2455    0.0000 C   0  0  0  0  0  0  0  0  0
   -3.2450   -0.5459    0.0000 C   0  0  0  0  0  0  0  0  0
   -2.8577    0.1825    0.0000 C   0  0  0  0  0  0  0  0  0
   -2.0332    0.2113    0.0000 C   0  0  0  0  0  0  0  0  0
  1  2  1  0  0  0  0
  1  6  1  0  0  0  0
  2  3  1  0  0  0  0
  2 22  1  0  0  0  0
  2 28  1  0  0  0  0
  3  4  1  0  0  0  0
  4  5  1  0  0  0  0
  5  6  1  0  0  0  0
  6  7  1  0  0  0  0
  7  8  1  0  0  0  0
  8  9  1  0  0  0  0
  9 10  1  0  0  0  0
 10 11  1  0  0  0  0
 11 12  1  0  0  0  0
 12 13  4  0  0  0  0
 12 19  4  0  0  0  0
 13 14  1  0  0  0  0
 13 16  4  0  0  0  0
 14 15  1  0  0  0  0
 16 17  4  0  0  0  0
 17 18  4  0  0  0  0
 18 19  4  0  0  0  0
 19 20  1  0  0  0  0
 20 21  1  0  0  0  0
 22 23  4  0  0  0  0
 22 27  4  0  0  0  0
 23 24  4  0  0  0  0
 24 25  4  0  0  0  0
 25 26  4  0  0  0  0
 26 27  4  0  0  0  0
 28 29  4  0  0  0  0
 28 33  4  0  0  0  0
 29 30  4  0  0  0  0
 30 31  4  0  0  0  0
 31 32  4  0  0  0  0
 32 33  4  0  0  0  0
M  END
>  <Name_Molregno>
469682

>  <5-HT1A>
8.85

>  <Alpha-1A>
6.47

>  <Alpha-1B>
6.49

$$$$
469724
  Marvin  02231216192D 0   1.00000     0.00000     0

 35 39  0  0  0  0  0  0  0  0999 V2000
   -4.8144   -3.6315    0.0000 O   0  0  0  0  0  0  0  0  0
   -4.8144   -2.8065    0.0000 C   0  0  0  0  0  0  0  0  0
   -5.5288   -2.3940    0.0000 N   0  0  0  0  0  0  0  0  0
   -5.5288   -1.5690    0.0000 C   0  0  0  0  0  0  0  0  0
   -6.2433   -1.1565    0.0000 C   0  0  0  0  0  0  0  0  0
   -6.9578   -1.5690    0.0000 C   0  0  0  0  0  0  0  0  0
   -6.9578   -2.3940    0.0000 C   0  0  0  0  0  0  0  0  0
   -6.2433   -2.8065    0.0000 C   0  0  0  0  0  0  0  0  0
   -7.6723   -2.8065    0.0000 C   0  0  0  0  0  0  0  0  0
   -8.3867   -2.3940    0.0000 C   0  0  0  0  0  0  0  0  0
   -8.3867   -1.5690    0.0000 C   0  0  0  0  0  0  0  0  0
   -7.6723   -1.1565    0.0000 C   0  0  0  0  0  0  0  0  0
   -4.0999   -2.3940    0.0000 C   0  0  0  0  0  0  0  0  0
   -3.3854   -2.8065    0.0000 C   0  0  0  0  0  0  0  0  0
   -2.6710   -2.3940    0.0000 C   0  0  0  0  0  0  0  0  0
   -1.9565   -2.8065    0.0000 C   0  0  0  0  0  0  0  0  0
   -1.2420   -2.3940    0.0000 C   0  0  0  0  0  0  0  0  0
   -1.2420   -1.5690    0.0000 N   0  0  0  0  0  0  0  0  0
   -1.9565   -1.1565    0.0000 C   0  0  0  0  0  0  0  0  0
   -1.9565   -0.3315    0.0000 C   0  0  0  0  0  0  0  0  0
   -1.2420    0.0810    0.0000 N   0  0  0  0  0  0  0  0  0
   -0.5275   -0.3315    0.0000 C   0  0  0  0  0  0  0  0  0
   -0.5275   -1.1565    0.0000 C   0  0  0  0  0  0  0  0  0
   -1.2420    0.9060    0.0000 C   0  0  0  0  0  0  0  0  0
   -1.9565    1.3185    0.0000 C   0  0  0  0  0  0  0  0  0
   -1.9565    2.1435    0.0000 C   0  0  0  0  0  0  0  0  0
   -1.2420    2.5560    0.0000 C   0  0  0  0  0  0  0  0  0
   -0.5275    2.1435    0.0000 C   0  0  0  0  0  0  0  0  0
   -0.5275    1.3185    0.0000 C   0  0  0  0  0  0  0  0  0
    0.1869    0.9060    0.0000 C   0  0  0  0  0  0  0  0  0
    0.9014    1.3185    0.0000 C   0  0  0  0  0  0  0  0  0
    1.6159    0.9060    0.0000 C   0  0  0  0  0  0  0  0  0
    1.6159    0.0810    0.0000 C   0  0  0  0  0  0  0  0  0
    0.9014   -0.3315    0.0000 C   0  0  0  0  0  0  0  0  0
    0.1869    0.0810    0.0000 C   0  0  0  0  0  0  0  0  0
  1  2  2  0  0  0  0
  2  3  1  0  0  0  0
  2 13  1  0  0  0  0
  3  4  1  0  0  0  0
  3  8  1  0  0  0  0
  4  5  1  0  0  0  0
  5  6  1  0  0  0  0
  6  7  4  0  0  0  0
  6 12  4  0  0  0  0
  7  8  1  0  0  0  0
  7  9  4  0  0  0  0
  9 10  4  0  0  0  0
 10 11  4  0  0  0  0
 11 12  4  0  0  0  0
 13 14  1  0  0  0  0
 14 15  1  0  0  0  0
 15 16  1  0  0  0  0
 16 17  1  0  0  0  0
 17 18  1  0  0  0  0
 18 19  1  0  0  0  0
 18 23  1  0  0  0  0
 19 20  1  0  0  0  0
 20 21  1  0  0  0  0
 21 22  1  0  0  0  0
 21 24  1  0  0  0  0
 22 23  1  0  0  0  0
 24 25  4  0  0  0  0
 24 29  4  0  0  0  0
 25 26  4  0  0  0  0
 26 27  4  0  0  0  0
 27 28  4  0  0  0  0
 28 29  4  0  0  0  0
 29 30  1  0  0  0  0
 30 31  4  0  0  0  0
 30 35  4  0  0  0  0
 31 32  4  0  0  0  0
 32 33  4  0  0  0  0
 33 34  4  0  0  0  0
 34 35  4  0  0  0  0
M  END
>  <Name_Molregno>
469724

>  <5-HT1A>
7.02

>  <DOPAMINE D2>
6.44

$$$$
469725
  Marvin  02231216192D 0   1.00000     0.00000     0

 32 35  0  0  0  0  0  0  0  0999 V2000
    0.0837   -1.1963    0.0000 O   0  0  0  0  0  0  0  0  0
    0.0837   -0.3713    0.0000 C   0  0  0  0  0  0  0  0  0
   -0.6308    0.0412    0.0000 N   0  0  0  0  0  0  0  0  0
   -0.6308    0.8662    0.0000 C   0  0  0  0  0  0  0  0  0
   -1.3453    1.2787    0.0000 C   0  0  0  0  0  0  0  0  0
   -2.0598    0.8662    0.0000 C   0  0  0  0  0  0  0  0  0
   -2.0598    0.0412    0.0000 C   0  0  0  0  0  0  0  0  0
   -1.3453   -0.3713    0.0000 C   0  0  0  0  0  0  0  0  0
   -2.7742   -0.3713    0.0000 C   0  0  0  0  0  0  0  0  0
   -3.4887    0.0412    0.0000 C   0  0  0  0  0  0  0  0  0
   -3.4887    0.8662    0.0000 C   0  0  0  0  0  0  0  0  0
   -2.7742    1.2787    0.0000 C   0  0  0  0  0  0  0  0  0
    0.7981    0.0412    0.0000 C   0  0  0  0  0  0  0  0  0
    1.5126   -0.3713    0.0000 C   0  0  0  0  0  0  0  0  0
    2.2271    0.0412    0.0000 C   0  0  0  0  0  0  0  0  0
    2.9415   -0.3713    0.0000 C   0  0  0  0  0  0  0  0  0
    3.6560    0.0412    0.0000 C   0  0  0  0  0  0  0  0  0
    4.3705   -0.3713    0.0000 N   0  0  0  0  0  0  0  0  0
    5.0850    0.0412    0.0000 C   0  0  0  0  0  0  0  0  0
    5.7994   -0.3713    0.0000 C   0  0  0  0  0  0  0  0  0
    5.7994   -1.1963    0.0000 N   0  0  0  0  0  0  0  0  0
    5.0850   -1.6088    0.0000 C   0  0  0  0  0  0  0  0  0
    4.3705   -1.1963    0.0000 C   0  0  0  0  0  0  0  0  0
    6.5139   -1.6088    0.0000 C   0  0  0  0  0  0  0  0  0
    7.2284   -1.1963    0.0000 C   0  0  0  0  0  0  0  0  0
    7.9428   -1.6088    0.0000 C   0  0  0  0  0  0  0  0  0
    7.9428   -2.4338    0.0000 C   0  0  0  0  0  0  0  0  0
    7.2284   -2.8463    0.0000 C   0  0  0  0  0  0  0  0  0
    6.5139   -2.4338    0.0000 C   0  0  0  0  0  0  0  0  0
    5.7994   -2.8463    0.0000 C   0  0  0  0  0  0  0  0  0
    5.7994   -3.6713    0.0000 C   0  0  0  0  0  0  0  0  0
    5.0850   -2.4338    0.0000 C   0  0  0  0  0  0  0  0  0
  1  2  2  0  0  0  0
  2  3  1  0  0  0  0
  2 13  1  0  0  0  0
  3  4  1  0  0  0  0
  3  8  1  0  0  0  0
  4  5  1  0  0  0  0
  5  6  1  0  0  0  0
  6  7  4  0  0  0  0
  6 12  4  0  0  0  0
  7  8  1  0  0  0  0
  7  9  4  0  0  0  0
  9 10  4  0  0  0  0
 10 11  4  0  0  0  0
 11 12  4  0  0  0  0
 13 14  1  0  0  0  0
 14 15  1  0  0  0  0
 15 16  1  0  0  0  0
 16 17  1  0  0  0  0
 17 18  1  0  0  0  0
 18 19  1  0  0  0  0
 18 23  1  0  0  0  0
 19 20  1  0  0  0  0
 20 21  1  0  0  0  0
 21 22  1  0  0  0  0
 21 24  1  0  0  0  0
 22 23  1  0  0  0  0
 24 25  4  0  0  0  0
 24 29  4  0  0  0  0
 25 26  4  0  0  0  0
 26 27  4  0  0  0  0
 27 28  4  0  0  0  0
 28 29  4  0  0  0  0
 29 30  1  0  0  0  0
 30 31  1  0  0  0  0
 30 32  1  0  0  0  0
M  END
>  <Name_Molregno>
469725

>  <5-HT1A>
8.43

>  <DOPAMINE D2>
8.89

$$$$
469726
  Marvin  02231216192D 0   1.00000     0.00000     0

 31 34  0  0  0  0  0  0  0  0999 V2000
   -9.1903   -0.2041    0.0000 O   0  0  0  0  0  0  0  0  0
   -9.9048   -0.6166    0.0000 C   0  0  0  0  0  0  0  0  0
   -9.1903    0.6209    0.0000 C   0  0  0  0  0  0  0  0  0
   -9.9048    1.0334    0.0000 C   0  0  0  0  0  0  0  0  0
   -9.9048    1.8584    0.0000 C   0  0  0  0  0  0  0  0  0
   -9.1903    2.2709    0.0000 C   0  0  0  0  0  0  0  0  0
   -8.4758    1.8584    0.0000 C   0  0  0  0  0  0  0  0  0
   -8.4758    1.0334    0.0000 C   0  0  0  0  0  0  0  0  0
   -7.7614    0.6209    0.0000 N   0  0  0  0  0  0  0  0  0
   -7.0469    1.0334    0.0000 C   0  0  0  0  0  0  0  0  0
   -6.3324    0.6209    0.0000 C   0  0  0  0  0  0  0  0  0
   -6.3324   -0.2041    0.0000 N   0  0  0  0  0  0  0  0  0
   -7.0469   -0.6166    0.0000 C   0  0  0  0  0  0  0  0  0
   -7.7614   -0.2041    0.0000 C   0  0  0  0  0  0  0  0  0
   -5.6180   -0.6166    0.0000 C   0  0  0  0  0  0  0  0  0
   -4.9035   -0.2041    0.0000 C   0  0  0  0  0  0  0  0  0
   -4.1890   -0.6166    0.0000 C   0  0  0  0  0  0  0  0  0
   -3.4746   -0.2041    0.0000 C   0  0  0  0  0  0  0  0  0
   -2.7601   -0.6166    0.0000 C   0  0  0  0  0  0  0  0  0
   -2.0456   -0.2041    0.0000 C   0  0  0  0  0  0  0  0  0
   -2.0456    0.6209    0.0000 O   0  0  0  0  0  0  0  0  0
   -1.3311   -0.6166    0.0000 N   0  0  0  0  0  0  0  0  0
   -1.3311   -1.4416    0.0000 C   0  0  0  0  0  0  0  0  0
   -0.6167   -1.8541    0.0000 C   0  0  0  0  0  0  0  0  0
    0.0978   -1.4416    0.0000 C   0  0  0  0  0  0  0  0  0
    0.0978   -0.6166    0.0000 C   0  0  0  0  0  0  0  0  0
   -0.6167   -0.2041    0.0000 C   0  0  0  0  0  0  0  0  0
    0.8123   -0.2041    0.0000 C   0  0  0  0  0  0  0  0  0
    1.5267   -0.6166    0.0000 C   0  0  0  0  0  0  0  0  0
    1.5267   -1.4416    0.0000 C   0  0  0  0  0  0  0  0  0
    0.8123   -1.8541    0.0000 C   0  0  0  0  0  0  0  0  0
  1  2  1  0  0  0  0
  1  3  1  0  0  0  0
  3  4  4  0  0  0  0
  3  8  4  0  0  0  0
  4  5  4  0  0  0  0
  5  6  4  0  0  0  0
  6  7  4  0  0  0  0
  7  8  4  0  0  0  0
  8  9  1  0  0  0  0
  9 10  1  0  0  0  0
  9 14  1  0  0  0  0
 10 11  1  0  0  0  0
 11 12  1  0  0  0  0
 12 13  1  0  0  0  0
 12 15  1  0  0  0  0
 13 14  1  0  0  0  0
 15 16  1  0  0  0  0
 16 17  1  0  0  0  0
 17 18  1  0  0  0  0
 18 19  1  0  0  0  0
 19 20  1  0  0  0  0
 20 21  2  0  0  0  0
 20 22  1  0  0  0  0
 22 23  1  0  0  0  0
 22 27  1  0  0  0  0
 23 24  1  0  0  0  0
 24 25  1  0  0  0  0
 25 26  4  0  0  0  0
 25 31  4  0  0  0  0
 26 27  1  0  0  0  0
 26 28  4  0  0  0  0
 28 29  4  0  0  0  0
 29 30  4  0  0  0  0
 30 31  4  0  0  0  0
M  END
>  <Name_Molregno>
469726

>  <5-HT1A>
7.4

>  <DOPAMINE D2>
7.66

$$$$
469727
  Marvin  02231216192D 0   1.00000     0.00000     0

 29 31  0  0  0  0  0  0  0  0999 V2000
   -8.0249    0.0219    0.0000 S   0  0  0  0  0  0  0  0  0
   -8.7394   -0.3906    0.0000 C   0  0  0  0  0  0  0  0  0
   -8.0249    0.8469    0.0000 C   0  0  0  0  0  0  0  0  0
   -8.7394    1.2594    0.0000 C   0  0  0  0  0  0  0  0  0
   -8.7394    2.0844    0.0000 C   0  0  0  0  0  0  0  0  0
   -8.0249    2.4969    0.0000 C   0  0  0  0  0  0  0  0  0
   -7.3104    2.0844    0.0000 C   0  0  0  0  0  0  0  0  0
   -7.3104    1.2594    0.0000 C   0  0  0  0  0  0  0  0  0
   -6.5960    0.8469    0.0000 N   0  0  0  0  0  0  0  0  0
   -5.8815    1.2594    0.0000 C   0  0  0  0  0  0  0  0  0
   -5.1670    0.8469    0.0000 C   0  0  0  0  0  0  0  0  0
   -5.1670    0.0219    0.0000 N   0  0  0  0  0  0  0  0  0
   -5.8815   -0.3906    0.0000 C   0  0  0  0  0  0  0  0  0
   -6.5960    0.0219    0.0000 C   0  0  0  0  0  0  0  0  0
   -4.4526   -0.3906    0.0000 C   0  0  0  0  0  0  0  0  0
   -3.7381    0.0219    0.0000 C   0  0  0  0  0  0  0  0  0
   -3.0236   -0.3906    0.0000 C   0  0  0  0  0  0  0  0  0
   -2.3092    0.0219    0.0000 C   0  0  0  0  0  0  0  0  0
   -1.5947   -0.3906    0.0000 C   0  0  0  0  0  0  0  0  0
   -0.8802    0.0219    0.0000 C   0  0  0  0  0  0  0  0  0
   -0.8802    0.8469    0.0000 O   0  0  0  0  0  0  0  0  0
   -0.1657   -0.3906    0.0000 N   0  0  0  0  0  0  0  0  0
    0.5487    0.0219    0.0000 C   0  0  0  0  0  0  0  0  0
    1.2632   -0.3906    0.0000 C   0  0  0  0  0  0  0  0  0
    1.9777    0.0219    0.0000 C   0  0  0  0  0  0  0  0  0
    2.6921   -0.3906    0.0000 C   0  0  0  0  0  0  0  0  0
    2.6921   -1.2156    0.0000 C   0  0  0  0  0  0  0  0  0
    1.9777   -1.6281    0.0000 C   0  0  0  0  0  0  0  0  0
    1.2632   -1.2156    0.0000 C   0  0  0  0  0  0  0  0  0
  1  2  1  0  0  0  0
  1  3  1  0  0  0  0
  3  4  4  0  0  0  0
  3  8  4  0  0  0  0
  4  5  4  0  0  0  0
  5  6  4  0  0  0  0
  6  7  4  0  0  0  0
  7  8  4  0  0  0  0
  8  9  1  0  0  0  0
  9 10  1  0  0  0  0
  9 14  1  0  0  0  0
 10 11  1  0  0  0  0
 11 12  1  0  0  0  0
 12 13  1  0  0  0  0
 12 15  1  0  0  0  0
 13 14  1  0  0  0  0
 15 16  1  0  0  0  0
 16 17  1  0  0  0  0
 17 18  1  0  0  0  0
 18 19  1  0  0  0  0
 19 20  1  0  0  0  0
 20 21  2  0  0  0  0
 20 22  1  0  0  0  0
 22 23  1  0  0  0  0
 23 24  1  0  0  0  0
 24 25  4  0  0  0  0
 24 29  4  0  0  0  0
 25 26  4  0  0  0  0
 26 27  4  0  0  0  0
 27 28  4  0  0  0  0
 28 29  4  0  0  0  0
M  END
>  <Name_Molregno>
469727

>  <5-HT1A>
7.92

>  <DOPAMINE D2>
7.48

$$$$
469859
  Marvin  02231216192D 0   1.00000     0.00000     0

 33 36  0  0  0  0  0  0  0  0999 V2000
   -4.4589   -5.0157    0.0000 O   0  0  0  0  0  0  0  0  0
   -4.4589   -4.1907    0.0000 C   0  0  0  0  0  0  0  0  0
   -5.1734   -3.7782    0.0000 N   0  0  0  0  0  0  0  0  0
   -5.8879   -4.1907    0.0000 C   0  0  0  0  0  0  0  0  0
   -6.6023   -3.7782    0.0000 C   0  0  0  0  0  0  0  0  0
   -7.3168   -4.1907    0.0000 C   0  0  0  0  0  0  0  0  0
   -8.0313   -3.7782    0.0000 C   0  0  0  0  0  0  0  0  0
   -8.0313   -2.9532    0.0000 C   0  0  0  0  0  0  0  0  0
   -7.3168   -2.5407    0.0000 C   0  0  0  0  0  0  0  0  0
   -6.6023   -2.9532    0.0000 C   0  0  0  0  0  0  0  0  0
   -3.7444   -3.7782    0.0000 C   0  0  0  0  0  0  0  0  0
   -3.0300   -4.1907    0.0000 C   0  0  0  0  0  0  0  0  0
   -2.3155   -3.7782    0.0000 C   0  0  0  0  0  0  0  0  0
   -1.6010   -4.1907    0.0000 C   0  0  0  0  0  0  0  0  0
   -0.8866   -3.7782    0.0000 C   0  0  0  0  0  0  0  0  0
   -0.8866   -2.9532    0.0000 N   0  0  0  0  0  0  0  0  0
   -1.6010   -2.5407    0.0000 C   0  0  0  0  0  0  0  0  0
   -1.6010   -1.7157    0.0000 C   0  0  0  0  0  0  0  0  0
   -0.8866   -1.3032    0.0000 N   0  0  0  0  0  0  0  0  0
   -0.1721   -1.7157    0.0000 C   0  0  0  0  0  0  0  0  0
   -0.1721   -2.5407    0.0000 C   0  0  0  0  0  0  0  0  0
   -0.8866   -0.4782    0.0000 C   0  0  0  0  0  0  0  0  0
   -1.6010   -0.0657    0.0000 C   0  0  0  0  0  0  0  0  0
   -1.6010    0.7593    0.0000 C   0  0  0  0  0  0  0  0  0
   -0.8866    1.1718    0.0000 C   0  0  0  0  0  0  0  0  0
   -0.1721    0.7593    0.0000 C   0  0  0  0  0  0  0  0  0
   -0.1721   -0.0657    0.0000 C   0  0  0  0  0  0  0  0  0
    0.5424   -0.4782    0.0000 C   0  0  0  0  0  0  0  0  0
    1.2569   -0.0657    0.0000 C   0  0  0  0  0  0  0  0  0
    1.9713   -0.4782    0.0000 C   0  0  0  0  0  0  0  0  0
    1.9713   -1.3032    0.0000 C   0  0  0  0  0  0  0  0  0
    1.2569   -1.7157    0.0000 C   0  0  0  0  0  0  0  0  0
    0.5424   -1.3032    0.0000 C   0  0  0  0  0  0  0  0  0
  1  2  2  0  0  0  0
  2  3  1  0  0  0  0
  2 11  1  0  0  0  0
  3  4  1  0  0  0  0
  4  5  1  0  0  0  0
  5  6  4  0  0  0  0
  5 10  4  0  0  0  0
  6  7  4  0  0  0  0
  7  8  4  0  0  0  0
  8  9  4  0  0  0  0
  9 10  4  0  0  0  0
 11 12  1  0  0  0  0
 12 13  1  0  0  0  0
 13 14  1  0  0  0  0
 14 15  1  0  0  0  0
 15 16  1  0  0  0  0
 16 17  1  0  0  0  0
 16 21  1  0  0  0  0
 17 18  1  0  0  0  0
 18 19  1  0  0  0  0
 19 20  1  0  0  0  0
 19 22  1  0  0  0  0
 20 21  1  0  0  0  0
 22 23  4  0  0  0  0
 22 27  4  0  0  0  0
 23 24  4  0  0  0  0
 24 25  4  0  0  0  0
 25 26  4  0  0  0  0
 26 27  4  0  0  0  0
 27 28  1  0  0  0  0
 28 29  4  0  0  0  0
 28 33  4  0  0  0  0
 29 30  4  0  0  0  0
 30 31  4  0  0  0  0
 31 32  4  0  0  0  0
 32 33  4  0  0  0  0
M  END
>  <Name_Molregno>
469859

>  <5-HT1A>
6.79

>  <DOPAMINE D2>
6.3

$$$$
469860
  Marvin  02231216192D 0   1.00000     0.00000     0

 30 32  0  0  0  0  0  0  0  0999 V2000
   -4.7784   -2.2859    0.0000 O   0  0  0  0  0  0  0  0  0
   -4.7784   -1.4609    0.0000 C   0  0  0  0  0  0  0  0  0
   -5.4929   -1.0484    0.0000 N   0  0  0  0  0  0  0  0  0
   -6.2073   -1.4609    0.0000 C   0  0  0  0  0  0  0  0  0
   -6.9218   -1.0484    0.0000 C   0  0  0  0  0  0  0  0  0
   -7.6363   -1.4609    0.0000 C   0  0  0  0  0  0  0  0  0
   -8.3508   -1.0484    0.0000 C   0  0  0  0  0  0  0  0  0
   -8.3508   -0.2234    0.0000 C   0  0  0  0  0  0  0  0  0
   -7.6363    0.1891    0.0000 C   0  0  0  0  0  0  0  0  0
   -6.9218   -0.2234    0.0000 C   0  0  0  0  0  0  0  0  0
   -4.0639   -1.0484    0.0000 C   0  0  0  0  0  0  0  0  0
   -3.3495   -1.4609    0.0000 C   0  0  0  0  0  0  0  0  0
   -2.6350   -1.0484    0.0000 C   0  0  0  0  0  0  0  0  0
   -1.9205   -1.4609    0.0000 C   0  0  0  0  0  0  0  0  0
   -1.2061   -1.0484    0.0000 C   0  0  0  0  0  0  0  0  0
   -0.4916   -1.4609    0.0000 N   0  0  0  0  0  0  0  0  0
    0.2229   -1.0484    0.0000 C   0  0  0  0  0  0  0  0  0
    0.9374   -1.4609    0.0000 C   0  0  0  0  0  0  0  0  0
    0.9374   -2.2859    0.0000 N   0  0  0  0  0  0  0  0  0
    0.2229   -2.6984    0.0000 C   0  0  0  0  0  0  0  0  0
   -0.4916   -2.2859    0.0000 C   0  0  0  0  0  0  0  0  0
    1.6518   -2.6984    0.0000 C   0  0  0  0  0  0  0  0  0
    2.3663   -2.2859    0.0000 C   0  0  0  0  0  0  0  0  0
    3.0808   -2.6984    0.0000 C   0  0  0  0  0  0  0  0  0
    3.0808   -3.5234    0.0000 C   0  0  0  0  0  0  0  0  0
    2.3663   -3.9359    0.0000 C   0  0  0  0  0  0  0  0  0
    1.6518   -3.5234    0.0000 C   0  0  0  0  0  0  0  0  0
    0.9374   -3.9359    0.0000 C   0  0  0  0  0  0  0  0  0
    0.9374   -4.7609    0.0000 C   0  0  0  0  0  0  0  0  0
    0.2229   -3.5234    0.0000 C   0  0  0  0  0  0  0  0  0
  1  2  2  0  0  0  0
  2  3  1  0  0  0  0
  2 11  1  0  0  0  0
  3  4  1  0  0  0  0
  4  5  1  0  0  0  0
  5  6  4  0  0  0  0
  5 10  4  0  0  0  0
  6  7  4  0  0  0  0
  7  8  4  0  0  0  0
  8  9  4  0  0  0  0
  9 10  4  0  0  0  0
 11 12  1  0  0  0  0
 12 13  1  0  0  0  0
 13 14  1  0  0  0  0
 14 15  1  0  0  0  0
 15 16  1  0  0  0  0
 16 17  1  0  0  0  0
 16 21  1  0  0  0  0
 17 18  1  0  0  0  0
 18 19  1  0  0  0  0
 19 20  1  0  0  0  0
 19 22  1  0  0  0  0
 20 21  1  0  0  0  0
 22 23  4  0  0  0  0
 22 27  4  0  0  0  0
 23 24  4  0  0  0  0
 24 25  4  0  0  0  0
 25 26  4  0  0  0  0
 26 27  4  0  0  0  0
 27 28  1  0  0  0  0
 28 29  1  0  0  0  0
 28 30  1  0  0  0  0
M  END
>  <Name_Molregno>
469860

>  <5-HT1A>
6.86

>  <DOPAMINE D2>
8.04

$$$$
469861
  Marvin  02231216192D 0   1.00000     0.00000     0

 29 31  0  0  0  0  0  0  0  0999 V2000
   -8.0249    0.0219    0.0000 O   0  0  0  0  0  0  0  0  0
   -8.7394   -0.3906    0.0000 C   0  0  0  0  0  0  0  0  0
   -8.0249    0.8469    0.0000 C   0  0  0  0  0  0  0  0  0
   -8.7394    1.2594    0.0000 C   0  0  0  0  0  0  0  0  0
   -8.7394    2.0844    0.0000 C   0  0  0  0  0  0  0  0  0
   -8.0249    2.4969    0.0000 C   0  0  0  0  0  0  0  0  0
   -7.3104    2.0844    0.0000 C   0  0  0  0  0  0  0  0  0
   -7.3104    1.2594    0.0000 C   0  0  0  0  0  0  0  0  0
   -6.5960    0.8469    0.0000 N   0  0  0  0  0  0  0  0  0
   -5.8815    1.2594    0.0000 C   0  0  0  0  0  0  0  0  0
   -5.1670    0.8469    0.0000 C   0  0  0  0  0  0  0  0  0
   -5.1670    0.0219    0.0000 N   0  0  0  0  0  0  0  0  0
   -5.8815   -0.3906    0.0000 C   0  0  0  0  0  0  0  0  0
   -6.5960    0.0219    0.0000 C   0  0  0  0  0  0  0  0  0
   -4.4526   -0.3906    0.0000 C   0  0  0  0  0  0  0  0  0
   -3.7381    0.0219    0.0000 C   0  0  0  0  0  0  0  0  0
   -3.0236   -0.3906    0.0000 C   0  0  0  0  0  0  0  0  0
   -2.3092    0.0219    0.0000 C   0  0  0  0  0  0  0  0  0
   -1.5947   -0.3906    0.0000 C   0  0  0  0  0  0  0  0  0
   -0.8802    0.0219    0.0000 C   0  0  0  0  0  0  0  0  0
   -0.8802    0.8469    0.0000 O   0  0  0  0  0  0  0  0  0
   -0.1657   -0.3906    0.0000 N   0  0  0  0  0  0  0  0  0
    0.5487    0.0219    0.0000 C   0  0  0  0  0  0  0  0  0
    1.2632   -0.3906    0.0000 C   0  0  0  0  0  0  0  0  0
    1.9777    0.0219    0.0000 C   0  0  0  0  0  0  0  0  0
    2.6921   -0.3906    0.0000 C   0  0  0  0  0  0  0  0  0
    2.6921   -1.2156    0.0000 C   0  0  0  0  0  0  0  0  0
    1.9777   -1.6281    0.0000 C   0  0  0  0  0  0  0  0  0
    1.2632   -1.2156    0.0000 C   0  0  0  0  0  0  0  0  0
  1  2  1  0  0  0  0
  1  3  1  0  0  0  0
  3  4  4  0  0  0  0
  3  8  4  0  0  0  0
  4  5  4  0  0  0  0
  5  6  4  0  0  0  0
  6  7  4  0  0  0  0
  7  8  4  0  0  0  0
  8  9  1  0  0  0  0
  9 10  1  0  0  0  0
  9 14  1  0  0  0  0
 10 11  1  0  0  0  0
 11 12  1  0  0  0  0
 12 13  1  0  0  0  0
 12 15  1  0  0  0  0
 13 14  1  0  0  0  0
 15 16  1  0  0  0  0
 16 17  1  0  0  0  0
 17 18  1  0  0  0  0
 18 19  1  0  0  0  0
 19 20  1  0  0  0  0
 20 21  2  0  0  0  0
 20 22  1  0  0  0  0
 22 23  1  0  0  0  0
 23 24  1  0  0  0  0
 24 25  4  0  0  0  0
 24 29  4  0  0  0  0
 25 26  4  0  0  0  0
 26 27  4  0  0  0  0
 27 28  4  0  0  0  0
 28 29  4  0  0  0  0
M  END
>  <Name_Molregno>
469861

>  <5-HT1A>
7.89

>  <DOPAMINE D2>
6.65

$$$$
469862
  Marvin  02231216192D 0   1.00000     0.00000     0

 29 31  0  0  0  0  0  0  0  0999 V2000
   -8.0249    0.0219    0.0000 S   0  0  0  0  0  0  0  0  0
   -8.7394   -0.3906    0.0000 C   0  0  0  0  0  0  0  0  0
   -8.0249    0.8469    0.0000 C   0  0  0  0  0  0  0  0  0
   -8.7394    1.2594    0.0000 C   0  0  0  0  0  0  0  0  0
   -8.7394    2.0844    0.0000 C   0  0  0  0  0  0  0  0  0
   -8.0249    2.4969    0.0000 C   0  0  0  0  0  0  0  0  0
   -7.3104    2.0844    0.0000 C   0  0  0  0  0  0  0  0  0
   -7.3104    1.2594    0.0000 C   0  0  0  0  0  0  0  0  0
   -6.5960    0.8469    0.0000 N   0  0  0  0  0  0  0  0  0
   -5.8815    1.2594    0.0000 C   0  0  0  0  0  0  0  0  0
   -5.1670    0.8469    0.0000 C   0  0  0  0  0  0  0  0  0
   -5.1670    0.0219    0.0000 N   0  0  0  0  0  0  0  0  0
   -5.8815   -0.3906    0.0000 C   0  0  0  0  0  0  0  0  0
   -6.5960    0.0219    0.0000 C   0  0  0  0  0  0  0  0  0
   -4.4526   -0.3906    0.0000 C   0  0  0  0  0  0  0  0  0
   -3.7381    0.0219    0.0000 C   0  0  0  0  0  0  0  0  0
   -3.0236   -0.3906    0.0000 C   0  0  0  0  0  0  0  0  0
   -2.3092    0.0219    0.0000 C   0  0  0  0  0  0  0  0  0
   -1.5947   -0.3906    0.0000 C   0  0  0  0  0  0  0  0  0
   -0.8802    0.0219    0.0000 C   0  0  0  0  0  0  0  0  0
   -0.8802    0.8469    0.0000 O   0  0  0  0  0  0  0  0  0
   -0.1657   -0.3906    0.0000 N   0  0  0  0  0  0  0  0  0
    0.5487    0.0219    0.0000 C   0  0  0  0  0  0  0  0  0
    1.2632   -0.3906    0.0000 C   0  0  0  0  0  0  0  0  0
    1.9777    0.0219    0.0000 C   0  0  0  0  0  0  0  0  0
    2.6921   -0.3906    0.0000 C   0  0  0  0  0  0  0  0  0
    2.6921   -1.2156    0.0000 N   0  0  0  0  0  0  0  0  0
    1.9777   -1.6281    0.0000 C   0  0  0  0  0  0  0  0  0
    1.2632   -1.2156    0.0000 C   0  0  0  0  0  0  0  0  0
  1  2  1  0  0  0  0
  1  3  1  0  0  0  0
  3  4  4  0  0  0  0
  3  8  4  0  0  0  0
  4  5  4  0  0  0  0
  5  6  4  0  0  0  0
  6  7  4  0  0  0  0
  7  8  4  0  0  0  0
  8  9  1  0  0  0  0
  9 10  1  0  0  0  0
  9 14  1  0  0  0  0
 10 11  1  0  0  0  0
 11 12  1  0  0  0  0
 12 13  1  0  0  0  0
 12 15  1  0  0  0  0
 13 14  1  0  0  0  0
 15 16  1  0  0  0  0
 16 17  1  0  0  0  0
 17 18  1  0  0  0  0
 18 19  1  0  0  0  0
 19 20  1  0  0  0  0
 20 21  2  0  0  0  0
 20 22  1  0  0  0  0
 22 23  1  0  0  0  0
 23 24  1  0  0  0  0
 24 25  4  0  0  0  0
 24 29  4  0  0  0  0
 25 26  4  0  0  0  0
 26 27  4  0  0  0  0
 27 28  4  0  0  0  0
 28 29  4  0  0  0  0
M  END
>  <Name_Molregno>
469862

>  <5-HT1A>
8.09

>  <DOPAMINE D2>
7.19

$$$$
469918
  Marvin  02231216192D 0   1.00000     0.00000     0

 33 36  0  0  0  0  0  0  0  0999 V2000
   -4.4589   -5.0157    0.0000 O   0  0  0  0  0  0  0  0  0
   -4.4589   -4.1907    0.0000 C   0  0  0  0  0  0  0  0  0
   -5.1734   -3.7782    0.0000 N   0  0  0  0  0  0  0  0  0
   -5.8879   -4.1907    0.0000 C   0  0  0  0  0  0  0  0  0
   -6.6023   -3.7782    0.0000 C   0  0  0  0  0  0  0  0  0
   -7.3168   -4.1907    0.0000 C   0  0  0  0  0  0  0  0  0
   -8.0313   -3.7782    0.0000 C   0  0  0  0  0  0  0  0  0
   -8.0313   -2.9532    0.0000 N   0  0  0  0  0  0  0  0  0
   -7.3168   -2.5407    0.0000 C   0  0  0  0  0  0  0  0  0
   -6.6023   -2.9532    0.0000 C   0  0  0  0  0  0  0  0  0
   -3.7444   -3.7782    0.0000 C   0  0  0  0  0  0  0  0  0
   -3.0300   -4.1907    0.0000 C   0  0  0  0  0  0  0  0  0
   -2.3155   -3.7782    0.0000 C   0  0  0  0  0  0  0  0  0
   -1.6010   -4.1907    0.0000 C   0  0  0  0  0  0  0  0  0
   -0.8866   -3.7782    0.0000 C   0  0  0  0  0  0  0  0  0
   -0.8866   -2.9532    0.0000 N   0  0  0  0  0  0  0  0  0
   -1.6010   -2.5407    0.0000 C   0  0  0  0  0  0  0  0  0
   -1.6010   -1.7157    0.0000 C   0  0  0  0  0  0  0  0  0
   -0.8866   -1.3032    0.0000 N   0  0  0  0  0  0  0  0  0
   -0.1721   -1.7157    0.0000 C   0  0  0  0  0  0  0  0  0
   -0.1721   -2.5407    0.0000 C   0  0  0  0  0  0  0  0  0
   -0.8866   -0.4782    0.0000 C   0  0  0  0  0  0  0  0  0
   -1.6010   -0.0657    0.0000 C   0  0  0  0  0  0  0  0  0
   -1.6010    0.7593    0.0000 C   0  0  0  0  0  0  0  0  0
   -0.8866    1.1718    0.0000 C   0  0  0  0  0  0  0  0  0
   -0.1721    0.7593    0.0000 C   0  0  0  0  0  0  0  0  0
   -0.1721   -0.0657    0.0000 C   0  0  0  0  0  0  0  0  0
    0.5424   -0.4782    0.0000 C   0  0  0  0  0  0  0  0  0
    1.2569   -0.0657    0.0000 C   0  0  0  0  0  0  0  0  0
    1.9713   -0.4782    0.0000 C   0  0  0  0  0  0  0  0  0
    1.9713   -1.3032    0.0000 C   0  0  0  0  0  0  0  0  0
    1.2569   -1.7157    0.0000 C   0  0  0  0  0  0  0  0  0
    0.5424   -1.3032    0.0000 C   0  0  0  0  0  0  0  0  0
  1  2  2  0  0  0  0
  2  3  1  0  0  0  0
  2 11  1  0  0  0  0
  3  4  1  0  0  0  0
  4  5  1  0  0  0  0
  5  6  4  0  0  0  0
  5 10  4  0  0  0  0
  6  7  4  0  0  0  0
  7  8  4  0  0  0  0
  8  9  4  0  0  0  0
  9 10  4  0  0  0  0
 11 12  1  0  0  0  0
 12 13  1  0  0  0  0
 13 14  1  0  0  0  0
 14 15  1  0  0  0  0
 15 16  1  0  0  0  0
 16 17  1  0  0  0  0
 16 21  1  0  0  0  0
 17 18  1  0  0  0  0
 18 19  1  0  0  0  0
 19 20  1  0  0  0  0
 19 22  1  0  0  0  0
 20 21  1  0  0  0  0
 22 23  4  0  0  0  0
 22 27  4  0  0  0  0
 23 24  4  0  0  0  0
 24 25  4  0  0  0  0
 25 26  4  0  0  0  0
 26 27  4  0  0  0  0
 27 28  1  0  0  0  0
 28 29  4  0  0  0  0
 28 33  4  0  0  0  0
 29 30  4  0  0  0  0
 30 31  4  0  0  0  0
 31 32  4  0  0  0  0
 32 33  4  0  0  0  0
M  END
>  <Name_Molregno>
469918

>  <5-HT1A>
7.15

>  <DOPAMINE D2>
6.73

$$$$
469919
  Marvin  02231216192D 0   1.00000     0.00000     0

 30 32  0  0  0  0  0  0  0  0999 V2000
   -4.7784   -2.2859    0.0000 O   0  0  0  0  0  0  0  0  0
   -4.7784   -1.4609    0.0000 C   0  0  0  0  0  0  0  0  0
   -5.4929   -1.0484    0.0000 N   0  0  0  0  0  0  0  0  0
   -6.2073   -1.4609    0.0000 C   0  0  0  0  0  0  0  0  0
   -6.9218   -1.0484    0.0000 C   0  0  0  0  0  0  0  0  0
   -7.6363   -1.4609    0.0000 C   0  0  0  0  0  0  0  0  0
   -8.3508   -1.0484    0.0000 C   0  0  0  0  0  0  0  0  0
   -8.3508   -0.2234    0.0000 N   0  0  0  0  0  0  0  0  0
   -7.6363    0.1891    0.0000 C   0  0  0  0  0  0  0  0  0
   -6.9218   -0.2234    0.0000 C   0  0  0  0  0  0  0  0  0
   -4.0639   -1.0484    0.0000 C   0  0  0  0  0  0  0  0  0
   -3.3495   -1.4609    0.0000 C   0  0  0  0  0  0  0  0  0
   -2.6350   -1.0484    0.0000 C   0  0  0  0  0  0  0  0  0
   -1.9205   -1.4609    0.0000 C   0  0  0  0  0  0  0  0  0
   -1.2061   -1.0484    0.0000 C   0  0  0  0  0  0  0  0  0
   -0.4916   -1.4609    0.0000 N   0  0  0  0  0  0  0  0  0
    0.2229   -1.0484    0.0000 C   0  0  0  0  0  0  0  0  0
    0.9374   -1.4609    0.0000 C   0  0  0  0  0  0  0  0  0
    0.9374   -2.2859    0.0000 N   0  0  0  0  0  0  0  0  0
    0.2229   -2.6984    0.0000 C   0  0  0  0  0  0  0  0  0
   -0.4916   -2.2859    0.0000 C   0  0  0  0  0  0  0  0  0
    1.6518   -2.6984    0.0000 C   0  0  0  0  0  0  0  0  0
    2.3663   -2.2859    0.0000 C   0  0  0  0  0  0  0  0  0
    3.0808   -2.6984    0.0000 C   0  0  0  0  0  0  0  0  0
    3.0808   -3.5234    0.0000 C   0  0  0  0  0  0  0  0  0
    2.3663   -3.9359    0.0000 C   0  0  0  0  0  0  0  0  0
    1.6518   -3.5234    0.0000 C   0  0  0  0  0  0  0  0  0
    0.9374   -3.9359    0.0000 C   0  0  0  0  0  0  0  0  0
    0.9374   -4.7609    0.0000 C   0  0  0  0  0  0  0  0  0
    0.2229   -3.5234    0.0000 C   0  0  0  0  0  0  0  0  0
  1  2  2  0  0  0  0
  2  3  1  0  0  0  0
  2 11  1  0  0  0  0
  3  4  1  0  0  0  0
  4  5  1  0  0  0  0
  5  6  4  0  0  0  0
  5 10  4  0  0  0  0
  6  7  4  0  0  0  0
  7  8  4  0  0  0  0
  8  9  4  0  0  0  0
  9 10  4  0  0  0  0
 11 12  1  0  0  0  0
 12 13  1  0  0  0  0
 13 14  1  0  0  0  0
 14 15  1  0  0  0  0
 15 16  1  0  0  0  0
 16 17  1  0  0  0  0
 16 21  1  0  0  0  0
 17 18  1  0  0  0  0
 18 19  1  0  0  0  0
 19 20  1  0  0  0  0
 19 22  1  0  0  0  0
 20 21  1  0  0  0  0
 22 23  4  0  0  0  0
 22 27  4  0  0  0  0
 23 24  4  0  0  0  0
 24 25  4  0  0  0  0
 25 26  4  0  0  0  0
 26 27  4  0  0  0  0
 27 28  1  0  0  0  0
 28 29  1  0  0  0  0
 28 30  1  0  0  0  0
M  END
>  <Name_Molregno>
469919

>  <5-HT1A>
6.49

>  <DOPAMINE D2>
7.68

$$$$
469920
  Marvin  02231216192D 0   1.00000     0.00000     0

 29 31  0  0  0  0  0  0  0  0999 V2000
   -8.0249    0.0219    0.0000 O   0  0  0  0  0  0  0  0  0
   -8.7394   -0.3906    0.0000 C   0  0  0  0  0  0  0  0  0
   -8.0249    0.8469    0.0000 C   0  0  0  0  0  0  0  0  0
   -8.7394    1.2594    0.0000 C   0  0  0  0  0  0  0  0  0
   -8.7394    2.0844    0.0000 C   0  0  0  0  0  0  0  0  0
   -8.0249    2.4969    0.0000 C   0  0  0  0  0  0  0  0  0
   -7.3104    2.0844    0.0000 C   0  0  0  0  0  0  0  0  0
   -7.3104    1.2594    0.0000 C   0  0  0  0  0  0  0  0  0
   -6.5960    0.8469    0.0000 N   0  0  0  0  0  0  0  0  0
   -5.8815    1.2594    0.0000 C   0  0  0  0  0  0  0  0  0
   -5.1670    0.8469    0.0000 C   0  0  0  0  0  0  0  0  0
   -5.1670    0.0219    0.0000 N   0  0  0  0  0  0  0  0  0
   -5.8815   -0.3906    0.0000 C   0  0  0  0  0  0  0  0  0
   -6.5960    0.0219    0.0000 C   0  0  0  0  0  0  0  0  0
   -4.4526   -0.3906    0.0000 C   0  0  0  0  0  0  0  0  0
   -3.7381    0.0219    0.0000 C   0  0  0  0  0  0  0  0  0
   -3.0236   -0.3906    0.0000 C   0  0  0  0  0  0  0  0  0
   -2.3092    0.0219    0.0000 C   0  0  0  0  0  0  0  0  0
   -1.5947   -0.3906    0.0000 C   0  0  0  0  0  0  0  0  0
   -0.8802    0.0219    0.0000 C   0  0  0  0  0  0  0  0  0
   -0.8802    0.8469    0.0000 O   0  0  0  0  0  0  0  0  0
   -0.1657   -0.3906    0.0000 N   0  0  0  0  0  0  0  0  0
    0.5487    0.0219    0.0000 C   0  0  0  0  0  0  0  0  0
    1.2632   -0.3906    0.0000 C   0  0  0  0  0  0  0  0  0
    1.9777    0.0219    0.0000 C   0  0  0  0  0  0  0  0  0
    2.6921   -0.3906    0.0000 C   0  0  0  0  0  0  0  0  0
    2.6921   -1.2156    0.0000 N   0  0  0  0  0  0  0  0  0
    1.9777   -1.6281    0.0000 C   0  0  0  0  0  0  0  0  0
    1.2632   -1.2156    0.0000 C   0  0  0  0  0  0  0  0  0
  1  2  1  0  0  0  0
  1  3  1  0  0  0  0
  3  4  4  0  0  0  0
  3  8  4  0  0  0  0
  4  5  4  0  0  0  0
  5  6  4  0  0  0  0
  6  7  4  0  0  0  0
  7  8  4  0  0  0  0
  8  9  1  0  0  0  0
  9 10  1  0  0  0  0
  9 14  1  0  0  0  0
 10 11  1  0  0  0  0
 11 12  1  0  0  0  0
 12 13  1  0  0  0  0
 12 15  1  0  0  0  0
 13 14  1  0  0  0  0
 15 16  1  0  0  0  0
 16 17  1  0  0  0  0
 17 18  1  0  0  0  0
 18 19  1  0  0  0  0
 19 20  1  0  0  0  0
 20 21  2  0  0  0  0
 20 22  1  0  0  0  0
 22 23  1  0  0  0  0
 23 24  1  0  0  0  0
 24 25  4  0  0  0  0
 24 29  4  0  0  0  0
 25 26  4  0  0  0  0
 26 27  4  0  0  0  0
 27 28  4  0  0  0  0
 28 29  4  0  0  0  0
M  END
>  <Name_Molregno>
469920

>  <5-HT1A>
7.72

>  <DOPAMINE D2>
6.3

$$$$
469921
  Marvin  02231216192D 0   1.00000     0.00000     0

 31 33  0  0  0  0  0  0  0  0999 V2000
   -9.6449    0.0106    0.0000 S   0  0  0  0  0  0  0  0  0
  -10.3594   -0.4019    0.0000 C   0  0  0  0  0  0  0  0  0
   -9.6449    0.8356    0.0000 C   0  0  0  0  0  0  0  0  0
  -10.3594    1.2481    0.0000 C   0  0  0  0  0  0  0  0  0
  -10.3594    2.0731    0.0000 C   0  0  0  0  0  0  0  0  0
   -9.6449    2.4856    0.0000 C   0  0  0  0  0  0  0  0  0
   -8.9305    2.0731    0.0000 C   0  0  0  0  0  0  0  0  0
   -8.9305    1.2481    0.0000 C   0  0  0  0  0  0  0  0  0
   -8.2160    0.8356    0.0000 N   0  0  0  0  0  0  0  0  0
   -7.5015    1.2481    0.0000 C   0  0  0  0  0  0  0  0  0
   -6.7871    0.8356    0.0000 C   0  0  0  0  0  0  0  0  0
   -6.7871    0.0106    0.0000 N   0  0  0  0  0  0  0  0  0
   -7.5015   -0.4019    0.0000 C   0  0  0  0  0  0  0  0  0
   -8.2160    0.0106    0.0000 C   0  0  0  0  0  0  0  0  0
   -6.0726   -0.4019    0.0000 C   0  0  0  0  0  0  0  0  0
   -5.3581    0.0106    0.0000 C   0  0  0  0  0  0  0  0  0
   -4.6437   -0.4019    0.0000 C   0  0  0  0  0  0  0  0  0
   -3.9292    0.0106    0.0000 C   0  0  0  0  0  0  0  0  0
   -3.2147   -0.4019    0.0000 C   0  0  0  0  0  0  0  0  0
   -2.5002    0.0106    0.0000 C   0  0  0  0  0  0  0  0  0
   -2.5002    0.8356    0.0000 O   0  0  0  0  0  0  0  0  0
   -1.7858   -0.4019    0.0000 N   0  0  0  0  0  0  0  0  0
   -1.0713    0.0106    0.0000 C   0  0  0  0  0  0  0  0  0
   -0.3568   -0.4019    0.0000 C   0  0  0  0  0  0  0  0  0
    0.3576    0.0106    0.0000 C   0  0  0  0  0  0  0  0  0
    1.0721   -0.4019    0.0000 C   0  0  0  0  0  0  0  0  0
    1.0721   -1.2269    0.0000 C   0  0  0  0  0  0  0  0  0
    0.3576   -1.6394    0.0000 C   0  0  0  0  0  0  0  0  0
   -0.3568   -1.2269    0.0000 C   0  0  0  0  0  0  0  0  0
    1.7866   -1.6394    0.0000 C   0  0  0  0  0  0  0  0  0
    2.5011   -2.0519    0.0000 N   0  0  0  0  0  0  0  0  0
  1  2  1  0  0  0  0
  1  3  1  0  0  0  0
  3  4  4  0  0  0  0
  3  8  4  0  0  0  0
  4  5  4  0  0  0  0
  5  6  4  0  0  0  0
  6  7  4  0  0  0  0
  7  8  4  0  0  0  0
  8  9  1  0  0  0  0
  9 10  1  0  0  0  0
  9 14  1  0  0  0  0
 10 11  1  0  0  0  0
 11 12  1  0  0  0  0
 12 13  1  0  0  0  0
 12 15  1  0  0  0  0
 13 14  1  0  0  0  0
 15 16  1  0  0  0  0
 16 17  1  0  0  0  0
 17 18  1  0  0  0  0
 18 19  1  0  0  0  0
 19 20  1  0  0  0  0
 20 21  2  0  0  0  0
 20 22  1  0  0  0  0
 22 23  1  0  0  0  0
 23 24  1  0  0  0  0
 24 25  4  0  0  0  0
 24 29  4  0  0  0  0
 25 26  4  0  0  0  0
 26 27  4  0  0  0  0
 27 28  4  0  0  0  0
 27 30  1  0  0  0  0
 28 29  4  0  0  0  0
 30 31  3  0  0  0  0
M  END
>  <Name_Molregno>
469921

>  <5-HT1A>
7.03

>  <DOPAMINE D2>
8.28

$$$$
469982
  Marvin  02231216192D 0   1.00000     0.00000     0

 35 38  0  0  0  0  0  0  0  0999 V2000
    0.2349   -4.9002    0.0000 O   0  0  0  0  0  0  0  0  0
    0.2349   -4.0752    0.0000 C   0  0  0  0  0  0  0  0  0
   -0.4795   -3.6627    0.0000 N   0  0  0  0  0  0  0  0  0
   -1.1940   -4.0752    0.0000 C   0  0  0  0  0  0  0  0  0
   -1.9085   -3.6627    0.0000 C   0  0  0  0  0  0  0  0  0
   -2.6230   -4.0752    0.0000 C   0  0  0  0  0  0  0  0  0
   -3.3374   -3.6627    0.0000 C   0  0  0  0  0  0  0  0  0
   -3.3374   -2.8377    0.0000 C   0  0  0  0  0  0  0  0  0
   -2.6230   -2.4252    0.0000 C   0  0  0  0  0  0  0  0  0
   -1.9085   -2.8377    0.0000 C   0  0  0  0  0  0  0  0  0
   -4.0519   -2.4252    0.0000 C   0  0  0  0  0  0  0  0  0
   -4.7664   -2.0127    0.0000 N   0  0  0  0  0  0  0  0  0
    0.9494   -3.6627    0.0000 C   0  0  0  0  0  0  0  0  0
    1.6639   -4.0752    0.0000 C   0  0  0  0  0  0  0  0  0
    2.3783   -3.6627    0.0000 C   0  0  0  0  0  0  0  0  0
    3.0928   -4.0752    0.0000 C   0  0  0  0  0  0  0  0  0
    3.8073   -3.6627    0.0000 C   0  0  0  0  0  0  0  0  0
    3.8073   -2.8377    0.0000 N   0  0  0  0  0  0  0  0  0
    3.0928   -2.4252    0.0000 C   0  0  0  0  0  0  0  0  0
    3.0928   -1.6002    0.0000 C   0  0  0  0  0  0  0  0  0
    3.8073   -1.1877    0.0000 N   0  0  0  0  0  0  0  0  0
    4.5218   -1.6002    0.0000 C   0  0  0  0  0  0  0  0  0
    4.5218   -2.4252    0.0000 C   0  0  0  0  0  0  0  0  0
    3.8073   -0.3627    0.0000 C   0  0  0  0  0  0  0  0  0
    3.0928    0.0498    0.0000 C   0  0  0  0  0  0  0  0  0
    3.0928    0.8748    0.0000 C   0  0  0  0  0  0  0  0  0
    3.8073    1.2873    0.0000 C   0  0  0  0  0  0  0  0  0
    4.5218    0.8748    0.0000 C   0  0  0  0  0  0  0  0  0
    4.5218    0.0498    0.0000 C   0  0  0  0  0  0  0  0  0
    5.2362   -0.3627    0.0000 C   0  0  0  0  0  0  0  0  0
    5.9507    0.0498    0.0000 C   0  0  0  0  0  0  0  0  0
    6.6652   -0.3627    0.0000 C   0  0  0  0  0  0  0  0  0
    6.6652   -1.1877    0.0000 C   0  0  0  0  0  0  0  0  0
    5.9507   -1.6002    0.0000 C   0  0  0  0  0  0  0  0  0
    5.2362   -1.1877    0.0000 C   0  0  0  0  0  0  0  0  0
  1  2  2  0  0  0  0
  2  3  1  0  0  0  0
  2 13  1  0  0  0  0
  3  4  1  0  0  0  0
  4  5  1  0  0  0  0
  5  6  4  0  0  0  0
  5 10  4  0  0  0  0
  6  7  4  0  0  0  0
  7  8  4  0  0  0  0
  8  9  4  0  0  0  0
  8 11  1  0  0  0  0
  9 10  4  0  0  0  0
 11 12  3  0  0  0  0
 13 14  1  0  0  0  0
 14 15  1  0  0  0  0
 15 16  1  0  0  0  0
 16 17  1  0  0  0  0
 17 18  1  0  0  0  0
 18 19  1  0  0  0  0
 18 23  1  0  0  0  0
 19 20  1  0  0  0  0
 20 21  1  0  0  0  0
 21 22  1  0  0  0  0
 21 24  1  0  0  0  0
 22 23  1  0  0  0  0
 24 25  4  0  0  0  0
 24 29  4  0  0  0  0
 25 26  4  0  0  0  0
 26 27  4  0  0  0  0
 27 28  4  0  0  0  0
 28 29  4  0  0  0  0
 29 30  1  0  0  0  0
 30 31  4  0  0  0  0
 30 35  4  0  0  0  0
 31 32  4  0  0  0  0
 32 33  4  0  0  0  0
 33 34  4  0  0  0  0
 34 35  4  0  0  0  0
M  END
>  <Name_Molregno>
469982

>  <5-HT1A>
6.73

>  <DOPAMINE D2>
6.85

$$$$
469983
  Marvin  02231216192D 0   1.00000     0.00000     0

 32 34  0  0  0  0  0  0  0  0999 V2000
   -3.8887   -2.2846    0.0000 O   0  0  0  0  0  0  0  0  0
   -3.8887   -1.4596    0.0000 C   0  0  0  0  0  0  0  0  0
   -4.6032   -1.0471    0.0000 N   0  0  0  0  0  0  0  0  0
   -5.3176   -1.4596    0.0000 C   0  0  0  0  0  0  0  0  0
   -6.0321   -1.0471    0.0000 C   0  0  0  0  0  0  0  0  0
   -6.7466   -1.4596    0.0000 C   0  0  0  0  0  0  0  0  0
   -7.4610   -1.0471    0.0000 C   0  0  0  0  0  0  0  0  0
   -7.4610   -0.2221    0.0000 C   0  0  0  0  0  0  0  0  0
   -6.7466    0.1904    0.0000 C   0  0  0  0  0  0  0  0  0
   -6.0321   -0.2221    0.0000 C   0  0  0  0  0  0  0  0  0
   -8.1755    0.1904    0.0000 C   0  0  0  0  0  0  0  0  0
   -8.8900    0.6029    0.0000 N   0  0  0  0  0  0  0  0  0
   -3.1742   -1.0471    0.0000 C   0  0  0  0  0  0  0  0  0
   -2.4597   -1.4596    0.0000 C   0  0  0  0  0  0  0  0  0
   -1.7453   -1.0471    0.0000 C   0  0  0  0  0  0  0  0  0
   -1.0308   -1.4596    0.0000 C   0  0  0  0  0  0  0  0  0
   -0.3163   -1.0471    0.0000 C   0  0  0  0  0  0  0  0  0
    0.3981   -1.4596    0.0000 N   0  0  0  0  0  0  0  0  0
    1.1126   -1.0471    0.0000 C   0  0  0  0  0  0  0  0  0
    1.8271   -1.4596    0.0000 C   0  0  0  0  0  0  0  0  0
    1.8271   -2.2846    0.0000 N   0  0  0  0  0  0  0  0  0
    1.1126   -2.6971    0.0000 C   0  0  0  0  0  0  0  0  0
    0.3981   -2.2846    0.0000 C   0  0  0  0  0  0  0  0  0
    2.5416   -2.6971    0.0000 C   0  0  0  0  0  0  0  0  0
    3.2560   -2.2846    0.0000 C   0  0  0  0  0  0  0  0  0
    3.9705   -2.6971    0.0000 C   0  0  0  0  0  0  0  0  0
    3.9705   -3.5221    0.0000 C   0  0  0  0  0  0  0  0  0
    3.2560   -3.9346    0.0000 C   0  0  0  0  0  0  0  0  0
    2.5416   -3.5221    0.0000 C   0  0  0  0  0  0  0  0  0
    1.8271   -3.9346    0.0000 C   0  0  0  0  0  0  0  0  0
    1.8271   -4.7596    0.0000 C   0  0  0  0  0  0  0  0  0
    1.1126   -3.5221    0.0000 C   0  0  0  0  0  0  0  0  0
  1  2  2  0  0  0  0
  2  3  1  0  0  0  0
  2 13  1  0  0  0  0
  3  4  1  0  0  0  0
  4  5  1  0  0  0  0
  5  6  4  0  0  0  0
  5 10  4  0  0  0  0
  6  7  4  0  0  0  0
  7  8  4  0  0  0  0
  8  9  4  0  0  0  0
  8 11  1  0  0  0  0
  9 10  4  0  0  0  0
 11 12  3  0  0  0  0
 13 14  1  0  0  0  0
 14 15  1  0  0  0  0
 15 16  1  0  0  0  0
 16 17  1  0  0  0  0
 17 18  1  0  0  0  0
 18 19  1  0  0  0  0
 18 23  1  0  0  0  0
 19 20  1  0  0  0  0
 20 21  1  0  0  0  0
 21 22  1  0  0  0  0
 21 24  1  0  0  0  0
 22 23  1  0  0  0  0
 24 25  4  0  0  0  0
 24 29  4  0  0  0  0
 25 26  4  0  0  0  0
 26 27  4  0  0  0  0
 27 28  4  0  0  0  0
 28 29  4  0  0  0  0
 29 30  1  0  0  0  0
 30 31  1  0  0  0  0
 30 32  1  0  0  0  0
M  END
>  <Name_Molregno>
469983

>  <5-HT1A>
7.28

>  <DOPAMINE D2>
7.7

$$$$
469984
  Marvin  02231216192D 0   1.00000     0.00000     0

 31 33  0  0  0  0  0  0  0  0999 V2000
   -9.6449    0.0106    0.0000 O   0  0  0  0  0  0  0  0  0
  -10.3594   -0.4019    0.0000 C   0  0  0  0  0  0  0  0  0
   -9.6449    0.8356    0.0000 C   0  0  0  0  0  0  0  0  0
  -10.3594    1.2481    0.0000 C   0  0  0  0  0  0  0  0  0
  -10.3594    2.0731    0.0000 C   0  0  0  0  0  0  0  0  0
   -9.6449    2.4856    0.0000 C   0  0  0  0  0  0  0  0  0
   -8.9305    2.0731    0.0000 C   0  0  0  0  0  0  0  0  0
   -8.9305    1.2481    0.0000 C   0  0  0  0  0  0  0  0  0
   -8.2160    0.8356    0.0000 N   0  0  0  0  0  0  0  0  0
   -7.5015    1.2481    0.0000 C   0  0  0  0  0  0  0  0  0
   -6.7871    0.8356    0.0000 C   0  0  0  0  0  0  0  0  0
   -6.7871    0.0106    0.0000 N   0  0  0  0  0  0  0  0  0
   -7.5015   -0.4019    0.0000 C   0  0  0  0  0  0  0  0  0
   -8.2160    0.0106    0.0000 C   0  0  0  0  0  0  0  0  0
   -6.0726   -0.4019    0.0000 C   0  0  0  0  0  0  0  0  0
   -5.3581    0.0106    0.0000 C   0  0  0  0  0  0  0  0  0
   -4.6437   -0.4019    0.0000 C   0  0  0  0  0  0  0  0  0
   -3.9292    0.0106    0.0000 C   0  0  0  0  0  0  0  0  0
   -3.2147   -0.4019    0.0000 C   0  0  0  0  0  0  0  0  0
   -2.5002    0.0106    0.0000 C   0  0  0  0  0  0  0  0  0
   -2.5002    0.8356    0.0000 O   0  0  0  0  0  0  0  0  0
   -1.7858   -0.4019    0.0000 N   0  0  0  0  0  0  0  0  0
   -1.0713    0.0106    0.0000 C   0  0  0  0  0  0  0  0  0
   -0.3568   -0.4019    0.0000 C   0  0  0  0  0  0  0  0  0
    0.3576    0.0106    0.0000 C   0  0  0  0  0  0  0  0  0
    1.0721   -0.4019    0.0000 C   0  0  0  0  0  0  0  0  0
    1.0721   -1.2269    0.0000 C   0  0  0  0  0  0  0  0  0
    0.3576   -1.6394    0.0000 C   0  0  0  0  0  0  0  0  0
   -0.3568   -1.2269    0.0000 C   0  0  0  0  0  0  0  0  0
    1.7866   -1.6394    0.0000 C   0  0  0  0  0  0  0  0  0
    2.5011   -2.0519    0.0000 N   0  0  0  0  0  0  0  0  0
  1  2  1  0  0  0  0
  1  3  1  0  0  0  0
  3  4  4  0  0  0  0
  3  8  4  0  0  0  0
  4  5  4  0  0  0  0
  5  6  4  0  0  0  0
  6  7  4  0  0  0  0
  7  8  4  0  0  0  0
  8  9  1  0  0  0  0
  9 10  1  0  0  0  0
  9 14  1  0  0  0  0
 10 11  1  0  0  0  0
 11 12  1  0  0  0  0
 12 13  1  0  0  0  0
 12 15  1  0  0  0  0
 13 14  1  0  0  0  0
 15 16  1  0  0  0  0
 16 17  1  0  0  0  0
 17 18  1  0  0  0  0
 18 19  1  0  0  0  0
 19 20  1  0  0  0  0
 20 21  2  0  0  0  0
 20 22  1  0  0  0  0
 22 23  1  0  0  0  0
 23 24  1  0  0  0  0
 24 25  4  0  0  0  0
 24 29  4  0  0  0  0
 25 26  4  0  0  0  0
 26 27  4  0  0  0  0
 27 28  4  0  0  0  0
 27 30  1  0  0  0  0
 28 29  4  0  0  0  0
 30 31  3  0  0  0  0
M  END
>  <Name_Molregno>
469984

>  <5-HT1A>
7.37

>  <DOPAMINE D2>
6.51

$$$$
469985
  Marvin  02231216192D 0   1.00000     0.00000     0

 34 36  0  0  0  0  0  0  0  0999 V2000
   -0.8684   -0.1368    0.0000 S   0  0  0  0  0  0  0  0  0
   -1.5829   -0.5493    0.0000 C   0  0  0  0  0  0  0  0  0
   -0.8684    0.6882    0.0000 C   0  0  0  0  0  0  0  0  0
   -1.5829    1.1007    0.0000 C   0  0  0  0  0  0  0  0  0
   -1.5829    1.9257    0.0000 C   0  0  0  0  0  0  0  0  0
   -0.8684    2.3382    0.0000 C   0  0  0  0  0  0  0  0  0
   -0.1539    1.9257    0.0000 C   0  0  0  0  0  0  0  0  0
   -0.1539    1.1007    0.0000 C   0  0  0  0  0  0  0  0  0
    0.5605    0.6882    0.0000 N   0  0  0  0  0  0  0  0  0
    1.2750    1.1007    0.0000 C   0  0  0  0  0  0  0  0  0
    1.9895    0.6882    0.0000 C   0  0  0  0  0  0  0  0  0
    1.9895   -0.1368    0.0000 N   0  0  0  0  0  0  0  0  0
    1.2750   -0.5493    0.0000 C   0  0  0  0  0  0  0  0  0
    0.5605   -0.1368    0.0000 C   0  0  0  0  0  0  0  0  0
    2.7040   -0.5493    0.0000 C   0  0  0  0  0  0  0  0  0
    3.4184   -0.1368    0.0000 C   0  0  0  0  0  0  0  0  0
    4.1329   -0.5493    0.0000 C   0  0  0  0  0  0  0  0  0
    4.8474   -0.1368    0.0000 C   0  0  0  0  0  0  0  0  0
    5.5618   -0.5493    0.0000 C   0  0  0  0  0  0  0  0  0
    6.2763   -0.1368    0.0000 C   0  0  0  0  0  0  0  0  0
    6.2763    0.6882    0.0000 O   0  0  0  0  0  0  0  0  0
    6.9908   -0.5493    0.0000 N   0  0  0  0  0  0  0  0  0
    7.7053   -0.1368    0.0000 C   0  0  0  0  0  0  0  0  0
    8.4197   -0.5493    0.0000 C   0  0  0  0  0  0  0  0  0
    9.1342   -0.1368    0.0000 C   0  0  0  0  0  0  0  0  0
    9.8487   -0.5493    0.0000 C   0  0  0  0  0  0  0  0  0
    9.8487   -1.3743    0.0000 C   0  0  0  0  0  0  0  0  0
   10.5631   -1.7868    0.0000 O   0  0  0  0  0  0  0  0  0
   11.2776   -1.3743    0.0000 S   0  0  0  0  0  0  0  0  0
   11.9921   -0.9618    0.0000 O   0  0  0  0  0  0  0  0  0
   11.6901   -2.0887    0.0000 O   0  0  0  0  0  0  0  0  0
   10.8651   -0.6598    0.0000 C   0  0  0  0  0  0  0  0  0
    9.1342   -1.7868    0.0000 C   0  0  0  0  0  0  0  0  0
    8.4197   -1.3743    0.0000 C   0  0  0  0  0  0  0  0  0
  1  2  1  0  0  0  0
  1  3  1  0  0  0  0
  3  4  4  0  0  0  0
  3  8  4  0  0  0  0
  4  5  4  0  0  0  0
  5  6  4  0  0  0  0
  6  7  4  0  0  0  0
  7  8  4  0  0  0  0
  8  9  1  0  0  0  0
  9 10  1  0  0  0  0
  9 14  1  0  0  0  0
 10 11  1  0  0  0  0
 11 12  1  0  0  0  0
 12 13  1  0  0  0  0
 12 15  1  0  0  0  0
 13 14  1  0  0  0  0
 15 16  1  0  0  0  0
 16 17  1  0  0  0  0
 17 18  1  0  0  0  0
 18 19  1  0  0  0  0
 19 20  1  0  0  0  0
 20 21  2  0  0  0  0
 20 22  1  0  0  0  0
 22 23  1  0  0  0  0
 23 24  1  0  0  0  0
 24 25  4  0  0  0  0
 24 34  4  0  0  0  0
 25 26  4  0  0  0  0
 26 27  4  0  0  0  0
 27 28  1  0  0  0  0
 27 33  4  0  0  0  0
 28 29  1  0  0  0  0
 29 30  2  0  0  0  0
 29 31  2  0  0  0  0
 29 32  1  0  0  0  0
 33 34  4  0  0  0  0
M  END
>  <Name_Molregno>
469985

>  <5-HT1A>
7.99

>  <DOPAMINE D2>
7.52

$$$$
473109
  Marvin  02231216192D 0   1.00000     0.00000     0

 21 22  0  0  1  0  0  0  0  0999 V2000
    6.3079    1.6156    0.0000 F   0  0  0  0  0  0  0  0  0
    5.5934    1.2031    0.0000 C   0  0  0  0  0  0  0  0  0
    5.1809    1.9176    0.0000 F   0  0  0  0  0  0  0  0  0
    6.0059    0.4887    0.0000 F   0  0  0  0  0  0  0  0  0
    4.8790    0.7906    0.0000 C   0  0  0  0  0  0  0  0  0
    4.8790   -0.0344    0.0000 C   0  0  0  0  0  0  0  0  0
    4.1645   -0.4469    0.0000 C   0  0  0  0  0  0  0  0  0
    3.4500   -0.0344    0.0000 C   0  0  0  0  0  0  0  0  0
    2.7355   -0.4469    0.0000 O   0  0  0  0  0  0  0  0  0
    2.7355   -1.2719    0.0000 C   0  0  0  0  0  0  0  0  0
    3.4500   -1.6844    0.0000 C   0  0  0  0  0  0  0  0  0
    4.1645   -1.2719    0.0000 C   0  0  0  0  0  0  0  0  0
    4.8790   -1.6844    0.0000 N   0  0  0  0  0  0  0  0  0
    2.0211   -1.6844    0.0000 C   0  0  0  0  0  0  0  0  0
    2.0211   -2.5094    0.0000 C   0  0  0  0  0  0  0  0  0
    1.3066   -2.9219    0.0000 C   0  0  0  0  0  0  0  0  0
    0.5921   -2.5094    0.0000 C   0  0  0  0  0  0  0  0  0
    0.5921   -1.6844    0.0000 C   0  0  0  0  0  0  0  0  0
    1.3066   -1.2719    0.0000 C   0  0  0  0  0  0  0  0  0
    3.4500    0.7906    0.0000 C   0  0  0  0  0  0  0  0  0
    4.1645    1.2031    0.0000 C   0  0  0  0  0  0  0  0  0
  1  2  1  0  0  0  0
  2  3  1  0  0  0  0
  2  4  1  0  0  0  0
  2  5  1  0  0  0  0
  5  6  4  0  0  0  0
  5 21  4  0  0  0  0
  6  7  4  0  0  0  0
  7  8  4  0  0  0  0
  8  9  1  0  0  0  0
  8 20  4  0  0  0  0
  9 10  1  0  0  0  0
 10 11  1  0  0  0  0
 10 14  1  0  0  0  0
 11 12  1  0  0  0  0
 12 13  1  0  0  0  0
 14 15  4  0  0  0  0
 14 19  4  0  0  0  0
 15 16  4  0  0  0  0
 16 17  4  0  0  0  0
 17 18  4  0  0  0  0
 18 19  4  0  0  0  0
 20 21  4  0  0  0  0
M  END
>  <Name_Molregno>
473109

>  <5-HT1A>
5

>  <5-HT2A>
6.53

>  <5-HT2C>
7.04

>  <DOPAMINE D2>
5

>  <Dopamine transporter>
5.59

>  <HISTAMINE H1>
5

>  <Muscarinic acetylcholine receptor M1>
5.92

>  <Muscarinic acetylcholine receptor M2>
5.34

>  <Muscarinic acetylcholine receptor M3>
6.12

>  <Muscarinic acetylcholine receptor M4>
5.59

>  <Muscarinic acetylcholine receptor M5>
5.66

>  <Norepinephrine transporter>
5.35

>  <Serotonin transporter>
7.79

$$$$
481370
  Marvin  02231216192D 0   1.00000     0.00000     0

 24 29  0  0  1  0  0  0  0  0999 V2000
   -4.2292    1.2028    0.0000 O   0  0  0  0  0  0  0  0  0
   -3.9193    0.4382    0.0000 C   0  0  0  0  0  0  0  0  0
   -4.5507   -0.0928    0.0000 C   0  0  0  0  0  0  0  0  0
   -5.2509    0.3436    0.0000 O   0  0  0  0  0  0  0  0  0
   -5.0522    1.1443    0.0000 C   0  0  0  0  0  0  0  0  0
   -4.4065   -0.9051    0.0000 C   0  0  0  0  0  0  0  0  0
   -3.6310   -1.1864    0.0000 C   0  0  0  0  0  0  0  0  0
   -3.5041   -0.3845    0.0000 C   0  0  0  0  0  0  0  0  0
   -2.5851   -0.3838    0.0000 C   0  0  0  0  0  0  0  0  0
   -2.0353    0.0522    0.0000 N   0  0  0  0  0  0  0  0  0
   -2.1665   -0.7514    0.0000 C   0  0  0  0  0  0  0  0  0
   -2.1195   -1.7383    0.0000 C   0  0  0  0  0  0  0  0  0
   -2.9358   -1.9178    0.0000 C   0  0  0  0  0  0  0  0  0
   -2.4584   -1.2449    0.0000 C   0  0  0  0  0  0  0  0  0
   -1.6370   -1.3219    0.0000 C   0  0  0  0  0  0  0  0  0
   -1.2930   -2.0717    0.0000 C   0  0  0  0  0  0  0  0  0
   -0.5055   -2.3177    0.0000 O   0  0  0  0  0  0  0  0  0
   -0.4962   -3.1427    0.0000 C   0  0  0  0  0  0  0  0  0
   -1.2779   -3.4065    0.0000 O   0  0  0  0  0  0  0  0  0
   -1.7703   -2.7446    0.0000 C   0  0  0  0  0  0  0  0  0
   -2.5917   -2.6676    0.0000 C   0  0  0  0  0  0  0  0  0
   -2.9996   -0.6554    0.0000 C   0  0  0  0  0  0  0  0  0
   -3.1438    0.1569    0.0000 C   0  0  0  0  0  0  0  0  0
   -1.6174    0.7636    0.0000 C   0  0  0  0  0  0  0  0  0
  1  2  1  0  0  0  0
  1  5  1  0  0  0  0
  2  3  4  0  0  0  0
  2 23  4  0  0  0  0
  3  4  1  0  0  0  0
  3  6  4  0  0  0  0
  4  5  1  0  0  0  0
  6  7  4  0  0  0  0
  7  8  1  0  0  0  0
  7 22  4  0  0  0  0
  8  9  1  0  0  0  0
  9 10  1  0  0  0  0
  9 14  1  0  0  0  0
 10 11  1  0  0  0  0
 10 24  1  0  0  0  0
 11 12  1  0  0  0  0
 11 22  1  0  0  0  0
 12 13  1  0  0  0  0
 13 14  4  0  0  0  0
 13 21  4  0  0  0  0
 14 15  4  0  0  0  0
 15 16  4  0  0  0  0
 16 17  1  0  0  0  0
 16 20  4  0  0  0  0
 17 18  1  0  0  0  0
 18 19  1  0  0  0  0
 19 20  1  0  0  0  0
 20 21  4  0  0  0  0
 22 23  4  0  0  0  0
M  END
>  <Name_Molregno>
481370

>  <5-HT1A>
5.22

$$$$
485851
  Marvin  02231216192D 0   1.00000     0.00000     0

 33 36  0  0  0  0  0  0  0  0999 V2000
    2.0282   -3.7847    0.0000 S   0  0  0  0  0  0  0  0  0
    2.0282   -4.6097    0.0000 O   0  0  0  0  0  0  0  0  0
    2.8532   -3.7847    0.0000 O   0  0  0  0  0  0  0  0  0
    2.0282   -2.9597    0.0000 N   0  0  0  0  0  0  0  0  0
    1.3138   -2.5472    0.0000 C   0  0  0  0  0  0  0  0  0
    2.7427   -2.5472    0.0000 C   0  0  0  0  0  0  0  0  0
    2.7427   -1.7222    0.0000 C   0  0  0  0  0  0  0  0  0
    3.4572   -1.3097    0.0000 C   0  0  0  0  0  0  0  0  0
    4.1717   -1.7222    0.0000 C   0  0  0  0  0  0  0  0  0
    4.1717   -2.5472    0.0000 C   0  0  0  0  0  0  0  0  0
    3.4572   -2.9597    0.0000 C   0  0  0  0  0  0  0  0  0
    3.4572   -0.4847    0.0000 C   0  0  0  0  0  0  0  0  0
    4.1717   -0.0722    0.0000 C   0  0  0  0  0  0  0  0  0
    4.1717    0.7528    0.0000 C   0  0  0  0  0  0  0  0  0
    4.8861    1.1653    0.0000 C   0  0  0  0  0  0  0  0  0
    5.6006    0.7528    0.0000 N   0  0  0  0  0  0  0  0  0
    5.6006   -0.0722    0.0000 C   0  0  0  0  0  0  0  0  0
    4.8861   -0.4847    0.0000 C   0  0  0  0  0  0  0  0  0
    6.3151    1.1653    0.0000 C   0  0  0  0  0  0  0  0  0
    6.3151    1.9903    0.0000 C   0  0  0  0  0  0  0  0  0
    7.0295    2.4028    0.0000 O   0  0  0  0  0  0  0  0  0
    7.0295    3.2278    0.0000 C   0  0  0  0  0  0  0  0  0
    7.7440    3.6403    0.0000 C   0  0  0  0  0  0  0  0  0
    7.7440    4.4653    0.0000 C   0  0  0  0  0  0  0  0  0
    8.4585    4.8778    0.0000 N   0  0  0  0  0  0  0  0  0
    9.1730    4.4653    0.0000 C   0  0  0  0  0  0  0  0  0
    9.1730    3.6403    0.0000 C   0  0  0  0  0  0  0  0  0
    8.4585    3.2278    0.0000 C   0  0  0  0  0  0  0  0  0
    9.8874    4.8778    0.0000 C   0  0  0  0  0  0  0  0  0
    7.0295    4.8778    0.0000 C   0  0  0  0  0  0  0  0  0
    6.3151    4.4653    0.0000 C   0  0  0  0  0  0  0  0  0
    6.3151    3.6403    0.0000 C   0  0  0  0  0  0  0  0  0
    1.2032   -3.7847    0.0000 C   0  0  0  0  0  0  0  0  0
  1  2  2  0  0  0  0
  1  3  2  0  0  0  0
  1  4  1  0  0  0  0
  1 33  1  0  0  0  0
  4  5  1  0  0  0  0
  4  6  1  0  0  0  0
  6  7  4  0  0  0  0
  6 11  4  0  0  0  0
  7  8  4  0  0  0  0
  8  9  4  0  0  0  0
  8 12  1  0  0  0  0
  9 10  4  0  0  0  0
 10 11  4  0  0  0  0
 12 13  1  0  0  0  0
 13 14  1  0  0  0  0
 13 18  1  0  0  0  0
 14 15  1  0  0  0  0
 15 16  1  0  0  0  0
 16 17  1  0  0  0  0
 16 19  1  0  0  0  0
 17 18  1  0  0  0  0
 19 20  1  0  0  0  0
 20 21  1  0  0  0  0
 21 22  1  0  0  0  0
 22 23  4  0  0  0  0
 22 32  4  0  0  0  0
 23 24  4  0  0  0  0
 23 28  4  0  0  0  0
 24 25  4  0  0  0  0
 24 30  4  0  0  0  0
 25 26  4  0  0  0  0
 26 27  4  0  0  0  0
 26 29  1  0  0  0  0
 27 28  4  0  0  0  0
 30 31  4  0  0  0  0
 31 32  4  0  0  0  0
M  END
>  <Name_Molregno>
485851

>  <5-HT1A>
7.9

>  <5-HT1B>
7.9

>  <5-HT1D>
8.8

$$$$
485852
  Marvin  02231216192D 0   1.00000     0.00000     0

 34 37  0  0  0  0  0  0  0  0999 V2000
    8.3824   -3.1627    0.0000 S   0  0  0  0  0  0  0  0  0
    7.5574   -3.1627    0.0000 O   0  0  0  0  0  0  0  0  0
    9.2074   -3.1627    0.0000 O   0  0  0  0  0  0  0  0  0
    8.3824   -2.3377    0.0000 N   0  0  0  0  0  0  0  0  0
    7.6679   -1.9252    0.0000 C   0  0  0  0  0  0  0  0  0
    6.9534   -2.3377    0.0000 C   0  0  0  0  0  0  0  0  0
    6.2389   -1.9252    0.0000 C   0  0  0  0  0  0  0  0  0
    6.2389   -1.1002    0.0000 C   0  0  0  0  0  0  0  0  0
    6.9534   -0.6877    0.0000 C   0  0  0  0  0  0  0  0  0
    7.6679   -1.1002    0.0000 C   0  0  0  0  0  0  0  0  0
    5.5245   -2.3377    0.0000 C   0  0  0  0  0  0  0  0  0
    4.8100   -1.9252    0.0000 C   0  0  0  0  0  0  0  0  0
    4.0955   -2.3377    0.0000 C   0  0  0  0  0  0  0  0  0
    3.3811   -1.9252    0.0000 C   0  0  0  0  0  0  0  0  0
    3.3811   -1.1002    0.0000 N   0  0  0  0  0  0  0  0  0
    4.0955   -0.6877    0.0000 C   0  0  0  0  0  0  0  0  0
    4.8100   -1.1002    0.0000 C   0  0  0  0  0  0  0  0  0
    2.6666   -0.6877    0.0000 C   0  0  0  0  0  0  0  0  0
    2.6666    0.1373    0.0000 C   0  0  0  0  0  0  0  0  0
    1.9521    0.5498    0.0000 O   0  0  0  0  0  0  0  0  0
    1.9521    1.3748    0.0000 C   0  0  0  0  0  0  0  0  0
    2.6666    1.7873    0.0000 C   0  0  0  0  0  0  0  0  0
    2.6666    2.6123    0.0000 C   0  0  0  0  0  0  0  0  0
    3.3811    3.0248    0.0000 N   0  0  0  0  0  0  0  0  0
    4.0955    2.6123    0.0000 C   0  0  0  0  0  0  0  0  0
    4.0955    1.7873    0.0000 C   0  0  0  0  0  0  0  0  0
    3.3811    1.3748    0.0000 C   0  0  0  0  0  0  0  0  0
    4.8100    3.0248    0.0000 C   0  0  0  0  0  0  0  0  0
    1.9521    3.0248    0.0000 C   0  0  0  0  0  0  0  0  0
    1.2376    2.6123    0.0000 C   0  0  0  0  0  0  0  0  0
    1.2376    1.7873    0.0000 C   0  0  0  0  0  0  0  0  0
    8.3824   -3.9877    0.0000 C   0  0  0  0  0  0  0  0  0
    9.0968   -4.4002    0.0000 C   0  0  0  0  0  0  0  0  0
    7.6679   -4.4002    0.0000 C   0  0  0  0  0  0  0  0  0
  1  2  2  0  0  0  0
  1  3  2  0  0  0  0
  1  4  1  0  0  0  0
  1 32  1  0  0  0  0
  4  5  1  0  0  0  0
  5  6  4  0  0  0  0
  5 10  4  0  0  0  0
  6  7  4  0  0  0  0
  7  8  4  0  0  0  0
  7 11  1  0  0  0  0
  8  9  4  0  0  0  0
  9 10  4  0  0  0  0
 11 12  1  0  0  0  0
 12 13  1  0  0  0  0
 12 17  1  0  0  0  0
 13 14  1  0  0  0  0
 14 15  1  0  0  0  0
 15 16  1  0  0  0  0
 15 18  1  0  0  0  0
 16 17  1  0  0  0  0
 18 19  1  0  0  0  0
 19 20  1  0  0  0  0
 20 21  1  0  0  0  0
 21 22  4  0  0  0  0
 21 31  4  0  0  0  0
 22 23  4  0  0  0  0
 22 27  4  0  0  0  0
 23 24  4  0  0  0  0
 23 29  4  0  0  0  0
 24 25  4  0  0  0  0
 25 26  4  0  0  0  0
 25 28  1  0  0  0  0
 26 27  4  0  0  0  0
 29 30  4  0  0  0  0
 30 31  4  0  0  0  0
 32 33  1  0  0  0  0
 32 34  1  0  0  0  0
M  END
>  <Name_Molregno>
485852

>  <5-HT1A>
8.6

>  <5-HT1B>
8.9

>  <5-HT1D>
9.4

$$$$
485853
  Marvin  02231216192D 0   1.00000     0.00000     0

 34 38  0  0  0  0  0  0  0  0999 V2000
   -8.8078   -3.6971    0.0000 S   0  0  0  0  0  0  0  0  0
   -8.3953   -2.9826    0.0000 O   0  0  0  0  0  0  0  0  0
   -9.4752   -3.2122    0.0000 O   0  0  0  0  0  0  0  0  0
   -8.0541   -4.0326    0.0000 N   0  0  0  0  0  0  0  0  0
   -8.1403   -4.8531    0.0000 C   0  0  0  0  0  0  0  0  0
   -8.9473   -5.0247    0.0000 C   0  0  0  0  0  0  0  0  0
   -9.3598   -4.3102    0.0000 C   0  0  0  0  0  0  0  0  0
   -7.3396   -3.6201    0.0000 C   0  0  0  0  0  0  0  0  0
   -7.3396   -2.7951    0.0000 C   0  0  0  0  0  0  0  0  0
   -6.6252   -2.3826    0.0000 C   0  0  0  0  0  0  0  0  0
   -5.9107   -2.7951    0.0000 C   0  0  0  0  0  0  0  0  0
   -5.9107   -3.6201    0.0000 C   0  0  0  0  0  0  0  0  0
   -6.6252   -4.0326    0.0000 C   0  0  0  0  0  0  0  0  0
   -6.6252   -1.5576    0.0000 C   0  0  0  0  0  0  0  0  0
   -5.9107   -1.1451    0.0000 C   0  0  0  0  0  0  0  0  0
   -5.9107   -0.3201    0.0000 C   0  0  0  0  0  0  0  0  0
   -5.1962    0.0924    0.0000 C   0  0  0  0  0  0  0  0  0
   -4.4818   -0.3201    0.0000 N   0  0  0  0  0  0  0  0  0
   -4.4818   -1.1451    0.0000 C   0  0  0  0  0  0  0  0  0
   -5.1962   -1.5576    0.0000 C   0  0  0  0  0  0  0  0  0
   -3.7673    0.0924    0.0000 C   0  0  0  0  0  0  0  0  0
   -3.7673    0.9174    0.0000 C   0  0  0  0  0  0  0  0  0
   -3.0528    1.3299    0.0000 O   0  0  0  0  0  0  0  0  0
   -3.0528    2.1549    0.0000 C   0  0  0  0  0  0  0  0  0
   -2.3383    2.5674    0.0000 C   0  0  0  0  0  0  0  0  0
   -2.3383    3.3924    0.0000 C   0  0  0  0  0  0  0  0  0
   -1.6239    3.8049    0.0000 N   0  0  0  0  0  0  0  0  0
   -0.9094    3.3924    0.0000 C   0  0  0  0  0  0  0  0  0
   -0.9094    2.5674    0.0000 C   0  0  0  0  0  0  0  0  0
   -1.6239    2.1549    0.0000 C   0  0  0  0  0  0  0  0  0
   -0.1949    3.8049    0.0000 C   0  0  0  0  0  0  0  0  0
   -3.0528    3.8049    0.0000 C   0  0  0  0  0  0  0  0  0
   -3.7673    3.3924    0.0000 C   0  0  0  0  0  0  0  0  0
   -3.7673    2.5674    0.0000 C   0  0  0  0  0  0  0  0  0
  1  2  2  0  0  0  0
  1  3  2  0  0  0  0
  1  4  1  0  0  0  0
  1  7  1  0  0  0  0
  4  5  1  0  0  0  0
  4  8  1  0  0  0  0
  5  6  1  0  0  0  0
  6  7  1  0  0  0  0
  8  9  4  0  0  0  0
  8 13  4  0  0  0  0
  9 10  4  0  0  0  0
 10 11  4  0  0  0  0
 10 14  1  0  0  0  0
 11 12  4  0  0  0  0
 12 13  4  0  0  0  0
 14 15  1  0  0  0  0
 15 16  1  0  0  0  0
 15 20  1  0  0  0  0
 16 17  1  0  0  0  0
 17 18  1  0  0  0  0
 18 19  1  0  0  0  0
 18 21  1  0  0  0  0
 19 20  1  0  0  0  0
 21 22  1  0  0  0  0
 22 23  1  0  0  0  0
 23 24  1  0  0  0  0
 24 25  4  0  0  0  0
 24 34  4  0  0  0  0
 25 26  4  0  0  0  0
 25 30  4  0  0  0  0
 26 27  4  0  0  0  0
 26 32  4  0  0  0  0
 27 28  4  0  0  0  0
 28 29  4  0  0  0  0
 28 31  1  0  0  0  0
 29 30  4  0  0  0  0
 32 33  4  0  0  0  0
 33 34  4  0  0  0  0
M  END
>  <Name_Molregno>
485853

>  <5-HT1A>
8.1

>  <5-HT1B>
7.9

>  <5-HT1D>
8.8

>  <5-HT1E>
5

>  <5-HT2A>
5.2

>  <5-HT2C>
5.4

>  <5-HT5>
5.8

>  <5-HT6>
5.8

>  <5-HT7>
7.8

>  <Alpha-1B>
6.8

>  <Beta-2>
5.8

>  <DOPAMINE D2>
6.3

>  <Serotonin transporter>
6.4

$$$$
485854
  Marvin  02231216192D 0   1.00000     0.00000     0

 34 37  0  0  0  0  0  0  0  0999 V2000
   -7.9571   -3.4250    0.0000 S   0  0  0  0  0  0  0  0  0
   -7.9571   -4.2500    0.0000 O   0  0  0  0  0  0  0  0  0
   -7.1321   -3.4250    0.0000 O   0  0  0  0  0  0  0  0  0
   -7.9571   -2.6000    0.0000 N   0  0  0  0  0  0  0  0  0
   -7.2426   -2.1875    0.0000 C   0  0  0  0  0  0  0  0  0
   -7.2426   -1.3625    0.0000 C   0  0  0  0  0  0  0  0  0
   -6.5282   -0.9500    0.0000 C   0  0  0  0  0  0  0  0  0
   -5.8137   -1.3625    0.0000 C   0  0  0  0  0  0  0  0  0
   -5.8137   -2.1875    0.0000 C   0  0  0  0  0  0  0  0  0
   -6.5282   -2.6000    0.0000 C   0  0  0  0  0  0  0  0  0
   -6.5282   -3.4250    0.0000 O   0  0  0  0  0  0  0  0  0
   -5.8137   -3.8375    0.0000 C   0  0  0  0  0  0  0  0  0
   -6.5282   -0.1250    0.0000 C   0  0  0  0  0  0  0  0  0
   -5.8137    0.2875    0.0000 C   0  0  0  0  0  0  0  0  0
   -5.8137    1.1125    0.0000 C   0  0  0  0  0  0  0  0  0
   -5.0992    1.5250    0.0000 C   0  0  0  0  0  0  0  0  0
   -4.3848    1.1125    0.0000 N   0  0  0  0  0  0  0  0  0
   -4.3848    0.2875    0.0000 C   0  0  0  0  0  0  0  0  0
   -5.0992   -0.1250    0.0000 C   0  0  0  0  0  0  0  0  0
   -3.6703    1.5250    0.0000 C   0  0  0  0  0  0  0  0  0
   -3.6703    2.3500    0.0000 C   0  0  0  0  0  0  0  0  0
   -2.9558    2.7625    0.0000 O   0  0  0  0  0  0  0  0  0
   -2.9558    3.5875    0.0000 C   0  0  0  0  0  0  0  0  0
   -2.2414    4.0000    0.0000 C   0  0  0  0  0  0  0  0  0
   -2.2414    4.8250    0.0000 C   0  0  0  0  0  0  0  0  0
   -1.5269    5.2375    0.0000 N   0  0  0  0  0  0  0  0  0
   -0.8124    4.8250    0.0000 C   0  0  0  0  0  0  0  0  0
   -0.8124    4.0000    0.0000 C   0  0  0  0  0  0  0  0  0
   -1.5269    3.5875    0.0000 C   0  0  0  0  0  0  0  0  0
   -0.0979    5.2375    0.0000 C   0  0  0  0  0  0  0  0  0
   -2.9558    5.2375    0.0000 C   0  0  0  0  0  0  0  0  0
   -3.6703    4.8250    0.0000 C   0  0  0  0  0  0  0  0  0
   -3.6703    4.0000    0.0000 C   0  0  0  0  0  0  0  0  0
   -8.7821   -3.4250    0.0000 C   0  0  0  0  0  0  0  0  0
  1  2  2  0  0  0  0
  1  3  2  0  0  0  0
  1  4  1  0  0  0  0
  1 34  1  0  0  0  0
  4  5  1  0  0  0  0
  5  6  4  0  0  0  0
  5 10  4  0  0  0  0
  6  7  4  0  0  0  0
  7  8  4  0  0  0  0
  7 13  1  0  0  0  0
  8  9  4  0  0  0  0
  9 10  4  0  0  0  0
 10 11  1  0  0  0  0
 11 12  1  0  0  0  0
 13 14  1  0  0  0  0
 14 15  1  0  0  0  0
 14 19  1  0  0  0  0
 15 16  1  0  0  0  0
 16 17  1  0  0  0  0
 17 18  1  0  0  0  0
 17 20  1  0  0  0  0
 18 19  1  0  0  0  0
 20 21  1  0  0  0  0
 21 22  1  0  0  0  0
 22 23  1  0  0  0  0
 23 24  4  0  0  0  0
 23 33  4  0  0  0  0
 24 25  4  0  0  0  0
 24 29  4  0  0  0  0
 25 26  4  0  0  0  0
 25 31  4  0  0  0  0
 26 27  4  0  0  0  0
 27 28  4  0  0  0  0
 27 30  1  0  0  0  0
 28 29  4  0  0  0  0
 31 32  4  0  0  0  0
 32 33  4  0  0  0  0
M  END
>  <Name_Molregno>
485854

>  <5-HT1A>
6.9

>  <5-HT1B>
7.4

>  <5-HT1D>
8.2

$$$$
486671
  Marvin  02231216192D 0   1.00000     0.00000     0

 27 30  0  0  0  0  0  0  0  0999 V2000
    2.7715    0.1239    0.0000 O   0  0  0  0  0  0  0  0  0
    2.0570   -0.2886    0.0000 C   0  0  0  0  0  0  0  0  0
    2.0570   -1.1136    0.0000 C   0  0  0  0  0  0  0  0  0
    1.3425   -1.5261    0.0000 N   0  0  0  0  0  0  0  0  0
    1.3425   -2.3511    0.0000 C   0  0  0  0  0  0  0  0  0
    0.6281   -2.7636    0.0000 C   0  0  0  0  0  0  0  0  0
   -0.0864   -2.3511    0.0000 N   0  0  0  0  0  0  0  0  0
   -0.0864   -1.5261    0.0000 C   0  0  0  0  0  0  0  0  0
    0.6281   -1.1136    0.0000 C   0  0  0  0  0  0  0  0  0
   -0.8009   -2.7636    0.0000 C   0  0  0  0  0  0  0  0  0
   -1.5154   -2.3511    0.0000 C   0  0  0  0  0  0  0  0  0
   -2.2298   -2.7636    0.0000 C   0  0  0  0  0  0  0  0  0
   -2.9443   -2.3511    0.0000 C   0  0  0  0  0  0  0  0  0
   -2.9443   -1.5261    0.0000 C   0  0  0  0  0  0  0  0  0
   -2.2298   -1.1136    0.0000 C   0  0  0  0  0  0  0  0  0
   -1.5154   -1.5261    0.0000 C   0  0  0  0  0  0  0  0  0
    2.7715    0.9489    0.0000 C   0  0  0  0  0  0  0  0  0
    3.4859    1.3614    0.0000 C   0  0  0  0  0  0  0  0  0
    3.4859    2.1864    0.0000 C   0  0  0  0  0  0  0  0  0
    4.2004    2.5989    0.0000 N   0  0  0  0  0  0  0  0  0
    4.9149    2.1864    0.0000 C   0  0  0  0  0  0  0  0  0
    4.9149    1.3614    0.0000 C   0  0  0  0  0  0  0  0  0
    4.2004    0.9489    0.0000 C   0  0  0  0  0  0  0  0  0
    5.6294    2.5989    0.0000 C   0  0  0  0  0  0  0  0  0
    2.7715    2.5989    0.0000 C   0  0  0  0  0  0  0  0  0
    2.0570    2.1864    0.0000 C   0  0  0  0  0  0  0  0  0
    2.0570    1.3614    0.0000 C   0  0  0  0  0  0  0  0  0
  1  2  1  0  0  0  0
  1 17  1  0  0  0  0
  2  3  1  0  0  0  0
  3  4  1  0  0  0  0
  4  5  1  0  0  0  0
  4  9  1  0  0  0  0
  5  6  1  0  0  0  0
  6  7  1  0  0  0  0
  7  8  1  0  0  0  0
  7 10  1  0  0  0  0
  8  9  1  0  0  0  0
 10 11  1  0  0  0  0
 11 12  4  0  0  0  0
 11 16  4  0  0  0  0
 12 13  4  0  0  0  0
 13 14  4  0  0  0  0
 14 15  4  0  0  0  0
 15 16  4  0  0  0  0
 17 18  4  0  0  0  0
 17 27  4  0  0  0  0
 18 19  4  0  0  0  0
 18 23  4  0  0  0  0
 19 20  4  0  0  0  0
 19 25  4  0  0  0  0
 20 21  4  0  0  0  0
 21 22  4  0  0  0  0
 21 24  1  0  0  0  0
 22 23  4  0  0  0  0
 25 26  4  0  0  0  0
 26 27  4  0  0  0  0
M  END
>  <Name_Molregno>
486671

>  <5-HT1A>
7.15

>  <5-HT1B>
6.6

>  <5-HT1D>
9

$$$$
486672
  Marvin  02231216192D 0   1.00000     0.00000     0

 31 34  0  0  0  0  0  0  0  0999 V2000
    4.2737    0.0857    0.0000 O   0  0  0  0  0  0  0  0  0
    3.5592   -0.3268    0.0000 C   0  0  0  0  0  0  0  0  0
    3.5592   -1.1518    0.0000 C   0  0  0  0  0  0  0  0  0
    2.8447   -1.5643    0.0000 N   0  0  0  0  0  0  0  0  0
    2.8447   -2.3893    0.0000 C   0  0  0  0  0  0  0  0  0
    2.1303   -2.8018    0.0000 C   0  0  0  0  0  0  0  0  0
    1.4158   -2.3893    0.0000 N   0  0  0  0  0  0  0  0  0
    1.4158   -1.5643    0.0000 C   0  0  0  0  0  0  0  0  0
    2.1303   -1.1518    0.0000 C   0  0  0  0  0  0  0  0  0
    0.7013   -2.8018    0.0000 C   0  0  0  0  0  0  0  0  0
   -0.0132   -2.3893    0.0000 C   0  0  0  0  0  0  0  0  0
   -0.7276   -2.8018    0.0000 C   0  0  0  0  0  0  0  0  0
   -1.4421   -2.3893    0.0000 C   0  0  0  0  0  0  0  0  0
   -2.1566   -2.8018    0.0000 N   0  0  0  0  0  0  0  0  0
   -2.8710   -2.3893    0.0000 C   0  0  0  0  0  0  0  0  0
   -3.5855   -2.8018    0.0000 O   0  0  0  0  0  0  0  0  0
   -2.8710   -1.5643    0.0000 C   0  0  0  0  0  0  0  0  0
   -1.4421   -1.5643    0.0000 C   0  0  0  0  0  0  0  0  0
   -0.7276   -1.1518    0.0000 C   0  0  0  0  0  0  0  0  0
   -0.0132   -1.5643    0.0000 C   0  0  0  0  0  0  0  0  0
    4.2737    0.9107    0.0000 C   0  0  0  0  0  0  0  0  0
    4.9881    1.3232    0.0000 C   0  0  0  0  0  0  0  0  0
    4.9881    2.1482    0.0000 C   0  0  0  0  0  0  0  0  0
    5.7026    2.5607    0.0000 N   0  0  0  0  0  0  0  0  0
    6.4171    2.1482    0.0000 C   0  0  0  0  0  0  0  0  0
    6.4171    1.3232    0.0000 C   0  0  0  0  0  0  0  0  0
    5.7026    0.9107    0.0000 C   0  0  0  0  0  0  0  0  0
    7.1316    2.5607    0.0000 C   0  0  0  0  0  0  0  0  0
    4.2737    2.5607    0.0000 C   0  0  0  0  0  0  0  0  0
    3.5592    2.1482    0.0000 C   0  0  0  0  0  0  0  0  0
    3.5592    1.3232    0.0000 C   0  0  0  0  0  0  0  0  0
  1  2  1  0  0  0  0
  1 21  1  0  0  0  0
  2  3  1  0  0  0  0
  3  4  1  0  0  0  0
  4  5  1  0  0  0  0
  4  9  1  0  0  0  0
  5  6  1  0  0  0  0
  6  7  1  0  0  0  0
  7  8  1  0  0  0  0
  7 10  1  0  0  0  0
  8  9  1  0  0  0  0
 10 11  1  0  0  0  0
 11 12  4  0  0  0  0
 11 20  4  0  0  0  0
 12 13  4  0  0  0  0
 13 14  1  0  0  0  0
 13 18  4  0  0  0  0
 14 15  1  0  0  0  0
 15 16  2  0  0  0  0
 15 17  1  0  0  0  0
 18 19  4  0  0  0  0
 19 20  4  0  0  0  0
 21 22  4  0  0  0  0
 21 31  4  0  0  0  0
 22 23  4  0  0  0  0
 22 27  4  0  0  0  0
 23 24  4  0  0  0  0
 23 29  4  0  0  0  0
 24 25  4  0  0  0  0
 25 26  4  0  0  0  0
 25 28  1  0  0  0  0
 26 27  4  0  0  0  0
 29 30  4  0  0  0  0
 30 31  4  0  0  0  0
M  END
>  <Name_Molregno>
486672

>  <5-HT1A>
7.7

>  <5-HT1B>
7.7

>  <5-HT1D>
9.3

$$$$
486738
  Marvin  02231216192D 0   1.00000     0.00000     0

 29 32  0  0  0  0  0  0  0  0999 V2000
    3.4756    0.8612    0.0000 O   0  0  0  0  0  0  0  0  0
    2.7612    0.4487    0.0000 C   0  0  0  0  0  0  0  0  0
    2.7612   -0.3763    0.0000 C   0  0  0  0  0  0  0  0  0
    2.0467   -0.7888    0.0000 N   0  0  0  0  0  0  0  0  0
    2.0467   -1.6138    0.0000 C   0  0  0  0  0  0  0  0  0
    1.3322   -2.0263    0.0000 C   0  0  0  0  0  0  0  0  0
    0.6178   -1.6138    0.0000 N   0  0  0  0  0  0  0  0  0
    0.6178   -0.7888    0.0000 C   0  0  0  0  0  0  0  0  0
    1.3322   -0.3763    0.0000 C   0  0  0  0  0  0  0  0  0
   -0.0967   -2.0263    0.0000 C   0  0  0  0  0  0  0  0  0
   -0.8112   -1.6138    0.0000 C   0  0  0  0  0  0  0  0  0
   -1.5257   -2.0263    0.0000 C   0  0  0  0  0  0  0  0  0
   -2.2401   -1.6138    0.0000 C   0  0  0  0  0  0  0  0  0
   -2.2401   -0.7888    0.0000 C   0  0  0  0  0  0  0  0  0
   -2.9546   -0.3763    0.0000 O   0  0  0  0  0  0  0  0  0
   -2.9546    0.4487    0.0000 C   0  0  0  0  0  0  0  0  0
   -1.5257   -0.3763    0.0000 C   0  0  0  0  0  0  0  0  0
   -0.8112   -0.7888    0.0000 C   0  0  0  0  0  0  0  0  0
    3.4756    1.6862    0.0000 C   0  0  0  0  0  0  0  0  0
    4.1901    2.0987    0.0000 C   0  0  0  0  0  0  0  0  0
    4.1901    2.9237    0.0000 C   0  0  0  0  0  0  0  0  0
    4.9046    3.3362    0.0000 N   0  0  0  0  0  0  0  0  0
    5.6191    2.9237    0.0000 C   0  0  0  0  0  0  0  0  0
    5.6191    2.0987    0.0000 C   0  0  0  0  0  0  0  0  0
    4.9046    1.6862    0.0000 C   0  0  0  0  0  0  0  0  0
    6.3335    3.3362    0.0000 C   0  0  0  0  0  0  0  0  0
    3.4756    3.3362    0.0000 C   0  0  0  0  0  0  0  0  0
    2.7612    2.9237    0.0000 C   0  0  0  0  0  0  0  0  0
    2.7612    2.0987    0.0000 C   0  0  0  0  0  0  0  0  0
  1  2  1  0  0  0  0
  1 19  1  0  0  0  0
  2  3  1  0  0  0  0
  3  4  1  0  0  0  0
  4  5  1  0  0  0  0
  4  9  1  0  0  0  0
  5  6  1  0  0  0  0
  6  7  1  0  0  0  0
  7  8  1  0  0  0  0
  7 10  1  0  0  0  0
  8  9  1  0  0  0  0
 10 11  1  0  0  0  0
 11 12  4  0  0  0  0
 11 18  4  0  0  0  0
 12 13  4  0  0  0  0
 13 14  4  0  0  0  0
 14 15  1  0  0  0  0
 14 17  4  0  0  0  0
 15 16  1  0  0  0  0
 17 18  4  0  0  0  0
 19 20  4  0  0  0  0
 19 29  4  0  0  0  0
 20 21  4  0  0  0  0
 20 25  4  0  0  0  0
 21 22  4  0  0  0  0
 21 27  4  0  0  0  0
 22 23  4  0  0  0  0
 23 24  4  0  0  0  0
 23 26  1  0  0  0  0
 24 25  4  0  0  0  0
 27 28  4  0  0  0  0
 28 29  4  0  0  0  0
M  END
>  <Name_Molregno>
486738

>  <5-HT1A>
7.8

>  <5-HT1B>
6.3

>  <5-HT1D>
7.9

$$$$
486739
  Marvin  02231216192D 0   1.00000     0.00000     0

 29 32  0  0  0  0  0  0  0  0999 V2000
    3.5321    0.9543    0.0000 O   0  0  0  0  0  0  0  0  0
    2.8176    0.5418    0.0000 C   0  0  0  0  0  0  0  0  0
    2.8176   -0.2832    0.0000 C   0  0  0  0  0  0  0  0  0
    2.1031   -0.6957    0.0000 N   0  0  0  0  0  0  0  0  0
    2.1031   -1.5207    0.0000 C   0  0  0  0  0  0  0  0  0
    1.3886   -1.9332    0.0000 C   0  0  0  0  0  0  0  0  0
    0.6742   -1.5207    0.0000 N   0  0  0  0  0  0  0  0  0
    0.6742   -0.6957    0.0000 C   0  0  0  0  0  0  0  0  0
    1.3886   -0.2832    0.0000 C   0  0  0  0  0  0  0  0  0
   -0.0403   -1.9332    0.0000 C   0  0  0  0  0  0  0  0  0
   -0.7548   -1.5207    0.0000 C   0  0  0  0  0  0  0  0  0
   -1.4692   -1.9332    0.0000 C   0  0  0  0  0  0  0  0  0
   -2.1837   -1.5207    0.0000 C   0  0  0  0  0  0  0  0  0
   -2.8982   -1.9332    0.0000 O   0  0  0  0  0  0  0  0  0
   -3.6127   -1.5207    0.0000 C   0  0  0  0  0  0  0  0  0
   -2.1837   -0.6957    0.0000 C   0  0  0  0  0  0  0  0  0
   -1.4692   -0.2832    0.0000 C   0  0  0  0  0  0  0  0  0
   -0.7548   -0.6957    0.0000 C   0  0  0  0  0  0  0  0  0
    3.5321    1.7793    0.0000 C   0  0  0  0  0  0  0  0  0
    4.2465    2.1918    0.0000 C   0  0  0  0  0  0  0  0  0
    4.2465    3.0168    0.0000 C   0  0  0  0  0  0  0  0  0
    4.9610    3.4293    0.0000 N   0  0  0  0  0  0  0  0  0
    5.6755    3.0168    0.0000 C   0  0  0  0  0  0  0  0  0
    5.6755    2.1918    0.0000 C   0  0  0  0  0  0  0  0  0
    4.9610    1.7793    0.0000 C   0  0  0  0  0  0  0  0  0
    6.3899    3.4293    0.0000 C   0  0  0  0  0  0  0  0  0
    3.5321    3.4293    0.0000 C   0  0  0  0  0  0  0  0  0
    2.8176    3.0168    0.0000 C   0  0  0  0  0  0  0  0  0
    2.8176    2.1918    0.0000 C   0  0  0  0  0  0  0  0  0
  1  2  1  0  0  0  0
  1 19  1  0  0  0  0
  2  3  1  0  0  0  0
  3  4  1  0  0  0  0
  4  5  1  0  0  0  0
  4  9  1  0  0  0  0
  5  6  1  0  0  0  0
  6  7  1  0  0  0  0
  7  8  1  0  0  0  0
  7 10  1  0  0  0  0
  8  9  1  0  0  0  0
 10 11  1  0  0  0  0
 11 12  4  0  0  0  0
 11 18  4  0  0  0  0
 12 13  4  0  0  0  0
 13 14  1  0  0  0  0
 13 16  4  0  0  0  0
 14 15  1  0  0  0  0
 16 17  4  0  0  0  0
 17 18  4  0  0  0  0
 19 20  4  0  0  0  0
 19 29  4  0  0  0  0
 20 21  4  0  0  0  0
 20 25  4  0  0  0  0
 21 22  4  0  0  0  0
 21 27  4  0  0  0  0
 22 23  4  0  0  0  0
 23 24  4  0  0  0  0
 23 26  1  0  0  0  0
 24 25  4  0  0  0  0
 27 28  4  0  0  0  0
 28 29  4  0  0  0  0
M  END
>  <Name_Molregno>
486739

>  <5-HT1A>
7.9

>  <5-HT1B>
6.8

>  <5-HT1D>
8.6

$$$$
486740
  Marvin  02231216192D 0   1.00000     0.00000     0

 31 34  0  0  0  0  0  0  0  0999 V2000
    4.1833    0.8419    0.0000 O   0  0  0  0  0  0  0  0  0
    3.4689    0.4294    0.0000 C   0  0  0  0  0  0  0  0  0
    3.4689   -0.3956    0.0000 C   0  0  0  0  0  0  0  0  0
    2.7544   -0.8081    0.0000 N   0  0  0  0  0  0  0  0  0
    2.7544   -1.6331    0.0000 C   0  0  0  0  0  0  0  0  0
    2.0399   -2.0456    0.0000 C   0  0  0  0  0  0  0  0  0
    1.3254   -1.6331    0.0000 N   0  0  0  0  0  0  0  0  0
    1.3254   -0.8081    0.0000 C   0  0  0  0  0  0  0  0  0
    2.0399   -0.3956    0.0000 C   0  0  0  0  0  0  0  0  0
    0.6110   -2.0456    0.0000 C   0  0  0  0  0  0  0  0  0
   -0.1035   -1.6331    0.0000 C   0  0  0  0  0  0  0  0  0
   -0.8180   -2.0456    0.0000 C   0  0  0  0  0  0  0  0  0
   -1.5324   -1.6331    0.0000 C   0  0  0  0  0  0  0  0  0
   -1.5324   -0.8081    0.0000 C   0  0  0  0  0  0  0  0  0
   -2.2469   -0.3956    0.0000 N   0  0  0  0  0  0  0  0  0
   -2.2469    0.4294    0.0000 C   0  0  0  0  0  0  0  0  0
   -2.9614    0.8419    0.0000 O   0  0  0  0  0  0  0  0  0
   -1.5324    0.8419    0.0000 C   0  0  0  0  0  0  0  0  0
   -0.8180   -0.3956    0.0000 C   0  0  0  0  0  0  0  0  0
   -0.1035   -0.8081    0.0000 C   0  0  0  0  0  0  0  0  0
    4.1833    1.6669    0.0000 C   0  0  0  0  0  0  0  0  0
    4.8978    2.0794    0.0000 C   0  0  0  0  0  0  0  0  0
    4.8978    2.9044    0.0000 C   0  0  0  0  0  0  0  0  0
    5.6123    3.3169    0.0000 N   0  0  0  0  0  0  0  0  0
    6.3267    2.9044    0.0000 C   0  0  0  0  0  0  0  0  0
    6.3267    2.0794    0.0000 C   0  0  0  0  0  0  0  0  0
    5.6123    1.6669    0.0000 C   0  0  0  0  0  0  0  0  0
    7.0412    3.3169    0.0000 C   0  0  0  0  0  0  0  0  0
    4.1833    3.3169    0.0000 C   0  0  0  0  0  0  0  0  0
    3.4689    2.9044    0.0000 C   0  0  0  0  0  0  0  0  0
    3.4689    2.0794    0.0000 C   0  0  0  0  0  0  0  0  0
  1  2  1  0  0  0  0
  1 21  1  0  0  0  0
  2  3  1  0  0  0  0
  3  4  1  0  0  0  0
  4  5  1  0  0  0  0
  4  9  1  0  0  0  0
  5  6  1  0  0  0  0
  6  7  1  0  0  0  0
  7  8  1  0  0  0  0
  7 10  1  0  0  0  0
  8  9  1  0  0  0  0
 10 11  1  0  0  0  0
 11 12  4  0  0  0  0
 11 20  4  0  0  0  0
 12 13  4  0  0  0  0
 13 14  4  0  0  0  0
 14 15  1  0  0  0  0
 14 19  4  0  0  0  0
 15 16  1  0  0  0  0
 16 17  2  0  0  0  0
 16 18  1  0  0  0  0
 19 20  4  0  0  0  0
 21 22  4  0  0  0  0
 21 31  4  0  0  0  0
 22 23  4  0  0  0  0
 22 27  4  0  0  0  0
 23 24  4  0  0  0  0
 23 29  4  0  0  0  0
 24 25  4  0  0  0  0
 25 26  4  0  0  0  0
 25 28  1  0  0  0  0
 26 27  4  0  0  0  0
 29 30  4  0  0  0  0
 30 31  4  0  0  0  0
M  END
>  <Name_Molregno>
486740

>  <5-HT1A>
6.8

>  <5-HT1B>
5.9

>  <5-HT1D>
6.7

$$$$
486741
  Marvin  02231216192D 0   1.00000     0.00000     0

 31 34  0  0  0  0  0  0  0  0999 V2000
    1.1744    1.6612    0.0000 O   0  0  0  0  0  0  0  0  0
    0.4600    1.2487    0.0000 C   0  0  0  0  0  0  0  0  0
    0.4600    0.4237    0.0000 C   0  0  0  0  0  0  0  0  0
    1.1744    0.0112    0.0000 N   0  0  0  0  0  0  0  0  0
    1.8889    0.4237    0.0000 C   0  0  0  0  0  0  0  0  0
    2.6034    0.0112    0.0000 C   0  0  0  0  0  0  0  0  0
    2.6034   -0.8138    0.0000 N   0  0  0  0  0  0  0  0  0
    1.8889   -1.2263    0.0000 C   0  0  0  0  0  0  0  0  0
    1.1744   -0.8138    0.0000 C   0  0  0  0  0  0  0  0  0
    3.3178   -1.2263    0.0000 C   0  0  0  0  0  0  0  0  0
    3.3178   -2.0513    0.0000 C   0  0  0  0  0  0  0  0  0
    4.0323   -2.4638    0.0000 C   0  0  0  0  0  0  0  0  0
    4.0323   -3.2888    0.0000 C   0  0  0  0  0  0  0  0  0
    3.3178   -3.7013    0.0000 C   0  0  0  0  0  0  0  0  0
    2.6034   -3.2888    0.0000 C   0  0  0  0  0  0  0  0  0
    2.6034   -2.4638    0.0000 C   0  0  0  0  0  0  0  0  0
    1.8889   -2.0513    0.0000 N   0  0  0  0  0  0  0  0  0
    1.1744   -2.4638    0.0000 C   0  0  0  0  0  0  0  0  0
    0.4600   -2.0513    0.0000 O   0  0  0  0  0  0  0  0  0
    1.1744   -3.2888    0.0000 C   0  0  0  0  0  0  0  0  0
    1.1744    2.4862    0.0000 C   0  0  0  0  0  0  0  0  0
    1.8889    2.8987    0.0000 C   0  0  0  0  0  0  0  0  0
    1.8889    3.7237    0.0000 C   0  0  0  0  0  0  0  0  0
    2.6034    4.1362    0.0000 N   0  0  0  0  0  0  0  0  0
    3.3178    3.7237    0.0000 C   0  0  0  0  0  0  0  0  0
    3.3178    2.8987    0.0000 C   0  0  0  0  0  0  0  0  0
    2.6034    2.4862    0.0000 C   0  0  0  0  0  0  0  0  0
    4.0323    4.1362    0.0000 C   0  0  0  0  0  0  0  0  0
    1.1744    4.1362    0.0000 C   0  0  0  0  0  0  0  0  0
    0.4600    3.7237    0.0000 C   0  0  0  0  0  0  0  0  0
    0.4600    2.8987    0.0000 C   0  0  0  0  0  0  0  0  0
  1  2  1  0  0  0  0
  1 21  1  0  0  0  0
  2  3  1  0  0  0  0
  3  4  1  0  0  0  0
  4  5  1  0  0  0  0
  4  9  1  0  0  0  0
  5  6  1  0  0  0  0
  6  7  1  0  0  0  0
  7  8  1  0  0  0  0
  7 10  1  0  0  0  0
  8  9  1  0  0  0  0
 10 11  1  0  0  0  0
 11 12  4  0  0  0  0
 11 16  4  0  0  0  0
 12 13  4  0  0  0  0
 13 14  4  0  0  0  0
 14 15  4  0  0  0  0
 15 16  4  0  0  0  0
 16 17  1  0  0  0  0
 17 18  1  0  0  0  0
 18 19  2  0  0  0  0
 18 20  1  0  0  0  0
 21 22  4  0  0  0  0
 21 31  4  0  0  0  0
 22 23  4  0  0  0  0
 22 27  4  0  0  0  0
 23 24  4  0  0  0  0
 23 29  4  0  0  0  0
 24 25  4  0  0  0  0
 25 26  4  0  0  0  0
 25 28  1  0  0  0  0
 26 27  4  0  0  0  0
 29 30  4  0  0  0  0
 30 31  4  0  0  0  0
M  END
>  <Name_Molregno>
486741

>  <5-HT1A>
5.9

>  <5-HT1B>
5.8

>  <5-HT1D>
8.3

$$$$
486801
  Marvin  02231216192D 0   1.00000     0.00000     0

 32 35  0  0  0  0  0  0  0  0999 V2000
    4.5588    0.1249    0.0000 O   0  0  0  0  0  0  0  0  0
    3.8443   -0.2876    0.0000 C   0  0  0  0  0  0  0  0  0
    3.8443   -1.1126    0.0000 C   0  0  0  0  0  0  0  0  0
    3.1298   -1.5251    0.0000 N   0  0  0  0  0  0  0  0  0
    3.1298   -2.3501    0.0000 C   0  0  0  0  0  0  0  0  0
    2.4154   -2.7626    0.0000 C   0  0  0  0  0  0  0  0  0
    1.7009   -2.3501    0.0000 N   0  0  0  0  0  0  0  0  0
    1.7009   -1.5251    0.0000 C   0  0  0  0  0  0  0  0  0
    2.4154   -1.1126    0.0000 C   0  0  0  0  0  0  0  0  0
    0.9864   -2.7626    0.0000 C   0  0  0  0  0  0  0  0  0
    0.2720   -2.3501    0.0000 C   0  0  0  0  0  0  0  0  0
   -0.4425   -2.7626    0.0000 C   0  0  0  0  0  0  0  0  0
   -1.1570   -2.3501    0.0000 C   0  0  0  0  0  0  0  0  0
   -1.8715   -2.7626    0.0000 N   0  0  0  0  0  0  0  0  0
   -2.5859   -2.3501    0.0000 C   0  0  0  0  0  0  0  0  0
   -3.3004   -2.7626    0.0000 O   0  0  0  0  0  0  0  0  0
   -2.5859   -1.5251    0.0000 C   0  0  0  0  0  0  0  0  0
   -1.8715   -3.5876    0.0000 C   0  0  0  0  0  0  0  0  0
   -1.1570   -1.5251    0.0000 C   0  0  0  0  0  0  0  0  0
   -0.4425   -1.1126    0.0000 C   0  0  0  0  0  0  0  0  0
    0.2720   -1.5251    0.0000 C   0  0  0  0  0  0  0  0  0
    4.5588    0.9499    0.0000 C   0  0  0  0  0  0  0  0  0
    5.2733    1.3624    0.0000 C   0  0  0  0  0  0  0  0  0
    5.2733    2.1874    0.0000 C   0  0  0  0  0  0  0  0  0
    5.9877    2.5999    0.0000 N   0  0  0  0  0  0  0  0  0
    6.7022    2.1874    0.0000 C   0  0  0  0  0  0  0  0  0
    6.7022    1.3624    0.0000 C   0  0  0  0  0  0  0  0  0
    5.9877    0.9499    0.0000 C   0  0  0  0  0  0  0  0  0
    7.4167    2.5999    0.0000 C   0  0  0  0  0  0  0  0  0
    4.5588    2.5999    0.0000 C   0  0  0  0  0  0  0  0  0
    3.8443    2.1874    0.0000 C   0  0  0  0  0  0  0  0  0
    3.8443    1.3624    0.0000 C   0  0  0  0  0  0  0  0  0
  1  2  1  0  0  0  0
  1 22  1  0  0  0  0
  2  3  1  0  0  0  0
  3  4  1  0  0  0  0
  4  5  1  0  0  0  0
  4  9  1  0  0  0  0
  5  6  1  0  0  0  0
  6  7  1  0  0  0  0
  7  8  1  0  0  0  0
  7 10  1  0  0  0  0
  8  9  1  0  0  0  0
 10 11  1  0  0  0  0
 11 12  4  0  0  0  0
 11 21  4  0  0  0  0
 12 13  4  0  0  0  0
 13 14  1  0  0  0  0
 13 19  4  0  0  0  0
 14 15  1  0  0  0  0
 14 18  1  0  0  0  0
 15 16  2  0  0  0  0
 15 17  1  0  0  0  0
 19 20  4  0  0  0  0
 20 21  4  0  0  0  0
 22 23  4  0  0  0  0
 22 32  4  0  0  0  0
 23 24  4  0  0  0  0
 23 28  4  0  0  0  0
 24 25  4  0  0  0  0
 24 30  4  0  0  0  0
 25 26  4  0  0  0  0
 26 27  4  0  0  0  0
 26 29  1  0  0  0  0
 27 28  4  0  0  0  0
 30 31  4  0  0  0  0
 31 32  4  0  0  0  0
M  END
>  <Name_Molregno>
486801

>  <5-HT1A>
6.6

>  <5-HT1B>
7.3

>  <5-HT1D>
9.5

$$$$
486802
  Marvin  02231216192D 0   1.00000     0.00000     0

 31 34  0  0  0  0  0  0  0  0999 V2000
    4.2737    0.0857    0.0000 O   0  0  0  0  0  0  0  0  0
    3.5592   -0.3268    0.0000 C   0  0  0  0  0  0  0  0  0
    3.5592   -1.1518    0.0000 C   0  0  0  0  0  0  0  0  0
    2.8447   -1.5643    0.0000 N   0  0  0  0  0  0  0  0  0
    2.8447   -2.3893    0.0000 C   0  0  0  0  0  0  0  0  0
    2.1303   -2.8018    0.0000 C   0  0  0  0  0  0  0  0  0
    1.4158   -2.3893    0.0000 C   0  0  0  0  0  0  0  0  0
    1.4158   -1.5643    0.0000 C   0  0  0  0  0  0  0  0  0
    2.1303   -1.1518    0.0000 C   0  0  0  0  0  0  0  0  0
    0.7013   -2.8018    0.0000 C   0  0  0  0  0  0  0  0  0
   -0.0132   -2.3893    0.0000 C   0  0  0  0  0  0  0  0  0
   -0.7276   -2.8018    0.0000 C   0  0  0  0  0  0  0  0  0
   -1.4421   -2.3893    0.0000 C   0  0  0  0  0  0  0  0  0
   -2.1566   -2.8018    0.0000 N   0  0  0  0  0  0  0  0  0
   -2.8710   -2.3893    0.0000 C   0  0  0  0  0  0  0  0  0
   -3.5855   -2.8018    0.0000 O   0  0  0  0  0  0  0  0  0
   -2.8710   -1.5643    0.0000 C   0  0  0  0  0  0  0  0  0
   -1.4421   -1.5643    0.0000 C   0  0  0  0  0  0  0  0  0
   -0.7276   -1.1518    0.0000 C   0  0  0  0  0  0  0  0  0
   -0.0132   -1.5643    0.0000 C   0  0  0  0  0  0  0  0  0
    4.2737    0.9107    0.0000 C   0  0  0  0  0  0  0  0  0
    4.9881    1.3232    0.0000 C   0  0  0  0  0  0  0  0  0
    4.9881    2.1482    0.0000 C   0  0  0  0  0  0  0  0  0
    5.7026    2.5607    0.0000 N   0  0  0  0  0  0  0  0  0
    6.4171    2.1482    0.0000 C   0  0  0  0  0  0  0  0  0
    6.4171    1.3232    0.0000 C   0  0  0  0  0  0  0  0  0
    5.7026    0.9107    0.0000 C   0  0  0  0  0  0  0  0  0
    7.1316    2.5607    0.0000 C   0  0  0  0  0  0  0  0  0
    4.2737    2.5607    0.0000 C   0  0  0  0  0  0  0  0  0
    3.5592    2.1482    0.0000 C   0  0  0  0  0  0  0  0  0
    3.5592    1.3232    0.0000 C   0  0  0  0  0  0  0  0  0
  1  2  1  0  0  0  0
  1 21  1  0  0  0  0
  2  3  1  0  0  0  0
  3  4  1  0  0  0  0
  4  5  1  0  0  0  0
  4  9  1  0  0  0  0
  5  6  1  0  0  0  0
  6  7  1  0  0  0  0
  7  8  1  0  0  0  0
  7 10  1  0  0  0  0
  8  9  1  0  0  0  0
 10 11  1  0  0  0  0
 11 12  4  0  0  0  0
 11 20  4  0  0  0  0
 12 13  4  0  0  0  0
 13 14  1  0  0  0  0
 13 18  4  0  0  0  0
 14 15  1  0  0  0  0
 15 16  2  0  0  0  0
 15 17  1  0  0  0  0
 18 19  4  0  0  0  0
 19 20  4  0  0  0  0
 21 22  4  0  0  0  0
 21 31  4  0  0  0  0
 22 23  4  0  0  0  0
 22 27  4  0  0  0  0
 23 24  4  0  0  0  0
 23 29  4  0  0  0  0
 24 25  4  0  0  0  0
 25 26  4  0  0  0  0
 25 28  1  0  0  0  0
 26 27  4  0  0  0  0
 29 30  4  0  0  0  0
 30 31  4  0  0  0  0
M  END
>  <Name_Molregno>
486802

>  <5-HT1A>
7.6

>  <5-HT1B>
7.7

>  <5-HT1D>
9.3

$$$$
486869
  Marvin  02231216192D 0   1.00000     0.00000     0

 32 35  0  0  0  0  0  0  0  0999 V2000
    4.6636    1.3953    0.0000 O   0  0  0  0  0  0  0  0  0
    3.9491    0.9828    0.0000 C   0  0  0  0  0  0  0  0  0
    3.9491    0.1578    0.0000 C   0  0  0  0  0  0  0  0  0
    3.2347   -0.2547    0.0000 N   0  0  0  0  0  0  0  0  0
    3.2347   -1.0797    0.0000 C   0  0  0  0  0  0  0  0  0
    2.5202   -1.4922    0.0000 C   0  0  0  0  0  0  0  0  0
    1.8057   -1.0797    0.0000 C   0  0  0  0  0  0  0  0  0
    1.8057   -0.2547    0.0000 C   0  0  0  0  0  0  0  0  0
    2.5202    0.1578    0.0000 C   0  0  0  0  0  0  0  0  0
    1.0913   -1.4922    0.0000 C   0  0  0  0  0  0  0  0  0
    0.3768   -1.0797    0.0000 C   0  0  0  0  0  0  0  0  0
   -0.3377   -1.4922    0.0000 C   0  0  0  0  0  0  0  0  0
   -1.0522   -1.0797    0.0000 C   0  0  0  0  0  0  0  0  0
   -1.7666   -1.4922    0.0000 N   0  0  0  0  0  0  0  0  0
   -2.4811   -1.0797    0.0000 C   0  0  0  0  0  0  0  0  0
   -2.4811   -0.2547    0.0000 O   0  0  0  0  0  0  0  0  0
   -3.1956   -1.4922    0.0000 C   0  0  0  0  0  0  0  0  0
   -3.9100   -1.0797    0.0000 C   0  0  0  0  0  0  0  0  0
   -1.0522   -0.2547    0.0000 C   0  0  0  0  0  0  0  0  0
   -0.3377    0.1578    0.0000 C   0  0  0  0  0  0  0  0  0
    0.3768   -0.2547    0.0000 C   0  0  0  0  0  0  0  0  0
    4.6636    2.2203    0.0000 C   0  0  0  0  0  0  0  0  0
    5.3781    2.6328    0.0000 C   0  0  0  0  0  0  0  0  0
    5.3781    3.4578    0.0000 C   0  0  0  0  0  0  0  0  0
    6.0926    3.8703    0.0000 N   0  0  0  0  0  0  0  0  0
    6.8070    3.4578    0.0000 C   0  0  0  0  0  0  0  0  0
    6.8070    2.6328    0.0000 C   0  0  0  0  0  0  0  0  0
    6.0926    2.2203    0.0000 C   0  0  0  0  0  0  0  0  0
    7.5215    3.8703    0.0000 C   0  0  0  0  0  0  0  0  0
    4.6636    3.8703    0.0000 C   0  0  0  0  0  0  0  0  0
    3.9491    3.4578    0.0000 C   0  0  0  0  0  0  0  0  0
    3.9491    2.6328    0.0000 C   0  0  0  0  0  0  0  0  0
  1  2  1  0  0  0  0
  1 22  1  0  0  0  0
  2  3  1  0  0  0  0
  3  4  1  0  0  0  0
  4  5  1  0  0  0  0
  4  9  1  0  0  0  0
  5  6  1  0  0  0  0
  6  7  1  0  0  0  0
  7  8  1  0  0  0  0
  7 10  1  0  0  0  0
  8  9  1  0  0  0  0
 10 11  1  0  0  0  0
 11 12  4  0  0  0  0
 11 21  4  0  0  0  0
 12 13  4  0  0  0  0
 13 14  1  0  0  0  0
 13 19  4  0  0  0  0
 14 15  1  0  0  0  0
 15 16  2  0  0  0  0
 15 17  1  0  0  0  0
 17 18  1  0  0  0  0
 19 20  4  0  0  0  0
 20 21  4  0  0  0  0
 22 23  4  0  0  0  0
 22 32  4  0  0  0  0
 23 24  4  0  0  0  0
 23 28  4  0  0  0  0
 24 25  4  0  0  0  0
 24 30  4  0  0  0  0
 25 26  4  0  0  0  0
 26 27  4  0  0  0  0
 26 29  1  0  0  0  0
 27 28  4  0  0  0  0
 30 31  4  0  0  0  0
 31 32  4  0  0  0  0
M  END
>  <Name_Molregno>
486869

>  <5-HT1A>
7.6

>  <5-HT1B>
7.8

>  <5-HT1D>
9.2

$$$$
486870
  Marvin  02231216192D 0   1.00000     0.00000     0

 33 36  0  0  0  0  0  0  0  0999 V2000
    5.0174    1.2753    0.0000 O   0  0  0  0  0  0  0  0  0
    4.3030    0.8628    0.0000 C   0  0  0  0  0  0  0  0  0
    4.3030    0.0378    0.0000 C   0  0  0  0  0  0  0  0  0
    3.5885   -0.3747    0.0000 N   0  0  0  0  0  0  0  0  0
    3.5885   -1.1997    0.0000 C   0  0  0  0  0  0  0  0  0
    2.8740   -1.6122    0.0000 C   0  0  0  0  0  0  0  0  0
    2.1596   -1.1997    0.0000 C   0  0  0  0  0  0  0  0  0
    2.1596   -0.3747    0.0000 C   0  0  0  0  0  0  0  0  0
    2.8740    0.0378    0.0000 C   0  0  0  0  0  0  0  0  0
    1.4451   -1.6122    0.0000 C   0  0  0  0  0  0  0  0  0
    0.7306   -1.1997    0.0000 C   0  0  0  0  0  0  0  0  0
    0.0162   -1.6122    0.0000 C   0  0  0  0  0  0  0  0  0
   -0.6983   -1.1997    0.0000 C   0  0  0  0  0  0  0  0  0
   -1.4128   -1.6122    0.0000 N   0  0  0  0  0  0  0  0  0
   -2.1273   -1.1997    0.0000 C   0  0  0  0  0  0  0  0  0
   -2.1273   -0.3747    0.0000 O   0  0  0  0  0  0  0  0  0
   -2.8417   -1.6122    0.0000 C   0  0  0  0  0  0  0  0  0
   -3.5562   -1.1997    0.0000 C   0  0  0  0  0  0  0  0  0
   -2.8417   -2.4372    0.0000 C   0  0  0  0  0  0  0  0  0
   -0.6983   -0.3747    0.0000 C   0  0  0  0  0  0  0  0  0
    0.0162    0.0378    0.0000 C   0  0  0  0  0  0  0  0  0
    0.7306   -0.3747    0.0000 C   0  0  0  0  0  0  0  0  0
    5.0174    2.1003    0.0000 C   0  0  0  0  0  0  0  0  0
    5.7319    2.5128    0.0000 C   0  0  0  0  0  0  0  0  0
    5.7319    3.3378    0.0000 C   0  0  0  0  0  0  0  0  0
    6.4464    3.7503    0.0000 N   0  0  0  0  0  0  0  0  0
    7.1609    3.3378    0.0000 C   0  0  0  0  0  0  0  0  0
    7.1609    2.5128    0.0000 C   0  0  0  0  0  0  0  0  0
    6.4464    2.1003    0.0000 C   0  0  0  0  0  0  0  0  0
    7.8753    3.7503    0.0000 C   0  0  0  0  0  0  0  0  0
    5.0174    3.7503    0.0000 C   0  0  0  0  0  0  0  0  0
    4.3030    3.3378    0.0000 C   0  0  0  0  0  0  0  0  0
    4.3030    2.5128    0.0000 C   0  0  0  0  0  0  0  0  0
  1  2  1  0  0  0  0
  1 23  1  0  0  0  0
  2  3  1  0  0  0  0
  3  4  1  0  0  0  0
  4  5  1  0  0  0  0
  4  9  1  0  0  0  0
  5  6  1  0  0  0  0
  6  7  1  0  0  0  0
  7  8  1  0  0  0  0
  7 10  1  0  0  0  0
  8  9  1  0  0  0  0
 10 11  1  0  0  0  0
 11 12  4  0  0  0  0
 11 22  4  0  0  0  0
 12 13  4  0  0  0  0
 13 14  1  0  0  0  0
 13 20  4  0  0  0  0
 14 15  1  0  0  0  0
 15 16  2  0  0  0  0
 15 17  1  0  0  0  0
 17 18  1  0  0  0  0
 17 19  1  0  0  0  0
 20 21  4  0  0  0  0
 21 22  4  0  0  0  0
 23 24  4  0  0  0  0
 23 33  4  0  0  0  0
 24 25  4  0  0  0  0
 24 29  4  0  0  0  0
 25 26  4  0  0  0  0
 25 31  4  0  0  0  0
 26 27  4  0  0  0  0
 27 28  4  0  0  0  0
 27 30  1  0  0  0  0
 28 29  4  0  0  0  0
 31 32  4  0  0  0  0
 32 33  4  0  0  0  0
M  END
>  <Name_Molregno>
486870

>  <5-HT1A>
8.2

>  <5-HT1B>
7.3

>  <5-HT1D>
8.9

$$$$
486871
  Marvin  02231216192D 0   1.00000     0.00000     0

 32 35  0  0  0  0  0  0  0  0999 V2000
    4.5588    0.1249    0.0000 O   0  0  0  0  0  0  0  0  0
    3.8443   -0.2876    0.0000 C   0  0  0  0  0  0  0  0  0
    3.8443   -1.1126    0.0000 C   0  0  0  0  0  0  0  0  0
    3.1298   -1.5251    0.0000 N   0  0  0  0  0  0  0  0  0
    3.1298   -2.3501    0.0000 C   0  0  0  0  0  0  0  0  0
    2.4154   -2.7626    0.0000 C   0  0  0  0  0  0  0  0  0
    1.7009   -2.3501    0.0000 C   0  0  0  0  0  0  0  0  0
    1.7009   -1.5251    0.0000 C   0  0  0  0  0  0  0  0  0
    2.4154   -1.1126    0.0000 C   0  0  0  0  0  0  0  0  0
    0.9864   -2.7626    0.0000 C   0  0  0  0  0  0  0  0  0
    0.2720   -2.3501    0.0000 C   0  0  0  0  0  0  0  0  0
   -0.4425   -2.7626    0.0000 C   0  0  0  0  0  0  0  0  0
   -1.1570   -2.3501    0.0000 C   0  0  0  0  0  0  0  0  0
   -1.8715   -2.7626    0.0000 N   0  0  0  0  0  0  0  0  0
   -2.5859   -2.3501    0.0000 C   0  0  0  0  0  0  0  0  0
   -3.3004   -2.7626    0.0000 O   0  0  0  0  0  0  0  0  0
   -2.5859   -1.5251    0.0000 C   0  0  0  0  0  0  0  0  0
   -1.8715   -3.5876    0.0000 C   0  0  0  0  0  0  0  0  0
   -1.1570   -1.5251    0.0000 C   0  0  0  0  0  0  0  0  0
   -0.4425   -1.1126    0.0000 C   0  0  0  0  0  0  0  0  0
    0.2720   -1.5251    0.0000 C   0  0  0  0  0  0  0  0  0
    4.5588    0.9499    0.0000 C   0  0  0  0  0  0  0  0  0
    5.2733    1.3624    0.0000 C   0  0  0  0  0  0  0  0  0
    5.2733    2.1874    0.0000 C   0  0  0  0  0  0  0  0  0
    5.9877    2.5999    0.0000 N   0  0  0  0  0  0  0  0  0
    6.7022    2.1874    0.0000 C   0  0  0  0  0  0  0  0  0
    6.7022    1.3624    0.0000 C   0  0  0  0  0  0  0  0  0
    5.9877    0.9499    0.0000 C   0  0  0  0  0  0  0  0  0
    7.4167    2.5999    0.0000 C   0  0  0  0  0  0  0  0  0
    4.5588    2.5999    0.0000 C   0  0  0  0  0  0  0  0  0
    3.8443    2.1874    0.0000 C   0  0  0  0  0  0  0  0  0
    3.8443    1.3624    0.0000 C   0  0  0  0  0  0  0  0  0
  1  2  1  0  0  0  0
  1 22  1  0  0  0  0
  2  3  1  0  0  0  0
  3  4  1  0  0  0  0
  4  5  1  0  0  0  0
  4  9  1  0  0  0  0
  5  6  1  0  0  0  0
  6  7  1  0  0  0  0
  7  8  1  0  0  0  0
  7 10  1  0  0  0  0
  8  9  1  0  0  0  0
 10 11  1  0  0  0  0
 11 12  4  0  0  0  0
 11 21  4  0  0  0  0
 12 13  4  0  0  0  0
 13 14  1  0  0  0  0
 13 19  4  0  0  0  0
 14 15  1  0  0  0  0
 14 18  1  0  0  0  0
 15 16  2  0  0  0  0
 15 17  1  0  0  0  0
 19 20  4  0  0  0  0
 20 21  4  0  0  0  0
 22 23  4  0  0  0  0
 22 32  4  0  0  0  0
 23 24  4  0  0  0  0
 23 28  4  0  0  0  0
 24 25  4  0  0  0  0
 24 30  4  0  0  0  0
 25 26  4  0  0  0  0
 26 27  4  0  0  0  0
 26 29  1  0  0  0  0
 27 28  4  0  0  0  0
 30 31  4  0  0  0  0
 31 32  4  0  0  0  0
M  END
>  <Name_Molregno>
486871

>  <5-HT1A>
7.6

>  <5-HT1B>
7.4

>  <5-HT1D>
8.9

$$$$
486872
  Marvin  02231216192D 0   1.00000     0.00000     0

 33 36  0  0  0  0  0  0  0  0999 V2000
    4.8852    0.3912    0.0000 O   0  0  0  0  0  0  0  0  0
    4.1708   -0.0213    0.0000 C   0  0  0  0  0  0  0  0  0
    4.1708   -0.8463    0.0000 C   0  0  0  0  0  0  0  0  0
    3.4563   -1.2588    0.0000 N   0  0  0  0  0  0  0  0  0
    3.4563   -2.0838    0.0000 C   0  0  0  0  0  0  0  0  0
    2.7418   -2.4963    0.0000 C   0  0  0  0  0  0  0  0  0
    2.0273   -2.0838    0.0000 C   0  0  0  0  0  0  0  0  0
    2.0273   -1.2588    0.0000 C   0  0  0  0  0  0  0  0  0
    2.7418   -0.8463    0.0000 C   0  0  0  0  0  0  0  0  0
    1.3129   -2.4962    0.0000 C   0  0  0  0  0  0  0  0  0
    0.5984   -2.0837    0.0000 C   0  0  0  0  0  0  0  0  0
   -0.1161   -2.4962    0.0000 C   0  0  0  0  0  0  0  0  0
   -0.8305   -2.0837    0.0000 C   0  0  0  0  0  0  0  0  0
   -1.5450   -2.4962    0.0000 N   0  0  0  0  0  0  0  0  0
   -2.2595   -2.0837    0.0000 C   0  0  0  0  0  0  0  0  0
   -2.9740   -2.4962    0.0000 O   0  0  0  0  0  0  0  0  0
   -2.2595   -1.2587    0.0000 C   0  0  0  0  0  0  0  0  0
   -1.5450   -3.3212    0.0000 C   0  0  0  0  0  0  0  0  0
   -2.2595   -3.7337    0.0000 C   0  0  0  0  0  0  0  0  0
   -0.8305   -1.2587    0.0000 C   0  0  0  0  0  0  0  0  0
   -0.1161   -0.8462    0.0000 C   0  0  0  0  0  0  0  0  0
    0.5984   -1.2587    0.0000 C   0  0  0  0  0  0  0  0  0
    4.8852    1.2162    0.0000 C   0  0  0  0  0  0  0  0  0
    5.5997    1.6287    0.0000 C   0  0  0  0  0  0  0  0  0
    5.5997    2.4537    0.0000 C   0  0  0  0  0  0  0  0  0
    6.3142    2.8662    0.0000 N   0  0  0  0  0  0  0  0  0
    7.0286    2.4537    0.0000 C   0  0  0  0  0  0  0  0  0
    7.0286    1.6287    0.0000 C   0  0  0  0  0  0  0  0  0
    6.3142    1.2162    0.0000 C   0  0  0  0  0  0  0  0  0
    7.7431    2.8662    0.0000 C   0  0  0  0  0  0  0  0  0
    4.8852    2.8662    0.0000 C   0  0  0  0  0  0  0  0  0
    4.1708    2.4537    0.0000 C   0  0  0  0  0  0  0  0  0
    4.1708    1.6287    0.0000 C   0  0  0  0  0  0  0  0  0
  1  2  1  0  0  0  0
  1 23  1  0  0  0  0
  2  3  1  0  0  0  0
  3  4  1  0  0  0  0
  4  5  1  0  0  0  0
  4  9  1  0  0  0  0
  5  6  1  0  0  0  0
  6  7  1  0  0  0  0
  7  8  1  0  0  0  0
  7 10  1  0  0  0  0
  8  9  1  0  0  0  0
 10 11  1  0  0  0  0
 11 12  4  0  0  0  0
 11 22  4  0  0  0  0
 12 13  4  0  0  0  0
 13 14  1  0  0  0  0
 13 20  4  0  0  0  0
 14 15  1  0  0  0  0
 14 18  1  0  0  0  0
 15 16  2  0  0  0  0
 15 17  1  0  0  0  0
 18 19  1  0  0  0  0
 20 21  4  0  0  0  0
 21 22  4  0  0  0  0
 23 24  4  0  0  0  0
 23 33  4  0  0  0  0
 24 25  4  0  0  0  0
 24 29  4  0  0  0  0
 25 26  4  0  0  0  0
 25 31  4  0  0  0  0
 26 27  4  0  0  0  0
 27 28  4  0  0  0  0
 27 30  1  0  0  0  0
 28 29  4  0  0  0  0
 31 32  4  0  0  0  0
 32 33  4  0  0  0  0
M  END
>  <Name_Molregno>
486872

>  <5-HT1A>
8.3

>  <5-HT1B>
7

>  <5-HT1D>
8.8

$$$$
486942
  Marvin  02231216192D 0   1.00000     0.00000     0

 33 37  0  0  0  0  0  0  0  0999 V2000
    4.9042    0.2041    0.0000 O   0  0  0  0  0  0  0  0  0
    4.1898   -0.2084    0.0000 C   0  0  0  0  0  0  0  0  0
    4.1898   -1.0334    0.0000 C   0  0  0  0  0  0  0  0  0
    3.4753   -1.4459    0.0000 N   0  0  0  0  0  0  0  0  0
    3.4753   -2.2709    0.0000 C   0  0  0  0  0  0  0  0  0
    2.7608   -2.6834    0.0000 C   0  0  0  0  0  0  0  0  0
    2.0464   -2.2709    0.0000 C   0  0  0  0  0  0  0  0  0
    2.0464   -1.4459    0.0000 C   0  0  0  0  0  0  0  0  0
    2.7608   -1.0334    0.0000 C   0  0  0  0  0  0  0  0  0
    1.3319   -2.6834    0.0000 C   0  0  0  0  0  0  0  0  0
    0.6174   -2.2709    0.0000 C   0  0  0  0  0  0  0  0  0
   -0.0971   -2.6834    0.0000 C   0  0  0  0  0  0  0  0  0
   -0.8115   -2.2709    0.0000 C   0  0  0  0  0  0  0  0  0
   -1.5260   -2.6834    0.0000 N   0  0  0  0  0  0  0  0  0
   -1.6122   -3.5038    0.0000 C   0  0  0  0  0  0  0  0  0
   -2.4192   -3.6754    0.0000 C   0  0  0  0  0  0  0  0  0
   -2.8317   -2.9609    0.0000 C   0  0  0  0  0  0  0  0  0
   -2.2797   -2.3478    0.0000 C   0  0  0  0  0  0  0  0  0
   -2.4512   -1.5408    0.0000 O   0  0  0  0  0  0  0  0  0
   -0.8115   -1.4459    0.0000 C   0  0  0  0  0  0  0  0  0
   -0.0971   -1.0334    0.0000 C   0  0  0  0  0  0  0  0  0
    0.6174   -1.4459    0.0000 C   0  0  0  0  0  0  0  0  0
    4.9042    1.0291    0.0000 C   0  0  0  0  0  0  0  0  0
    5.6187    1.4416    0.0000 C   0  0  0  0  0  0  0  0  0
    5.6187    2.2666    0.0000 C   0  0  0  0  0  0  0  0  0
    6.3332    2.6791    0.0000 N   0  0  0  0  0  0  0  0  0
    7.0477    2.2666    0.0000 C   0  0  0  0  0  0  0  0  0
    7.0477    1.4416    0.0000 C   0  0  0  0  0  0  0  0  0
    6.3332    1.0291    0.0000 C   0  0  0  0  0  0  0  0  0
    7.7621    2.6791    0.0000 C   0  0  0  0  0  0  0  0  0
    4.9042    2.6791    0.0000 C   0  0  0  0  0  0  0  0  0
    4.1898    2.2666    0.0000 C   0  0  0  0  0  0  0  0  0
    4.1898    1.4416    0.0000 C   0  0  0  0  0  0  0  0  0
  1  2  1  0  0  0  0
  1 23  1  0  0  0  0
  2  3  1  0  0  0  0
  3  4  1  0  0  0  0
  4  5  1  0  0  0  0
  4  9  1  0  0  0  0
  5  6  1  0  0  0  0
  6  7  1  0  0  0  0
  7  8  1  0  0  0  0
  7 10  1  0  0  0  0
  8  9  1  0  0  0  0
 10 11  1  0  0  0  0
 11 12  4  0  0  0  0
 11 22  4  0  0  0  0
 12 13  4  0  0  0  0
 13 14  1  0  0  0  0
 13 20  4  0  0  0  0
 14 15  1  0  0  0  0
 14 18  1  0  0  0  0
 15 16  1  0  0  0  0
 16 17  1  0  0  0  0
 17 18  1  0  0  0  0
 18 19  2  0  0  0  0
 20 21  4  0  0  0  0
 21 22  4  0  0  0  0
 23 24  4  0  0  0  0
 23 33  4  0  0  0  0
 24 25  4  0  0  0  0
 24 29  4  0  0  0  0
 25 26  4  0  0  0  0
 25 31  4  0  0  0  0
 26 27  4  0  0  0  0
 27 28  4  0  0  0  0
 27 30  1  0  0  0  0
 28 29  4  0  0  0  0
 31 32  4  0  0  0  0
 32 33  4  0  0  0  0
M  END
>  <Name_Molregno>
486942

>  <5-HT1A>
8.2

>  <5-HT1B>
7.7

>  <5-HT1D>
8.7

$$$$
486943
  Marvin  02231216192D 0   1.00000     0.00000     0

 34 37  0  0  0  0  0  0  0  0999 V2000
    5.4310    1.6450    0.0000 O   0  0  0  0  0  0  0  0  0
    4.7165    1.2325    0.0000 C   0  0  0  0  0  0  0  0  0
    4.7165    0.4075    0.0000 C   0  0  0  0  0  0  0  0  0
    4.0020   -0.0050    0.0000 N   0  0  0  0  0  0  0  0  0
    4.0020   -0.8300    0.0000 C   0  0  0  0  0  0  0  0  0
    3.2876   -1.2425    0.0000 C   0  0  0  0  0  0  0  0  0
    2.5731   -0.8300    0.0000 C   0  0  0  0  0  0  0  0  0
    2.5731   -0.0050    0.0000 C   0  0  0  0  0  0  0  0  0
    3.2876    0.4075    0.0000 C   0  0  0  0  0  0  0  0  0
    1.8586   -1.2425    0.0000 C   0  0  0  0  0  0  0  0  0
    1.1442   -0.8300    0.0000 C   0  0  0  0  0  0  0  0  0
    0.4297   -1.2425    0.0000 C   0  0  0  0  0  0  0  0  0
   -0.2848   -0.8300    0.0000 C   0  0  0  0  0  0  0  0  0
   -0.9993   -1.2425    0.0000 N   0  0  0  0  0  0  0  0  0
   -1.7137   -0.8300    0.0000 C   0  0  0  0  0  0  0  0  0
   -1.7137   -0.0050    0.0000 O   0  0  0  0  0  0  0  0  0
   -2.4282   -1.2425    0.0000 C   0  0  0  0  0  0  0  0  0
   -3.1427   -0.8300    0.0000 N   0  0  0  0  0  0  0  0  0
   -3.8571   -1.2425    0.0000 C   0  0  0  0  0  0  0  0  0
   -3.1427   -0.0050    0.0000 C   0  0  0  0  0  0  0  0  0
   -0.2848   -0.0050    0.0000 C   0  0  0  0  0  0  0  0  0
    0.4297    0.4075    0.0000 C   0  0  0  0  0  0  0  0  0
    1.1442   -0.0050    0.0000 C   0  0  0  0  0  0  0  0  0
    5.4310    2.4700    0.0000 C   0  0  0  0  0  0  0  0  0
    6.1455    2.8825    0.0000 C   0  0  0  0  0  0  0  0  0
    6.1455    3.7075    0.0000 C   0  0  0  0  0  0  0  0  0
    6.8599    4.1200    0.0000 N   0  0  0  0  0  0  0  0  0
    7.5744    3.7075    0.0000 C   0  0  0  0  0  0  0  0  0
    7.5744    2.8825    0.0000 C   0  0  0  0  0  0  0  0  0
    6.8599    2.4700    0.0000 C   0  0  0  0  0  0  0  0  0
    8.2889    4.1200    0.0000 C   0  0  0  0  0  0  0  0  0
    5.4310    4.1200    0.0000 C   0  0  0  0  0  0  0  0  0
    4.7165    3.7075    0.0000 C   0  0  0  0  0  0  0  0  0
    4.7165    2.8825    0.0000 C   0  0  0  0  0  0  0  0  0
  1  2  1  0  0  0  0
  1 24  1  0  0  0  0
  2  3  1  0  0  0  0
  3  4  1  0  0  0  0
  4  5  1  0  0  0  0
  4  9  1  0  0  0  0
  5  6  1  0  0  0  0
  6  7  1  0  0  0  0
  7  8  1  0  0  0  0
  7 10  1  0  0  0  0
  8  9  1  0  0  0  0
 10 11  1  0  0  0  0
 11 12  4  0  0  0  0
 11 23  4  0  0  0  0
 12 13  4  0  0  0  0
 13 14  1  0  0  0  0
 13 21  4  0  0  0  0
 14 15  1  0  0  0  0
 15 16  2  0  0  0  0
 15 17  1  0  0  0  0
 17 18  1  0  0  0  0
 18 19  1  0  0  0  0
 18 20  1  0  0  0  0
 21 22  4  0  0  0  0
 22 23  4  0  0  0  0
 24 25  4  0  0  0  0
 24 34  4  0  0  0  0
 25 26  4  0  0  0  0
 25 30  4  0  0  0  0
 26 27  4  0  0  0  0
 26 32  4  0  0  0  0
 27 28  4  0  0  0  0
 28 29  4  0  0  0  0
 28 31  1  0  0  0  0
 29 30  4  0  0  0  0
 32 33  4  0  0  0  0
 33 34  4  0  0  0  0
M  END
>  <Name_Molregno>
486943

>  <5-HT1A>
7.8

>  <5-HT1B>
8.2

>  <5-HT1D>
9

$$$$
486944
  Marvin  02231216192D 0   1.00000     0.00000     0

 33 36  0  0  0  0  0  0  0  0999 V2000
    5.0902    0.3714    0.0000 O   0  0  0  0  0  0  0  0  0
    4.3757   -0.0411    0.0000 C   0  0  0  0  0  0  0  0  0
    4.3757   -0.8661    0.0000 C   0  0  0  0  0  0  0  0  0
    3.6612   -1.2786    0.0000 N   0  0  0  0  0  0  0  0  0
    3.6612   -2.1036    0.0000 C   0  0  0  0  0  0  0  0  0
    2.9468   -2.5161    0.0000 C   0  0  0  0  0  0  0  0  0
    2.2323   -2.1036    0.0000 C   0  0  0  0  0  0  0  0  0
    2.2323   -1.2786    0.0000 C   0  0  0  0  0  0  0  0  0
    2.9468   -0.8661    0.0000 C   0  0  0  0  0  0  0  0  0
    1.5178   -2.5161    0.0000 C   0  0  0  0  0  0  0  0  0
    0.8034   -2.1036    0.0000 C   0  0  0  0  0  0  0  0  0
    0.0889   -2.5161    0.0000 C   0  0  0  0  0  0  0  0  0
   -0.6256   -2.1036    0.0000 C   0  0  0  0  0  0  0  0  0
   -1.3401   -2.5161    0.0000 N   0  0  0  0  0  0  0  0  0
   -2.0545   -2.1036    0.0000 C   0  0  0  0  0  0  0  0  0
   -2.0545   -1.2786    0.0000 O   0  0  0  0  0  0  0  0  0
   -2.7690   -2.5161    0.0000 N   0  0  0  0  0  0  0  0  0
   -3.4835   -2.1036    0.0000 C   0  0  0  0  0  0  0  0  0
   -4.1979   -2.5161    0.0000 C   0  0  0  0  0  0  0  0  0
   -0.6256   -1.2786    0.0000 C   0  0  0  0  0  0  0  0  0
    0.0889   -0.8661    0.0000 C   0  0  0  0  0  0  0  0  0
    0.8034   -1.2786    0.0000 C   0  0  0  0  0  0  0  0  0
    5.0902    1.1964    0.0000 C   0  0  0  0  0  0  0  0  0
    5.8047    1.6089    0.0000 C   0  0  0  0  0  0  0  0  0
    5.8047    2.4339    0.0000 C   0  0  0  0  0  0  0  0  0
    6.5191    2.8464    0.0000 N   0  0  0  0  0  0  0  0  0
    7.2336    2.4339    0.0000 C   0  0  0  0  0  0  0  0  0
    7.2336    1.6089    0.0000 C   0  0  0  0  0  0  0  0  0
    6.5191    1.1964    0.0000 C   0  0  0  0  0  0  0  0  0
    7.9481    2.8464    0.0000 C   0  0  0  0  0  0  0  0  0
    5.0902    2.8464    0.0000 C   0  0  0  0  0  0  0  0  0
    4.3757    2.4339    0.0000 C   0  0  0  0  0  0  0  0  0
    4.3757    1.6089    0.0000 C   0  0  0  0  0  0  0  0  0
  1  2  1  0  0  0  0
  1 23  1  0  0  0  0
  2  3  1  0  0  0  0
  3  4  1  0  0  0  0
  4  5  1  0  0  0  0
  4  9  1  0  0  0  0
  5  6  1  0  0  0  0
  6  7  1  0  0  0  0
  7  8  1  0  0  0  0
  7 10  1  0  0  0  0
  8  9  1  0  0  0  0
 10 11  1  0  0  0  0
 11 12  4  0  0  0  0
 11 22  4  0  0  0  0
 12 13  4  0  0  0  0
 13 14  1  0  0  0  0
 13 20  4  0  0  0  0
 14 15  1  0  0  0  0
 15 16  2  0  0  0  0
 15 17  1  0  0  0  0
 17 18  1  0  0  0  0
 18 19  1  0  0  0  0
 20 21  4  0  0  0  0
 21 22  4  0  0  0  0
 23 24  4  0  0  0  0
 23 33  4  0  0  0  0
 24 25  4  0  0  0  0
 24 29  4  0  0  0  0
 25 26  4  0  0  0  0
 25 31  4  0  0  0  0
 26 27  4  0  0  0  0
 27 28  4  0  0  0  0
 27 30  1  0  0  0  0
 28 29  4  0  0  0  0
 31 32  4  0  0  0  0
 32 33  4  0  0  0  0
M  END
>  <Name_Molregno>
486944

>  <5-HT1A>
7.5

>  <5-HT1B>
7.6

>  <5-HT1D>
9.6

$$$$
486945
  Marvin  02231216192D 0   1.00000     0.00000     0

 32 35  0  0  0  0  0  0  0  0999 V2000
    2.0504   -5.0180    0.0000 S   0  0  0  0  0  0  0  0  0
    2.0504   -5.8430    0.0000 O   0  0  0  0  0  0  0  0  0
    2.8754   -5.0180    0.0000 O   0  0  0  0  0  0  0  0  0
    2.0504   -4.1930    0.0000 N   0  0  0  0  0  0  0  0  0
    2.7649   -3.7805    0.0000 C   0  0  0  0  0  0  0  0  0
    2.7649   -2.9555    0.0000 C   0  0  0  0  0  0  0  0  0
    3.4793   -2.5430    0.0000 C   0  0  0  0  0  0  0  0  0
    4.1938   -2.9555    0.0000 C   0  0  0  0  0  0  0  0  0
    4.1938   -3.7805    0.0000 C   0  0  0  0  0  0  0  0  0
    3.4793   -4.1930    0.0000 C   0  0  0  0  0  0  0  0  0
    3.4793   -1.7180    0.0000 C   0  0  0  0  0  0  0  0  0
    4.1938   -1.3055    0.0000 C   0  0  0  0  0  0  0  0  0
    4.1938   -0.4805    0.0000 C   0  0  0  0  0  0  0  0  0
    4.9083   -0.0680    0.0000 C   0  0  0  0  0  0  0  0  0
    5.6228   -0.4805    0.0000 N   0  0  0  0  0  0  0  0  0
    5.6228   -1.3055    0.0000 C   0  0  0  0  0  0  0  0  0
    4.9083   -1.7180    0.0000 C   0  0  0  0  0  0  0  0  0
    6.3372   -0.0680    0.0000 C   0  0  0  0  0  0  0  0  0
    6.3372    0.7570    0.0000 C   0  0  0  0  0  0  0  0  0
    7.0517    1.1695    0.0000 O   0  0  0  0  0  0  0  0  0
    7.0517    1.9945    0.0000 C   0  0  0  0  0  0  0  0  0
    7.7662    2.4070    0.0000 C   0  0  0  0  0  0  0  0  0
    7.7662    3.2320    0.0000 C   0  0  0  0  0  0  0  0  0
    8.4806    3.6445    0.0000 N   0  0  0  0  0  0  0  0  0
    9.1951    3.2320    0.0000 C   0  0  0  0  0  0  0  0  0
    9.1951    2.4070    0.0000 C   0  0  0  0  0  0  0  0  0
    8.4806    1.9945    0.0000 C   0  0  0  0  0  0  0  0  0
    9.9096    3.6445    0.0000 C   0  0  0  0  0  0  0  0  0
    7.0517    3.6445    0.0000 C   0  0  0  0  0  0  0  0  0
    6.3372    3.2320    0.0000 C   0  0  0  0  0  0  0  0  0
    6.3372    2.4070    0.0000 C   0  0  0  0  0  0  0  0  0
    1.2254   -5.0180    0.0000 C   0  0  0  0  0  0  0  0  0
  1  2  2  0  0  0  0
  1  3  2  0  0  0  0
  1  4  1  0  0  0  0
  1 32  1  0  0  0  0
  4  5  1  0  0  0  0
  5  6  4  0  0  0  0
  5 10  4  0  0  0  0
  6  7  4  0  0  0  0
  7  8  4  0  0  0  0
  7 11  1  0  0  0  0
  8  9  4  0  0  0  0
  9 10  4  0  0  0  0
 11 12  1  0  0  0  0
 12 13  1  0  0  0  0
 12 17  1  0  0  0  0
 13 14  1  0  0  0  0
 14 15  1  0  0  0  0
 15 16  1  0  0  0  0
 15 18  1  0  0  0  0
 16 17  1  0  0  0  0
 18 19  1  0  0  0  0
 19 20  1  0  0  0  0
 20 21  1  0  0  0  0
 21 22  4  0  0  0  0
 21 31  4  0  0  0  0
 22 23  4  0  0  0  0
 22 27  4  0  0  0  0
 23 24  4  0  0  0  0
 23 29  4  0  0  0  0
 24 25  4  0  0  0  0
 25 26  4  0  0  0  0
 25 28  1  0  0  0  0
 26 27  4  0  0  0  0
 29 30  4  0  0  0  0
 30 31  4  0  0  0  0
M  END
>  <Name_Molregno>
486945

>  <5-HT1A>
8.6

>  <5-HT1B>
8.7

>  <5-HT1D>
9.3

>  <5-HT1E>
5.6

>  <5-HT2A>
5.6

>  <5-HT2C>
6

>  <5-HT5>
5.9

>  <5-HT6>
5

>  <5-HT7>
7.7

>  <Alpha-1B>
6.7

>  <Beta-2>
6.3

>  <DOPAMINE D2>
7.2

>  <Serotonin transporter>
5.8

$$$$
486993
  Marvin  02231216192D 0   1.00000     0.00000     0

 31 34  0  0  0  0  0  0  0  0999 V2000
   -4.0481   -0.6634    0.0000 S   0  0  0  0  0  0  0  0  0
   -4.4606    0.0511    0.0000 O   0  0  0  0  0  0  0  0  0
   -3.6356   -1.3779    0.0000 O   0  0  0  0  0  0  0  0  0
   -3.3336   -0.2509    0.0000 N   0  0  0  0  0  0  0  0  0
   -2.6191   -0.6634    0.0000 C   0  0  0  0  0  0  0  0  0
   -1.9047   -0.2509    0.0000 C   0  0  0  0  0  0  0  0  0
   -1.1902   -0.6634    0.0000 C   0  0  0  0  0  0  0  0  0
   -0.4757   -0.2509    0.0000 N   0  0  0  0  0  0  0  0  0
   -0.4757    0.5741    0.0000 C   0  0  0  0  0  0  0  0  0
    0.2388    0.9866    0.0000 C   0  0  0  0  0  0  0  0  0
    0.9532    0.5741    0.0000 N   0  0  0  0  0  0  0  0  0
    0.9532   -0.2509    0.0000 C   0  0  0  0  0  0  0  0  0
    0.2388   -0.6634    0.0000 C   0  0  0  0  0  0  0  0  0
    1.6677    0.9866    0.0000 C   0  0  0  0  0  0  0  0  0
    1.6677    1.8116    0.0000 C   0  0  0  0  0  0  0  0  0
    2.3822    2.2241    0.0000 C   0  0  0  0  0  0  0  0  0
    3.0966    1.8116    0.0000 C   0  0  0  0  0  0  0  0  0
    3.0966    0.9866    0.0000 C   0  0  0  0  0  0  0  0  0
    2.3822    0.5741    0.0000 C   0  0  0  0  0  0  0  0  0
    2.3822   -0.2509    0.0000 O   0  0  0  0  0  0  0  0  0
    3.0966   -0.6634    0.0000 C   0  0  0  0  0  0  0  0  0
   -4.7625   -1.0759    0.0000 C   0  0  0  0  0  0  0  0  0
   -5.4770   -0.6634    0.0000 C   0  0  0  0  0  0  0  0  0
   -6.1915   -1.0759    0.0000 C   0  0  0  0  0  0  0  0  0
   -6.1915   -1.9009    0.0000 C   0  0  0  0  0  0  0  0  0
   -5.4770   -2.3134    0.0000 C   0  0  0  0  0  0  0  0  0
   -4.7625   -1.9009    0.0000 C   0  0  0  0  0  0  0  0  0
   -6.9060   -2.3134    0.0000 C   0  0  0  0  0  0  0  0  0
   -7.6204   -1.9009    0.0000 C   0  0  0  0  0  0  0  0  0
   -7.6204   -1.0759    0.0000 C   0  0  0  0  0  0  0  0  0
   -6.9060   -0.6634    0.0000 C   0  0  0  0  0  0  0  0  0
  1  2  2  0  0  0  0
  1  3  2  0  0  0  0
  1  4  1  0  0  0  0
  1 22  1  0  0  0  0
  4  5  1  0  0  0  0
  5  6  1  0  0  0  0
  6  7  1  0  0  0  0
  7  8  1  0  0  0  0
  8  9  1  0  0  0  0
  8 13  1  0  0  0  0
  9 10  1  0  0  0  0
 10 11  1  0  0  0  0
 11 12  1  0  0  0  0
 11 14  1  0  0  0  0
 12 13  1  0  0  0  0
 14 15  4  0  0  0  0
 14 19  4  0  0  0  0
 15 16  4  0  0  0  0
 16 17  4  0  0  0  0
 17 18  4  0  0  0  0
 18 19  4  0  0  0  0
 19 20  1  0  0  0  0
 20 21  1  0  0  0  0
 22 23  4  0  0  0  0
 22 27  4  0  0  0  0
 23 24  4  0  0  0  0
 24 25  4  0  0  0  0
 24 31  4  0  0  0  0
 25 26  4  0  0  0  0
 25 28  4  0  0  0  0
 26 27  4  0  0  0  0
 28 29  4  0  0  0  0
 29 30  4  0  0  0  0
 30 31  4  0  0  0  0
M  END
>  <Name_Molregno>
486993

>  <5-HT1A>
6.95

>  <5-HT7>
7.7

>  <Alpha-2A>
8.33

>  <DOPAMINE D2>
6.88

$$$$
489873
  Marvin  02231216192D 0   1.00000     0.00000     0

 25 27  0  0  0  0  0  0  0  0999 V2000
    0.2794    2.6940    0.0000 Cl  0  0  0  0  0  0  0  0  0
    0.9939    2.2815    0.0000 C   0  0  0  0  0  0  0  0  0
    1.7084    2.6940    0.0000 C   0  0  0  0  0  0  0  0  0
    2.4228    2.2815    0.0000 C   0  0  0  0  0  0  0  0  0
    2.4228    1.4565    0.0000 C   0  0  0  0  0  0  0  0  0
    3.1373    1.0440    0.0000 N   0  0  0  0  0  0  0  0  0
    3.8518    1.4565    0.0000 C   0  0  0  0  0  0  0  0  0
    4.5663    1.0440    0.0000 C   0  0  0  0  0  0  0  0  0
    4.5663    0.2190    0.0000 N   0  0  0  0  0  0  0  0  0
    3.8518   -0.1935    0.0000 C   0  0  0  0  0  0  0  0  0
    3.1373    0.2190    0.0000 C   0  0  0  0  0  0  0  0  0
    5.2807   -0.1935    0.0000 C   0  0  0  0  0  0  0  0  0
    5.9952    0.2190    0.0000 C   0  0  0  0  0  0  0  0  0
    6.7097   -0.1935    0.0000 C   0  0  0  0  0  0  0  0  0
    7.4241    0.2190    0.0000 C   0  0  0  0  0  0  0  0  0
    7.4241    1.0440    0.0000 O   0  0  0  0  0  0  0  0  0
    8.1386   -0.1935    0.0000 C   0  0  0  0  0  0  0  0  0
    8.8531    0.2190    0.0000 C   0  0  0  0  0  0  0  0  0
    9.5676   -0.1935    0.0000 C   0  0  0  0  0  0  0  0  0
    9.5676   -1.0185    0.0000 C   0  0  0  0  0  0  0  0  0
   10.2820   -1.4310    0.0000 F   0  0  0  0  0  0  0  0  0
    8.8531   -1.4310    0.0000 C   0  0  0  0  0  0  0  0  0
    8.1386   -1.0185    0.0000 C   0  0  0  0  0  0  0  0  0
    1.7084    1.0440    0.0000 C   0  0  0  0  0  0  0  0  0
    0.9939    1.4565    0.0000 C   0  0  0  0  0  0  0  0  0
  1  2  1  0  0  0  0
  2  3  4  0  0  0  0
  2 25  4  0  0  0  0
  3  4  4  0  0  0  0
  4  5  4  0  0  0  0
  5  6  1  0  0  0  0
  5 24  4  0  0  0  0
  6  7  1  0  0  0  0
  6 11  1  0  0  0  0
  7  8  1  0  0  0  0
  8  9  1  0  0  0  0
  9 10  1  0  0  0  0
  9 12  1  0  0  0  0
 10 11  1  0  0  0  0
 12 13  1  0  0  0  0
 13 14  1  0  0  0  0
 14 15  1  0  0  0  0
 15 16  2  0  0  0  0
 15 17  1  0  0  0  0
 17 18  4  0  0  0  0
 17 23  4  0  0  0  0
 18 19  4  0  0  0  0
 19 20  4  0  0  0  0
 20 21  1  0  0  0  0
 20 22  4  0  0  0  0
 22 23  4  0  0  0  0
 24 25  4  0  0  0  0
M  END
>  <Name_Molregno>
489873

>  <5-HT1A>
7.04

>  <5-HT2A>
6.96

>  <5-HT2C>
5.45

>  <DOPAMINE D2>
6.6

>  <DOPAMINE D4>
7.77

>  <HISTAMINE H1>
6.8

$$$$
489941
  Marvin  02231216192D 0   1.00000     0.00000     0

 27 30  0  0  1  0  0  0  0  0999 V2000
    1.9851    3.9912    0.0000 F   0  0  0  0  0  0  0  0  0
    2.4077    3.2826    0.0000 C   0  0  0  0  0  0  0  0  0
    3.2326    3.2943    0.0000 C   0  0  0  0  0  0  0  0  0
    3.6552    2.5858    0.0000 C   0  0  0  0  0  0  0  0  0
    3.2529    1.8656    0.0000 C   0  0  0  0  0  0  0  0  0
    2.4280    1.8538    0.0000 C   0  0  0  0  0  0  0  0  0
    2.0054    2.5624    0.0000 C   0  0  0  0  0  0  0  0  0
    3.6755    1.1570    0.0000 C   0  0  0  0  0  0  0  0  0
    3.2732    0.4368    0.0000 O   0  0  0  0  0  0  0  0  0
    4.5004    1.1687    0.0000 C   0  0  0  0  0  0  0  0  0
    4.9230    0.4602    0.0000 C   0  0  0  0  0  0  0  0  0
    5.7480    0.4719    0.0000 C   0  0  0  0  0  0  0  0  0
    6.1706   -0.2366    0.0000 N   0  0  0  0  0  0  0  0  0
    6.7312   -0.6765    0.0000 C   0  0  0  0  0  0  0  0  0
    7.6600   -0.6610    0.0000 C   0  0  0  0  0  0  0  0  0
    7.7982   -1.4784    0.0000 C   0  0  0  0  0  0  0  0  0
    8.6173   -1.5767    0.0000 O   0  0  0  0  0  0  0  0  0
    7.2820   -1.0497    0.0000 C   0  0  0  0  0  0  0  0  0
    6.3103   -1.0497    0.0000 C   0  0  0  0  0  0  0  0  0
    5.7904   -1.7620    0.0000 C   0  0  0  0  0  0  0  0  0
    6.4107   -1.3851    0.0000 C   0  0  0  0  0  0  0  0  0
    7.4722   -2.2363    0.0000 C   0  0  0  0  0  0  0  0  0
    7.9655   -2.8975    0.0000 C   0  0  0  0  0  0  0  0  0
    7.6395   -3.6554    0.0000 C   0  0  0  0  0  0  0  0  0
    6.8202   -3.7520    0.0000 C   0  0  0  0  0  0  0  0  0
    6.3269   -3.0908    0.0000 C   0  0  0  0  0  0  0  0  0
    6.6529   -2.3329    0.0000 C   0  0  0  0  0  0  0  0  0
  1  2  1  0  0  0  0
  2  3  4  0  0  0  0
  2  7  4  0  0  0  0
  3  4  4  0  0  0  0
  4  5  4  0  0  0  0
  5  6  4  0  0  0  0
  5  8  1  0  0  0  0
  6  7  4  0  0  0  0
  8  9  2  0  0  0  0
  8 10  1  0  0  0  0
 10 11  1  0  0  0  0
 11 12  1  0  0  0  0
 12 13  1  0  0  0  0
 13 14  1  0  0  0  0
 13 19  1  0  0  0  0
 14 15  1  0  0  0  0
 14 21  1  0  0  0  0
 15 16  1  0  0  0  0
 16 17  1  0  0  0  0
 16 18  1  0  0  0  0
 16 22  1  0  0  0  0
 18 19  1  0  0  0  0
 19 20  1  0  0  0  0
 20 21  1  0  0  0  0
 22 23  4  0  0  0  0
 22 27  4  0  0  0  0
 23 24  4  0  0  0  0
 24 25  4  0  0  0  0
 25 26  4  0  0  0  0
 26 27  4  0  0  0  0
M  END
>  <Name_Molregno>
489941

>  <5-HT1A>
7.42

>  <5-HT2A>
7.91

>  <5-HT2C>
5

>  <DOPAMINE D2>
8.64

>  <DOPAMINE D4>
7.72

>  <HISTAMINE H1>
6.2

$$$$
490001
  Marvin  02231216192D 0   1.00000     0.00000     0

 26 28  0  0  0  0  0  0  0  0999 V2000
   -0.1047    1.0755    0.0000 Cl  0  0  0  0  0  0  0  0  0
    0.7180    1.0139    0.0000 C   0  0  0  0  0  0  0  0  0
    1.1827    1.6955    0.0000 C   0  0  0  0  0  0  0  0  0
    2.0054    1.6339    0.0000 C   0  0  0  0  0  0  0  0  0
    2.3634    0.8906    0.0000 C   0  0  0  0  0  0  0  0  0
    3.1860    0.8289    0.0000 N   0  0  0  0  0  0  0  0  0
    3.5985    1.5434    0.0000 C   0  0  0  0  0  0  0  0  0
    4.4143    1.6663    0.0000 C   0  0  0  0  0  0  0  0  0
    5.0191    1.1052    0.0000 C   0  0  0  0  0  0  0  0  0
    4.9574    0.2825    0.0000 N   0  0  0  0  0  0  0  0  0
    4.2758   -0.1822    0.0000 C   0  0  0  0  0  0  0  0  0
    3.4875    0.0609    0.0000 C   0  0  0  0  0  0  0  0  0
    5.6719   -0.1300    0.0000 C   0  0  0  0  0  0  0  0  0
    6.3864    0.2825    0.0000 C   0  0  0  0  0  0  0  0  0
    7.1009   -0.1300    0.0000 C   0  0  0  0  0  0  0  0  0
    7.8153    0.2825    0.0000 C   0  0  0  0  0  0  0  0  0
    7.8153    1.1075    0.0000 O   0  0  0  0  0  0  0  0  0
    8.5298   -0.1300    0.0000 C   0  0  0  0  0  0  0  0  0
    9.2443    0.2825    0.0000 C   0  0  0  0  0  0  0  0  0
    9.9587   -0.1300    0.0000 C   0  0  0  0  0  0  0  0  0
    9.9587   -0.9550    0.0000 C   0  0  0  0  0  0  0  0  0
   10.6732   -1.3675    0.0000 F   0  0  0  0  0  0  0  0  0
    9.2443   -1.3675    0.0000 C   0  0  0  0  0  0  0  0  0
    8.5298   -0.9550    0.0000 C   0  0  0  0  0  0  0  0  0
    1.8986    0.2089    0.0000 C   0  0  0  0  0  0  0  0  0
    1.0759    0.2706    0.0000 C   0  0  0  0  0  0  0  0  0
  1  2  1  0  0  0  0
  2  3  4  0  0  0  0
  2 26  4  0  0  0  0
  3  4  4  0  0  0  0
  4  5  4  0  0  0  0
  5  6  1  0  0  0  0
  5 25  4  0  0  0  0
  6  7  1  0  0  0  0
  6 12  1  0  0  0  0
  7  8  1  0  0  0  0
  8  9  1  0  0  0  0
  9 10  1  0  0  0  0
 10 11  1  0  0  0  0
 10 13  1  0  0  0  0
 11 12  1  0  0  0  0
 13 14  1  0  0  0  0
 14 15  1  0  0  0  0
 15 16  1  0  0  0  0
 16 17  2  0  0  0  0
 16 18  1  0  0  0  0
 18 19  4  0  0  0  0
 18 24  4  0  0  0  0
 19 20  4  0  0  0  0
 20 21  4  0  0  0  0
 21 22  1  0  0  0  0
 21 23  4  0  0  0  0
 23 24  4  0  0  0  0
 25 26  4  0  0  0  0
M  END
>  <Name_Molregno>
490001

>  <5-HT1A>
6.93

>  <5-HT2A>
7.63

>  <5-HT2C>
5.85

>  <5-HT6>
6.53

>  <DOPAMINE D1>
6.79

>  <DOPAMINE D2>
7.36

>  <DOPAMINE D3>
6.8

>  <DOPAMINE D4>
8.18

>  <Dopamine transporter>
5.94

>  <HISTAMINE H1>
6.72

>  <Muscarinic acetylcholine receptor M1>
6.06

>  <Serotonin transporter>
7.25

$$$$
490002
  Marvin  02231216192D 0   1.00000     0.00000     0

 28 31  0  0  1  0  0  0  0  0999 V2000
    2.5267   -4.2916    0.0000 Cl  0  0  0  0  0  0  0  0  0
    3.0577   -3.6602    0.0000 C   0  0  0  0  0  0  0  0  0
    2.7764   -2.8847    0.0000 C   0  0  0  0  0  0  0  0  0
    3.3075   -2.2533    0.0000 C   0  0  0  0  0  0  0  0  0
    4.1198   -2.3975    0.0000 C   0  0  0  0  0  0  0  0  0
    4.6508   -1.7661    0.0000 N   0  0  0  0  0  0  0  0  0
    5.4718   -1.9734    0.0000 C   0  0  0  0  0  0  0  0  0
    6.0885   -1.7178    0.0000 C   0  0  0  0  0  0  0  0  0
    6.0885   -0.4604    0.0000 N   0  0  0  0  0  0  0  0  0
    5.8763   -1.2409    0.0000 C   0  0  0  0  0  0  0  0  0
    6.7076   -1.6094    0.0000 C   0  0  0  0  0  0  0  0  0
    6.9098   -2.1415    0.0000 C   0  0  0  0  0  0  0  0  0
    5.0599   -1.0379    0.0000 C   0  0  0  0  0  0  0  0  0
    4.4405   -1.2946    0.0000 C   0  0  0  0  0  0  0  0  0
    6.1977    0.3573    0.0000 C   0  0  0  0  0  0  0  0  0
    5.5441    0.8607    0.0000 C   0  0  0  0  0  0  0  0  0
    5.6533    1.6785    0.0000 C   0  0  0  0  0  0  0  0  0
    4.9997    2.1819    0.0000 C   0  0  0  0  0  0  0  0  0
    4.2369    1.8676    0.0000 O   0  0  0  0  0  0  0  0  0
    5.1089    2.9996    0.0000 C   0  0  0  0  0  0  0  0  0
    4.4553    3.5031    0.0000 C   0  0  0  0  0  0  0  0  0
    4.5644    4.3208    0.0000 C   0  0  0  0  0  0  0  0  0
    5.3272    4.6351    0.0000 C   0  0  0  0  0  0  0  0  0
    5.4364    5.4529    0.0000 F   0  0  0  0  0  0  0  0  0
    5.9808    4.1317    0.0000 C   0  0  0  0  0  0  0  0  0
    5.8716    3.3140    0.0000 C   0  0  0  0  0  0  0  0  0
    4.4010   -3.1731    0.0000 C   0  0  0  0  0  0  0  0  0
    3.8700   -3.8044    0.0000 C   0  0  0  0  0  0  0  0  0
  1  2  1  0  0  0  0
  2  3  4  0  0  0  0
  2 28  4  0  0  0  0
  3  4  4  0  0  0  0
  4  5  4  0  0  0  0
  5  6  1  0  0  0  0
  5 27  4  0  0  0  0
  6  7  1  0  0  0  0
  6 14  1  0  0  0  0
  7  8  1  0  0  0  0
  8  9  1  0  0  0  0
  8 12  1  0  0  0  0
  9 10  1  0  0  0  0
  9 15  1  0  0  0  0
 10 11  1  0  0  0  0
 10 13  1  0  0  0  0
 11 12  1  0  0  0  0
 13 14  1  0  0  0  0
 15 16  1  0  0  0  0
 16 17  1  0  0  0  0
 17 18  1  0  0  0  0
 18 19  2  0  0  0  0
 18 20  1  0  0  0  0
 20 21  4  0  0  0  0
 20 26  4  0  0  0  0
 21 22  4  0  0  0  0
 22 23  4  0  0  0  0
 23 24  1  0  0  0  0
 23 25  4  0  0  0  0
 25 26  4  0  0  0  0
 27 28  4  0  0  0  0
M  END
>  <Name_Molregno>
490002

>  <5-HT1A>
5.63

>  <5-HT2A>
6.71

>  <5-HT2C>
5.45

>  <DOPAMINE D2>
6.75

>  <DOPAMINE D3>
6.26

>  <DOPAMINE D4>
7.38

>  <HISTAMINE H1>
5.99

$$$$
492943
  Marvin  02231216192D 0   1.00000     0.00000     0

 31 35  0  0  0  0  0  0  0  0999 V2000
   -4.3867    1.0093    0.0000 F   0  0  0  0  0  0  0  0  0
   -3.6723    0.5968    0.0000 C   0  0  0  0  0  0  0  0  0
   -3.6723   -0.2282    0.0000 C   0  0  0  0  0  0  0  0  0
   -2.9578   -0.6407    0.0000 C   0  0  0  0  0  0  0  0  0
   -2.9578   -1.4657    0.0000 N   0  0  0  0  0  0  0  0  0
   -2.2433   -1.8782    0.0000 C   0  0  0  0  0  0  0  0  0
   -2.2433   -2.7032    0.0000 C   0  0  0  0  0  0  0  0  0
   -2.9578   -3.1157    0.0000 N   0  0  0  0  0  0  0  0  0
   -3.6723   -2.7032    0.0000 C   0  0  0  0  0  0  0  0  0
   -3.6723   -1.8782    0.0000 C   0  0  0  0  0  0  0  0  0
   -2.9578   -3.9407    0.0000 C   0  0  0  0  0  0  0  0  0
   -3.6723   -4.3532    0.0000 C   0  0  0  0  0  0  0  0  0
   -3.6723   -5.1782    0.0000 C   0  0  0  0  0  0  0  0  0
   -2.9578   -5.5907    0.0000 C   0  0  0  0  0  0  0  0  0
   -2.9578   -6.4157    0.0000 C   0  0  0  0  0  0  0  0  0
   -2.2433   -6.8282    0.0000 N   0  0  0  0  0  0  0  0  0
   -2.2433   -7.6532    0.0000 C   0  0  0  0  0  0  0  0  0
   -1.5288   -8.0657    0.0000 O   0  0  0  0  0  0  0  0  0
   -2.9578   -8.0657    0.0000 C   0  0  0  0  0  0  0  0  0
   -3.6723   -7.6532    0.0000 O   0  0  0  0  0  0  0  0  0
   -3.6723   -6.8282    0.0000 C   0  0  0  0  0  0  0  0  0
   -4.3867   -6.4157    0.0000 C   0  0  0  0  0  0  0  0  0
   -4.3867   -5.5907    0.0000 C   0  0  0  0  0  0  0  0  0
   -2.2433   -0.2282    0.0000 C   0  0  0  0  0  0  0  0  0
   -2.2433    0.5968    0.0000 C   0  0  0  0  0  0  0  0  0
   -1.5288    1.0093    0.0000 N   0  0  0  0  0  0  0  0  0
   -0.8144    0.5968    0.0000 C   0  0  0  0  0  0  0  0  0
   -0.8144   -0.2282    0.0000 C   0  0  0  0  0  0  0  0  0
   -1.5288   -0.6407    0.0000 C   0  0  0  0  0  0  0  0  0
   -0.0999    1.0093    0.0000 C   0  0  0  0  0  0  0  0  0
   -2.9578    1.0093    0.0000 C   0  0  0  0  0  0  0  0  0
  1  2  1  0  0  0  0
  2  3  4  0  0  0  0
  2 31  4  0  0  0  0
  3  4  4  0  0  0  0
  4  5  1  0  0  0  0
  4 24  4  0  0  0  0
  5  6  1  0  0  0  0
  5 10  1  0  0  0  0
  6  7  1  0  0  0  0
  7  8  1  0  0  0  0
  8  9  1  0  0  0  0
  8 11  1  0  0  0  0
  9 10  1  0  0  0  0
 11 12  1  0  0  0  0
 12 13  1  0  0  0  0
 13 14  4  0  0  0  0
 13 23  4  0  0  0  0
 14 15  4  0  0  0  0
 15 16  1  0  0  0  0
 15 21  4  0  0  0  0
 16 17  1  0  0  0  0
 17 18  2  0  0  0  0
 17 19  1  0  0  0  0
 19 20  1  0  0  0  0
 20 21  1  0  0  0  0
 21 22  4  0  0  0  0
 22 23  4  0  0  0  0
 24 25  4  0  0  0  0
 24 29  4  0  0  0  0
 25 26  4  0  0  0  0
 25 31  4  0  0  0  0
 26 27  4  0  0  0  0
 27 28  4  0  0  0  0
 27 30  1  0  0  0  0
 28 29  4  0  0  0  0
M  END
>  <Name_Molregno>
492943

>  <5-HT1A>
8.6

>  <5-HT1B>
8.6

>  <5-HT1D>
9.7

>  <Serotonin transporter>
9.1

$$$$
492944
  Marvin  02231216192D 0   1.00000     0.00000     0

 31 35  0  0  0  0  0  0  0  0999 V2000
   -4.3867    1.0093    0.0000 Cl  0  0  0  0  0  0  0  0  0
   -3.6723    0.5968    0.0000 C   0  0  0  0  0  0  0  0  0
   -3.6723   -0.2282    0.0000 C   0  0  0  0  0  0  0  0  0
   -2.9578   -0.6407    0.0000 C   0  0  0  0  0  0  0  0  0
   -2.9578   -1.4657    0.0000 N   0  0  0  0  0  0  0  0  0
   -2.2433   -1.8782    0.0000 C   0  0  0  0  0  0  0  0  0
   -2.2433   -2.7032    0.0000 C   0  0  0  0  0  0  0  0  0
   -2.9578   -3.1157    0.0000 N   0  0  0  0  0  0  0  0  0
   -3.6723   -2.7032    0.0000 C   0  0  0  0  0  0  0  0  0
   -3.6723   -1.8782    0.0000 C   0  0  0  0  0  0  0  0  0
   -2.9578   -3.9407    0.0000 C   0  0  0  0  0  0  0  0  0
   -3.6723   -4.3532    0.0000 C   0  0  0  0  0  0  0  0  0
   -3.6723   -5.1782    0.0000 C   0  0  0  0  0  0  0  0  0
   -2.9578   -5.5907    0.0000 C   0  0  0  0  0  0  0  0  0
   -2.9578   -6.4157    0.0000 C   0  0  0  0  0  0  0  0  0
   -2.2433   -6.8282    0.0000 N   0  0  0  0  0  0  0  0  0
   -2.2433   -7.6532    0.0000 C   0  0  0  0  0  0  0  0  0
   -1.5288   -8.0657    0.0000 O   0  0  0  0  0  0  0  0  0
   -2.9578   -8.0657    0.0000 C   0  0  0  0  0  0  0  0  0
   -3.6723   -7.6532    0.0000 O   0  0  0  0  0  0  0  0  0
   -3.6723   -6.8282    0.0000 C   0  0  0  0  0  0  0  0  0
   -4.3867   -6.4157    0.0000 C   0  0  0  0  0  0  0  0  0
   -4.3867   -5.5907    0.0000 C   0  0  0  0  0  0  0  0  0
   -2.2433   -0.2282    0.0000 C   0  0  0  0  0  0  0  0  0
   -2.2433    0.5968    0.0000 C   0  0  0  0  0  0  0  0  0
   -1.5288    1.0093    0.0000 N   0  0  0  0  0  0  0  0  0
   -0.8144    0.5968    0.0000 C   0  0  0  0  0  0  0  0  0
   -0.8144   -0.2282    0.0000 C   0  0  0  0  0  0  0  0  0
   -1.5288   -0.6407    0.0000 C   0  0  0  0  0  0  0  0  0
   -0.0999    1.0093    0.0000 C   0  0  0  0  0  0  0  0  0
   -2.9578    1.0093    0.0000 C   0  0  0  0  0  0  0  0  0
  1  2  1  0  0  0  0
  2  3  4  0  0  0  0
  2 31  4  0  0  0  0
  3  4  4  0  0  0  0
  4  5  1  0  0  0  0
  4 24  4  0  0  0  0
  5  6  1  0  0  0  0
  5 10  1  0  0  0  0
  6  7  1  0  0  0  0
  7  8  1  0  0  0  0
  8  9  1  0  0  0  0
  8 11  1  0  0  0  0
  9 10  1  0  0  0  0
 11 12  1  0  0  0  0
 12 13  1  0  0  0  0
 13 14  4  0  0  0  0
 13 23  4  0  0  0  0
 14 15  4  0  0  0  0
 15 16  1  0  0  0  0
 15 21  4  0  0  0  0
 16 17  1  0  0  0  0
 17 18  2  0  0  0  0
 17 19  1  0  0  0  0
 19 20  1  0  0  0  0
 20 21  1  0  0  0  0
 21 22  4  0  0  0  0
 22 23  4  0  0  0  0
 24 25  4  0  0  0  0
 24 29  4  0  0  0  0
 25 26  4  0  0  0  0
 25 31  4  0  0  0  0
 26 27  4  0  0  0  0
 27 28  4  0  0  0  0
 27 30  1  0  0  0  0
 28 29  4  0  0  0  0
M  END
>  <Name_Molregno>
492944

>  <5-HT1A>
9.5

>  <5-HT1B>
9.3

>  <5-HT1D>
9.8

>  <Serotonin transporter>
9.1

$$$$
492945
  Marvin  02231216192D 0   1.00000     0.00000     0

 31 35  0  0  0  0  0  0  0  0999 V2000
   -4.2014   -4.1357    0.0000 O   0  0  0  0  0  0  0  0  0
   -4.9159   -4.5482    0.0000 C   0  0  0  0  0  0  0  0  0
   -5.6304   -4.1357    0.0000 C   0  0  0  0  0  0  0  0  0
   -6.3448   -4.5482    0.0000 O   0  0  0  0  0  0  0  0  0
   -5.6304   -3.3107    0.0000 N   0  0  0  0  0  0  0  0  0
   -4.9159   -2.8982    0.0000 C   0  0  0  0  0  0  0  0  0
   -4.9159   -2.0732    0.0000 C   0  0  0  0  0  0  0  0  0
   -4.2014   -1.6607    0.0000 C   0  0  0  0  0  0  0  0  0
   -3.4870   -2.0732    0.0000 C   0  0  0  0  0  0  0  0  0
   -3.4870   -2.8982    0.0000 C   0  0  0  0  0  0  0  0  0
   -4.2014   -3.3107    0.0000 C   0  0  0  0  0  0  0  0  0
   -4.2014   -0.8357    0.0000 C   0  0  0  0  0  0  0  0  0
   -4.9159   -0.4232    0.0000 C   0  0  0  0  0  0  0  0  0
   -4.9159    0.4018    0.0000 N   0  0  0  0  0  0  0  0  0
   -5.6304    0.8143    0.0000 C   0  0  0  0  0  0  0  0  0
   -5.6304    1.6393    0.0000 C   0  0  0  0  0  0  0  0  0
   -4.9159    2.0518    0.0000 N   0  0  0  0  0  0  0  0  0
   -4.2014    1.6393    0.0000 C   0  0  0  0  0  0  0  0  0
   -4.2014    0.8143    0.0000 C   0  0  0  0  0  0  0  0  0
   -4.9159    2.8768    0.0000 C   0  0  0  0  0  0  0  0  0
   -5.6304    3.2893    0.0000 C   0  0  0  0  0  0  0  0  0
   -5.6304    4.1143    0.0000 C   0  0  0  0  0  0  0  0  0
   -4.9159    4.5268    0.0000 C   0  0  0  0  0  0  0  0  0
   -4.2014    4.1143    0.0000 C   0  0  0  0  0  0  0  0  0
   -3.4870    4.5268    0.0000 N   0  0  0  0  0  0  0  0  0
   -2.7725    4.1143    0.0000 C   0  0  0  0  0  0  0  0  0
   -2.7725    3.2893    0.0000 C   0  0  0  0  0  0  0  0  0
   -3.4870    2.8768    0.0000 C   0  0  0  0  0  0  0  0  0
   -4.2014    3.2893    0.0000 C   0  0  0  0  0  0  0  0  0
   -2.0580    4.5268    0.0000 C   0  0  0  0  0  0  0  0  0
   -6.3448    4.5268    0.0000 C   0  0  0  0  0  0  0  0  0
  1  2  1  0  0  0  0
  1 11  1  0  0  0  0
  2  3  1  0  0  0  0
  3  4  2  0  0  0  0
  3  5  1  0  0  0  0
  5  6  1  0  0  0  0
  6  7  4  0  0  0  0
  6 11  4  0  0  0  0
  7  8  4  0  0  0  0
  8  9  4  0  0  0  0
  8 12  1  0  0  0  0
  9 10  4  0  0  0  0
 10 11  4  0  0  0  0
 12 13  1  0  0  0  0
 13 14  1  0  0  0  0
 14 15  1  0  0  0  0
 14 19  1  0  0  0  0
 15 16  1  0  0  0  0
 16 17  1  0  0  0  0
 17 18  1  0  0  0  0
 17 20  1  0  0  0  0
 18 19  1  0  0  0  0
 20 21  4  0  0  0  0
 20 29  4  0  0  0  0
 21 22  4  0  0  0  0
 22 23  4  0  0  0  0
 22 31  1  0  0  0  0
 23 24  4  0  0  0  0
 24 25  4  0  0  0  0
 24 29  4  0  0  0  0
 25 26  4  0  0  0  0
 26 27  4  0  0  0  0
 26 30  1  0  0  0  0
 27 28  4  0  0  0  0
 28 29  4  0  0  0  0
M  END
>  <Name_Molregno>
492945

>  <5-HT1A>
9.9

>  <5-HT1B>
9.2

>  <5-HT1D>
9.4

>  <Serotonin transporter>
7.8

$$$$
492946
  Marvin  02231216192D 0   1.00000     0.00000     0

 35 40  0  0  0  0  0  0  0  0999 V2000
   -5.2541   -4.1412    0.0000 O   0  0  0  0  0  0  0  0  0
   -5.9686   -4.5537    0.0000 C   0  0  0  0  0  0  0  0  0
   -6.6830   -4.1412    0.0000 C   0  0  0  0  0  0  0  0  0
   -7.3975   -4.5537    0.0000 O   0  0  0  0  0  0  0  0  0
   -6.6830   -3.3162    0.0000 N   0  0  0  0  0  0  0  0  0
   -5.9686   -2.9037    0.0000 C   0  0  0  0  0  0  0  0  0
   -5.9686   -2.0787    0.0000 C   0  0  0  0  0  0  0  0  0
   -5.2541   -1.6662    0.0000 C   0  0  0  0  0  0  0  0  0
   -4.5396   -2.0787    0.0000 C   0  0  0  0  0  0  0  0  0
   -4.5396   -2.9037    0.0000 C   0  0  0  0  0  0  0  0  0
   -5.2541   -3.3162    0.0000 C   0  0  0  0  0  0  0  0  0
   -5.2541   -0.8412    0.0000 C   0  0  0  0  0  0  0  0  0
   -5.9686   -0.4287    0.0000 C   0  0  0  0  0  0  0  0  0
   -5.9686    0.3963    0.0000 N   0  0  0  0  0  0  0  0  0
   -6.6830    0.8088    0.0000 C   0  0  0  0  0  0  0  0  0
   -6.6830    1.6338    0.0000 C   0  0  0  0  0  0  0  0  0
   -5.9686    2.0463    0.0000 N   0  0  0  0  0  0  0  0  0
   -5.2541    1.6338    0.0000 C   0  0  0  0  0  0  0  0  0
   -5.2541    0.8088    0.0000 C   0  0  0  0  0  0  0  0  0
   -5.9686    2.8713    0.0000 C   0  0  0  0  0  0  0  0  0
   -5.2541    3.2838    0.0000 C   0  0  0  0  0  0  0  0  0
   -5.2541    4.1088    0.0000 C   0  0  0  0  0  0  0  0  0
   -4.5396    4.5213    0.0000 N   0  0  0  0  0  0  0  0  0
   -3.8251    4.1088    0.0000 C   0  0  0  0  0  0  0  0  0
   -3.8251    3.2838    0.0000 C   0  0  0  0  0  0  0  0  0
   -4.5396    2.8713    0.0000 C   0  0  0  0  0  0  0  0  0
   -3.1107    4.5213    0.0000 C   0  0  0  0  0  0  0  0  0
   -3.1107    5.3463    0.0000 C   0  0  0  0  0  0  0  0  0
   -2.3962    5.7588    0.0000 C   0  0  0  0  0  0  0  0  0
   -1.6817    5.3463    0.0000 C   0  0  0  0  0  0  0  0  0
   -1.6817    4.5213    0.0000 C   0  0  0  0  0  0  0  0  0
   -2.3962    4.1088    0.0000 C   0  0  0  0  0  0  0  0  0
   -5.9686    4.5213    0.0000 C   0  0  0  0  0  0  0  0  0
   -6.6830    4.1088    0.0000 C   0  0  0  0  0  0  0  0  0
   -6.6830    3.2838    0.0000 C   0  0  0  0  0  0  0  0  0
  1  2  1  0  0  0  0
  1 11  1  0  0  0  0
  2  3  1  0  0  0  0
  3  4  2  0  0  0  0
  3  5  1  0  0  0  0
  5  6  1  0  0  0  0
  6  7  4  0  0  0  0
  6 11  4  0  0  0  0
  7  8  4  0  0  0  0
  8  9  4  0  0  0  0
  8 12  1  0  0  0  0
  9 10  4  0  0  0  0
 10 11  4  0  0  0  0
 12 13  1  0  0  0  0
 13 14  1  0  0  0  0
 14 15  1  0  0  0  0
 14 19  1  0  0  0  0
 15 16  1  0  0  0  0
 16 17  1  0  0  0  0
 17 18  1  0  0  0  0
 17 20  1  0  0  0  0
 18 19  1  0  0  0  0
 20 21  4  0  0  0  0
 20 35  4  0  0  0  0
 21 22  4  0  0  0  0
 21 26  4  0  0  0  0
 22 23  4  0  0  0  0
 22 33  4  0  0  0  0
 23 24  4  0  0  0  0
 24 25  4  0  0  0  0
 24 27  1  0  0  0  0
 25 26  4  0  0  0  0
 27 28  4  0  0  0  0
 27 32  4  0  0  0  0
 28 29  4  0  0  0  0
 29 30  4  0  0  0  0
 30 31  4  0  0  0  0
 31 32  4  0  0  0  0
 33 34  4  0  0  0  0
 34 35  4  0  0  0  0
M  END
>  <Name_Molregno>
492946

>  <5-HT1A>
9.2

>  <5-HT1B>
9.5

>  <5-HT1D>
7.9

>  <Serotonin transporter>
9.8

$$$$
493040
  Marvin  02231216192D 0   1.00000     0.00000     0

 29 33  0  0  0  0  0  0  0  0999 V2000
   -5.1415    4.8686    0.0000 O   0  0  0  0  0  0  0  0  0
   -4.4271    5.2811    0.0000 C   0  0  0  0  0  0  0  0  0
   -3.7126    4.8686    0.0000 C   0  0  0  0  0  0  0  0  0
   -2.9981    5.2811    0.0000 O   0  0  0  0  0  0  0  0  0
   -3.7126    4.0436    0.0000 N   0  0  0  0  0  0  0  0  0
   -4.4271    3.6311    0.0000 C   0  0  0  0  0  0  0  0  0
   -4.4271    2.8061    0.0000 C   0  0  0  0  0  0  0  0  0
   -5.1415    2.3936    0.0000 C   0  0  0  0  0  0  0  0  0
   -5.8560    2.8061    0.0000 C   0  0  0  0  0  0  0  0  0
   -5.8560    3.6311    0.0000 C   0  0  0  0  0  0  0  0  0
   -5.1415    4.0436    0.0000 C   0  0  0  0  0  0  0  0  0
   -5.1415    1.5686    0.0000 C   0  0  0  0  0  0  0  0  0
   -4.4271    1.1561    0.0000 C   0  0  0  0  0  0  0  0  0
   -4.4271    0.3311    0.0000 N   0  0  0  0  0  0  0  0  0
   -3.7126   -0.0814    0.0000 C   0  0  0  0  0  0  0  0  0
   -3.7126   -0.9064    0.0000 C   0  0  0  0  0  0  0  0  0
   -4.4271   -1.3189    0.0000 N   0  0  0  0  0  0  0  0  0
   -5.1415   -0.9064    0.0000 C   0  0  0  0  0  0  0  0  0
   -5.1415   -0.0814    0.0000 C   0  0  0  0  0  0  0  0  0
   -4.4271   -2.1439    0.0000 C   0  0  0  0  0  0  0  0  0
   -5.1415   -2.5564    0.0000 N   0  0  0  0  0  0  0  0  0
   -5.1415   -3.3814    0.0000 C   0  0  0  0  0  0  0  0  0
   -4.4271   -3.7939    0.0000 C   0  0  0  0  0  0  0  0  0
   -3.7126   -3.3814    0.0000 C   0  0  0  0  0  0  0  0  0
   -3.7126   -2.5564    0.0000 C   0  0  0  0  0  0  0  0  0
   -2.9981   -2.1439    0.0000 C   0  0  0  0  0  0  0  0  0
   -2.2837   -2.5564    0.0000 C   0  0  0  0  0  0  0  0  0
   -2.2837   -3.3814    0.0000 C   0  0  0  0  0  0  0  0  0
   -2.9981   -3.7939    0.0000 C   0  0  0  0  0  0  0  0  0
  1  2  1  0  0  0  0
  1 11  1  0  0  0  0
  2  3  1  0  0  0  0
  3  4  2  0  0  0  0
  3  5  1  0  0  0  0
  5  6  1  0  0  0  0
  6  7  4  0  0  0  0
  6 11  4  0  0  0  0
  7  8  4  0  0  0  0
  8  9  4  0  0  0  0
  8 12  1  0  0  0  0
  9 10  4  0  0  0  0
 10 11  4  0  0  0  0
 12 13  1  0  0  0  0
 13 14  1  0  0  0  0
 14 15  1  0  0  0  0
 14 19  1  0  0  0  0
 15 16  1  0  0  0  0
 16 17  1  0  0  0  0
 17 18  1  0  0  0  0
 17 20  1  0  0  0  0
 18 19  1  0  0  0  0
 20 21  4  0  0  0  0
 20 25  4  0  0  0  0
 21 22  4  0  0  0  0
 22 23  4  0  0  0  0
 23 24  4  0  0  0  0
 24 25  4  0  0  0  0
 24 29  4  0  0  0  0
 25 26  4  0  0  0  0
 26 27  4  0  0  0  0
 27 28  4  0  0  0  0
 28 29  4  0  0  0  0
M  END
>  <Name_Molregno>
493040

>  <5-HT1A>
7

>  <5-HT1B>
9.1

>  <5-HT1D>
9.6

>  <Serotonin transporter>
9.1

$$$$
493041
  Marvin  02231216192D 0   1.00000     0.00000     0

 29 33  0  0  0  0  0  0  0  0999 V2000
   -5.1415    4.8686    0.0000 O   0  0  0  0  0  0  0  0  0
   -4.4271    5.2811    0.0000 C   0  0  0  0  0  0  0  0  0
   -3.7126    4.8686    0.0000 C   0  0  0  0  0  0  0  0  0
   -2.9981    5.2811    0.0000 O   0  0  0  0  0  0  0  0  0
   -3.7126    4.0436    0.0000 N   0  0  0  0  0  0  0  0  0
   -4.4271    3.6311    0.0000 C   0  0  0  0  0  0  0  0  0
   -4.4271    2.8061    0.0000 C   0  0  0  0  0  0  0  0  0
   -5.1415    2.3936    0.0000 C   0  0  0  0  0  0  0  0  0
   -5.8560    2.8061    0.0000 C   0  0  0  0  0  0  0  0  0
   -5.8560    3.6311    0.0000 C   0  0  0  0  0  0  0  0  0
   -5.1415    4.0436    0.0000 C   0  0  0  0  0  0  0  0  0
   -5.1415    1.5686    0.0000 C   0  0  0  0  0  0  0  0  0
   -4.4271    1.1561    0.0000 C   0  0  0  0  0  0  0  0  0
   -4.4271    0.3311    0.0000 N   0  0  0  0  0  0  0  0  0
   -3.7126   -0.0814    0.0000 C   0  0  0  0  0  0  0  0  0
   -3.7126   -0.9064    0.0000 C   0  0  0  0  0  0  0  0  0
   -4.4271   -1.3189    0.0000 N   0  0  0  0  0  0  0  0  0
   -5.1415   -0.9064    0.0000 C   0  0  0  0  0  0  0  0  0
   -5.1415   -0.0814    0.0000 C   0  0  0  0  0  0  0  0  0
   -4.4271   -2.1439    0.0000 C   0  0  0  0  0  0  0  0  0
   -3.7126   -2.5564    0.0000 C   0  0  0  0  0  0  0  0  0
   -2.9981   -2.1439    0.0000 N   0  0  0  0  0  0  0  0  0
   -2.2837   -2.5564    0.0000 C   0  0  0  0  0  0  0  0  0
   -2.2837   -3.3814    0.0000 C   0  0  0  0  0  0  0  0  0
   -2.9981   -3.7939    0.0000 C   0  0  0  0  0  0  0  0  0
   -3.7126   -3.3814    0.0000 C   0  0  0  0  0  0  0  0  0
   -4.4271   -3.7939    0.0000 C   0  0  0  0  0  0  0  0  0
   -5.1415   -3.3814    0.0000 C   0  0  0  0  0  0  0  0  0
   -5.1415   -2.5564    0.0000 C   0  0  0  0  0  0  0  0  0
  1  2  1  0  0  0  0
  1 11  1  0  0  0  0
  2  3  1  0  0  0  0
  3  4  2  0  0  0  0
  3  5  1  0  0  0  0
  5  6  1  0  0  0  0
  6  7  4  0  0  0  0
  6 11  4  0  0  0  0
  7  8  4  0  0  0  0
  8  9  4  0  0  0  0
  8 12  1  0  0  0  0
  9 10  4  0  0  0  0
 10 11  4  0  0  0  0
 12 13  1  0  0  0  0
 13 14  1  0  0  0  0
 14 15  1  0  0  0  0
 14 19  1  0  0  0  0
 15 16  1  0  0  0  0
 16 17  1  0  0  0  0
 17 18  1  0  0  0  0
 17 20  1  0  0  0  0
 18 19  1  0  0  0  0
 20 21  4  0  0  0  0
 20 29  4  0  0  0  0
 21 22  4  0  0  0  0
 21 26  4  0  0  0  0
 22 23  4  0  0  0  0
 23 24  4  0  0  0  0
 24 25  4  0  0  0  0
 25 26  4  0  0  0  0
 26 27  4  0  0  0  0
 27 28  4  0  0  0  0
 28 29  4  0  0  0  0
M  END
>  <Name_Molregno>
493041

>  <5-HT1A>
8.8

>  <5-HT1B>
7.5

>  <5-HT1D>
9.6

>  <Serotonin transporter>
8

$$$$
493042
  Marvin  02231216192D 0   1.00000     0.00000     0

 30 34  0  0  0  0  0  0  0  0999 V2000
   -4.1372   -4.0076    0.0000 O   0  0  0  0  0  0  0  0  0
   -4.8517   -4.4201    0.0000 C   0  0  0  0  0  0  0  0  0
   -5.5661   -4.0076    0.0000 C   0  0  0  0  0  0  0  0  0
   -6.2806   -4.4201    0.0000 O   0  0  0  0  0  0  0  0  0
   -5.5661   -3.1826    0.0000 N   0  0  0  0  0  0  0  0  0
   -4.8517   -2.7701    0.0000 C   0  0  0  0  0  0  0  0  0
   -4.8517   -1.9451    0.0000 C   0  0  0  0  0  0  0  0  0
   -4.1372   -1.5326    0.0000 C   0  0  0  0  0  0  0  0  0
   -3.4227   -1.9451    0.0000 C   0  0  0  0  0  0  0  0  0
   -3.4227   -2.7701    0.0000 C   0  0  0  0  0  0  0  0  0
   -4.1372   -3.1826    0.0000 C   0  0  0  0  0  0  0  0  0
   -4.1372   -0.7076    0.0000 C   0  0  0  0  0  0  0  0  0
   -4.8517   -0.2951    0.0000 C   0  0  0  0  0  0  0  0  0
   -4.8517    0.5299    0.0000 N   0  0  0  0  0  0  0  0  0
   -5.5661    0.9424    0.0000 C   0  0  0  0  0  0  0  0  0
   -5.5661    1.7674    0.0000 C   0  0  0  0  0  0  0  0  0
   -4.8517    2.1799    0.0000 N   0  0  0  0  0  0  0  0  0
   -4.1372    1.7674    0.0000 C   0  0  0  0  0  0  0  0  0
   -4.1372    0.9424    0.0000 C   0  0  0  0  0  0  0  0  0
   -4.8517    3.0049    0.0000 C   0  0  0  0  0  0  0  0  0
   -4.1372    3.4174    0.0000 C   0  0  0  0  0  0  0  0  0
   -4.1372    4.2424    0.0000 C   0  0  0  0  0  0  0  0  0
   -3.4227    4.6549    0.0000 N   0  0  0  0  0  0  0  0  0
   -2.7083    4.2424    0.0000 C   0  0  0  0  0  0  0  0  0
   -2.7083    3.4174    0.0000 N   0  0  0  0  0  0  0  0  0
   -3.4227    3.0049    0.0000 C   0  0  0  0  0  0  0  0  0
   -1.9938    4.6549    0.0000 C   0  0  0  0  0  0  0  0  0
   -4.8517    4.6549    0.0000 C   0  0  0  0  0  0  0  0  0
   -5.5661    4.2424    0.0000 C   0  0  0  0  0  0  0  0  0
   -5.5661    3.4174    0.0000 C   0  0  0  0  0  0  0  0  0
  1  2  1  0  0  0  0
  1 11  1  0  0  0  0
  2  3  1  0  0  0  0
  3  4  2  0  0  0  0
  3  5  1  0  0  0  0
  5  6  1  0  0  0  0
  6  7  4  0  0  0  0
  6 11  4  0  0  0  0
  7  8  4  0  0  0  0
  8  9  4  0  0  0  0
  8 12  1  0  0  0  0
  9 10  4  0  0  0  0
 10 11  4  0  0  0  0
 12 13  1  0  0  0  0
 13 14  1  0  0  0  0
 14 15  1  0  0  0  0
 14 19  1  0  0  0  0
 15 16  1  0  0  0  0
 16 17  1  0  0  0  0
 17 18  1  0  0  0  0
 17 20  1  0  0  0  0
 18 19  1  0  0  0  0
 20 21  4  0  0  0  0
 20 30  4  0  0  0  0
 21 22  4  0  0  0  0
 21 26  4  0  0  0  0
 22 23  4  0  0  0  0
 22 28  4  0  0  0  0
 23 24  4  0  0  0  0
 24 25  4  0  0  0  0
 24 27  1  0  0  0  0
 25 26  4  0  0  0  0
 28 29  4  0  0  0  0
 29 30  4  0  0  0  0
M  END
>  <Name_Molregno>
493042

>  <5-HT1A>
9.4

>  <5-HT1B>
9.2

>  <5-HT1D>
9.5

>  <Serotonin transporter>
8.7

$$$$
493093
  Marvin  02231216192D 0   1.00000     0.00000     0

 30 34  0  0  0  0  0  0  0  0999 V2000
   -4.1372   -4.0076    0.0000 O   0  0  0  0  0  0  0  0  0
   -4.8517   -4.4201    0.0000 C   0  0  0  0  0  0  0  0  0
   -5.5661   -4.0076    0.0000 C   0  0  0  0  0  0  0  0  0
   -6.2806   -4.4201    0.0000 O   0  0  0  0  0  0  0  0  0
   -5.5661   -3.1826    0.0000 N   0  0  0  0  0  0  0  0  0
   -4.8517   -2.7701    0.0000 C   0  0  0  0  0  0  0  0  0
   -4.8517   -1.9451    0.0000 C   0  0  0  0  0  0  0  0  0
   -4.1372   -1.5326    0.0000 C   0  0  0  0  0  0  0  0  0
   -3.4227   -1.9451    0.0000 C   0  0  0  0  0  0  0  0  0
   -3.4227   -2.7701    0.0000 C   0  0  0  0  0  0  0  0  0
   -4.1372   -3.1826    0.0000 C   0  0  0  0  0  0  0  0  0
   -4.1372   -0.7076    0.0000 C   0  0  0  0  0  0  0  0  0
   -4.8517   -0.2951    0.0000 C   0  0  0  0  0  0  0  0  0
   -4.8517    0.5299    0.0000 N   0  0  0  0  0  0  0  0  0
   -5.5661    0.9424    0.0000 C   0  0  0  0  0  0  0  0  0
   -5.5661    1.7674    0.0000 C   0  0  0  0  0  0  0  0  0
   -4.8517    2.1799    0.0000 N   0  0  0  0  0  0  0  0  0
   -4.1372    1.7674    0.0000 C   0  0  0  0  0  0  0  0  0
   -4.1372    0.9424    0.0000 C   0  0  0  0  0  0  0  0  0
   -4.8517    3.0049    0.0000 C   0  0  0  0  0  0  0  0  0
   -4.1372    3.4174    0.0000 C   0  0  0  0  0  0  0  0  0
   -4.1372    4.2424    0.0000 C   0  0  0  0  0  0  0  0  0
   -3.4227    4.6549    0.0000 N   0  0  0  0  0  0  0  0  0
   -2.7083    4.2424    0.0000 C   0  0  0  0  0  0  0  0  0
   -2.7083    3.4174    0.0000 C   0  0  0  0  0  0  0  0  0
   -3.4227    3.0049    0.0000 C   0  0  0  0  0  0  0  0  0
   -1.9938    4.6549    0.0000 C   0  0  0  0  0  0  0  0  0
   -4.8517    4.6549    0.0000 C   0  0  0  0  0  0  0  0  0
   -5.5661    4.2424    0.0000 C   0  0  0  0  0  0  0  0  0
   -5.5661    3.4174    0.0000 C   0  0  0  0  0  0  0  0  0
  1  2  1  0  0  0  0
  1 11  1  0  0  0  0
  2  3  1  0  0  0  0
  3  4  2  0  0  0  0
  3  5  1  0  0  0  0
  5  6  1  0  0  0  0
  6  7  4  0  0  0  0
  6 11  4  0  0  0  0
  7  8  4  0  0  0  0
  8  9  4  0  0  0  0
  8 12  1  0  0  0  0
  9 10  4  0  0  0  0
 10 11  4  0  0  0  0
 12 13  1  0  0  0  0
 13 14  1  0  0  0  0
 14 15  1  0  0  0  0
 14 19  1  0  0  0  0
 15 16  1  0  0  0  0
 16 17  1  0  0  0  0
 17 18  1  0  0  0  0
 17 20  1  0  0  0  0
 18 19  1  0  0  0  0
 20 21  4  0  0  0  0
 20 30  4  0  0  0  0
 21 22  4  0  0  0  0
 21 26  4  0  0  0  0
 22 23  4  0  0  0  0
 22 28  4  0  0  0  0
 23 24  4  0  0  0  0
 24 25  4  0  0  0  0
 24 27  1  0  0  0  0
 25 26  4  0  0  0  0
 28 29  4  0  0  0  0
 29 30  4  0  0  0  0
M  END
>  <Name_Molregno>
493093

>  <5-HT1A>
9.8

>  <5-HT1B>
8.53

>  <5-HT1D>
9.75

>  <Serotonin transporter>
8.85

$$$$
493094
  Marvin  02231216192D 0   1.00000     0.00000     0

 31 35  0  0  0  0  0  0  0  0999 V2000
   -3.9736   -3.9914    0.0000 O   0  0  0  0  0  0  0  0  0
   -4.6880   -4.4039    0.0000 C   0  0  0  0  0  0  0  0  0
   -5.4025   -3.9914    0.0000 C   0  0  0  0  0  0  0  0  0
   -6.1170   -4.4039    0.0000 O   0  0  0  0  0  0  0  0  0
   -5.4025   -3.1664    0.0000 N   0  0  0  0  0  0  0  0  0
   -4.6880   -2.7539    0.0000 C   0  0  0  0  0  0  0  0  0
   -4.6880   -1.9289    0.0000 C   0  0  0  0  0  0  0  0  0
   -3.9736   -1.5164    0.0000 C   0  0  0  0  0  0  0  0  0
   -3.2591   -1.9289    0.0000 C   0  0  0  0  0  0  0  0  0
   -3.2591   -2.7539    0.0000 C   0  0  0  0  0  0  0  0  0
   -3.9736   -3.1664    0.0000 C   0  0  0  0  0  0  0  0  0
   -3.9736   -0.6914    0.0000 C   0  0  0  0  0  0  0  0  0
   -4.6880   -0.2789    0.0000 C   0  0  0  0  0  0  0  0  0
   -4.6880    0.5461    0.0000 N   0  0  0  0  0  0  0  0  0
   -5.4025    0.9586    0.0000 C   0  0  0  0  0  0  0  0  0
   -5.4025    1.7836    0.0000 C   0  0  0  0  0  0  0  0  0
   -4.6880    2.1961    0.0000 N   0  0  0  0  0  0  0  0  0
   -3.9736    1.7836    0.0000 C   0  0  0  0  0  0  0  0  0
   -3.9736    0.9586    0.0000 C   0  0  0  0  0  0  0  0  0
   -4.6880    3.0211    0.0000 C   0  0  0  0  0  0  0  0  0
   -3.9736    3.4336    0.0000 C   0  0  0  0  0  0  0  0  0
   -3.9736    4.2586    0.0000 C   0  0  0  0  0  0  0  0  0
   -3.2591    4.6711    0.0000 N   0  0  0  0  0  0  0  0  0
   -2.5446    4.2586    0.0000 C   0  0  0  0  0  0  0  0  0
   -2.5446    3.4336    0.0000 C   0  0  0  0  0  0  0  0  0
   -3.2591    3.0211    0.0000 C   0  0  0  0  0  0  0  0  0
   -1.8301    4.6711    0.0000 C   0  0  0  0  0  0  0  0  0
   -4.6880    4.6711    0.0000 C   0  0  0  0  0  0  0  0  0
   -5.4025    4.2586    0.0000 C   0  0  0  0  0  0  0  0  0
   -5.4025    3.4336    0.0000 C   0  0  0  0  0  0  0  0  0
   -6.1170   -2.7539    0.0000 C   0  0  0  0  0  0  0  0  0
  1  2  1  0  0  0  0
  1 11  1  0  0  0  0
  2  3  1  0  0  0  0
  3  4  2  0  0  0  0
  3  5  1  0  0  0  0
  5  6  1  0  0  0  0
  5 31  1  0  0  0  0
  6  7  4  0  0  0  0
  6 11  4  0  0  0  0
  7  8  4  0  0  0  0
  8  9  4  0  0  0  0
  8 12  1  0  0  0  0
  9 10  4  0  0  0  0
 10 11  4  0  0  0  0
 12 13  1  0  0  0  0
 13 14  1  0  0  0  0
 14 15  1  0  0  0  0
 14 19  1  0  0  0  0
 15 16  1  0  0  0  0
 16 17  1  0  0  0  0
 17 18  1  0  0  0  0
 17 20  1  0  0  0  0
 18 19  1  0  0  0  0
 20 21  4  0  0  0  0
 20 30  4  0  0  0  0
 21 22  4  0  0  0  0
 21 26  4  0  0  0  0
 22 23  4  0  0  0  0
 22 28  4  0  0  0  0
 23 24  4  0  0  0  0
 24 25  4  0  0  0  0
 24 27  1  0  0  0  0
 25 26  4  0  0  0  0
 28 29  4  0  0  0  0
 29 30  4  0  0  0  0
M  END
>  <Name_Molregno>
493094

>  <5-HT1A>
9.75

>  <5-HT1B>
9

>  <5-HT1D>
9.75

>  <Serotonin transporter>
7.7

$$$$
493095
  Marvin  02231216192D 0   1.00000     0.00000     0

 32 36  0  0  0  0  0  0  0  0999 V2000
   -3.8036   -3.9791    0.0000 O   0  0  0  0  0  0  0  0  0
   -4.5180   -4.3916    0.0000 C   0  0  0  0  0  0  0  0  0
   -5.2325   -3.9791    0.0000 C   0  0  0  0  0  0  0  0  0
   -5.9470   -4.3916    0.0000 O   0  0  0  0  0  0  0  0  0
   -5.2325   -3.1541    0.0000 N   0  0  0  0  0  0  0  0  0
   -4.5180   -2.7416    0.0000 C   0  0  0  0  0  0  0  0  0
   -4.5180   -1.9166    0.0000 C   0  0  0  0  0  0  0  0  0
   -3.8036   -1.5041    0.0000 C   0  0  0  0  0  0  0  0  0
   -3.0891   -1.9166    0.0000 C   0  0  0  0  0  0  0  0  0
   -3.0891   -2.7416    0.0000 C   0  0  0  0  0  0  0  0  0
   -3.8036   -3.1541    0.0000 C   0  0  0  0  0  0  0  0  0
   -3.8036   -0.6791    0.0000 C   0  0  0  0  0  0  0  0  0
   -4.5180   -0.2666    0.0000 C   0  0  0  0  0  0  0  0  0
   -4.5180    0.5584    0.0000 N   0  0  0  0  0  0  0  0  0
   -5.2325    0.9709    0.0000 C   0  0  0  0  0  0  0  0  0
   -5.2325    1.7959    0.0000 C   0  0  0  0  0  0  0  0  0
   -4.5180    2.2084    0.0000 N   0  0  0  0  0  0  0  0  0
   -3.8036    1.7959    0.0000 C   0  0  0  0  0  0  0  0  0
   -3.8036    0.9709    0.0000 C   0  0  0  0  0  0  0  0  0
   -4.5180    3.0334    0.0000 C   0  0  0  0  0  0  0  0  0
   -3.8036    3.4459    0.0000 C   0  0  0  0  0  0  0  0  0
   -3.8036    4.2709    0.0000 C   0  0  0  0  0  0  0  0  0
   -3.0891    4.6834    0.0000 N   0  0  0  0  0  0  0  0  0
   -2.3746    4.2709    0.0000 C   0  0  0  0  0  0  0  0  0
   -2.3746    3.4459    0.0000 C   0  0  0  0  0  0  0  0  0
   -3.0891    3.0334    0.0000 C   0  0  0  0  0  0  0  0  0
   -1.6601    4.6834    0.0000 C   0  0  0  0  0  0  0  0  0
   -4.5180    4.6834    0.0000 C   0  0  0  0  0  0  0  0  0
   -5.2325    4.2709    0.0000 C   0  0  0  0  0  0  0  0  0
   -5.2325    3.4459    0.0000 C   0  0  0  0  0  0  0  0  0
   -5.9470   -2.7416    0.0000 C   0  0  0  0  0  0  0  0  0
   -5.9470   -1.9166    0.0000 C   0  0  0  0  0  0  0  0  0
  1  2  1  0  0  0  0
  1 11  1  0  0  0  0
  2  3  1  0  0  0  0
  3  4  2  0  0  0  0
  3  5  1  0  0  0  0
  5  6  1  0  0  0  0
  5 31  1  0  0  0  0
  6  7  4  0  0  0  0
  6 11  4  0  0  0  0
  7  8  4  0  0  0  0
  8  9  4  0  0  0  0
  8 12  1  0  0  0  0
  9 10  4  0  0  0  0
 10 11  4  0  0  0  0
 12 13  1  0  0  0  0
 13 14  1  0  0  0  0
 14 15  1  0  0  0  0
 14 19  1  0  0  0  0
 15 16  1  0  0  0  0
 16 17  1  0  0  0  0
 17 18  1  0  0  0  0
 17 20  1  0  0  0  0
 18 19  1  0  0  0  0
 20 21  4  0  0  0  0
 20 30  4  0  0  0  0
 21 22  4  0  0  0  0
 21 26  4  0  0  0  0
 22 23  4  0  0  0  0
 22 28  4  0  0  0  0
 23 24  4  0  0  0  0
 24 25  4  0  0  0  0
 24 27  1  0  0  0  0
 25 26  4  0  0  0  0
 28 29  4  0  0  0  0
 29 30  4  0  0  0  0
 31 32  1  0  0  0  0
M  END
>  <Name_Molregno>
493095

>  <5-HT1A>
9.3

>  <5-HT1B>
9.1

>  <5-HT1D>
9.4

>  <Serotonin transporter>
7.1

$$$$
493096
  Marvin  02231216192D 0   1.00000     0.00000     0

 31 35  0  0  0  0  0  0  0  0999 V2000
   -4.9717   -4.4129    0.0000 F   0  0  0  0  0  0  0  0  0
   -4.2572   -4.0004    0.0000 C   0  0  0  0  0  0  0  0  0
   -4.2572   -3.1754    0.0000 C   0  0  0  0  0  0  0  0  0
   -3.5427   -2.7629    0.0000 C   0  0  0  0  0  0  0  0  0
   -2.8283   -3.1754    0.0000 C   0  0  0  0  0  0  0  0  0
   -2.8283   -4.0004    0.0000 C   0  0  0  0  0  0  0  0  0
   -2.1138   -4.4129    0.0000 N   0  0  0  0  0  0  0  0  0
   -2.1138   -5.2379    0.0000 C   0  0  0  0  0  0  0  0  0
   -1.3993   -5.6504    0.0000 O   0  0  0  0  0  0  0  0  0
   -2.8283   -5.6504    0.0000 C   0  0  0  0  0  0  0  0  0
   -3.5427   -5.2379    0.0000 O   0  0  0  0  0  0  0  0  0
   -3.5427   -4.4129    0.0000 C   0  0  0  0  0  0  0  0  0
   -3.5427   -1.9379    0.0000 C   0  0  0  0  0  0  0  0  0
   -4.2572   -1.5254    0.0000 C   0  0  0  0  0  0  0  0  0
   -4.2572   -0.7004    0.0000 N   0  0  0  0  0  0  0  0  0
   -4.9717   -0.2879    0.0000 C   0  0  0  0  0  0  0  0  0
   -4.9717    0.5371    0.0000 C   0  0  0  0  0  0  0  0  0
   -4.2572    0.9496    0.0000 N   0  0  0  0  0  0  0  0  0
   -3.5427    0.5371    0.0000 C   0  0  0  0  0  0  0  0  0
   -3.5427   -0.2879    0.0000 C   0  0  0  0  0  0  0  0  0
   -4.2572    1.7746    0.0000 C   0  0  0  0  0  0  0  0  0
   -3.5427    2.1871    0.0000 C   0  0  0  0  0  0  0  0  0
   -3.5427    3.0121    0.0000 C   0  0  0  0  0  0  0  0  0
   -2.8283    3.4246    0.0000 N   0  0  0  0  0  0  0  0  0
   -2.1138    3.0121    0.0000 C   0  0  0  0  0  0  0  0  0
   -2.1138    2.1871    0.0000 C   0  0  0  0  0  0  0  0  0
   -2.8283    1.7746    0.0000 C   0  0  0  0  0  0  0  0  0
   -1.3993    3.4246    0.0000 C   0  0  0  0  0  0  0  0  0
   -4.2572    3.4246    0.0000 C   0  0  0  0  0  0  0  0  0
   -4.9717    3.0121    0.0000 C   0  0  0  0  0  0  0  0  0
   -4.9717    2.1871    0.0000 C   0  0  0  0  0  0  0  0  0
  1  2  1  0  0  0  0
  2  3  4  0  0  0  0
  2 12  4  0  0  0  0
  3  4  4  0  0  0  0
  4  5  4  0  0  0  0
  4 13  1  0  0  0  0
  5  6  4  0  0  0  0
  6  7  1  0  0  0  0
  6 12  4  0  0  0  0
  7  8  1  0  0  0  0
  8  9  2  0  0  0  0
  8 10  1  0  0  0  0
 10 11  1  0  0  0  0
 11 12  1  0  0  0  0
 13 14  1  0  0  0  0
 14 15  1  0  0  0  0
 15 16  1  0  0  0  0
 15 20  1  0  0  0  0
 16 17  1  0  0  0  0
 17 18  1  0  0  0  0
 18 19  1  0  0  0  0
 18 21  1  0  0  0  0
 19 20  1  0  0  0  0
 21 22  4  0  0  0  0
 21 31  4  0  0  0  0
 22 23  4  0  0  0  0
 22 27  4  0  0  0  0
 23 24  4  0  0  0  0
 23 29  4  0  0  0  0
 24 25  4  0  0  0  0
 25 26  4  0  0  0  0
 25 28  1  0  0  0  0
 26 27  4  0  0  0  0
 29 30  4  0  0  0  0
 30 31  4  0  0  0  0
M  END
>  <Name_Molregno>
493096

>  <5-HT1A>
8.9

>  <5-HT1B>
9

>  <5-HT1D>
9.7

>  <Serotonin transporter>
8.9

$$$$
493097
  Marvin  02231216192D 0   1.00000     0.00000     0

 29 33  0  0  0  0  0  0  0  0999 V2000
   -3.3996   -3.9458    0.0000 O   0  0  0  0  0  0  0  0  0
   -4.1140   -4.3583    0.0000 C   0  0  0  0  0  0  0  0  0
   -4.8285   -3.9458    0.0000 C   0  0  0  0  0  0  0  0  0
   -5.5430   -4.3583    0.0000 O   0  0  0  0  0  0  0  0  0
   -4.8285   -3.1208    0.0000 N   0  0  0  0  0  0  0  0  0
   -4.1140   -2.7083    0.0000 C   0  0  0  0  0  0  0  0  0
   -4.1140   -1.8833    0.0000 C   0  0  0  0  0  0  0  0  0
   -3.3996   -1.4708    0.0000 C   0  0  0  0  0  0  0  0  0
   -2.6851   -1.8833    0.0000 C   0  0  0  0  0  0  0  0  0
   -2.6851   -2.7083    0.0000 C   0  0  0  0  0  0  0  0  0
   -3.3996   -3.1208    0.0000 C   0  0  0  0  0  0  0  0  0
   -3.3996   -0.6458    0.0000 C   0  0  0  0  0  0  0  0  0
   -4.1140   -0.2333    0.0000 C   0  0  0  0  0  0  0  0  0
   -4.1140    0.5917    0.0000 N   0  0  0  0  0  0  0  0  0
   -4.8285    1.0042    0.0000 C   0  0  0  0  0  0  0  0  0
   -4.8285    1.8292    0.0000 C   0  0  0  0  0  0  0  0  0
   -4.1140    2.2417    0.0000 N   0  0  0  0  0  0  0  0  0
   -3.3996    1.8292    0.0000 C   0  0  0  0  0  0  0  0  0
   -3.3996    1.0042    0.0000 C   0  0  0  0  0  0  0  0  0
   -4.1140    3.0667    0.0000 C   0  0  0  0  0  0  0  0  0
   -4.8285    3.4792    0.0000 C   0  0  0  0  0  0  0  0  0
   -5.6131    3.2242    0.0000 C   0  0  0  0  0  0  0  0  0
   -6.0980    3.8917    0.0000 C   0  0  0  0  0  0  0  0  0
   -5.6131    4.5591    0.0000 N   0  0  0  0  0  0  0  0  0
   -4.8285    4.3042    0.0000 C   0  0  0  0  0  0  0  0  0
   -4.1140    4.7167    0.0000 C   0  0  0  0  0  0  0  0  0
   -3.3996    4.3042    0.0000 C   0  0  0  0  0  0  0  0  0
   -3.3996    3.4792    0.0000 C   0  0  0  0  0  0  0  0  0
   -6.9230    3.8917    0.0000 C   0  0  0  0  0  0  0  0  0
  1  2  1  0  0  0  0
  1 11  1  0  0  0  0
  2  3  1  0  0  0  0
  3  4  2  0  0  0  0
  3  5  1  0  0  0  0
  5  6  1  0  0  0  0
  6  7  4  0  0  0  0
  6 11  4  0  0  0  0
  7  8  4  0  0  0  0
  8  9  4  0  0  0  0
  8 12  1  0  0  0  0
  9 10  4  0  0  0  0
 10 11  4  0  0  0  0
 12 13  1  0  0  0  0
 13 14  1  0  0  0  0
 14 15  1  0  0  0  0
 14 19  1  0  0  0  0
 15 16  1  0  0  0  0
 16 17  1  0  0  0  0
 17 18  1  0  0  0  0
 17 20  1  0  0  0  0
 18 19  1  0  0  0  0
 20 21  4  0  0  0  0
 20 28  4  0  0  0  0
 21 22  4  0  0  0  0
 21 25  4  0  0  0  0
 22 23  4  0  0  0  0
 23 24  4  0  0  0  0
 23 29  1  0  0  0  0
 24 25  4  0  0  0  0
 25 26  4  0  0  0  0
 26 27  4  0  0  0  0
 27 28  4  0  0  0  0
M  STY  1   1 DAT
M  SAL   1  1  24
M  SDT   1 MRV_IMPLICIT_H                                        
M  SDD   1     0.0000    0.0000    DR    ALL  0       0  
M  SED   1 IMPL_H1
M  END
>  <Name_Molregno>
493097

>  <5-HT1A>
8.5

>  <5-HT1B>
9.4

>  <5-HT1D>
9.7

>  <Serotonin transporter>
8.2

$$$$
493098
  Marvin  02231216192D 0   1.00000     0.00000     0

 30 34  0  0  0  0  0  0  0  0999 V2000
   -0.0811   -0.1808    0.0000 O   0  0  0  0  0  0  0  0  0
    0.0904    0.6262    0.0000 C   0  0  0  0  0  0  0  0  0
   -0.6241    1.0387    0.0000 C   0  0  0  0  0  0  0  0  0
   -1.2372    0.4867    0.0000 C   0  0  0  0  0  0  0  0  0
   -0.9016   -0.2670    0.0000 C   0  0  0  0  0  0  0  0  0
   -0.9103   -1.0920    0.0000 C   0  0  0  0  0  0  0  0  0
   -1.6117   -0.6870    0.0000 C   0  0  0  0  0  0  0  0  0
   -0.6241    1.8637    0.0000 C   0  0  0  0  0  0  0  0  0
    0.0904    2.2762    0.0000 C   0  0  0  0  0  0  0  0  0
    0.8049    1.8637    0.0000 C   0  0  0  0  0  0  0  0  0
    0.8049    1.0387    0.0000 C   0  0  0  0  0  0  0  0  0
    1.5193    0.6262    0.0000 N   0  0  0  0  0  0  0  0  0
    2.2338    1.0387    0.0000 C   0  0  0  0  0  0  0  0  0
    2.9483    0.6262    0.0000 C   0  0  0  0  0  0  0  0  0
    2.9483   -0.1988    0.0000 N   0  0  0  0  0  0  0  0  0
    2.2338   -0.6113    0.0000 C   0  0  0  0  0  0  0  0  0
    1.5193   -0.1988    0.0000 C   0  0  0  0  0  0  0  0  0
    3.6627   -0.6113    0.0000 C   0  0  0  0  0  0  0  0  0
    4.3772   -0.1988    0.0000 C   0  0  0  0  0  0  0  0  0
    5.0917   -0.6113    0.0000 C   0  0  0  0  0  0  0  0  0
    5.8061   -0.1988    0.0000 C   0  0  0  0  0  0  0  0  0
    6.5206   -0.6113    0.0000 C   0  0  0  0  0  0  0  0  0
    7.2351   -0.1988    0.0000 N   0  0  0  0  0  0  0  0  0
    7.9496   -0.6113    0.0000 C   0  0  0  0  0  0  0  0  0
    8.6640   -0.1988    0.0000 O   0  0  0  0  0  0  0  0  0
    7.9496   -1.4363    0.0000 C   0  0  0  0  0  0  0  0  0
    7.2351   -1.8488    0.0000 O   0  0  0  0  0  0  0  0  0
    6.5206   -1.4363    0.0000 C   0  0  0  0  0  0  0  0  0
    5.8061   -1.8488    0.0000 C   0  0  0  0  0  0  0  0  0
    5.0917   -1.4363    0.0000 C   0  0  0  0  0  0  0  0  0
  1  2  1  0  0  0  0
  1  5  1  0  0  0  0
  2  3  4  0  0  0  0
  2 11  4  0  0  0  0
  3  4  1  0  0  0  0
  3  8  4  0  0  0  0
  4  5  1  0  0  0  0
  5  6  1  0  0  0  0
  5  7  1  0  0  0  0
  8  9  4  0  0  0  0
  9 10  4  0  0  0  0
 10 11  4  0  0  0  0
 11 12  1  0  0  0  0
 12 13  1  0  0  0  0
 12 17  1  0  0  0  0
 13 14  1  0  0  0  0
 14 15  1  0  0  0  0
 15 16  1  0  0  0  0
 15 18  1  0  0  0  0
 16 17  1  0  0  0  0
 18 19  1  0  0  0  0
 19 20  1  0  0  0  0
 20 21  4  0  0  0  0
 20 30  4  0  0  0  0
 21 22  4  0  0  0  0
 22 23  1  0  0  0  0
 22 28  4  0  0  0  0
 23 24  1  0  0  0  0
 24 25  2  0  0  0  0
 24 26  1  0  0  0  0
 26 27  1  0  0  0  0
 27 28  1  0  0  0  0
 28 29  4  0  0  0  0
 29 30  4  0  0  0  0
M  END
>  <Name_Molregno>
493098

>  <5-HT1A>
9.3

>  <5-HT1B>
9.2

>  <5-HT1D>
9.8

>  <Serotonin transporter>
8.6

$$$$
493968
  Marvin  02231216192D 0   1.00000     0.00000     0

 31 35  0  0  0  0  0  0  0  0999 V2000
   -1.1517   -2.9537    0.0000 F   0  0  0  0  0  0  0  0  0
   -1.8661   -3.3662    0.0000 C   0  0  0  0  0  0  0  0  0
   -1.8661   -4.1912    0.0000 C   0  0  0  0  0  0  0  0  0
   -2.5806   -4.6037    0.0000 C   0  0  0  0  0  0  0  0  0
   -2.5806   -5.4287    0.0000 O   0  0  0  0  0  0  0  0  0
   -3.2951   -5.8412    0.0000 C   0  0  0  0  0  0  0  0  0
   -4.0096   -5.4287    0.0000 C   0  0  0  0  0  0  0  0  0
   -4.7240   -5.8412    0.0000 O   0  0  0  0  0  0  0  0  0
   -4.0096   -4.6037    0.0000 N   0  0  0  0  0  0  0  0  0
   -3.2951   -4.1912    0.0000 C   0  0  0  0  0  0  0  0  0
   -3.2951   -3.3662    0.0000 C   0  0  0  0  0  0  0  0  0
   -2.5806   -2.9537    0.0000 C   0  0  0  0  0  0  0  0  0
   -2.5806   -2.1287    0.0000 C   0  0  0  0  0  0  0  0  0
   -3.2951   -1.7162    0.0000 C   0  0  0  0  0  0  0  0  0
   -3.2951   -0.8912    0.0000 N   0  0  0  0  0  0  0  0  0
   -4.0096   -0.4787    0.0000 C   0  0  0  0  0  0  0  0  0
   -4.0096    0.3463    0.0000 C   0  0  0  0  0  0  0  0  0
   -3.2951    0.7588    0.0000 N   0  0  0  0  0  0  0  0  0
   -2.5806    0.3463    0.0000 C   0  0  0  0  0  0  0  0  0
   -2.5806   -0.4787    0.0000 C   0  0  0  0  0  0  0  0  0
   -3.2951    1.5838    0.0000 C   0  0  0  0  0  0  0  0  0
   -2.5806    1.9963    0.0000 C   0  0  0  0  0  0  0  0  0
   -2.5806    2.8213    0.0000 C   0  0  0  0  0  0  0  0  0
   -1.8661    3.2338    0.0000 N   0  0  0  0  0  0  0  0  0
   -1.1517    2.8213    0.0000 C   0  0  0  0  0  0  0  0  0
   -1.1517    1.9963    0.0000 C   0  0  0  0  0  0  0  0  0
   -1.8661    1.5838    0.0000 C   0  0  0  0  0  0  0  0  0
   -0.4372    3.2338    0.0000 C   0  0  0  0  0  0  0  0  0
   -3.2951    3.2338    0.0000 C   0  0  0  0  0  0  0  0  0
   -4.0096    2.8213    0.0000 C   0  0  0  0  0  0  0  0  0
   -4.0096    1.9963    0.0000 C   0  0  0  0  0  0  0  0  0
  1  2  1  0  0  0  0
  2  3  4  0  0  0  0
  2 12  4  0  0  0  0
  3  4  4  0  0  0  0
  4  5  1  0  0  0  0
  4 10  4  0  0  0  0
  5  6  1  0  0  0  0
  6  7  1  0  0  0  0
  7  8  2  0  0  0  0
  7  9  1  0  0  0  0
  9 10  1  0  0  0  0
 10 11  4  0  0  0  0
 11 12  4  0  0  0  0
 12 13  1  0  0  0  0
 13 14  1  0  0  0  0
 14 15  1  0  0  0  0
 15 16  1  0  0  0  0
 15 20  1  0  0  0  0
 16 17  1  0  0  0  0
 17 18  1  0  0  0  0
 18 19  1  0  0  0  0
 18 21  1  0  0  0  0
 19 20  1  0  0  0  0
 21 22  4  0  0  0  0
 21 31  4  0  0  0  0
 22 23  4  0  0  0  0
 22 27  4  0  0  0  0
 23 24  4  0  0  0  0
 23 29  4  0  0  0  0
 24 25  4  0  0  0  0
 25 26  4  0  0  0  0
 25 28  1  0  0  0  0
 26 27  4  0  0  0  0
 29 30  4  0  0  0  0
 30 31  4  0  0  0  0
M  END
>  <Name_Molregno>
493968

>  <5-HT1A>
9.6

>  <5-HT1B>
8.8

>  <5-HT1D>
9.6

>  <Serotonin transporter>
9.1

$$$$
493969
  Marvin  02231216192D 0   1.00000     0.00000     0

 31 35  0  0  0  0  0  0  0  0999 V2000
   -1.3349   -2.6603    0.0000 F   0  0  0  0  0  0  0  0  0
   -2.0494   -3.0728    0.0000 C   0  0  0  0  0  0  0  0  0
   -2.0494   -3.8978    0.0000 C   0  0  0  0  0  0  0  0  0
   -1.3349   -4.3103    0.0000 N   0  0  0  0  0  0  0  0  0
   -1.3349   -5.1353    0.0000 C   0  0  0  0  0  0  0  0  0
   -0.6205   -5.5478    0.0000 O   0  0  0  0  0  0  0  0  0
   -2.0494   -5.5478    0.0000 C   0  0  0  0  0  0  0  0  0
   -2.7639   -5.1353    0.0000 O   0  0  0  0  0  0  0  0  0
   -2.7639   -4.3103    0.0000 C   0  0  0  0  0  0  0  0  0
   -3.4784   -3.8978    0.0000 C   0  0  0  0  0  0  0  0  0
   -3.4784   -3.0728    0.0000 C   0  0  0  0  0  0  0  0  0
   -2.7639   -2.6603    0.0000 C   0  0  0  0  0  0  0  0  0
   -2.7639   -1.8353    0.0000 C   0  0  0  0  0  0  0  0  0
   -3.4784   -1.4228    0.0000 C   0  0  0  0  0  0  0  0  0
   -3.4784   -0.5978    0.0000 N   0  0  0  0  0  0  0  0  0
   -4.1928   -0.1853    0.0000 C   0  0  0  0  0  0  0  0  0
   -4.1928    0.6397    0.0000 C   0  0  0  0  0  0  0  0  0
   -3.4784    1.0522    0.0000 N   0  0  0  0  0  0  0  0  0
   -2.7639    0.6397    0.0000 C   0  0  0  0  0  0  0  0  0
   -2.7639   -0.1853    0.0000 C   0  0  0  0  0  0  0  0  0
   -3.4784    1.8772    0.0000 C   0  0  0  0  0  0  0  0  0
   -2.7639    2.2897    0.0000 C   0  0  0  0  0  0  0  0  0
   -2.7639    3.1147    0.0000 C   0  0  0  0  0  0  0  0  0
   -2.0494    3.5272    0.0000 N   0  0  0  0  0  0  0  0  0
   -1.3349    3.1147    0.0000 C   0  0  0  0  0  0  0  0  0
   -1.3349    2.2897    0.0000 C   0  0  0  0  0  0  0  0  0
   -2.0494    1.8772    0.0000 C   0  0  0  0  0  0  0  0  0
   -0.6205    3.5272    0.0000 C   0  0  0  0  0  0  0  0  0
   -3.4784    3.5272    0.0000 C   0  0  0  0  0  0  0  0  0
   -4.1928    3.1147    0.0000 C   0  0  0  0  0  0  0  0  0
   -4.1928    2.2897    0.0000 C   0  0  0  0  0  0  0  0  0
  1  2  1  0  0  0  0
  2  3  4  0  0  0  0
  2 12  4  0  0  0  0
  3  4  1  0  0  0  0
  3  9  4  0  0  0  0
  4  5  1  0  0  0  0
  5  6  2  0  0  0  0
  5  7  1  0  0  0  0
  7  8  1  0  0  0  0
  8  9  1  0  0  0  0
  9 10  4  0  0  0  0
 10 11  4  0  0  0  0
 11 12  4  0  0  0  0
 12 13  1  0  0  0  0
 13 14  1  0  0  0  0
 14 15  1  0  0  0  0
 15 16  1  0  0  0  0
 15 20  1  0  0  0  0
 16 17  1  0  0  0  0
 17 18  1  0  0  0  0
 18 19  1  0  0  0  0
 18 21  1  0  0  0  0
 19 20  1  0  0  0  0
 21 22  4  0  0  0  0
 21 31  4  0  0  0  0
 22 23  4  0  0  0  0
 22 27  4  0  0  0  0
 23 24  4  0  0  0  0
 23 29  4  0  0  0  0
 24 25  4  0  0  0  0
 25 26  4  0  0  0  0
 25 28  1  0  0  0  0
 26 27  4  0  0  0  0
 29 30  4  0  0  0  0
 30 31  4  0  0  0  0
M  END
>  <Name_Molregno>
493969

>  <5-HT1A>
9.6

>  <5-HT1B>
9.4

>  <5-HT1D>
9.4

>  <Serotonin transporter>
8.3

$$$$
493970
  Marvin  02231216192D 0   1.00000     0.00000     0

 31 35  0  0  1  0  0  0  0  0999 V2000
   -4.1659   -4.4827    0.0000 O   0  0  0  0  0  0  0  0  0
   -4.8803   -4.8952    0.0000 C   0  0  0  0  0  0  0  0  0
   -5.5948   -4.4827    0.0000 C   0  0  0  0  0  0  0  0  0
   -6.3093   -4.8952    0.0000 O   0  0  0  0  0  0  0  0  0
   -5.5948   -3.6577    0.0000 N   0  0  0  0  0  0  0  0  0
   -4.8803   -3.2452    0.0000 C   0  0  0  0  0  0  0  0  0
   -4.8803   -2.4202    0.0000 C   0  0  0  0  0  0  0  0  0
   -4.1659   -2.0077    0.0000 C   0  0  0  0  0  0  0  0  0
   -3.4514   -2.4202    0.0000 C   0  0  0  0  0  0  0  0  0
   -3.4514   -3.2452    0.0000 C   0  0  0  0  0  0  0  0  0
   -4.1659   -3.6577    0.0000 C   0  0  0  0  0  0  0  0  0
   -4.1659   -1.1827    0.0000 C   0  0  0  0  0  0  0  0  0
   -4.8803   -0.7702    0.0000 C   0  0  0  0  0  0  0  0  0
   -4.8803    0.0548    0.0000 N   0  0  0  0  0  0  0  0  0
   -5.5948    0.4673    0.0000 C   0  0  0  0  0  0  0  0  0
   -5.5948    1.2923    0.0000 C   0  0  0  0  0  0  0  0  0
   -4.8803    1.7048    0.0000 N   0  0  0  0  0  0  0  0  0
   -4.1659    1.2923    0.0000 C   0  0  0  0  0  0  0  0  0
   -4.1659    0.4673    0.0000 C   0  0  0  0  0  0  0  0  0
   -3.4514    0.0548    0.0000 C   0  0  0  0  0  0  0  0  0
   -4.8803    2.5298    0.0000 C   0  0  0  0  0  0  0  0  0
   -4.1659    2.9423    0.0000 C   0  0  0  0  0  0  0  0  0
   -4.1659    3.7673    0.0000 C   0  0  0  0  0  0  0  0  0
   -3.4514    4.1798    0.0000 N   0  0  0  0  0  0  0  0  0
   -2.7369    3.7673    0.0000 C   0  0  0  0  0  0  0  0  0
   -2.7369    2.9423    0.0000 C   0  0  0  0  0  0  0  0  0
   -3.4514    2.5298    0.0000 C   0  0  0  0  0  0  0  0  0
   -2.0224    4.1798    0.0000 C   0  0  0  0  0  0  0  0  0
   -4.8803    4.1798    0.0000 C   0  0  0  0  0  0  0  0  0
   -5.5948    3.7673    0.0000 C   0  0  0  0  0  0  0  0  0
   -5.5948    2.9423    0.0000 C   0  0  0  0  0  0  0  0  0
  1  2  1  0  0  0  0
  1 11  1  0  0  0  0
  2  3  1  0  0  0  0
  3  4  2  0  0  0  0
  3  5  1  0  0  0  0
  5  6  1  0  0  0  0
  6  7  4  0  0  0  0
  6 11  4  0  0  0  0
  7  8  4  0  0  0  0
  8  9  4  0  0  0  0
  8 12  1  0  0  0  0
  9 10  4  0  0  0  0
 10 11  4  0  0  0  0
 12 13  1  0  0  0  0
 13 14  1  0  0  0  0
 14 15  1  0  0  0  0
 14 19  1  0  0  0  0
 15 16  1  0  0  0  0
 16 17  1  0  0  0  0
 17 18  1  0  0  0  0
 17 21  1  0  0  0  0
 18 19  1  0  0  0  0
 19 20  1  0  0  0  0
 21 22  4  0  0  0  0
 21 31  4  0  0  0  0
 22 23  4  0  0  0  0
 22 27  4  0  0  0  0
 23 24  4  0  0  0  0
 23 29  4  0  0  0  0
 24 25  4  0  0  0  0
 25 26  4  0  0  0  0
 25 28  1  0  0  0  0
 26 27  4  0  0  0  0
 29 30  4  0  0  0  0
 30 31  4  0  0  0  0
M  END
>  <Name_Molregno>
493970

>  <5-HT1A>
8.65

>  <5-HT1B>
8.5

>  <5-HT1D>
9.05

>  <Serotonin transporter>
9.25

$$$$
494025
  Marvin  02231216192D 0   1.00000     0.00000     0

 31 35  0  0  1  0  0  0  0  0999 V2000
   -4.1255   -4.0727    0.0000 O   0  0  0  0  0  0  0  0  0
   -4.8400   -4.4852    0.0000 C   0  0  0  0  0  0  0  0  0
   -5.5545   -4.0727    0.0000 C   0  0  0  0  0  0  0  0  0
   -6.2689   -4.4852    0.0000 O   0  0  0  0  0  0  0  0  0
   -5.5545   -3.2477    0.0000 N   0  0  0  0  0  0  0  0  0
   -4.8400   -2.8352    0.0000 C   0  0  0  0  0  0  0  0  0
   -4.8400   -2.0102    0.0000 C   0  0  0  0  0  0  0  0  0
   -4.1255   -1.5977    0.0000 C   0  0  0  0  0  0  0  0  0
   -3.4111   -2.0102    0.0000 C   0  0  0  0  0  0  0  0  0
   -3.4111   -2.8352    0.0000 C   0  0  0  0  0  0  0  0  0
   -4.1255   -3.2477    0.0000 C   0  0  0  0  0  0  0  0  0
   -4.1255   -0.7727    0.0000 C   0  0  0  0  0  0  0  0  0
   -4.8400   -0.3602    0.0000 C   0  0  0  0  0  0  0  0  0
   -4.8400    0.4648    0.0000 N   0  0  0  0  0  0  0  0  0
   -5.5545    0.8773    0.0000 C   0  0  0  0  0  0  0  0  0
   -5.5545    1.7023    0.0000 C   0  0  0  0  0  0  0  0  0
   -4.8400    2.1148    0.0000 N   0  0  0  0  0  0  0  0  0
   -4.1255    1.7023    0.0000 C   0  0  0  0  0  0  0  0  0
   -4.1255    0.8773    0.0000 C   0  0  0  0  0  0  0  0  0
   -4.8400    2.9398    0.0000 C   0  0  0  0  0  0  0  0  0
   -4.1255    3.3523    0.0000 C   0  0  0  0  0  0  0  0  0
   -4.1255    4.1773    0.0000 C   0  0  0  0  0  0  0  0  0
   -3.4111    4.5898    0.0000 N   0  0  0  0  0  0  0  0  0
   -2.6966    4.1773    0.0000 C   0  0  0  0  0  0  0  0  0
   -2.6966    3.3523    0.0000 C   0  0  0  0  0  0  0  0  0
   -3.4111    2.9398    0.0000 C   0  0  0  0  0  0  0  0  0
   -1.9821    4.5898    0.0000 C   0  0  0  0  0  0  0  0  0
   -4.8400    4.5898    0.0000 C   0  0  0  0  0  0  0  0  0
   -5.5545    4.1773    0.0000 C   0  0  0  0  0  0  0  0  0
   -5.5545    3.3523    0.0000 C   0  0  0  0  0  0  0  0  0
   -6.2689    2.1148    0.0000 C   0  0  0  0  0  0  0  0  0
  1  2  1  0  0  0  0
  1 11  1  0  0  0  0
  2  3  1  0  0  0  0
  3  4  2  0  0  0  0
  3  5  1  0  0  0  0
  5  6  1  0  0  0  0
  6  7  4  0  0  0  0
  6 11  4  0  0  0  0
  7  8  4  0  0  0  0
  8  9  4  0  0  0  0
  8 12  1  0  0  0  0
  9 10  4  0  0  0  0
 10 11  4  0  0  0  0
 12 13  1  0  0  0  0
 13 14  1  0  0  0  0
 14 15  1  0  0  0  0
 14 19  1  0  0  0  0
 15 16  1  0  0  0  0
 16 17  1  0  0  0  0
 16 31  1  0  0  0  0
 17 18  1  0  0  0  0
 17 20  1  0  0  0  0
 18 19  1  0  0  0  0
 20 21  4  0  0  0  0
 20 30  4  0  0  0  0
 21 22  4  0  0  0  0
 21 26  4  0  0  0  0
 22 23  4  0  0  0  0
 22 28  4  0  0  0  0
 23 24  4  0  0  0  0
 24 25  4  0  0  0  0
 24 27  1  0  0  0  0
 25 26  4  0  0  0  0
 28 29  4  0  0  0  0
 29 30  4  0  0  0  0
M  END
>  <Name_Molregno>
494025

>  <5-HT1A>
9.1

>  <5-HT1B>
8.7

>  <5-HT1D>
9.5

>  <Serotonin transporter>
8

$$$$
494026
  Marvin  02231216192D 0   1.00000     0.00000     0

 31 36  0  0  1  0  0  0  0  0999 V2000
   -0.1640   -1.0547    0.0000 O   0  0  0  0  0  0  0  0  0
    0.2064   -1.7919    0.0000 C   0  0  0  0  0  0  0  0  0
   -0.2468   -2.4813    0.0000 C   0  0  0  0  0  0  0  0  0
    0.1236   -3.2184    0.0000 O   0  0  0  0  0  0  0  0  0
   -1.0705   -2.4334    0.0000 N   0  0  0  0  0  0  0  0  0
   -1.4409   -1.6963    0.0000 C   0  0  0  0  0  0  0  0  0
   -2.2645   -1.6484    0.0000 C   0  0  0  0  0  0  0  0  0
   -2.6349   -0.9113    0.0000 C   0  0  0  0  0  0  0  0  0
   -2.1816   -0.2219    0.0000 C   0  0  0  0  0  0  0  0  0
   -1.3580   -0.2697    0.0000 C   0  0  0  0  0  0  0  0  0
   -0.9876   -1.0069    0.0000 C   0  0  0  0  0  0  0  0  0
   -3.4585   -0.8635    0.0000 C   0  0  0  0  0  0  0  0  0
   -3.8289   -0.1263    0.0000 C   0  0  0  0  0  0  0  0  0
   -4.6525   -0.0785    0.0000 N   0  0  0  0  0  0  0  0  0
   -5.4657    0.2255    0.0000 C   0  0  0  0  0  0  0  0  0
   -6.6404   -0.7664    0.0000 C   0  0  0  0  0  0  0  0  0
   -6.1507   -0.0951    0.0000 C   0  0  0  0  0  0  0  0  0
   -6.3497    0.8048    0.0000 N   0  0  0  0  0  0  0  0  0
   -5.6903    1.0131    0.0000 C   0  0  0  0  0  0  0  0  0
   -7.0641    1.2173    0.0000 C   0  0  0  0  0  0  0  0  0
   -7.0641    2.0423    0.0000 C   0  0  0  0  0  0  0  0  0
   -7.7786    2.4548    0.0000 C   0  0  0  0  0  0  0  0  0
   -7.7786    3.2798    0.0000 N   0  0  0  0  0  0  0  0  0
   -7.0641    3.6923    0.0000 C   0  0  0  0  0  0  0  0  0
   -6.3497    3.2798    0.0000 C   0  0  0  0  0  0  0  0  0
   -6.3497    2.4548    0.0000 C   0  0  0  0  0  0  0  0  0
   -7.0641    4.5173    0.0000 C   0  0  0  0  0  0  0  0  0
   -8.4931    2.0423    0.0000 C   0  0  0  0  0  0  0  0  0
   -8.4931    1.2173    0.0000 C   0  0  0  0  0  0  0  0  0
   -7.7786    0.8048    0.0000 C   0  0  0  0  0  0  0  0  0
   -5.3853   -0.2591    0.0000 C   0  0  0  0  0  0  0  0  0
  1  2  1  0  0  0  0
  1 11  1  0  0  0  0
  2  3  1  0  0  0  0
  3  4  2  0  0  0  0
  3  5  1  0  0  0  0
  5  6  1  0  0  0  0
  6  7  4  0  0  0  0
  6 11  4  0  0  0  0
  7  8  4  0  0  0  0
  8  9  4  0  0  0  0
  8 12  1  0  0  0  0
  9 10  4  0  0  0  0
 10 11  4  0  0  0  0
 12 13  1  0  0  0  0
 13 14  1  0  0  0  0
 14 15  1  0  0  0  0
 14 31  1  0  0  0  0
 15 16  1  0  0  0  0
 15 19  1  0  0  0  0
 16 17  1  0  0  0  0
 17 18  1  0  0  0  0
 17 31  1  0  0  0  0
 18 19  1  0  0  0  0
 18 20  1  0  0  0  0
 20 21  4  0  0  0  0
 20 30  4  0  0  0  0
 21 22  4  0  0  0  0
 21 26  4  0  0  0  0
 22 23  4  0  0  0  0
 22 28  4  0  0  0  0
 23 24  4  0  0  0  0
 24 25  4  0  0  0  0
 24 27  1  0  0  0  0
 25 26  4  0  0  0  0
 28 29  4  0  0  0  0
 29 30  4  0  0  0  0
M  END
>  <Name_Molregno>
494026

>  <5-HT1A>
6.9

>  <5-HT1B>
9.1

>  <5-HT1D>
7.6

>  <Serotonin transporter>
8.4

$$$$
494027
  Marvin  02231216192D 0   1.00000     0.00000     0

 31 35  0  0  0  0  0  0  0  0999 V2000
    0.4026    2.3146    0.0000 F   0  0  0  0  0  0  0  0  0
    1.1170    1.9021    0.0000 C   0  0  0  0  0  0  0  0  0
    1.8315    2.3146    0.0000 C   0  0  0  0  0  0  0  0  0
    1.8315    3.1396    0.0000 N   0  0  0  0  0  0  0  0  0
    2.5460    3.5521    0.0000 C   0  0  0  0  0  0  0  0  0
    3.2604    3.1396    0.0000 C   0  0  0  0  0  0  0  0  0
    3.2604    2.3146    0.0000 C   0  0  0  0  0  0  0  0  0
    2.5460    1.9021    0.0000 C   0  0  0  0  0  0  0  0  0
    2.5460    1.0771    0.0000 C   0  0  0  0  0  0  0  0  0
    3.2604    0.6646    0.0000 N   0  0  0  0  0  0  0  0  0
    3.9749    1.0771    0.0000 C   0  0  0  0  0  0  0  0  0
    4.6894    0.6646    0.0000 C   0  0  0  0  0  0  0  0  0
    4.6894   -0.1604    0.0000 N   0  0  0  0  0  0  0  0  0
    3.9749   -0.5729    0.0000 C   0  0  0  0  0  0  0  0  0
    3.2604   -0.1604    0.0000 C   0  0  0  0  0  0  0  0  0
    5.4038   -0.5729    0.0000 C   0  0  0  0  0  0  0  0  0
    5.4038   -1.3979    0.0000 C   0  0  0  0  0  0  0  0  0
    6.1183   -1.8104    0.0000 C   0  0  0  0  0  0  0  0  0
    6.8328   -1.3979    0.0000 C   0  0  0  0  0  0  0  0  0
    7.5473   -1.8104    0.0000 C   0  0  0  0  0  0  0  0  0
    8.2617   -1.3979    0.0000 N   0  0  0  0  0  0  0  0  0
    8.9762   -1.8104    0.0000 C   0  0  0  0  0  0  0  0  0
    9.6907   -1.3979    0.0000 O   0  0  0  0  0  0  0  0  0
    8.9762   -2.6354    0.0000 C   0  0  0  0  0  0  0  0  0
    8.2617   -3.0479    0.0000 O   0  0  0  0  0  0  0  0  0
    7.5473   -2.6354    0.0000 C   0  0  0  0  0  0  0  0  0
    6.8328   -3.0479    0.0000 C   0  0  0  0  0  0  0  0  0
    6.1183   -2.6354    0.0000 C   0  0  0  0  0  0  0  0  0
    1.8315    0.6646    0.0000 C   0  0  0  0  0  0  0  0  0
    1.1170    1.0771    0.0000 C   0  0  0  0  0  0  0  0  0
    2.5460    4.3771    0.0000 C   0  0  0  0  0  0  0  0  0
  1  2  1  0  0  0  0
  2  3  4  0  0  0  0
  2 30  4  0  0  0  0
  3  4  4  0  0  0  0
  3  8  4  0  0  0  0
  4  5  4  0  0  0  0
  5  6  4  0  0  0  0
  5 31  1  0  0  0  0
  6  7  4  0  0  0  0
  7  8  4  0  0  0  0
  8  9  4  0  0  0  0
  9 10  1  0  0  0  0
  9 29  4  0  0  0  0
 10 11  1  0  0  0  0
 10 15  1  0  0  0  0
 11 12  1  0  0  0  0
 12 13  1  0  0  0  0
 13 14  1  0  0  0  0
 13 16  1  0  0  0  0
 14 15  1  0  0  0  0
 16 17  1  0  0  0  0
 17 18  1  0  0  0  0
 18 19  4  0  0  0  0
 18 28  4  0  0  0  0
 19 20  4  0  0  0  0
 20 21  1  0  0  0  0
 20 26  4  0  0  0  0
 21 22  1  0  0  0  0
 22 23  2  0  0  0  0
 22 24  1  0  0  0  0
 24 25  1  0  0  0  0
 25 26  1  0  0  0  0
 26 27  4  0  0  0  0
 27 28  4  0  0  0  0
 29 30  4  0  0  0  0
M  END
>  <Name_Molregno>
494027

>  <5-HT1A>
9.6

>  <5-HT1B>
6.9

>  <5-HT1D>
9.5

>  <Serotonin transporter>
8.4

$$$$
494028
  Marvin  02231216192D 0   1.00000     0.00000     0

 31 35  0  0  0  0  0  0  0  0999 V2000
    0.4026    2.3146    0.0000 Cl  0  0  0  0  0  0  0  0  0
    1.1170    1.9021    0.0000 C   0  0  0  0  0  0  0  0  0
    1.8315    2.3146    0.0000 C   0  0  0  0  0  0  0  0  0
    1.8315    3.1396    0.0000 N   0  0  0  0  0  0  0  0  0
    2.5460    3.5521    0.0000 C   0  0  0  0  0  0  0  0  0
    3.2604    3.1396    0.0000 C   0  0  0  0  0  0  0  0  0
    3.2604    2.3146    0.0000 C   0  0  0  0  0  0  0  0  0
    2.5460    1.9021    0.0000 C   0  0  0  0  0  0  0  0  0
    2.5460    1.0771    0.0000 C   0  0  0  0  0  0  0  0  0
    3.2604    0.6646    0.0000 N   0  0  0  0  0  0  0  0  0
    3.9749    1.0771    0.0000 C   0  0  0  0  0  0  0  0  0
    4.6894    0.6646    0.0000 C   0  0  0  0  0  0  0  0  0
    4.6894   -0.1604    0.0000 N   0  0  0  0  0  0  0  0  0
    3.9749   -0.5729    0.0000 C   0  0  0  0  0  0  0  0  0
    3.2604   -0.1604    0.0000 C   0  0  0  0  0  0  0  0  0
    5.4038   -0.5729    0.0000 C   0  0  0  0  0  0  0  0  0
    5.4038   -1.3979    0.0000 C   0  0  0  0  0  0  0  0  0
    6.1183   -1.8104    0.0000 C   0  0  0  0  0  0  0  0  0
    6.8328   -1.3979    0.0000 C   0  0  0  0  0  0  0  0  0
    7.5473   -1.8104    0.0000 C   0  0  0  0  0  0  0  0  0
    8.2617   -1.3979    0.0000 N   0  0  0  0  0  0  0  0  0
    8.9762   -1.8104    0.0000 C   0  0  0  0  0  0  0  0  0
    9.6907   -1.3979    0.0000 O   0  0  0  0  0  0  0  0  0
    8.9762   -2.6354    0.0000 C   0  0  0  0  0  0  0  0  0
    8.2617   -3.0479    0.0000 O   0  0  0  0  0  0  0  0  0
    7.5473   -2.6354    0.0000 C   0  0  0  0  0  0  0  0  0
    6.8328   -3.0479    0.0000 C   0  0  0  0  0  0  0  0  0
    6.1183   -2.6354    0.0000 C   0  0  0  0  0  0  0  0  0
    1.8315    0.6646    0.0000 C   0  0  0  0  0  0  0  0  0
    1.1170    1.0771    0.0000 C   0  0  0  0  0  0  0  0  0
    2.5460    4.3771    0.0000 C   0  0  0  0  0  0  0  0  0
  1  2  1  0  0  0  0
  2  3  4  0  0  0  0
  2 30  4  0  0  0  0
  3  4  4  0  0  0  0
  3  8  4  0  0  0  0
  4  5  4  0  0  0  0
  5  6  4  0  0  0  0
  5 31  1  0  0  0  0
  6  7  4  0  0  0  0
  7  8  4  0  0  0  0
  8  9  4  0  0  0  0
  9 10  1  0  0  0  0
  9 29  4  0  0  0  0
 10 11  1  0  0  0  0
 10 15  1  0  0  0  0
 11 12  1  0  0  0  0
 12 13  1  0  0  0  0
 13 14  1  0  0  0  0
 13 16  1  0  0  0  0
 14 15  1  0  0  0  0
 16 17  1  0  0  0  0
 17 18  1  0  0  0  0
 18 19  4  0  0  0  0
 18 28  4  0  0  0  0
 19 20  4  0  0  0  0
 20 21  1  0  0  0  0
 20 26  4  0  0  0  0
 21 22  1  0  0  0  0
 22 23  2  0  0  0  0
 22 24  1  0  0  0  0
 24 25  1  0  0  0  0
 25 26  1  0  0  0  0
 26 27  4  0  0  0  0
 27 28  4  0  0  0  0
 29 30  4  0  0  0  0
M  END
>  <Name_Molregno>
494028

>  <5-HT1A>
8.4

>  <5-HT1B>
9.3

>  <5-HT1D>
9.7

>  <Serotonin transporter>
8.8

$$$$
495378
  Marvin  02231216192D 0   1.00000     0.00000     0

 35 39  0  0  1  0  0  0  0  0999 V2000
    5.6005    0.3871    0.0000 O   0  0  0  0  0  0  0  0  0
    4.8860   -0.0254    0.0000 C   0  0  0  0  0  0  0  0  0
    4.8860   -0.8504    0.0000 C   0  0  0  0  0  0  0  0  0
    4.1716   -1.2629    0.0000 N   0  0  0  0  0  0  0  0  0
    4.1716   -2.0879    0.0000 C   0  0  0  0  0  0  0  0  0
    3.4571   -2.5004    0.0000 C   0  0  0  0  0  0  0  0  0
    2.7426   -2.0879    0.0000 C   0  0  0  0  0  0  0  0  0
    2.7426   -1.2629    0.0000 C   0  0  0  0  0  0  0  0  0
    3.4571   -0.8504    0.0000 C   0  0  0  0  0  0  0  0  0
    2.0282   -2.5004    0.0000 C   0  0  0  0  0  0  0  0  0
    1.3137   -2.0879    0.0000 C   0  0  0  0  0  0  0  0  0
    0.5992   -2.5004    0.0000 C   0  0  0  0  0  0  0  0  0
   -0.1153   -2.0879    0.0000 C   0  0  0  0  0  0  0  0  0
   -0.8297   -2.5004    0.0000 N   0  0  0  0  0  0  0  0  0
   -0.8297   -3.3254    0.0000 C   0  0  0  0  0  0  0  0  0
   -1.5442   -3.7379    0.0000 C   0  0  0  0  0  0  0  0  0
   -2.2587   -3.3254    0.0000 N   0  0  0  0  0  0  0  0  0
   -2.2587   -2.5004    0.0000 C   0  0  0  0  0  0  0  0  0
   -1.5442   -2.0879    0.0000 C   0  0  0  0  0  0  0  0  0
   -2.9731   -2.0879    0.0000 C   0  0  0  0  0  0  0  0  0
   -1.5442   -4.5629    0.0000 C   0  0  0  0  0  0  0  0  0
   -0.1153   -1.2629    0.0000 C   0  0  0  0  0  0  0  0  0
    0.5992   -0.8504    0.0000 C   0  0  0  0  0  0  0  0  0
    1.3137   -1.2629    0.0000 C   0  0  0  0  0  0  0  0  0
    5.6005    1.2121    0.0000 C   0  0  0  0  0  0  0  0  0
    6.3150    1.6246    0.0000 C   0  0  0  0  0  0  0  0  0
    6.3150    2.4496    0.0000 C   0  0  0  0  0  0  0  0  0
    7.0294    2.8621    0.0000 N   0  0  0  0  0  0  0  0  0
    7.7439    2.4496    0.0000 C   0  0  0  0  0  0  0  0  0
    7.7439    1.6246    0.0000 C   0  0  0  0  0  0  0  0  0
    7.0294    1.2121    0.0000 C   0  0  0  0  0  0  0  0  0
    8.4584    2.8621    0.0000 C   0  0  0  0  0  0  0  0  0
    5.6005    2.8621    0.0000 C   0  0  0  0  0  0  0  0  0
    4.8860    2.4496    0.0000 C   0  0  0  0  0  0  0  0  0
    4.8860    1.6246    0.0000 C   0  0  0  0  0  0  0  0  0
  1  2  1  0  0  0  0
  1 25  1  0  0  0  0
  2  3  1  0  0  0  0
  3  4  1  0  0  0  0
  4  5  1  0  0  0  0
  4  9  1  0  0  0  0
  5  6  1  0  0  0  0
  6  7  1  0  0  0  0
  7  8  1  0  0  0  0
  7 10  1  0  0  0  0
  8  9  1  0  0  0  0
 10 11  1  0  0  0  0
 11 12  4  0  0  0  0
 11 24  4  0  0  0  0
 12 13  4  0  0  0  0
 13 14  1  0  0  0  0
 13 22  4  0  0  0  0
 14 15  1  0  0  0  0
 14 19  1  0  0  0  0
 15 16  1  0  0  0  0
 16 17  1  0  0  0  0
 16 21  1  0  0  0  0
 17 18  1  0  0  0  0
 18 19  1  0  0  0  0
 18 20  1  0  0  0  0
 22 23  4  0  0  0  0
 23 24  4  0  0  0  0
 25 26  4  0  0  0  0
 25 35  4  0  0  0  0
 26 27  4  0  0  0  0
 26 31  4  0  0  0  0
 27 28  4  0  0  0  0
 27 33  4  0  0  0  0
 28 29  4  0  0  0  0
 29 30  4  0  0  0  0
 29 32  1  0  0  0  0
 30 31  4  0  0  0  0
 33 34  4  0  0  0  0
 34 35  4  0  0  0  0
M  END
>  <Name_Molregno>
495378

>  <5-HT1A>
8.7

>  <5-HT1B>
8.4

>  <5-HT1D>
9.1

$$$$
495379
  Marvin  02231216192D 0   1.00000     0.00000     0

 34 38  0  0  1  0  0  0  0  0999 V2000
    5.2665    1.7097    0.0000 O   0  0  0  0  0  0  0  0  0
    4.5520    1.2972    0.0000 C   0  0  0  0  0  0  0  0  0
    4.5520    0.4722    0.0000 C   0  0  0  0  0  0  0  0  0
    3.8375    0.0597    0.0000 N   0  0  0  0  0  0  0  0  0
    3.8375   -0.7653    0.0000 C   0  0  0  0  0  0  0  0  0
    3.1230   -1.1778    0.0000 C   0  0  0  0  0  0  0  0  0
    2.4086   -0.7653    0.0000 C   0  0  0  0  0  0  0  0  0
    2.4086    0.0597    0.0000 C   0  0  0  0  0  0  0  0  0
    3.1230    0.4722    0.0000 C   0  0  0  0  0  0  0  0  0
    1.6941   -1.1778    0.0000 C   0  0  0  0  0  0  0  0  0
    0.9796   -0.7653    0.0000 C   0  0  0  0  0  0  0  0  0
    0.2652   -1.1778    0.0000 C   0  0  0  0  0  0  0  0  0
   -0.4493   -0.7653    0.0000 C   0  0  0  0  0  0  0  0  0
   -1.1638   -1.1778    0.0000 N   0  0  0  0  0  0  0  0  0
   -1.1638   -2.0028    0.0000 C   0  0  0  0  0  0  0  0  0
   -1.8783   -2.4153    0.0000 C   0  0  0  0  0  0  0  0  0
   -2.5927   -2.0028    0.0000 N   0  0  0  0  0  0  0  0  0
   -2.5927   -1.1778    0.0000 C   0  0  0  0  0  0  0  0  0
   -1.8783   -0.7653    0.0000 C   0  0  0  0  0  0  0  0  0
   -1.8783   -3.2403    0.0000 C   0  0  0  0  0  0  0  0  0
   -0.4493    0.0597    0.0000 C   0  0  0  0  0  0  0  0  0
    0.2652    0.4722    0.0000 C   0  0  0  0  0  0  0  0  0
    0.9796    0.0597    0.0000 C   0  0  0  0  0  0  0  0  0
    5.2665    2.5347    0.0000 C   0  0  0  0  0  0  0  0  0
    5.9809    2.9472    0.0000 C   0  0  0  0  0  0  0  0  0
    5.9809    3.7722    0.0000 C   0  0  0  0  0  0  0  0  0
    6.6954    4.1847    0.0000 N   0  0  0  0  0  0  0  0  0
    7.4099    3.7722    0.0000 C   0  0  0  0  0  0  0  0  0
    7.4099    2.9472    0.0000 C   0  0  0  0  0  0  0  0  0
    6.6954    2.5347    0.0000 C   0  0  0  0  0  0  0  0  0
    8.1243    4.1847    0.0000 C   0  0  0  0  0  0  0  0  0
    5.2665    4.1847    0.0000 C   0  0  0  0  0  0  0  0  0
    4.5520    3.7722    0.0000 C   0  0  0  0  0  0  0  0  0
    4.5520    2.9472    0.0000 C   0  0  0  0  0  0  0  0  0
  1  2  1  0  0  0  0
  1 24  1  0  0  0  0
  2  3  1  0  0  0  0
  3  4  1  0  0  0  0
  4  5  1  0  0  0  0
  4  9  1  0  0  0  0
  5  6  1  0  0  0  0
  6  7  1  0  0  0  0
  7  8  1  0  0  0  0
  7 10  1  0  0  0  0
  8  9  1  0  0  0  0
 10 11  1  0  0  0  0
 11 12  4  0  0  0  0
 11 23  4  0  0  0  0
 12 13  4  0  0  0  0
 13 14  1  0  0  0  0
 13 21  4  0  0  0  0
 14 15  1  0  0  0  0
 14 19  1  0  0  0  0
 15 16  1  0  0  0  0
 16 17  1  0  0  0  0
 16 20  1  0  0  0  0
 17 18  1  0  0  0  0
 18 19  1  0  0  0  0
 21 22  4  0  0  0  0
 22 23  4  0  0  0  0
 24 25  4  0  0  0  0
 24 34  4  0  0  0  0
 25 26  4  0  0  0  0
 25 30  4  0  0  0  0
 26 27  4  0  0  0  0
 26 32  4  0  0  0  0
 27 28  4  0  0  0  0
 28 29  4  0  0  0  0
 28 31  1  0  0  0  0
 29 30  4  0  0  0  0
 32 33  4  0  0  0  0
 33 34  4  0  0  0  0
M  END
>  <Name_Molregno>
495379

>  <5-HT1A>
8.5

>  <5-HT1B>
8.25

>  <5-HT1D>
9.1

$$$$
495382
  Marvin  02231216192D 0   1.00000     0.00000     0

 37 41  0  0  0  0  0  0  0  0999 V2000
  -10.6263   -5.5555    0.0000 S   0  0  0  0  0  0  0  0  0
  -11.3408   -5.9680    0.0000 O   0  0  0  0  0  0  0  0  0
  -10.2138   -6.2700    0.0000 O   0  0  0  0  0  0  0  0  0
   -9.9118   -5.1430    0.0000 N   0  0  0  0  0  0  0  0  0
   -9.9118   -4.3180    0.0000 C   0  0  0  0  0  0  0  0  0
   -9.1973   -3.9055    0.0000 C   0  0  0  0  0  0  0  0  0
   -8.4829   -4.3180    0.0000 C   0  0  0  0  0  0  0  0  0
   -8.4829   -5.1430    0.0000 C   0  0  0  0  0  0  0  0  0
   -9.1973   -5.5555    0.0000 C   0  0  0  0  0  0  0  0  0
   -7.7684   -3.9055    0.0000 C   0  0  0  0  0  0  0  0  0
   -7.7684   -3.0805    0.0000 C   0  0  0  0  0  0  0  0  0
   -7.0539   -2.6680    0.0000 C   0  0  0  0  0  0  0  0  0
   -6.3395   -3.0805    0.0000 C   0  0  0  0  0  0  0  0  0
   -6.3395   -3.9055    0.0000 C   0  0  0  0  0  0  0  0  0
   -7.0539   -4.3180    0.0000 C   0  0  0  0  0  0  0  0  0
   -7.0539   -1.8430    0.0000 C   0  0  0  0  0  0  0  0  0
   -6.3395   -1.4305    0.0000 C   0  0  0  0  0  0  0  0  0
   -6.3395   -0.6055    0.0000 C   0  0  0  0  0  0  0  0  0
   -5.6250   -0.1930    0.0000 C   0  0  0  0  0  0  0  0  0
   -4.9105   -0.6055    0.0000 N   0  0  0  0  0  0  0  0  0
   -4.9105   -1.4305    0.0000 C   0  0  0  0  0  0  0  0  0
   -5.6250   -1.8430    0.0000 C   0  0  0  0  0  0  0  0  0
   -4.1960   -0.1930    0.0000 C   0  0  0  0  0  0  0  0  0
   -4.1960    0.6320    0.0000 C   0  0  0  0  0  0  0  0  0
   -3.4816    1.0445    0.0000 O   0  0  0  0  0  0  0  0  0
   -3.4816    1.8695    0.0000 C   0  0  0  0  0  0  0  0  0
   -2.7671    2.2820    0.0000 C   0  0  0  0  0  0  0  0  0
   -2.7671    3.1070    0.0000 C   0  0  0  0  0  0  0  0  0
   -2.0526    3.5195    0.0000 N   0  0  0  0  0  0  0  0  0
   -1.3382    3.1070    0.0000 C   0  0  0  0  0  0  0  0  0
   -1.3382    2.2820    0.0000 C   0  0  0  0  0  0  0  0  0
   -2.0526    1.8695    0.0000 C   0  0  0  0  0  0  0  0  0
   -0.6237    3.5195    0.0000 C   0  0  0  0  0  0  0  0  0
   -3.4816    3.5195    0.0000 C   0  0  0  0  0  0  0  0  0
   -4.1960    3.1070    0.0000 C   0  0  0  0  0  0  0  0  0
   -4.1960    2.2820    0.0000 C   0  0  0  0  0  0  0  0  0
  -11.0388   -4.8410    0.0000 C   0  0  0  0  0  0  0  0  0
  1  2  2  0  0  0  0
  1  3  2  0  0  0  0
  1  4  1  0  0  0  0
  1 37  1  0  0  0  0
  4  5  1  0  0  0  0
  4  9  1  0  0  0  0
  5  6  1  0  0  0  0
  6  7  1  0  0  0  0
  7  8  1  0  0  0  0
  7 10  1  0  0  0  0
  8  9  1  0  0  0  0
 10 11  4  0  0  0  0
 10 15  4  0  0  0  0
 11 12  4  0  0  0  0
 12 13  4  0  0  0  0
 12 16  1  0  0  0  0
 13 14  4  0  0  0  0
 14 15  4  0  0  0  0
 16 17  1  0  0  0  0
 17 18  1  0  0  0  0
 17 22  1  0  0  0  0
 18 19  1  0  0  0  0
 19 20  1  0  0  0  0
 20 21  1  0  0  0  0
 20 23  1  0  0  0  0
 21 22  1  0  0  0  0
 23 24  1  0  0  0  0
 24 25  1  0  0  0  0
 25 26  1  0  0  0  0
 26 27  4  0  0  0  0
 26 36  4  0  0  0  0
 27 28  4  0  0  0  0
 27 32  4  0  0  0  0
 28 29  4  0  0  0  0
 28 34  4  0  0  0  0
 29 30  4  0  0  0  0
 30 31  4  0  0  0  0
 30 33  1  0  0  0  0
 31 32  4  0  0  0  0
 34 35  4  0  0  0  0
 35 36  4  0  0  0  0
M  END
>  <Name_Molregno>
495382

>  <5-HT1A>
8.1

>  <5-HT1B>
7.1

>  <5-HT1D>
8.5

$$$$
495383
  Marvin  02231216192D 0   1.00000     0.00000     0

 33 37  0  0  0  0  0  0  0  0999 V2000
    4.9585    0.3386    0.0000 O   0  0  0  0  0  0  0  0  0
    4.2440   -0.0739    0.0000 C   0  0  0  0  0  0  0  0  0
    4.2440   -0.8989    0.0000 C   0  0  0  0  0  0  0  0  0
    3.5295   -1.3114    0.0000 N   0  0  0  0  0  0  0  0  0
    3.5295   -2.1364    0.0000 C   0  0  0  0  0  0  0  0  0
    2.8150   -2.5489    0.0000 C   0  0  0  0  0  0  0  0  0
    2.1006   -2.1364    0.0000 C   0  0  0  0  0  0  0  0  0
    2.1006   -1.3114    0.0000 C   0  0  0  0  0  0  0  0  0
    2.8150   -0.8989    0.0000 C   0  0  0  0  0  0  0  0  0
    1.3861   -2.5489    0.0000 C   0  0  0  0  0  0  0  0  0
    0.6716   -2.1364    0.0000 C   0  0  0  0  0  0  0  0  0
   -0.0428   -2.5489    0.0000 C   0  0  0  0  0  0  0  0  0
   -0.7573   -2.1364    0.0000 C   0  0  0  0  0  0  0  0  0
   -0.7573   -1.3114    0.0000 C   0  0  0  0  0  0  0  0  0
   -0.0428   -0.8989    0.0000 C   0  0  0  0  0  0  0  0  0
    0.6716   -1.3114    0.0000 C   0  0  0  0  0  0  0  0  0
   -1.4718   -2.5489    0.0000 C   0  0  0  0  0  0  0  0  0
   -1.4718   -3.3739    0.0000 C   0  0  0  0  0  0  0  0  0
   -2.1863   -3.7864    0.0000 C   0  0  0  0  0  0  0  0  0
   -2.9007   -3.3739    0.0000 N   0  0  0  0  0  0  0  0  0
   -2.9007   -2.5489    0.0000 C   0  0  0  0  0  0  0  0  0
   -2.1863   -2.1364    0.0000 C   0  0  0  0  0  0  0  0  0
    4.9585    1.1636    0.0000 C   0  0  0  0  0  0  0  0  0
    5.6729    1.5761    0.0000 C   0  0  0  0  0  0  0  0  0
    5.6729    2.4011    0.0000 C   0  0  0  0  0  0  0  0  0
    6.3874    2.8136    0.0000 N   0  0  0  0  0  0  0  0  0
    7.1019    2.4011    0.0000 C   0  0  0  0  0  0  0  0  0
    7.1019    1.5761    0.0000 C   0  0  0  0  0  0  0  0  0
    6.3874    1.1636    0.0000 C   0  0  0  0  0  0  0  0  0
    7.8163    2.8136    0.0000 C   0  0  0  0  0  0  0  0  0
    4.9585    2.8136    0.0000 C   0  0  0  0  0  0  0  0  0
    4.2440    2.4011    0.0000 C   0  0  0  0  0  0  0  0  0
    4.2440    1.5761    0.0000 C   0  0  0  0  0  0  0  0  0
  1  2  1  0  0  0  0
  1 23  1  0  0  0  0
  2  3  1  0  0  0  0
  3  4  1  0  0  0  0
  4  5  1  0  0  0  0
  4  9  1  0  0  0  0
  5  6  1  0  0  0  0
  6  7  1  0  0  0  0
  7  8  1  0  0  0  0
  7 10  1  0  0  0  0
  8  9  1  0  0  0  0
 10 11  1  0  0  0  0
 11 12  4  0  0  0  0
 11 16  4  0  0  0  0
 12 13  4  0  0  0  0
 13 14  4  0  0  0  0
 13 17  1  0  0  0  0
 14 15  4  0  0  0  0
 15 16  4  0  0  0  0
 17 18  4  0  0  0  0
 17 22  4  0  0  0  0
 18 19  4  0  0  0  0
 19 20  4  0  0  0  0
 20 21  4  0  0  0  0
 21 22  4  0  0  0  0
 23 24  4  0  0  0  0
 23 33  4  0  0  0  0
 24 25  4  0  0  0  0
 24 29  4  0  0  0  0
 25 26  4  0  0  0  0
 25 31  4  0  0  0  0
 26 27  4  0  0  0  0
 27 28  4  0  0  0  0
 27 30  1  0  0  0  0
 28 29  4  0  0  0  0
 31 32  4  0  0  0  0
 32 33  4  0  0  0  0
M  END
>  <Name_Molregno>
495383

>  <5-HT1A>
8.1

>  <5-HT1B>
8.1

>  <5-HT1D>
9

$$$$
495384
  Marvin  02231216192D 0   1.00000     0.00000     0

 33 37  0  0  0  0  0  0  0  0999 V2000
    4.9585    0.3386    0.0000 O   0  0  0  0  0  0  0  0  0
    4.2440   -0.0739    0.0000 C   0  0  0  0  0  0  0  0  0
    4.2440   -0.8989    0.0000 C   0  0  0  0  0  0  0  0  0
    3.5295   -1.3114    0.0000 N   0  0  0  0  0  0  0  0  0
    3.5295   -2.1364    0.0000 C   0  0  0  0  0  0  0  0  0
    2.8150   -2.5489    0.0000 C   0  0  0  0  0  0  0  0  0
    2.1006   -2.1364    0.0000 C   0  0  0  0  0  0  0  0  0
    2.1006   -1.3114    0.0000 C   0  0  0  0  0  0  0  0  0
    2.8150   -0.8989    0.0000 C   0  0  0  0  0  0  0  0  0
    1.3861   -2.5489    0.0000 C   0  0  0  0  0  0  0  0  0
    0.6716   -2.1364    0.0000 C   0  0  0  0  0  0  0  0  0
   -0.0428   -2.5489    0.0000 C   0  0  0  0  0  0  0  0  0
   -0.7573   -2.1364    0.0000 C   0  0  0  0  0  0  0  0  0
   -0.7573   -1.3114    0.0000 C   0  0  0  0  0  0  0  0  0
   -0.0428   -0.8989    0.0000 C   0  0  0  0  0  0  0  0  0
    0.6716   -1.3114    0.0000 C   0  0  0  0  0  0  0  0  0
   -1.4718   -2.5489    0.0000 C   0  0  0  0  0  0  0  0  0
   -1.4718   -3.3739    0.0000 C   0  0  0  0  0  0  0  0  0
   -2.1863   -3.7864    0.0000 C   0  0  0  0  0  0  0  0  0
   -2.9007   -3.3739    0.0000 C   0  0  0  0  0  0  0  0  0
   -2.9007   -2.5489    0.0000 N   0  0  0  0  0  0  0  0  0
   -2.1863   -2.1364    0.0000 C   0  0  0  0  0  0  0  0  0
    4.9585    1.1636    0.0000 C   0  0  0  0  0  0  0  0  0
    5.6729    1.5761    0.0000 C   0  0  0  0  0  0  0  0  0
    5.6729    2.4011    0.0000 C   0  0  0  0  0  0  0  0  0
    6.3874    2.8136    0.0000 N   0  0  0  0  0  0  0  0  0
    7.1019    2.4011    0.0000 C   0  0  0  0  0  0  0  0  0
    7.1019    1.5761    0.0000 C   0  0  0  0  0  0  0  0  0
    6.3874    1.1636    0.0000 C   0  0  0  0  0  0  0  0  0
    7.8163    2.8136    0.0000 C   0  0  0  0  0  0  0  0  0
    4.9585    2.8136    0.0000 C   0  0  0  0  0  0  0  0  0
    4.2440    2.4011    0.0000 C   0  0  0  0  0  0  0  0  0
    4.2440    1.5761    0.0000 C   0  0  0  0  0  0  0  0  0
  1  2  1  0  0  0  0
  1 23  1  0  0  0  0
  2  3  1  0  0  0  0
  3  4  1  0  0  0  0
  4  5  1  0  0  0  0
  4  9  1  0  0  0  0
  5  6  1  0  0  0  0
  6  7  1  0  0  0  0
  7  8  1  0  0  0  0
  7 10  1  0  0  0  0
  8  9  1  0  0  0  0
 10 11  1  0  0  0  0
 11 12  4  0  0  0  0
 11 16  4  0  0  0  0
 12 13  4  0  0  0  0
 13 14  4  0  0  0  0
 13 17  1  0  0  0  0
 14 15  4  0  0  0  0
 15 16  4  0  0  0  0
 17 18  4  0  0  0  0
 17 22  4  0  0  0  0
 18 19  4  0  0  0  0
 19 20  4  0  0  0  0
 20 21  4  0  0  0  0
 21 22  4  0  0  0  0
 23 24  4  0  0  0  0
 23 33  4  0  0  0  0
 24 25  4  0  0  0  0
 24 29  4  0  0  0  0
 25 26  4  0  0  0  0
 25 31  4  0  0  0  0
 26 27  4  0  0  0  0
 27 28  4  0  0  0  0
 27 30  1  0  0  0  0
 28 29  4  0  0  0  0
 31 32  4  0  0  0  0
 32 33  4  0  0  0  0
M  END
>  <Name_Molregno>
495384

>  <5-HT1A>
8.3

>  <5-HT1B>
7.9

>  <5-HT1D>
8.7

$$$$
495442
  Marvin  02231216192D 0   1.00000     0.00000     0

 35 39  0  0  1  0  0  0  0  0999 V2000
    5.5153    0.3701    0.0000 O   0  0  0  0  0  0  0  0  0
    4.8009   -0.0424    0.0000 C   0  0  0  0  0  0  0  0  0
    4.8009   -0.8674    0.0000 C   0  0  0  0  0  0  0  0  0
    4.0864   -1.2799    0.0000 N   0  0  0  0  0  0  0  0  0
    4.0864   -2.1049    0.0000 C   0  0  0  0  0  0  0  0  0
    3.3719   -2.5174    0.0000 C   0  0  0  0  0  0  0  0  0
    2.6574   -2.1049    0.0000 C   0  0  0  0  0  0  0  0  0
    2.6574   -1.2799    0.0000 C   0  0  0  0  0  0  0  0  0
    3.3719   -0.8674    0.0000 C   0  0  0  0  0  0  0  0  0
    1.9430   -2.5174    0.0000 C   0  0  0  0  0  0  0  0  0
    1.2285   -2.1049    0.0000 C   0  0  0  0  0  0  0  0  0
    0.5140   -2.5174    0.0000 C   0  0  0  0  0  0  0  0  0
   -0.2004   -2.1049    0.0000 C   0  0  0  0  0  0  0  0  0
   -0.9149   -2.5174    0.0000 N   0  0  0  0  0  0  0  0  0
   -0.9149   -3.3424    0.0000 C   0  0  0  0  0  0  0  0  0
   -1.6294   -3.7549    0.0000 C   0  0  0  0  0  0  0  0  0
   -2.3439   -3.3424    0.0000 N   0  0  0  0  0  0  0  0  0
   -2.3439   -2.5174    0.0000 C   0  0  0  0  0  0  0  0  0
   -1.6294   -2.1049    0.0000 C   0  0  0  0  0  0  0  0  0
   -1.6294   -1.2799    0.0000 C   0  0  0  0  0  0  0  0  0
   -1.6294   -4.5799    0.0000 C   0  0  0  0  0  0  0  0  0
   -0.2004   -1.2799    0.0000 C   0  0  0  0  0  0  0  0  0
    0.5140   -0.8674    0.0000 C   0  0  0  0  0  0  0  0  0
    1.2285   -1.2799    0.0000 C   0  0  0  0  0  0  0  0  0
    5.5153    1.1951    0.0000 C   0  0  0  0  0  0  0  0  0
    6.2298    1.6076    0.0000 C   0  0  0  0  0  0  0  0  0
    6.2298    2.4326    0.0000 C   0  0  0  0  0  0  0  0  0
    6.9443    2.8451    0.0000 N   0  0  0  0  0  0  0  0  0
    7.6587    2.4326    0.0000 C   0  0  0  0  0  0  0  0  0
    7.6587    1.6076    0.0000 C   0  0  0  0  0  0  0  0  0
    6.9443    1.1951    0.0000 C   0  0  0  0  0  0  0  0  0
    8.3732    2.8451    0.0000 C   0  0  0  0  0  0  0  0  0
    5.5153    2.8451    0.0000 C   0  0  0  0  0  0  0  0  0
    4.8009    2.4326    0.0000 C   0  0  0  0  0  0  0  0  0
    4.8009    1.6076    0.0000 C   0  0  0  0  0  0  0  0  0
  1  2  1  0  0  0  0
  1 25  1  0  0  0  0
  2  3  1  0  0  0  0
  3  4  1  0  0  0  0
  4  5  1  0  0  0  0
  4  9  1  0  0  0  0
  5  6  1  0  0  0  0
  6  7  1  0  0  0  0
  7  8  1  0  0  0  0
  7 10  1  0  0  0  0
  8  9  1  0  0  0  0
 10 11  1  0  0  0  0
 11 12  4  0  0  0  0
 11 24  4  0  0  0  0
 12 13  4  0  0  0  0
 13 14  1  0  0  0  0
 13 22  4  0  0  0  0
 14 15  1  0  0  0  0
 14 19  1  0  0  0  0
 15 16  1  0  0  0  0
 16 17  1  0  0  0  0
 16 21  1  0  0  0  0
 17 18  1  0  0  0  0
 18 19  1  0  0  0  0
 19 20  1  0  0  0  0
 22 23  4  0  0  0  0
 23 24  4  0  0  0  0
 25 26  4  0  0  0  0
 25 35  4  0  0  0  0
 26 27  4  0  0  0  0
 26 31  4  0  0  0  0
 27 28  4  0  0  0  0
 27 33  4  0  0  0  0
 28 29  4  0  0  0  0
 29 30  4  0  0  0  0
 29 32  1  0  0  0  0
 30 31  4  0  0  0  0
 33 34  4  0  0  0  0
 34 35  4  0  0  0  0
M  END
>  <Name_Molregno>
495442

>  <5-HT1A>
8.3

>  <5-HT1B>
7.5

>  <5-HT1D>
9

$$$$
495443
  Marvin  02231216192D 0   1.00000     0.00000     0

 34 38  0  0  0  0  0  0  0  0999 V2000
    5.3301    0.3608    0.0000 O   0  0  0  0  0  0  0  0  0
    4.6156   -0.0517    0.0000 C   0  0  0  0  0  0  0  0  0
    4.6156   -0.8767    0.0000 C   0  0  0  0  0  0  0  0  0
    3.9012   -1.2892    0.0000 N   0  0  0  0  0  0  0  0  0
    3.9012   -2.1142    0.0000 C   0  0  0  0  0  0  0  0  0
    3.1867   -2.5267    0.0000 C   0  0  0  0  0  0  0  0  0
    2.4722   -2.1142    0.0000 C   0  0  0  0  0  0  0  0  0
    2.4722   -1.2892    0.0000 C   0  0  0  0  0  0  0  0  0
    3.1867   -0.8767    0.0000 C   0  0  0  0  0  0  0  0  0
    1.7577   -2.5267    0.0000 C   0  0  0  0  0  0  0  0  0
    1.0433   -2.1142    0.0000 C   0  0  0  0  0  0  0  0  0
    0.3288   -2.5267    0.0000 C   0  0  0  0  0  0  0  0  0
   -0.3857   -2.1142    0.0000 C   0  0  0  0  0  0  0  0  0
   -1.1001   -2.5267    0.0000 N   0  0  0  0  0  0  0  0  0
   -1.1001   -3.3517    0.0000 C   0  0  0  0  0  0  0  0  0
   -1.8146   -3.7642    0.0000 C   0  0  0  0  0  0  0  0  0
   -2.5291   -3.3517    0.0000 N   0  0  0  0  0  0  0  0  0
   -2.5291   -2.5267    0.0000 C   0  0  0  0  0  0  0  0  0
   -1.8146   -2.1142    0.0000 C   0  0  0  0  0  0  0  0  0
   -3.2435   -3.7642    0.0000 C   0  0  0  0  0  0  0  0  0
   -0.3857   -1.2892    0.0000 C   0  0  0  0  0  0  0  0  0
    0.3288   -0.8767    0.0000 C   0  0  0  0  0  0  0  0  0
    1.0433   -1.2892    0.0000 C   0  0  0  0  0  0  0  0  0
    5.3301    1.1858    0.0000 C   0  0  0  0  0  0  0  0  0
    6.0446    1.5983    0.0000 C   0  0  0  0  0  0  0  0  0
    6.0446    2.4233    0.0000 C   0  0  0  0  0  0  0  0  0
    6.7590    2.8358    0.0000 N   0  0  0  0  0  0  0  0  0
    7.4735    2.4233    0.0000 C   0  0  0  0  0  0  0  0  0
    7.4735    1.5983    0.0000 C   0  0  0  0  0  0  0  0  0
    6.7590    1.1858    0.0000 C   0  0  0  0  0  0  0  0  0
    8.1880    2.8358    0.0000 C   0  0  0  0  0  0  0  0  0
    5.3301    2.8358    0.0000 C   0  0  0  0  0  0  0  0  0
    4.6156    2.4233    0.0000 C   0  0  0  0  0  0  0  0  0
    4.6156    1.5983    0.0000 C   0  0  0  0  0  0  0  0  0
  1  2  1  0  0  0  0
  1 24  1  0  0  0  0
  2  3  1  0  0  0  0
  3  4  1  0  0  0  0
  4  5  1  0  0  0  0
  4  9  1  0  0  0  0
  5  6  1  0  0  0  0
  6  7  1  0  0  0  0
  7  8  1  0  0  0  0
  7 10  1  0  0  0  0
  8  9  1  0  0  0  0
 10 11  1  0  0  0  0
 11 12  4  0  0  0  0
 11 23  4  0  0  0  0
 12 13  4  0  0  0  0
 13 14  1  0  0  0  0
 13 21  4  0  0  0  0
 14 15  1  0  0  0  0
 14 19  1  0  0  0  0
 15 16  1  0  0  0  0
 16 17  1  0  0  0  0
 17 18  1  0  0  0  0
 17 20  1  0  0  0  0
 18 19  1  0  0  0  0
 21 22  4  0  0  0  0
 22 23  4  0  0  0  0
 24 25  4  0  0  0  0
 24 34  4  0  0  0  0
 25 26  4  0  0  0  0
 25 30  4  0  0  0  0
 26 27  4  0  0  0  0
 26 32  4  0  0  0  0
 27 28  4  0  0  0  0
 28 29  4  0  0  0  0
 28 31  1  0  0  0  0
 29 30  4  0  0  0  0
 32 33  4  0  0  0  0
 33 34  4  0  0  0  0
M  END
>  <Name_Molregno>
495443

>  <5-HT1A>
9

>  <5-HT1B>
8.2

>  <5-HT1D>
9.3

$$$$
495444
  Marvin  02231216192D 0   1.00000     0.00000     0

 35 39  0  0  0  0  0  0  0  0999 V2000
    5.6296    1.8199    0.0000 O   0  0  0  0  0  0  0  0  0
    4.9151    1.4074    0.0000 C   0  0  0  0  0  0  0  0  0
    4.9151    0.5824    0.0000 C   0  0  0  0  0  0  0  0  0
    4.2006    0.1699    0.0000 N   0  0  0  0  0  0  0  0  0
    4.2006   -0.6551    0.0000 C   0  0  0  0  0  0  0  0  0
    3.4862   -1.0676    0.0000 C   0  0  0  0  0  0  0  0  0
    2.7717   -0.6551    0.0000 C   0  0  0  0  0  0  0  0  0
    2.7717    0.1699    0.0000 C   0  0  0  0  0  0  0  0  0
    3.4862    0.5824    0.0000 C   0  0  0  0  0  0  0  0  0
    2.0572   -1.0676    0.0000 C   0  0  0  0  0  0  0  0  0
    1.3427   -0.6551    0.0000 C   0  0  0  0  0  0  0  0  0
    0.6283   -1.0676    0.0000 C   0  0  0  0  0  0  0  0  0
   -0.0862   -0.6551    0.0000 C   0  0  0  0  0  0  0  0  0
   -0.8007   -1.0676    0.0000 N   0  0  0  0  0  0  0  0  0
   -0.8007   -1.8926    0.0000 C   0  0  0  0  0  0  0  0  0
   -1.5151   -2.3051    0.0000 C   0  0  0  0  0  0  0  0  0
   -1.5151   -3.1301    0.0000 O   0  0  0  0  0  0  0  0  0
   -2.2296   -1.8926    0.0000 N   0  0  0  0  0  0  0  0  0
   -2.2296   -1.0676    0.0000 C   0  0  0  0  0  0  0  0  0
   -1.5151   -0.6551    0.0000 C   0  0  0  0  0  0  0  0  0
   -2.9441   -2.3051    0.0000 C   0  0  0  0  0  0  0  0  0
   -0.0862    0.1699    0.0000 C   0  0  0  0  0  0  0  0  0
    0.6283    0.5824    0.0000 C   0  0  0  0  0  0  0  0  0
    1.3427    0.1699    0.0000 C   0  0  0  0  0  0  0  0  0
    5.6296    2.6449    0.0000 C   0  0  0  0  0  0  0  0  0
    6.3440    3.0574    0.0000 C   0  0  0  0  0  0  0  0  0
    6.3440    3.8824    0.0000 C   0  0  0  0  0  0  0  0  0
    7.0585    4.2949    0.0000 N   0  0  0  0  0  0  0  0  0
    7.7730    3.8824    0.0000 C   0  0  0  0  0  0  0  0  0
    7.7730    3.0574    0.0000 C   0  0  0  0  0  0  0  0  0
    7.0585    2.6449    0.0000 C   0  0  0  0  0  0  0  0  0
    8.4875    4.2949    0.0000 C   0  0  0  0  0  0  0  0  0
    5.6296    4.2949    0.0000 C   0  0  0  0  0  0  0  0  0
    4.9151    3.8824    0.0000 C   0  0  0  0  0  0  0  0  0
    4.9151    3.0574    0.0000 C   0  0  0  0  0  0  0  0  0
  1  2  1  0  0  0  0
  1 25  1  0  0  0  0
  2  3  1  0  0  0  0
  3  4  1  0  0  0  0
  4  5  1  0  0  0  0
  4  9  1  0  0  0  0
  5  6  1  0  0  0  0
  6  7  1  0  0  0  0
  7  8  1  0  0  0  0
  7 10  1  0  0  0  0
  8  9  1  0  0  0  0
 10 11  1  0  0  0  0
 11 12  4  0  0  0  0
 11 24  4  0  0  0  0
 12 13  4  0  0  0  0
 13 14  1  0  0  0  0
 13 22  4  0  0  0  0
 14 15  1  0  0  0  0
 14 20  1  0  0  0  0
 15 16  1  0  0  0  0
 16 17  2  0  0  0  0
 16 18  1  0  0  0  0
 18 19  1  0  0  0  0
 18 21  1  0  0  0  0
 19 20  1  0  0  0  0
 22 23  4  0  0  0  0
 23 24  4  0  0  0  0
 25 26  4  0  0  0  0
 25 35  4  0  0  0  0
 26 27  4  0  0  0  0
 26 31  4  0  0  0  0
 27 28  4  0  0  0  0
 27 33  4  0  0  0  0
 28 29  4  0  0  0  0
 29 30  4  0  0  0  0
 29 32  1  0  0  0  0
 30 31  4  0  0  0  0
 33 34  4  0  0  0  0
 34 35  4  0  0  0  0
M  END
>  <Name_Molregno>
495444

>  <5-HT1A>
8.1

>  <5-HT1B>
6.9

>  <5-HT1D>
8

$$$$
495445
  Marvin  02231216192D 0   1.00000     0.00000     0

 35 39  0  0  0  0  0  0  0  0999 V2000
    5.5854    0.3322    0.0000 O   0  0  0  0  0  0  0  0  0
    4.8709   -0.0803    0.0000 C   0  0  0  0  0  0  0  0  0
    4.8709   -0.9053    0.0000 C   0  0  0  0  0  0  0  0  0
    4.1565   -1.3178    0.0000 N   0  0  0  0  0  0  0  0  0
    4.1565   -2.1428    0.0000 C   0  0  0  0  0  0  0  0  0
    3.4420   -2.5553    0.0000 C   0  0  0  0  0  0  0  0  0
    2.7275   -2.1428    0.0000 C   0  0  0  0  0  0  0  0  0
    2.7275   -1.3178    0.0000 C   0  0  0  0  0  0  0  0  0
    3.4420   -0.9053    0.0000 C   0  0  0  0  0  0  0  0  0
    2.0131   -2.5553    0.0000 C   0  0  0  0  0  0  0  0  0
    1.2986   -2.1428    0.0000 C   0  0  0  0  0  0  0  0  0
    0.5841   -2.5553    0.0000 C   0  0  0  0  0  0  0  0  0
   -0.1304   -2.1428    0.0000 C   0  0  0  0  0  0  0  0  0
   -0.8448   -2.5553    0.0000 N   0  0  0  0  0  0  0  0  0
   -0.8448   -3.3803    0.0000 C   0  0  0  0  0  0  0  0  0
   -1.5593   -3.7928    0.0000 C   0  0  0  0  0  0  0  0  0
   -2.2738   -3.3803    0.0000 N   0  0  0  0  0  0  0  0  0
   -2.2738   -2.5553    0.0000 C   0  0  0  0  0  0  0  0  0
   -1.5593   -2.1428    0.0000 C   0  0  0  0  0  0  0  0  0
   -1.5593   -1.3178    0.0000 O   0  0  0  0  0  0  0  0  0
   -2.9882   -3.7928    0.0000 C   0  0  0  0  0  0  0  0  0
   -0.1304   -1.3178    0.0000 C   0  0  0  0  0  0  0  0  0
    0.5841   -0.9053    0.0000 C   0  0  0  0  0  0  0  0  0
    1.2986   -1.3178    0.0000 C   0  0  0  0  0  0  0  0  0
    5.5854    1.1572    0.0000 C   0  0  0  0  0  0  0  0  0
    6.2999    1.5697    0.0000 C   0  0  0  0  0  0  0  0  0
    6.2999    2.3947    0.0000 C   0  0  0  0  0  0  0  0  0
    7.0144    2.8072    0.0000 N   0  0  0  0  0  0  0  0  0
    7.7288    2.3947    0.0000 C   0  0  0  0  0  0  0  0  0
    7.7288    1.5697    0.0000 C   0  0  0  0  0  0  0  0  0
    7.0144    1.1572    0.0000 C   0  0  0  0  0  0  0  0  0
    8.4433    2.8072    0.0000 C   0  0  0  0  0  0  0  0  0
    5.5854    2.8072    0.0000 C   0  0  0  0  0  0  0  0  0
    4.8709    2.3947    0.0000 C   0  0  0  0  0  0  0  0  0
    4.8709    1.5697    0.0000 C   0  0  0  0  0  0  0  0  0
  1  2  1  0  0  0  0
  1 25  1  0  0  0  0
  2  3  1  0  0  0  0
  3  4  1  0  0  0  0
  4  5  1  0  0  0  0
  4  9  1  0  0  0  0
  5  6  1  0  0  0  0
  6  7  1  0  0  0  0
  7  8  1  0  0  0  0
  7 10  1  0  0  0  0
  8  9  1  0  0  0  0
 10 11  1  0  0  0  0
 11 12  4  0  0  0  0
 11 24  4  0  0  0  0
 12 13  4  0  0  0  0
 13 14  1  0  0  0  0
 13 22  4  0  0  0  0
 14 15  1  0  0  0  0
 14 19  1  0  0  0  0
 15 16  1  0  0  0  0
 16 17  1  0  0  0  0
 17 18  1  0  0  0  0
 17 21  1  0  0  0  0
 18 19  1  0  0  0  0
 19 20  2  0  0  0  0
 22 23  4  0  0  0  0
 23 24  4  0  0  0  0
 25 26  4  0  0  0  0
 25 35  4  0  0  0  0
 26 27  4  0  0  0  0
 26 31  4  0  0  0  0
 27 28  4  0  0  0  0
 27 33  4  0  0  0  0
 28 29  4  0  0  0  0
 29 30  4  0  0  0  0
 29 32  1  0  0  0  0
 30 31  4  0  0  0  0
 33 34  4  0  0  0  0
 34 35  4  0  0  0  0
M  END
>  <Name_Molregno>
495445

>  <5-HT1A>
7.7

>  <5-HT1B>
7.2

>  <5-HT1D>
8.4

$$$$
495446
  Marvin  02231216192D 0   1.00000     0.00000     0

 33 37  0  0  0  0  0  0  0  0999 V2000
    4.9585    0.3386    0.0000 O   0  0  0  0  0  0  0  0  0
    4.2440   -0.0739    0.0000 C   0  0  0  0  0  0  0  0  0
    4.2440   -0.8989    0.0000 C   0  0  0  0  0  0  0  0  0
    3.5295   -1.3114    0.0000 N   0  0  0  0  0  0  0  0  0
    3.5295   -2.1364    0.0000 C   0  0  0  0  0  0  0  0  0
    2.8150   -2.5489    0.0000 C   0  0  0  0  0  0  0  0  0
    2.1006   -2.1364    0.0000 C   0  0  0  0  0  0  0  0  0
    2.1006   -1.3114    0.0000 C   0  0  0  0  0  0  0  0  0
    2.8150   -0.8989    0.0000 C   0  0  0  0  0  0  0  0  0
    1.3861   -2.5489    0.0000 C   0  0  0  0  0  0  0  0  0
    0.6716   -2.1364    0.0000 C   0  0  0  0  0  0  0  0  0
   -0.0428   -2.5489    0.0000 C   0  0  0  0  0  0  0  0  0
   -0.7573   -2.1364    0.0000 C   0  0  0  0  0  0  0  0  0
   -0.7573   -1.3114    0.0000 C   0  0  0  0  0  0  0  0  0
   -0.0428   -0.8989    0.0000 C   0  0  0  0  0  0  0  0  0
    0.6716   -1.3114    0.0000 C   0  0  0  0  0  0  0  0  0
   -1.4718   -2.5489    0.0000 C   0  0  0  0  0  0  0  0  0
   -1.4718   -3.3739    0.0000 C   0  0  0  0  0  0  0  0  0
   -2.1863   -3.7864    0.0000 C   0  0  0  0  0  0  0  0  0
   -2.9007   -3.3739    0.0000 C   0  0  0  0  0  0  0  0  0
   -2.9007   -2.5489    0.0000 C   0  0  0  0  0  0  0  0  0
   -2.1863   -2.1364    0.0000 C   0  0  0  0  0  0  0  0  0
    4.9585    1.1636    0.0000 C   0  0  0  0  0  0  0  0  0
    5.6729    1.5761    0.0000 C   0  0  0  0  0  0  0  0  0
    5.6729    2.4011    0.0000 C   0  0  0  0  0  0  0  0  0
    6.3874    2.8136    0.0000 N   0  0  0  0  0  0  0  0  0
    7.1019    2.4011    0.0000 C   0  0  0  0  0  0  0  0  0
    7.1019    1.5761    0.0000 C   0  0  0  0  0  0  0  0  0
    6.3874    1.1636    0.0000 C   0  0  0  0  0  0  0  0  0
    7.8163    2.8136    0.0000 C   0  0  0  0  0  0  0  0  0
    4.9585    2.8136    0.0000 C   0  0  0  0  0  0  0  0  0
    4.2440    2.4011    0.0000 C   0  0  0  0  0  0  0  0  0
    4.2440    1.5761    0.0000 C   0  0  0  0  0  0  0  0  0
  1  2  1  0  0  0  0
  1 23  1  0  0  0  0
  2  3  1  0  0  0  0
  3  4  1  0  0  0  0
  4  5  1  0  0  0  0
  4  9  1  0  0  0  0
  5  6  1  0  0  0  0
  6  7  1  0  0  0  0
  7  8  1  0  0  0  0
  7 10  1  0  0  0  0
  8  9  1  0  0  0  0
 10 11  1  0  0  0  0
 11 12  4  0  0  0  0
 11 16  4  0  0  0  0
 12 13  4  0  0  0  0
 13 14  4  0  0  0  0
 13 17  1  0  0  0  0
 14 15  4  0  0  0  0
 15 16  4  0  0  0  0
 17 18  4  0  0  0  0
 17 22  4  0  0  0  0
 18 19  4  0  0  0  0
 19 20  4  0  0  0  0
 20 21  4  0  0  0  0
 21 22  4  0  0  0  0
 23 24  4  0  0  0  0
 23 33  4  0  0  0  0
 24 25  4  0  0  0  0
 24 29  4  0  0  0  0
 25 26  4  0  0  0  0
 25 31  4  0  0  0  0
 26 27  4  0  0  0  0
 27 28  4  0  0  0  0
 27 30  1  0  0  0  0
 28 29  4  0  0  0  0
 31 32  4  0  0  0  0
 32 33  4  0  0  0  0
M  END
>  <Name_Molregno>
495446

>  <5-HT1A>
7.2

>  <5-HT1B>
7.2

>  <5-HT1D>
8.1

$$$$
495447
  Marvin  02231216192D 0   1.00000     0.00000     0

 32 36  0  0  0  0  0  0  0  0999 V2000
  -10.3635   -4.1147    0.0000 O   0  0  0  0  0  0  0  0  0
   -9.8115   -3.5016    0.0000 C   0  0  0  0  0  0  0  0  0
   -9.0578   -3.8372    0.0000 C   0  0  0  0  0  0  0  0  0
   -9.1440   -4.6577    0.0000 C   0  0  0  0  0  0  0  0  0
   -9.9510   -4.8292    0.0000 C   0  0  0  0  0  0  0  0  0
   -8.3433   -3.4247    0.0000 C   0  0  0  0  0  0  0  0  0
   -8.3433   -2.5997    0.0000 C   0  0  0  0  0  0  0  0  0
   -7.6288   -2.1872    0.0000 C   0  0  0  0  0  0  0  0  0
   -6.9144   -2.5997    0.0000 C   0  0  0  0  0  0  0  0  0
   -6.9144   -3.4247    0.0000 C   0  0  0  0  0  0  0  0  0
   -7.6288   -3.8372    0.0000 C   0  0  0  0  0  0  0  0  0
   -7.6288   -1.3622    0.0000 C   0  0  0  0  0  0  0  0  0
   -6.9144   -0.9497    0.0000 C   0  0  0  0  0  0  0  0  0
   -6.9144   -0.1247    0.0000 C   0  0  0  0  0  0  0  0  0
   -6.1999    0.2878    0.0000 C   0  0  0  0  0  0  0  0  0
   -5.4854   -0.1247    0.0000 N   0  0  0  0  0  0  0  0  0
   -5.4854   -0.9497    0.0000 C   0  0  0  0  0  0  0  0  0
   -6.1999   -1.3622    0.0000 C   0  0  0  0  0  0  0  0  0
   -4.7710    0.2878    0.0000 C   0  0  0  0  0  0  0  0  0
   -4.7710    1.1128    0.0000 C   0  0  0  0  0  0  0  0  0
   -4.0565    1.5253    0.0000 O   0  0  0  0  0  0  0  0  0
   -4.0565    2.3503    0.0000 C   0  0  0  0  0  0  0  0  0
   -3.3420    2.7628    0.0000 C   0  0  0  0  0  0  0  0  0
   -3.3420    3.5878    0.0000 C   0  0  0  0  0  0  0  0  0
   -2.6276    4.0003    0.0000 N   0  0  0  0  0  0  0  0  0
   -1.9131    3.5878    0.0000 C   0  0  0  0  0  0  0  0  0
   -1.9131    2.7628    0.0000 C   0  0  0  0  0  0  0  0  0
   -2.6276    2.3503    0.0000 C   0  0  0  0  0  0  0  0  0
   -1.1986    4.0003    0.0000 C   0  0  0  0  0  0  0  0  0
   -4.0565    4.0003    0.0000 C   0  0  0  0  0  0  0  0  0
   -4.7710    3.5878    0.0000 C   0  0  0  0  0  0  0  0  0
   -4.7710    2.7628    0.0000 C   0  0  0  0  0  0  0  0  0
  1  2  4  0  0  0  0
  1  5  4  0  0  0  0
  2  3  4  0  0  0  0
  3  4  4  0  0  0  0
  3  6  1  0  0  0  0
  4  5  4  0  0  0  0
  6  7  4  0  0  0  0
  6 11  4  0  0  0  0
  7  8  4  0  0  0  0
  8  9  4  0  0  0  0
  8 12  1  0  0  0  0
  9 10  4  0  0  0  0
 10 11  4  0  0  0  0
 12 13  1  0  0  0  0
 13 14  1  0  0  0  0
 13 18  1  0  0  0  0
 14 15  1  0  0  0  0
 15 16  1  0  0  0  0
 16 17  1  0  0  0  0
 16 19  1  0  0  0  0
 17 18  1  0  0  0  0
 19 20  1  0  0  0  0
 20 21  1  0  0  0  0
 21 22  1  0  0  0  0
 22 23  4  0  0  0  0
 22 32  4  0  0  0  0
 23 24  4  0  0  0  0
 23 28  4  0  0  0  0
 24 25  4  0  0  0  0
 24 30  4  0  0  0  0
 25 26  4  0  0  0  0
 26 27  4  0  0  0  0
 26 29  1  0  0  0  0
 27 28  4  0  0  0  0
 30 31  4  0  0  0  0
 31 32  4  0  0  0  0
M  END
>  <Name_Molregno>
495447

>  <5-HT1A>
7.5

>  <5-HT1B>
7.4

>  <5-HT1D>
8.2

$$$$
496003
  Marvin  02231216192D 0   1.00000     0.00000     0

 33 37  0  0  0  0  0  0  0  0999 V2000
    4.9585    0.3386    0.0000 O   0  0  0  0  0  0  0  0  0
    4.2440   -0.0739    0.0000 C   0  0  0  0  0  0  0  0  0
    4.2440   -0.8989    0.0000 C   0  0  0  0  0  0  0  0  0
    3.5295   -1.3114    0.0000 N   0  0  0  0  0  0  0  0  0
    3.5295   -2.1364    0.0000 C   0  0  0  0  0  0  0  0  0
    2.8150   -2.5489    0.0000 C   0  0  0  0  0  0  0  0  0
    2.1006   -2.1364    0.0000 C   0  0  0  0  0  0  0  0  0
    2.1006   -1.3114    0.0000 C   0  0  0  0  0  0  0  0  0
    2.8150   -0.8989    0.0000 C   0  0  0  0  0  0  0  0  0
    1.3861   -2.5489    0.0000 C   0  0  0  0  0  0  0  0  0
    0.6716   -2.1364    0.0000 C   0  0  0  0  0  0  0  0  0
   -0.0428   -2.5489    0.0000 C   0  0  0  0  0  0  0  0  0
   -0.7573   -2.1364    0.0000 C   0  0  0  0  0  0  0  0  0
   -1.4718   -2.5489    0.0000 N   0  0  0  0  0  0  0  0  0
   -1.4718   -3.3739    0.0000 C   0  0  0  0  0  0  0  0  0
   -2.1863   -3.7864    0.0000 C   0  0  0  0  0  0  0  0  0
   -2.9007   -3.3739    0.0000 C   0  0  0  0  0  0  0  0  0
   -2.9007   -2.5489    0.0000 C   0  0  0  0  0  0  0  0  0
   -2.1863   -2.1364    0.0000 C   0  0  0  0  0  0  0  0  0
   -0.7573   -1.3114    0.0000 C   0  0  0  0  0  0  0  0  0
   -0.0428   -0.8989    0.0000 C   0  0  0  0  0  0  0  0  0
    0.6716   -1.3114    0.0000 C   0  0  0  0  0  0  0  0  0
    4.9585    1.1636    0.0000 C   0  0  0  0  0  0  0  0  0
    5.6729    1.5761    0.0000 C   0  0  0  0  0  0  0  0  0
    5.6729    2.4011    0.0000 C   0  0  0  0  0  0  0  0  0
    6.3874    2.8136    0.0000 N   0  0  0  0  0  0  0  0  0
    7.1019    2.4011    0.0000 C   0  0  0  0  0  0  0  0  0
    7.1019    1.5761    0.0000 C   0  0  0  0  0  0  0  0  0
    6.3874    1.1636    0.0000 C   0  0  0  0  0  0  0  0  0
    7.8163    2.8136    0.0000 C   0  0  0  0  0  0  0  0  0
    4.9585    2.8136    0.0000 C   0  0  0  0  0  0  0  0  0
    4.2440    2.4011    0.0000 C   0  0  0  0  0  0  0  0  0
    4.2440    1.5761    0.0000 C   0  0  0  0  0  0  0  0  0
  1  2  1  0  0  0  0
  1 23  1  0  0  0  0
  2  3  1  0  0  0  0
  3  4  1  0  0  0  0
  4  5  1  0  0  0  0
  4  9  1  0  0  0  0
  5  6  1  0  0  0  0
  6  7  1  0  0  0  0
  7  8  1  0  0  0  0
  7 10  1  0  0  0  0
  8  9  1  0  0  0  0
 10 11  1  0  0  0  0
 11 12  4  0  0  0  0
 11 22  4  0  0  0  0
 12 13  4  0  0  0  0
 13 14  1  0  0  0  0
 13 20  4  0  0  0  0
 14 15  1  0  0  0  0
 14 19  1  0  0  0  0
 15 16  1  0  0  0  0
 16 17  1  0  0  0  0
 17 18  1  0  0  0  0
 18 19  1  0  0  0  0
 20 21  4  0  0  0  0
 21 22  4  0  0  0  0
 23 24  4  0  0  0  0
 23 33  4  0  0  0  0
 24 25  4  0  0  0  0
 24 29  4  0  0  0  0
 25 26  4  0  0  0  0
 25 31  4  0  0  0  0
 26 27  4  0  0  0  0
 27 28  4  0  0  0  0
 27 30  1  0  0  0  0
 28 29  4  0  0  0  0
 31 32  4  0  0  0  0
 32 33  4  0  0  0  0
M  END
>  <Name_Molregno>
496003

>  <5-HT1A>
8.4

>  <5-HT1B>
8.7

>  <5-HT1D>
9

$$$$
496004
  Marvin  02231216192D 0   1.00000     0.00000     0

 33 37  0  0  0  0  0  0  0  0999 V2000
  -10.4424   -5.8330    0.0000 O   0  0  0  0  0  0  0  0  0
  -10.4424   -5.0080    0.0000 C   0  0  0  0  0  0  0  0  0
   -9.7280   -4.5955    0.0000 C   0  0  0  0  0  0  0  0  0
   -9.0135   -5.0080    0.0000 N   0  0  0  0  0  0  0  0  0
   -9.0135   -5.8330    0.0000 C   0  0  0  0  0  0  0  0  0
   -9.7280   -6.2455    0.0000 C   0  0  0  0  0  0  0  0  0
   -8.2990   -4.5955    0.0000 C   0  0  0  0  0  0  0  0  0
   -8.2990   -3.7705    0.0000 C   0  0  0  0  0  0  0  0  0
   -7.5845   -3.3580    0.0000 C   0  0  0  0  0  0  0  0  0
   -6.8701   -3.7705    0.0000 C   0  0  0  0  0  0  0  0  0
   -6.8701   -4.5955    0.0000 C   0  0  0  0  0  0  0  0  0
   -7.5845   -5.0080    0.0000 C   0  0  0  0  0  0  0  0  0
   -7.5845   -2.5330    0.0000 C   0  0  0  0  0  0  0  0  0
   -6.8701   -2.1205    0.0000 C   0  0  0  0  0  0  0  0  0
   -6.8701   -1.2955    0.0000 C   0  0  0  0  0  0  0  0  0
   -6.1556   -0.8830    0.0000 C   0  0  0  0  0  0  0  0  0
   -5.4411   -1.2955    0.0000 N   0  0  0  0  0  0  0  0  0
   -5.4411   -2.1205    0.0000 C   0  0  0  0  0  0  0  0  0
   -6.1556   -2.5330    0.0000 C   0  0  0  0  0  0  0  0  0
   -4.7267   -0.8830    0.0000 C   0  0  0  0  0  0  0  0  0
   -4.7267   -0.0580    0.0000 C   0  0  0  0  0  0  0  0  0
   -4.0122    0.3545    0.0000 O   0  0  0  0  0  0  0  0  0
   -4.0122    1.1795    0.0000 C   0  0  0  0  0  0  0  0  0
   -3.2977    1.5920    0.0000 C   0  0  0  0  0  0  0  0  0
   -3.2977    2.4170    0.0000 C   0  0  0  0  0  0  0  0  0
   -2.5832    2.8295    0.0000 N   0  0  0  0  0  0  0  0  0
   -1.8688    2.4170    0.0000 C   0  0  0  0  0  0  0  0  0
   -1.8688    1.5920    0.0000 C   0  0  0  0  0  0  0  0  0
   -2.5832    1.1795    0.0000 C   0  0  0  0  0  0  0  0  0
   -1.1543    2.8295    0.0000 C   0  0  0  0  0  0  0  0  0
   -4.0122    2.8295    0.0000 C   0  0  0  0  0  0  0  0  0
   -4.7267    2.4170    0.0000 C   0  0  0  0  0  0  0  0  0
   -4.7267    1.5920    0.0000 C   0  0  0  0  0  0  0  0  0
  1  2  1  0  0  0  0
  1  6  1  0  0  0  0
  2  3  1  0  0  0  0
  3  4  1  0  0  0  0
  4  5  1  0  0  0  0
  4  7  1  0  0  0  0
  5  6  1  0  0  0  0
  7  8  4  0  0  0  0
  7 12  4  0  0  0  0
  8  9  4  0  0  0  0
  9 10  4  0  0  0  0
  9 13  1  0  0  0  0
 10 11  4  0  0  0  0
 11 12  4  0  0  0  0
 13 14  1  0  0  0  0
 14 15  1  0  0  0  0
 14 19  1  0  0  0  0
 15 16  1  0  0  0  0
 16 17  1  0  0  0  0
 17 18  1  0  0  0  0
 17 20  1  0  0  0  0
 18 19  1  0  0  0  0
 20 21  1  0  0  0  0
 21 22  1  0  0  0  0
 22 23  1  0  0  0  0
 23 24  4  0  0  0  0
 23 33  4  0  0  0  0
 24 25  4  0  0  0  0
 24 29  4  0  0  0  0
 25 26  4  0  0  0  0
 25 31  4  0  0  0  0
 26 27  4  0  0  0  0
 27 28  4  0  0  0  0
 27 30  1  0  0  0  0
 28 29  4  0  0  0  0
 31 32  4  0  0  0  0
 32 33  4  0  0  0  0
M  END
>  <Name_Molregno>
496004

>  <5-HT1A>
8.3

>  <5-HT1B>
6.9

>  <5-HT1D>
8.6

$$$$
496005
  Marvin  02231216192D 0   1.00000     0.00000     0

 35 39  0  0  1  0  0  0  0  0999 V2000
   -9.8318   -5.5551    0.0000 O   0  0  0  0  0  0  0  0  0
   -9.8318   -4.7301    0.0000 C   0  0  0  0  0  0  0  0  0
   -9.1174   -4.3176    0.0000 C   0  0  0  0  0  0  0  0  0
   -8.4029   -4.7301    0.0000 N   0  0  0  0  0  0  0  0  0
   -8.4029   -5.5551    0.0000 C   0  0  0  0  0  0  0  0  0
   -9.1174   -5.9676    0.0000 C   0  0  0  0  0  0  0  0  0
   -9.1174   -6.7926    0.0000 C   0  0  0  0  0  0  0  0  0
   -7.6884   -4.3176    0.0000 C   0  0  0  0  0  0  0  0  0
   -7.6884   -3.4926    0.0000 C   0  0  0  0  0  0  0  0  0
   -6.9740   -3.0801    0.0000 C   0  0  0  0  0  0  0  0  0
   -6.2595   -3.4926    0.0000 C   0  0  0  0  0  0  0  0  0
   -6.2595   -4.3176    0.0000 C   0  0  0  0  0  0  0  0  0
   -6.9740   -4.7301    0.0000 C   0  0  0  0  0  0  0  0  0
   -6.9740   -2.2551    0.0000 C   0  0  0  0  0  0  0  0  0
   -6.2595   -1.8426    0.0000 C   0  0  0  0  0  0  0  0  0
   -6.2595   -1.0176    0.0000 C   0  0  0  0  0  0  0  0  0
   -5.5450   -0.6051    0.0000 C   0  0  0  0  0  0  0  0  0
   -4.8305   -1.0176    0.0000 N   0  0  0  0  0  0  0  0  0
   -4.8305   -1.8426    0.0000 C   0  0  0  0  0  0  0  0  0
   -5.5450   -2.2551    0.0000 C   0  0  0  0  0  0  0  0  0
   -4.1161   -0.6051    0.0000 C   0  0  0  0  0  0  0  0  0
   -4.1161    0.2199    0.0000 C   0  0  0  0  0  0  0  0  0
   -3.4016    0.6324    0.0000 O   0  0  0  0  0  0  0  0  0
   -3.4016    1.4574    0.0000 C   0  0  0  0  0  0  0  0  0
   -2.6871    1.8699    0.0000 C   0  0  0  0  0  0  0  0  0
   -2.6871    2.6949    0.0000 C   0  0  0  0  0  0  0  0  0
   -1.9727    3.1074    0.0000 N   0  0  0  0  0  0  0  0  0
   -1.2582    2.6949    0.0000 C   0  0  0  0  0  0  0  0  0
   -1.2582    1.8699    0.0000 C   0  0  0  0  0  0  0  0  0
   -1.9727    1.4574    0.0000 C   0  0  0  0  0  0  0  0  0
   -0.5437    3.1074    0.0000 C   0  0  0  0  0  0  0  0  0
   -3.4016    3.1074    0.0000 C   0  0  0  0  0  0  0  0  0
   -4.1161    2.6949    0.0000 C   0  0  0  0  0  0  0  0  0
   -4.1161    1.8699    0.0000 C   0  0  0  0  0  0  0  0  0
  -10.5463   -4.3176    0.0000 C   0  0  0  0  0  0  0  0  0
  1  2  1  0  0  0  0
  1  6  1  0  0  0  0
  2  3  1  0  0  0  0
  2 35  1  0  0  0  0
  3  4  1  0  0  0  0
  4  5  1  0  0  0  0
  4  8  1  0  0  0  0
  5  6  1  0  0  0  0
  6  7  1  0  0  0  0
  8  9  4  0  0  0  0
  8 13  4  0  0  0  0
  9 10  4  0  0  0  0
 10 11  4  0  0  0  0
 10 14  1  0  0  0  0
 11 12  4  0  0  0  0
 12 13  4  0  0  0  0
 14 15  1  0  0  0  0
 15 16  1  0  0  0  0
 15 20  1  0  0  0  0
 16 17  1  0  0  0  0
 17 18  1  0  0  0  0
 18 19  1  0  0  0  0
 18 21  1  0  0  0  0
 19 20  1  0  0  0  0
 21 22  1  0  0  0  0
 22 23  1  0  0  0  0
 23 24  1  0  0  0  0
 24 25  4  0  0  0  0
 24 34  4  0  0  0  0
 25 26  4  0  0  0  0
 25 30  4  0  0  0  0
 26 27  4  0  0  0  0
 26 32  4  0  0  0  0
 27 28  4  0  0  0  0
 28 29  4  0  0  0  0
 28 31  1  0  0  0  0
 29 30  4  0  0  0  0
 32 33  4  0  0  0  0
 33 34  4  0  0  0  0
M  END
>  <Name_Molregno>
496005

>  <5-HT1A>
8.6

>  <5-HT1B>
6.8

>  <5-HT1D>
8.8

$$$$
496006
  Marvin  02231216192D 0   1.00000     0.00000     0

 35 39  0  0  0  0  0  0  0  0999 V2000
    5.6634    0.3670    0.0000 O   0  0  0  0  0  0  0  0  0
    4.9489   -0.0455    0.0000 C   0  0  0  0  0  0  0  0  0
    4.9489   -0.8705    0.0000 C   0  0  0  0  0  0  0  0  0
    4.2344   -1.2830    0.0000 N   0  0  0  0  0  0  0  0  0
    4.2344   -2.1080    0.0000 C   0  0  0  0  0  0  0  0  0
    3.5200   -2.5205    0.0000 C   0  0  0  0  0  0  0  0  0
    2.8055   -2.1080    0.0000 C   0  0  0  0  0  0  0  0  0
    2.8055   -1.2830    0.0000 C   0  0  0  0  0  0  0  0  0
    3.5200   -0.8705    0.0000 C   0  0  0  0  0  0  0  0  0
    2.0910   -2.5205    0.0000 C   0  0  0  0  0  0  0  0  0
    1.3766   -2.1080    0.0000 C   0  0  0  0  0  0  0  0  0
    0.6621   -2.5205    0.0000 C   0  0  0  0  0  0  0  0  0
   -0.0524   -2.1080    0.0000 C   0  0  0  0  0  0  0  0  0
   -0.7669   -2.5205    0.0000 N   0  0  0  0  0  0  0  0  0
   -0.7052   -3.3431    0.0000 C   0  0  0  0  0  0  0  0  0
   -1.3100   -3.9043    0.0000 C   0  0  0  0  0  0  0  0  0
   -2.1258   -3.7813    0.0000 C   0  0  0  0  0  0  0  0  0
   -2.5383   -3.0669    0.0000 N   0  0  0  0  0  0  0  0  0
   -2.2369   -2.2989    0.0000 C   0  0  0  0  0  0  0  0  0
   -1.4485   -2.0557    0.0000 C   0  0  0  0  0  0  0  0  0
   -3.3610   -3.1285    0.0000 C   0  0  0  0  0  0  0  0  0
   -0.0524   -1.2830    0.0000 C   0  0  0  0  0  0  0  0  0
    0.6621   -0.8705    0.0000 C   0  0  0  0  0  0  0  0  0
    1.3766   -1.2830    0.0000 C   0  0  0  0  0  0  0  0  0
    5.6634    1.1920    0.0000 C   0  0  0  0  0  0  0  0  0
    6.3779    1.6045    0.0000 C   0  0  0  0  0  0  0  0  0
    6.3779    2.4295    0.0000 C   0  0  0  0  0  0  0  0  0
    7.0923    2.8420    0.0000 N   0  0  0  0  0  0  0  0  0
    7.8068    2.4295    0.0000 C   0  0  0  0  0  0  0  0  0
    7.8068    1.6045    0.0000 C   0  0  0  0  0  0  0  0  0
    7.0923    1.1920    0.0000 C   0  0  0  0  0  0  0  0  0
    8.5213    2.8420    0.0000 C   0  0  0  0  0  0  0  0  0
    5.6634    2.8420    0.0000 C   0  0  0  0  0  0  0  0  0
    4.9489    2.4295    0.0000 C   0  0  0  0  0  0  0  0  0
    4.9489    1.6045    0.0000 C   0  0  0  0  0  0  0  0  0
  1  2  1  0  0  0  0
  1 25  1  0  0  0  0
  2  3  1  0  0  0  0
  3  4  1  0  0  0  0
  4  5  1  0  0  0  0
  4  9  1  0  0  0  0
  5  6  1  0  0  0  0
  6  7  1  0  0  0  0
  7  8  1  0  0  0  0
  7 10  1  0  0  0  0
  8  9  1  0  0  0  0
 10 11  1  0  0  0  0
 11 12  4  0  0  0  0
 11 24  4  0  0  0  0
 12 13  4  0  0  0  0
 13 14  1  0  0  0  0
 13 22  4  0  0  0  0
 14 15  1  0  0  0  0
 14 20  1  0  0  0  0
 15 16  1  0  0  0  0
 16 17  1  0  0  0  0
 17 18  1  0  0  0  0
 18 19  1  0  0  0  0
 18 21  1  0  0  0  0
 19 20  1  0  0  0  0
 22 23  4  0  0  0  0
 23 24  4  0  0  0  0
 25 26  4  0  0  0  0
 25 35  4  0  0  0  0
 26 27  4  0  0  0  0
 26 31  4  0  0  0  0
 27 28  4  0  0  0  0
 27 33  4  0  0  0  0
 28 29  4  0  0  0  0
 29 30  4  0  0  0  0
 29 32  1  0  0  0  0
 30 31  4  0  0  0  0
 33 34  4  0  0  0  0
 34 35  4  0  0  0  0
M  END
>  <Name_Molregno>
496006

>  <5-HT1A>
8.6

>  <5-HT1B>
8.1

>  <5-HT1D>
9.2

$$$$
496072
  Marvin  02231216192D 0   1.00000     0.00000     0

 32 36  0  0  0  0  0  0  0  0999 V2000
    4.6100    0.2750    0.0000 O   0  0  0  0  0  0  0  0  0
    3.8955   -0.1375    0.0000 C   0  0  0  0  0  0  0  0  0
    3.8955   -0.9625    0.0000 C   0  0  0  0  0  0  0  0  0
    3.1810   -1.3750    0.0000 N   0  0  0  0  0  0  0  0  0
    3.1810   -2.2000    0.0000 C   0  0  0  0  0  0  0  0  0
    2.4666   -2.6125    0.0000 C   0  0  0  0  0  0  0  0  0
    1.7521   -2.2000    0.0000 C   0  0  0  0  0  0  0  0  0
    1.7521   -1.3750    0.0000 C   0  0  0  0  0  0  0  0  0
    2.4666   -0.9625    0.0000 C   0  0  0  0  0  0  0  0  0
    1.0376   -2.6125    0.0000 C   0  0  0  0  0  0  0  0  0
    0.3232   -2.2000    0.0000 C   0  0  0  0  0  0  0  0  0
   -0.3913   -2.6125    0.0000 C   0  0  0  0  0  0  0  0  0
   -1.1058   -2.2000    0.0000 C   0  0  0  0  0  0  0  0  0
   -1.8202   -2.6125    0.0000 N   0  0  0  0  0  0  0  0  0
   -1.9065   -3.4330    0.0000 C   0  0  0  0  0  0  0  0  0
   -2.7135   -3.6045    0.0000 C   0  0  0  0  0  0  0  0  0
   -3.1260   -2.8900    0.0000 C   0  0  0  0  0  0  0  0  0
   -2.5739   -2.2769    0.0000 C   0  0  0  0  0  0  0  0  0
   -1.1058   -1.3750    0.0000 C   0  0  0  0  0  0  0  0  0
   -0.3913   -0.9625    0.0000 C   0  0  0  0  0  0  0  0  0
    0.3232   -1.3750    0.0000 C   0  0  0  0  0  0  0  0  0
    4.6100    1.1000    0.0000 C   0  0  0  0  0  0  0  0  0
    5.3245    1.5125    0.0000 C   0  0  0  0  0  0  0  0  0
    5.3245    2.3375    0.0000 C   0  0  0  0  0  0  0  0  0
    6.0389    2.7500    0.0000 N   0  0  0  0  0  0  0  0  0
    6.7534    2.3375    0.0000 C   0  0  0  0  0  0  0  0  0
    6.7534    1.5125    0.0000 C   0  0  0  0  0  0  0  0  0
    6.0389    1.1000    0.0000 C   0  0  0  0  0  0  0  0  0
    7.4679    2.7500    0.0000 C   0  0  0  0  0  0  0  0  0
    4.6100    2.7500    0.0000 C   0  0  0  0  0  0  0  0  0
    3.8955    2.3375    0.0000 C   0  0  0  0  0  0  0  0  0
    3.8955    1.5125    0.0000 C   0  0  0  0  0  0  0  0  0
  1  2  1  0  0  0  0
  1 22  1  0  0  0  0
  2  3  1  0  0  0  0
  3  4  1  0  0  0  0
  4  5  1  0  0  0  0
  4  9  1  0  0  0  0
  5  6  1  0  0  0  0
  6  7  1  0  0  0  0
  7  8  1  0  0  0  0
  7 10  1  0  0  0  0
  8  9  1  0  0  0  0
 10 11  1  0  0  0  0
 11 12  4  0  0  0  0
 11 21  4  0  0  0  0
 12 13  4  0  0  0  0
 13 14  1  0  0  0  0
 13 19  4  0  0  0  0
 14 15  1  0  0  0  0
 14 18  1  0  0  0  0
 15 16  1  0  0  0  0
 16 17  1  0  0  0  0
 17 18  1  0  0  0  0
 19 20  4  0  0  0  0
 20 21  4  0  0  0  0
 22 23  4  0  0  0  0
 22 32  4  0  0  0  0
 23 24  4  0  0  0  0
 23 28  4  0  0  0  0
 24 25  4  0  0  0  0
 24 30  4  0  0  0  0
 25 26  4  0  0  0  0
 26 27  4  0  0  0  0
 26 29  1  0  0  0  0
 27 28  4  0  0  0  0
 30 31  4  0  0  0  0
 31 32  4  0  0  0  0
M  END
>  <Name_Molregno>
496072

>  <5-HT1A>
8

>  <5-HT1B>
7.4

>  <5-HT1D>
8.6

$$$$
496073
  Marvin  02231216192D 0   1.00000     0.00000     0

 34 38  0  0  0  0  0  0  0  0999 V2000
    5.3301    0.3608    0.0000 O   0  0  0  0  0  0  0  0  0
    4.6156   -0.0517    0.0000 C   0  0  0  0  0  0  0  0  0
    4.6156   -0.8767    0.0000 C   0  0  0  0  0  0  0  0  0
    3.9012   -1.2892    0.0000 N   0  0  0  0  0  0  0  0  0
    3.9012   -2.1142    0.0000 C   0  0  0  0  0  0  0  0  0
    3.1867   -2.5267    0.0000 C   0  0  0  0  0  0  0  0  0
    2.4722   -2.1142    0.0000 C   0  0  0  0  0  0  0  0  0
    2.4722   -1.2892    0.0000 C   0  0  0  0  0  0  0  0  0
    3.1867   -0.8767    0.0000 C   0  0  0  0  0  0  0  0  0
    1.7577   -2.5267    0.0000 C   0  0  0  0  0  0  0  0  0
    1.0433   -2.1142    0.0000 C   0  0  0  0  0  0  0  0  0
    0.3288   -2.5267    0.0000 C   0  0  0  0  0  0  0  0  0
   -0.3857   -2.1142    0.0000 C   0  0  0  0  0  0  0  0  0
   -0.3857   -1.2892    0.0000 C   0  0  0  0  0  0  0  0  0
    0.3288   -0.8767    0.0000 C   0  0  0  0  0  0  0  0  0
    1.0433   -1.2892    0.0000 C   0  0  0  0  0  0  0  0  0
   -1.1001   -2.5267    0.0000 C   0  0  0  0  0  0  0  0  0
   -1.1001   -3.3517    0.0000 C   0  0  0  0  0  0  0  0  0
   -1.8146   -3.7642    0.0000 C   0  0  0  0  0  0  0  0  0
   -2.5291   -3.3517    0.0000 N   0  0  0  0  0  0  0  0  0
   -2.5291   -2.5267    0.0000 C   0  0  0  0  0  0  0  0  0
   -1.8146   -2.1142    0.0000 C   0  0  0  0  0  0  0  0  0
   -3.2435   -3.7642    0.0000 C   0  0  0  0  0  0  0  0  0
    5.3301    1.1858    0.0000 C   0  0  0  0  0  0  0  0  0
    6.0446    1.5983    0.0000 C   0  0  0  0  0  0  0  0  0
    6.0446    2.4233    0.0000 C   0  0  0  0  0  0  0  0  0
    6.7590    2.8358    0.0000 N   0  0  0  0  0  0  0  0  0
    7.4735    2.4233    0.0000 C   0  0  0  0  0  0  0  0  0
    7.4735    1.5983    0.0000 C   0  0  0  0  0  0  0  0  0
    6.7590    1.1858    0.0000 C   0  0  0  0  0  0  0  0  0
    8.1880    2.8358    0.0000 C   0  0  0  0  0  0  0  0  0
    5.3301    2.8358    0.0000 C   0  0  0  0  0  0  0  0  0
    4.6156    2.4233    0.0000 C   0  0  0  0  0  0  0  0  0
    4.6156    1.5983    0.0000 C   0  0  0  0  0  0  0  0  0
  1  2  1  0  0  0  0
  1 24  1  0  0  0  0
  2  3  1  0  0  0  0
  3  4  1  0  0  0  0
  4  5  1  0  0  0  0
  4  9  1  0  0  0  0
  5  6  1  0  0  0  0
  6  7  1  0  0  0  0
  7  8  1  0  0  0  0
  7 10  1  0  0  0  0
  8  9  1  0  0  0  0
 10 11  1  0  0  0  0
 11 12  4  0  0  0  0
 11 16  4  0  0  0  0
 12 13  4  0  0  0  0
 13 14  4  0  0  0  0
 13 17  1  0  0  0  0
 14 15  4  0  0  0  0
 15 16  4  0  0  0  0
 17 18  1  0  0  0  0
 17 22  1  0  0  0  0
 18 19  1  0  0  0  0
 19 20  1  0  0  0  0
 20 21  1  0  0  0  0
 20 23  1  0  0  0  0
 21 22  1  0  0  0  0
 24 25  4  0  0  0  0
 24 34  4  0  0  0  0
 25 26  4  0  0  0  0
 25 30  4  0  0  0  0
 26 27  4  0  0  0  0
 26 32  4  0  0  0  0
 27 28  4  0  0  0  0
 28 29  4  0  0  0  0
 28 31  1  0  0  0  0
 29 30  4  0  0  0  0
 32 33  4  0  0  0  0
 33 34  4  0  0  0  0
M  END
>  <Name_Molregno>
496073

>  <5-HT1A>
8.5

>  <5-HT1B>
8.3

>  <5-HT1D>
9.7

$$$$
496074
  Marvin  02231216192D 0   1.00000     0.00000     0

 33 37  0  0  0  0  0  0  0  0999 V2000
    4.9585    0.3386    0.0000 O   0  0  0  0  0  0  0  0  0
    4.2440   -0.0739    0.0000 C   0  0  0  0  0  0  0  0  0
    4.2440   -0.8989    0.0000 C   0  0  0  0  0  0  0  0  0
    3.5295   -1.3114    0.0000 N   0  0  0  0  0  0  0  0  0
    3.5295   -2.1364    0.0000 C   0  0  0  0  0  0  0  0  0
    2.8150   -2.5489    0.0000 C   0  0  0  0  0  0  0  0  0
    2.1006   -2.1364    0.0000 C   0  0  0  0  0  0  0  0  0
    2.1006   -1.3114    0.0000 C   0  0  0  0  0  0  0  0  0
    2.8150   -0.8989    0.0000 C   0  0  0  0  0  0  0  0  0
    1.3861   -2.5489    0.0000 C   0  0  0  0  0  0  0  0  0
    0.6716   -2.1364    0.0000 C   0  0  0  0  0  0  0  0  0
   -0.0428   -2.5489    0.0000 C   0  0  0  0  0  0  0  0  0
   -0.7573   -2.1364    0.0000 C   0  0  0  0  0  0  0  0  0
   -0.7573   -1.3114    0.0000 C   0  0  0  0  0  0  0  0  0
   -0.0428   -0.8989    0.0000 C   0  0  0  0  0  0  0  0  0
    0.6716   -1.3114    0.0000 C   0  0  0  0  0  0  0  0  0
   -1.4718   -2.5489    0.0000 C   0  0  0  0  0  0  0  0  0
   -1.4718   -3.3739    0.0000 C   0  0  0  0  0  0  0  0  0
   -2.1863   -3.7864    0.0000 C   0  0  0  0  0  0  0  0  0
   -2.9007   -3.3739    0.0000 N   0  0  0  0  0  0  0  0  0
   -2.9007   -2.5489    0.0000 C   0  0  0  0  0  0  0  0  0
   -2.1863   -2.1364    0.0000 C   0  0  0  0  0  0  0  0  0
    4.9585    1.1636    0.0000 C   0  0  0  0  0  0  0  0  0
    5.6729    1.5761    0.0000 C   0  0  0  0  0  0  0  0  0
    5.6729    2.4011    0.0000 C   0  0  0  0  0  0  0  0  0
    6.3874    2.8136    0.0000 N   0  0  0  0  0  0  0  0  0
    7.1019    2.4011    0.0000 C   0  0  0  0  0  0  0  0  0
    7.1019    1.5761    0.0000 C   0  0  0  0  0  0  0  0  0
    6.3874    1.1636    0.0000 C   0  0  0  0  0  0  0  0  0
    7.8163    2.8136    0.0000 C   0  0  0  0  0  0  0  0  0
    4.9585    2.8136    0.0000 C   0  0  0  0  0  0  0  0  0
    4.2440    2.4011    0.0000 C   0  0  0  0  0  0  0  0  0
    4.2440    1.5761    0.0000 C   0  0  0  0  0  0  0  0  0
  1  2  1  0  0  0  0
  1 23  1  0  0  0  0
  2  3  1  0  0  0  0
  3  4  1  0  0  0  0
  4  5  1  0  0  0  0
  4  9  1  0  0  0  0
  5  6  1  0  0  0  0
  6  7  1  0  0  0  0
  7  8  1  0  0  0  0
  7 10  1  0  0  0  0
  8  9  1  0  0  0  0
 10 11  1  0  0  0  0
 11 12  4  0  0  0  0
 11 16  4  0  0  0  0
 12 13  4  0  0  0  0
 13 14  4  0  0  0  0
 13 17  1  0  0  0  0
 14 15  4  0  0  0  0
 15 16  4  0  0  0  0
 17 18  1  0  0  0  0
 17 22  1  0  0  0  0
 18 19  1  0  0  0  0
 19 20  1  0  0  0  0
 20 21  1  0  0  0  0
 21 22  1  0  0  0  0
 23 24  4  0  0  0  0
 23 33  4  0  0  0  0
 24 25  4  0  0  0  0
 24 29  4  0  0  0  0
 25 26  4  0  0  0  0
 25 31  4  0  0  0  0
 26 27  4  0  0  0  0
 27 28  4  0  0  0  0
 27 30  1  0  0  0  0
 28 29  4  0  0  0  0
 31 32  4  0  0  0  0
 32 33  4  0  0  0  0
M  END
>  <Name_Molregno>
496074

>  <5-HT1A>
8.2

>  <5-HT1B>
8.2

>  <5-HT1D>
8.9

$$$$
496075
  Marvin  02231216192D 0   1.00000     0.00000     0

 36 40  0  0  0  0  0  0  0  0999 V2000
    6.0644    0.4593    0.0000 O   0  0  0  0  0  0  0  0  0
    5.3499    0.0468    0.0000 C   0  0  0  0  0  0  0  0  0
    5.3499   -0.7782    0.0000 C   0  0  0  0  0  0  0  0  0
    4.6355   -1.1907    0.0000 N   0  0  0  0  0  0  0  0  0
    4.6355   -2.0157    0.0000 C   0  0  0  0  0  0  0  0  0
    3.9210   -2.4282    0.0000 C   0  0  0  0  0  0  0  0  0
    3.2065   -2.0157    0.0000 C   0  0  0  0  0  0  0  0  0
    3.2065   -1.1907    0.0000 C   0  0  0  0  0  0  0  0  0
    3.9210   -0.7782    0.0000 C   0  0  0  0  0  0  0  0  0
    2.4921   -2.4282    0.0000 C   0  0  0  0  0  0  0  0  0
    1.7776   -2.0157    0.0000 C   0  0  0  0  0  0  0  0  0
    1.0631   -2.4282    0.0000 C   0  0  0  0  0  0  0  0  0
    0.3487   -2.0157    0.0000 C   0  0  0  0  0  0  0  0  0
    0.3487   -1.1907    0.0000 C   0  0  0  0  0  0  0  0  0
    1.0631   -0.7782    0.0000 C   0  0  0  0  0  0  0  0  0
    1.7776   -1.1907    0.0000 C   0  0  0  0  0  0  0  0  0
   -0.3658   -2.4282    0.0000 C   0  0  0  0  0  0  0  0  0
   -0.3658   -3.2532    0.0000 C   0  0  0  0  0  0  0  0  0
   -1.0803   -3.6657    0.0000 C   0  0  0  0  0  0  0  0  0
   -1.7948   -3.2532    0.0000 N   0  0  0  0  0  0  0  0  0
   -1.7948   -2.4282    0.0000 C   0  0  0  0  0  0  0  0  0
   -1.0803   -2.0157    0.0000 C   0  0  0  0  0  0  0  0  0
   -2.5092   -3.6657    0.0000 C   0  0  0  0  0  0  0  0  0
   -3.2237   -3.2532    0.0000 O   0  0  0  0  0  0  0  0  0
   -2.5092   -4.4907    0.0000 C   0  0  0  0  0  0  0  0  0
    6.0644    1.2843    0.0000 C   0  0  0  0  0  0  0  0  0
    6.7789    1.6968    0.0000 C   0  0  0  0  0  0  0  0  0
    6.7789    2.5218    0.0000 C   0  0  0  0  0  0  0  0  0
    7.4934    2.9343    0.0000 N   0  0  0  0  0  0  0  0  0
    8.2078    2.5218    0.0000 C   0  0  0  0  0  0  0  0  0
    8.2078    1.6968    0.0000 C   0  0  0  0  0  0  0  0  0
    7.4934    1.2843    0.0000 C   0  0  0  0  0  0  0  0  0
    8.9223    2.9343    0.0000 C   0  0  0  0  0  0  0  0  0
    6.0644    2.9343    0.0000 C   0  0  0  0  0  0  0  0  0
    5.3499    2.5218    0.0000 C   0  0  0  0  0  0  0  0  0
    5.3499    1.6968    0.0000 C   0  0  0  0  0  0  0  0  0
  1  2  1  0  0  0  0
  1 26  1  0  0  0  0
  2  3  1  0  0  0  0
  3  4  1  0  0  0  0
  4  5  1  0  0  0  0
  4  9  1  0  0  0  0
  5  6  1  0  0  0  0
  6  7  1  0  0  0  0
  7  8  1  0  0  0  0
  7 10  1  0  0  0  0
  8  9  1  0  0  0  0
 10 11  1  0  0  0  0
 11 12  4  0  0  0  0
 11 16  4  0  0  0  0
 12 13  4  0  0  0  0
 13 14  4  0  0  0  0
 13 17  1  0  0  0  0
 14 15  4  0  0  0  0
 15 16  4  0  0  0  0
 17 18  1  0  0  0  0
 17 22  1  0  0  0  0
 18 19  1  0  0  0  0
 19 20  1  0  0  0  0
 20 21  1  0  0  0  0
 20 23  1  0  0  0  0
 21 22  1  0  0  0  0
 23 24  2  0  0  0  0
 23 25  1  0  0  0  0
 26 27  4  0  0  0  0
 26 36  4  0  0  0  0
 27 28  4  0  0  0  0
 27 32  4  0  0  0  0
 28 29  4  0  0  0  0
 28 34  4  0  0  0  0
 29 30  4  0  0  0  0
 30 31  4  0  0  0  0
 30 33  1  0  0  0  0
 31 32  4  0  0  0  0
 34 35  4  0  0  0  0
 35 36  4  0  0  0  0
M  END
>  <Name_Molregno>
496075

>  <5-HT1A>
7.9

>  <5-HT1B>
6.8

>  <5-HT1D>
8.4

$$$$
498962
  Marvin  02231216192D 0   1.00000     0.00000     0

 29 31  0  0  0  0  0  0  0  0999 V2000
    4.6273    6.8992    0.0000 F   0  0  0  0  0  0  0  0  0
    4.6273    6.0742    0.0000 C   0  0  0  0  0  0  0  0  0
    5.3417    5.6617    0.0000 C   0  0  0  0  0  0  0  0  0
    5.3417    4.8367    0.0000 C   0  0  0  0  0  0  0  0  0
    4.6273    4.4242    0.0000 C   0  0  0  0  0  0  0  0  0
    3.9128    4.8367    0.0000 C   0  0  0  0  0  0  0  0  0
    3.9128    5.6617    0.0000 C   0  0  0  0  0  0  0  0  0
    4.6273    3.5992    0.0000 C   0  0  0  0  0  0  0  0  0
    5.3417    3.1867    0.0000 C   0  0  0  0  0  0  0  0  0
    5.3417    2.3617    0.0000 N   0  0  0  0  0  0  0  0  0
    6.0562    1.9492    0.0000 C   0  0  0  0  0  0  0  0  0
    6.0562    1.1242    0.0000 C   0  0  0  0  0  0  0  0  0
    5.3417    0.7117    0.0000 C   0  0  0  0  0  0  0  0  0
    4.6273    1.1242    0.0000 C   0  0  0  0  0  0  0  0  0
    4.6273    1.9492    0.0000 C   0  0  0  0  0  0  0  0  0
    5.3417   -0.1133    0.0000 C   0  0  0  0  0  0  0  0  0
    4.6273   -0.5258    0.0000 O   0  0  0  0  0  0  0  0  0
    6.0562   -0.5258    0.0000 C   0  0  0  0  0  0  0  0  0
    6.7707   -0.1133    0.0000 C   0  0  0  0  0  0  0  0  0
    7.4851   -0.5258    0.0000 C   0  0  0  0  0  0  0  0  0
    7.4851   -1.3508    0.0000 C   0  0  0  0  0  0  0  0  0
    6.7707   -1.7633    0.0000 C   0  0  0  0  0  0  0  0  0
    6.7707   -2.5883    0.0000 O   0  0  0  0  0  0  0  0  0
    7.4851   -3.0008    0.0000 C   0  0  0  0  0  0  0  0  0
    7.4851   -3.8258    0.0000 C   0  0  0  0  0  0  0  0  0
    8.1996   -4.2383    0.0000 F   0  0  0  0  0  0  0  0  0
    6.0562   -1.3508    0.0000 C   0  0  0  0  0  0  0  0  0
    5.3417   -1.7633    0.0000 O   0  0  0  0  0  0  0  0  0
    5.3417   -2.5883    0.0000 C   0  0  0  0  0  0  0  0  0
  1  2  1  0  0  0  0
  2  3  4  0  0  0  0
  2  7  4  0  0  0  0
  3  4  4  0  0  0  0
  4  5  4  0  0  0  0
  5  6  4  0  0  0  0
  5  8  1  0  0  0  0
  6  7  4  0  0  0  0
  8  9  1  0  0  0  0
  9 10  1  0  0  0  0
 10 11  1  0  0  0  0
 10 15  1  0  0  0  0
 11 12  1  0  0  0  0
 12 13  1  0  0  0  0
 13 14  1  0  0  0  0
 13 16  1  0  0  0  0
 14 15  1  0  0  0  0
 16 17  2  0  0  0  0
 16 18  1  0  0  0  0
 18 19  4  0  0  0  0
 18 27  4  0  0  0  0
 19 20  4  0  0  0  0
 20 21  4  0  0  0  0
 21 22  4  0  0  0  0
 22 23  1  0  0  0  0
 22 27  4  0  0  0  0
 23 24  1  0  0  0  0
 24 25  1  0  0  0  0
 25 26  1  0  0  0  0
 27 28  1  0  0  0  0
 28 29  1  0  0  0  0
M  END
>  <Name_Molregno>
498962

>  <5-HT1A>
5.77

>  <5-HT1B>
5.66

>  <5-HT1D>
6.15

>  <5-HT1E>
5

>  <5-HT2C>
6.89

>  <5-HT3>
5

>  <5-HT5>
5.8

>  <5-HT6>
5

>  <5-HT7>
6.68

>  <Alpha-1A>
6.84

>  <Alpha-1B>
6.26

>  <Alpha-2A>
6.06

>  <Alpha-2C>
6.48

>  <DOPAMINE D1>
5.85

>  <DOPAMINE D2>
5.42

>  <DOPAMINE D4>
6.76

>  <DOPAMINE D5>
5.13

>  <Dopamine transporter>
5

>  <HISTAMINE H1>
6.03

>  <HISTAMINE H2>
5.76

>  <HISTAMINE H3>
5

>  <Serotonin transporter>
5.51

$$$$
498963
  Marvin  02231216192D 0   1.00000     0.00000     0

 31 33  0  0  1  0  0  0  0  0999 V2000
    8.1600    6.3223    0.0000 F   0  0  0  0  0  0  0  0  0
    7.4455    5.9098    0.0000 C   0  0  0  0  0  0  0  0  0
    7.4455    5.0848    0.0000 C   0  0  0  0  0  0  0  0  0
    6.7310    4.6723    0.0000 O   0  0  0  0  0  0  0  0  0
    6.7310    3.8473    0.0000 C   0  0  0  0  0  0  0  0  0
    7.4455    3.4348    0.0000 C   0  0  0  0  0  0  0  0  0
    7.4455    2.6098    0.0000 C   0  0  0  0  0  0  0  0  0
    6.7310    2.1973    0.0000 C   0  0  0  0  0  0  0  0  0
    6.0165    2.6098    0.0000 C   0  0  0  0  0  0  0  0  0
    5.3021    2.1973    0.0000 C   0  0  0  0  0  0  0  0  0
    4.5876    2.6098    0.0000 O   0  0  0  0  0  0  0  0  0
    5.3021    1.3723    0.0000 C   0  0  0  0  0  0  0  0  0
    6.0165    0.9598    0.0000 C   0  0  0  0  0  0  0  0  0
    6.0165    0.1348    0.0000 C   0  0  0  0  0  0  0  0  0
    5.3021   -0.2777    0.0000 N   0  0  0  0  0  0  0  0  0
    4.5876    0.1348    0.0000 C   0  0  0  0  0  0  0  0  0
    4.5876    0.9598    0.0000 C   0  0  0  0  0  0  0  0  0
    5.3021   -1.1027    0.0000 C   0  0  0  0  0  0  0  0  0
    6.0165   -1.5152    0.0000 C   0  0  0  0  0  0  0  0  0
    6.0165   -2.3402    0.0000 C   0  0  0  0  0  0  0  0  0
    6.7310   -2.7527    0.0000 C   0  0  0  0  0  0  0  0  0
    6.7310   -3.5777    0.0000 C   0  0  0  0  0  0  0  0  0
    6.0165   -3.9902    0.0000 C   0  0  0  0  0  0  0  0  0
    6.0165   -4.8152    0.0000 N   0  3  0  0  0  0  0  0  0
    6.7310   -5.2277    0.0000 O   0  5  0  0  0  0  0  0  0
    5.3021   -5.2277    0.0000 O   0  5  0  0  0  0  0  0  0
    5.3021   -3.5777    0.0000 C   0  0  0  0  0  0  0  0  0
    5.3021   -2.7527    0.0000 C   0  0  0  0  0  0  0  0  0
    6.0165    3.4348    0.0000 C   0  0  0  0  0  0  0  0  0
    5.3021    3.8473    0.0000 O   0  0  0  0  0  0  0  0  0
    4.5876    3.4348    0.0000 C   0  0  0  0  0  0  0  0  0
  1  2  1  0  0  0  0
  2  3  1  0  0  0  0
  3  4  1  0  0  0  0
  4  5  1  0  0  0  0
  5  6  4  0  0  0  0
  5 29  4  0  0  0  0
  6  7  4  0  0  0  0
  7  8  4  0  0  0  0
  8  9  4  0  0  0  0
  9 10  1  0  0  0  0
  9 29  4  0  0  0  0
 10 11  1  0  0  0  0
 10 12  1  0  0  0  0
 12 13  1  0  0  0  0
 12 17  1  0  0  0  0
 13 14  1  0  0  0  0
 14 15  1  0  0  0  0
 15 16  1  0  0  0  0
 15 18  1  0  0  0  0
 16 17  1  0  0  0  0
 18 19  1  0  0  0  0
 19 20  1  0  0  0  0
 20 21  4  0  0  0  0
 20 28  4  0  0  0  0
 21 22  4  0  0  0  0
 22 23  4  0  0  0  0
 23 24  1  0  0  0  0
 23 27  4  0  0  0  0
 24 25  1  0  0  0  0
 24 26  1  0  0  0  0
 27 28  4  0  0  0  0
 29 30  1  0  0  0  0
 30 31  1  0  0  0  0
M  CHG  3  24   1  25  -1  26  -1
M  END
>  <Name_Molregno>
498963

>  <5-HT1A>
5

>  <5-HT1B>
5

>  <5-HT1D>
5.47

>  <5-HT1E>
5

>  <5-HT2C>
5

>  <5-HT3>
5

>  <5-HT5>
5

>  <5-HT6>
5

>  <5-HT7>
5.29

$$$$
498964
  Marvin  02231216192D 0   1.00000     0.00000     0

 29 31  0  0  1  0  0  0  0  0999 V2000
    7.7806    5.8078    0.0000 F   0  0  0  0  0  0  0  0  0
    7.0662    5.3953    0.0000 C   0  0  0  0  0  0  0  0  0
    7.0662    4.5703    0.0000 C   0  0  0  0  0  0  0  0  0
    6.3517    4.1578    0.0000 O   0  0  0  0  0  0  0  0  0
    6.3517    3.3328    0.0000 C   0  0  0  0  0  0  0  0  0
    7.0662    2.9203    0.0000 C   0  0  0  0  0  0  0  0  0
    7.0662    2.0953    0.0000 C   0  0  0  0  0  0  0  0  0
    6.3517    1.6828    0.0000 C   0  0  0  0  0  0  0  0  0
    5.6372    2.0953    0.0000 C   0  0  0  0  0  0  0  0  0
    4.9227    1.6828    0.0000 C   0  0  0  0  0  0  0  0  0
    4.2083    2.0953    0.0000 O   0  0  0  0  0  0  0  0  0
    4.9227    0.8578    0.0000 C   0  0  0  0  0  0  0  0  0
    5.6372    0.4453    0.0000 C   0  0  0  0  0  0  0  0  0
    5.6372   -0.3797    0.0000 C   0  0  0  0  0  0  0  0  0
    4.9227   -0.7922    0.0000 N   0  0  0  0  0  0  0  0  0
    4.2083   -0.3797    0.0000 C   0  0  0  0  0  0  0  0  0
    4.2083    0.4453    0.0000 C   0  0  0  0  0  0  0  0  0
    4.9227   -1.6172    0.0000 C   0  0  0  0  0  0  0  0  0
    5.6372   -2.0297    0.0000 C   0  0  0  0  0  0  0  0  0
    5.6372   -2.8547    0.0000 C   0  0  0  0  0  0  0  0  0
    6.3517   -3.2672    0.0000 C   0  0  0  0  0  0  0  0  0
    6.3517   -4.0922    0.0000 C   0  0  0  0  0  0  0  0  0
    5.6372   -4.5047    0.0000 C   0  0  0  0  0  0  0  0  0
    4.9227   -4.0922    0.0000 C   0  0  0  0  0  0  0  0  0
    4.9227   -3.2672    0.0000 C   0  0  0  0  0  0  0  0  0
    5.6372   -5.3297    0.0000 C   0  0  0  0  0  0  0  0  0
    5.6372    2.9203    0.0000 C   0  0  0  0  0  0  0  0  0
    4.9227    3.3328    0.0000 O   0  0  0  0  0  0  0  0  0
    4.2083    2.9203    0.0000 C   0  0  0  0  0  0  0  0  0
  1  2  1  0  0  0  0
  2  3  1  0  0  0  0
  3  4  1  0  0  0  0
  4  5  1  0  0  0  0
  5  6  4  0  0  0  0
  5 27  4  0  0  0  0
  6  7  4  0  0  0  0
  7  8  4  0  0  0  0
  8  9  4  0  0  0  0
  9 10  1  0  0  0  0
  9 27  4  0  0  0  0
 10 11  1  0  0  0  0
 10 12  1  0  0  0  0
 12 13  1  0  0  0  0
 12 17  1  0  0  0  0
 13 14  1  0  0  0  0
 14 15  1  0  0  0  0
 15 16  1  0  0  0  0
 15 18  1  0  0  0  0
 16 17  1  0  0  0  0
 18 19  1  0  0  0  0
 19 20  1  0  0  0  0
 20 21  4  0  0  0  0
 20 25  4  0  0  0  0
 21 22  4  0  0  0  0
 22 23  4  0  0  0  0
 23 24  4  0  0  0  0
 23 26  1  0  0  0  0
 24 25  4  0  0  0  0
 27 28  1  0  0  0  0
 28 29  1  0  0  0  0
M  END
>  <Name_Molregno>
498964

>  <5-HT1A>
5

>  <5-HT1B>
5.31

>  <5-HT1D>
5.84

>  <5-HT1E>
5

>  <5-HT2C>
6.29

>  <5-HT3>
5

>  <5-HT5>
5

>  <5-HT6>
5

>  <5-HT7>
6.3

>  <Alpha-1B>
5

>  <Alpha-2A>
5

>  <Alpha-2C>
6.84

>  <DOPAMINE D1>
5.75

>  <DOPAMINE D2>
5

>  <DOPAMINE D4>
5.57

>  <Dopamine transporter>
5

>  <HISTAMINE H1>
6.36

>  <HISTAMINE H2>
5.94

>  <HISTAMINE H3>
5

>  <Serotonin transporter>
5.58

$$$$
499028
  Marvin  02231216192D 0   1.00000     0.00000     0

 29 31  0  0  0  0  0  0  0  0999 V2000
    7.7806    5.8078    0.0000 F   0  0  0  0  0  0  0  0  0
    7.0662    5.3953    0.0000 C   0  0  0  0  0  0  0  0  0
    7.0662    4.5703    0.0000 C   0  0  0  0  0  0  0  0  0
    6.3517    4.1578    0.0000 O   0  0  0  0  0  0  0  0  0
    6.3517    3.3328    0.0000 C   0  0  0  0  0  0  0  0  0
    7.0662    2.9203    0.0000 C   0  0  0  0  0  0  0  0  0
    7.0662    2.0953    0.0000 C   0  0  0  0  0  0  0  0  0
    6.3517    1.6828    0.0000 C   0  0  0  0  0  0  0  0  0
    5.6372    2.0953    0.0000 C   0  0  0  0  0  0  0  0  0
    4.9227    1.6828    0.0000 C   0  0  0  0  0  0  0  0  0
    4.2083    2.0953    0.0000 O   0  0  0  0  0  0  0  0  0
    4.9227    0.8578    0.0000 C   0  0  0  0  0  0  0  0  0
    5.6372    0.4453    0.0000 C   0  0  0  0  0  0  0  0  0
    5.6372   -0.3797    0.0000 C   0  0  0  0  0  0  0  0  0
    4.9227   -0.7922    0.0000 N   0  0  0  0  0  0  0  0  0
    4.2083   -0.3797    0.0000 C   0  0  0  0  0  0  0  0  0
    4.2083    0.4453    0.0000 C   0  0  0  0  0  0  0  0  0
    4.9227   -1.6172    0.0000 C   0  0  0  0  0  0  0  0  0
    5.6372   -2.0297    0.0000 C   0  0  0  0  0  0  0  0  0
    5.6372   -2.8547    0.0000 C   0  0  0  0  0  0  0  0  0
    6.3517   -3.2672    0.0000 C   0  0  0  0  0  0  0  0  0
    6.3517   -4.0922    0.0000 C   0  0  0  0  0  0  0  0  0
    5.6372   -4.5047    0.0000 C   0  0  0  0  0  0  0  0  0
    4.9227   -4.0922    0.0000 C   0  0  0  0  0  0  0  0  0
    4.9227   -3.2672    0.0000 C   0  0  0  0  0  0  0  0  0
    5.6372   -5.3297    0.0000 C   0  0  0  0  0  0  0  0  0
    5.6372    2.9203    0.0000 C   0  0  0  0  0  0  0  0  0
    4.9227    3.3328    0.0000 O   0  0  0  0  0  0  0  0  0
    4.2083    2.9203    0.0000 C   0  0  0  0  0  0  0  0  0
  1  2  1  0  0  0  0
  2  3  1  0  0  0  0
  3  4  1  0  0  0  0
  4  5  1  0  0  0  0
  5  6  4  0  0  0  0
  5 27  4  0  0  0  0
  6  7  4  0  0  0  0
  7  8  4  0  0  0  0
  8  9  4  0  0  0  0
  9 10  1  0  0  0  0
  9 27  4  0  0  0  0
 10 11  2  0  0  0  0
 10 12  1  0  0  0  0
 12 13  1  0  0  0  0
 12 17  1  0  0  0  0
 13 14  1  0  0  0  0
 14 15  1  0  0  0  0
 15 16  1  0  0  0  0
 15 18  1  0  0  0  0
 16 17  1  0  0  0  0
 18 19  1  0  0  0  0
 19 20  1  0  0  0  0
 20 21  4  0  0  0  0
 20 25  4  0  0  0  0
 21 22  4  0  0  0  0
 22 23  4  0  0  0  0
 23 24  4  0  0  0  0
 23 26  1  0  0  0  0
 24 25  4  0  0  0  0
 27 28  1  0  0  0  0
 28 29  1  0  0  0  0
M  END
>  <Name_Molregno>
499028

>  <5-HT1A>
5.73

>  <5-HT1B>
5.47

>  <5-HT1E>
5

>  <5-HT2C>
6.3

>  <5-HT3>
5

>  <5-HT5>
5.77

>  <5-HT6>
5

>  <5-HT7>
6.14

>  <Alpha-2C>
6.81

>  <DOPAMINE D1>
5.71

>  <DOPAMINE D2>
5

>  <DOPAMINE D4>
6.03

>  <HISTAMINE H1>
6.18

>  <HISTAMINE H2>
6.08

>  <HISTAMINE H3>
5.04

>  <Serotonin transporter>
6

$$$$
499029
  Marvin  02231216192D 0   1.00000     0.00000     0

 30 32  0  0  1  0  0  0  0  0999 V2000
    7.9632    6.0652    0.0000 F   0  0  0  0  0  0  0  0  0
    7.2488    5.6527    0.0000 C   0  0  0  0  0  0  0  0  0
    7.2488    4.8277    0.0000 C   0  0  0  0  0  0  0  0  0
    6.5343    4.4152    0.0000 O   0  0  0  0  0  0  0  0  0
    6.5343    3.5902    0.0000 C   0  0  0  0  0  0  0  0  0
    7.2488    3.1777    0.0000 C   0  0  0  0  0  0  0  0  0
    7.2488    2.3527    0.0000 C   0  0  0  0  0  0  0  0  0
    6.5343    1.9402    0.0000 C   0  0  0  0  0  0  0  0  0
    5.8198    2.3527    0.0000 C   0  0  0  0  0  0  0  0  0
    5.1053    1.9402    0.0000 C   0  0  0  0  0  0  0  0  0
    4.3909    2.3527    0.0000 O   0  0  0  0  0  0  0  0  0
    5.1053    1.1152    0.0000 C   0  0  0  0  0  0  0  0  0
    5.8198    0.7027    0.0000 C   0  0  0  0  0  0  0  0  0
    5.8198   -0.1223    0.0000 C   0  0  0  0  0  0  0  0  0
    5.1053   -0.5348    0.0000 N   0  0  0  0  0  0  0  0  0
    4.3909   -0.1223    0.0000 C   0  0  0  0  0  0  0  0  0
    4.3909    0.7027    0.0000 C   0  0  0  0  0  0  0  0  0
    5.1053   -1.3598    0.0000 C   0  0  0  0  0  0  0  0  0
    5.8198   -1.7723    0.0000 C   0  0  0  0  0  0  0  0  0
    5.8198   -2.5973    0.0000 C   0  0  0  0  0  0  0  0  0
    6.5343   -3.0098    0.0000 C   0  0  0  0  0  0  0  0  0
    6.5343   -3.8348    0.0000 C   0  0  0  0  0  0  0  0  0
    5.8198   -4.2473    0.0000 C   0  0  0  0  0  0  0  0  0
    5.8198   -5.0723    0.0000 O   0  0  0  0  0  0  0  0  0
    6.5343   -5.4848    0.0000 C   0  0  0  0  0  0  0  0  0
    5.1053   -3.8348    0.0000 C   0  0  0  0  0  0  0  0  0
    5.1053   -3.0098    0.0000 C   0  0  0  0  0  0  0  0  0
    5.8198    3.1777    0.0000 C   0  0  0  0  0  0  0  0  0
    5.1053    3.5902    0.0000 O   0  0  0  0  0  0  0  0  0
    4.3909    3.1777    0.0000 C   0  0  0  0  0  0  0  0  0
  1  2  1  0  0  0  0
  2  3  1  0  0  0  0
  3  4  1  0  0  0  0
  4  5  1  0  0  0  0
  5  6  4  0  0  0  0
  5 28  4  0  0  0  0
  6  7  4  0  0  0  0
  7  8  4  0  0  0  0
  8  9  4  0  0  0  0
  9 10  1  0  0  0  0
  9 28  4  0  0  0  0
 10 11  1  0  0  0  0
 10 12  1  0  0  0  0
 12 13  1  0  0  0  0
 12 17  1  0  0  0  0
 13 14  1  0  0  0  0
 14 15  1  0  0  0  0
 15 16  1  0  0  0  0
 15 18  1  0  0  0  0
 16 17  1  0  0  0  0
 18 19  1  0  0  0  0
 19 20  1  0  0  0  0
 20 21  4  0  0  0  0
 20 27  4  0  0  0  0
 21 22  4  0  0  0  0
 22 23  4  0  0  0  0
 23 24  1  0  0  0  0
 23 26  4  0  0  0  0
 24 25  1  0  0  0  0
 26 27  4  0  0  0  0
 28 29  1  0  0  0  0
 29 30  1  0  0  0  0
M  END
>  <Name_Molregno>
499029

>  <5-HT1A>
5

>  <5-HT1B>
5

>  <5-HT1D>
5

>  <5-HT1E>
5

>  <5-HT2C>
5

>  <5-HT3>
5

>  <5-HT5>
5

>  <5-HT6>
5

>  <5-HT7>
5

$$$$
499030
  Marvin  02231216192D 0   1.00000     0.00000     0

 31 33  0  0  0  0  0  0  0  0999 V2000
    8.1600    6.3223    0.0000 F   0  0  0  0  0  0  0  0  0
    7.4455    5.9098    0.0000 C   0  0  0  0  0  0  0  0  0
    7.4455    5.0848    0.0000 C   0  0  0  0  0  0  0  0  0
    6.7310    4.6723    0.0000 O   0  0  0  0  0  0  0  0  0
    6.7310    3.8473    0.0000 C   0  0  0  0  0  0  0  0  0
    7.4455    3.4348    0.0000 C   0  0  0  0  0  0  0  0  0
    7.4455    2.6098    0.0000 C   0  0  0  0  0  0  0  0  0
    6.7310    2.1973    0.0000 C   0  0  0  0  0  0  0  0  0
    6.0165    2.6098    0.0000 C   0  0  0  0  0  0  0  0  0
    5.3021    2.1973    0.0000 C   0  0  0  0  0  0  0  0  0
    4.5876    2.6098    0.0000 O   0  0  0  0  0  0  0  0  0
    5.3021    1.3723    0.0000 C   0  0  0  0  0  0  0  0  0
    6.0165    0.9598    0.0000 C   0  0  0  0  0  0  0  0  0
    6.0165    0.1348    0.0000 C   0  0  0  0  0  0  0  0  0
    5.3021   -0.2777    0.0000 N   0  0  0  0  0  0  0  0  0
    4.5876    0.1348    0.0000 C   0  0  0  0  0  0  0  0  0
    4.5876    0.9598    0.0000 C   0  0  0  0  0  0  0  0  0
    5.3021   -1.1027    0.0000 C   0  0  0  0  0  0  0  0  0
    6.0165   -1.5152    0.0000 C   0  0  0  0  0  0  0  0  0
    6.0165   -2.3402    0.0000 C   0  0  0  0  0  0  0  0  0
    6.7310   -2.7527    0.0000 C   0  0  0  0  0  0  0  0  0
    6.7310   -3.5777    0.0000 C   0  0  0  0  0  0  0  0  0
    6.0165   -3.9902    0.0000 C   0  0  0  0  0  0  0  0  0
    6.0165   -4.8152    0.0000 N   0  3  0  0  0  0  0  0  0
    6.7310   -5.2277    0.0000 O   0  5  0  0  0  0  0  0  0
    5.3021   -5.2277    0.0000 O   0  5  0  0  0  0  0  0  0
    5.3021   -3.5777    0.0000 C   0  0  0  0  0  0  0  0  0
    5.3021   -2.7527    0.0000 C   0  0  0  0  0  0  0  0  0
    6.0165    3.4348    0.0000 C   0  0  0  0  0  0  0  0  0
    5.3021    3.8473    0.0000 O   0  0  0  0  0  0  0  0  0
    4.5876    3.4348    0.0000 C   0  0  0  0  0  0  0  0  0
  1  2  1  0  0  0  0
  2  3  1  0  0  0  0
  3  4  1  0  0  0  0
  4  5  1  0  0  0  0
  5  6  4  0  0  0  0
  5 29  4  0  0  0  0
  6  7  4  0  0  0  0
  7  8  4  0  0  0  0
  8  9  4  0  0  0  0
  9 10  1  0  0  0  0
  9 29  4  0  0  0  0
 10 11  2  0  0  0  0
 10 12  1  0  0  0  0
 12 13  1  0  0  0  0
 12 17  1  0  0  0  0
 13 14  1  0  0  0  0
 14 15  1  0  0  0  0
 15 16  1  0  0  0  0
 15 18  1  0  0  0  0
 16 17  1  0  0  0  0
 18 19  1  0  0  0  0
 19 20  1  0  0  0  0
 20 21  4  0  0  0  0
 20 28  4  0  0  0  0
 21 22  4  0  0  0  0
 22 23  4  0  0  0  0
 23 24  1  0  0  0  0
 23 27  4  0  0  0  0
 24 25  1  0  0  0  0
 24 26  1  0  0  0  0
 27 28  4  0  0  0  0
 29 30  1  0  0  0  0
 30 31  1  0  0  0  0
M  CHG  3  24   1  25  -1  26  -1
M  END
>  <Name_Molregno>
499030

>  <5-HT1A>
5.76

>  <5-HT1B>
5

>  <5-HT1D>
5.74

>  <5-HT1E>
5

>  <5-HT2C>
5

>  <5-HT3>
5

>  <5-HT5>
5

>  <5-HT6>
5

>  <5-HT7>
5.2

$$$$
499031
  Marvin  02231216192D 0   1.00000     0.00000     0

 30 32  0  0  0  0  0  0  0  0999 V2000
    7.9632    6.0652    0.0000 F   0  0  0  0  0  0  0  0  0
    7.2488    5.6527    0.0000 C   0  0  0  0  0  0  0  0  0
    7.2488    4.8277    0.0000 C   0  0  0  0  0  0  0  0  0
    6.5343    4.4152    0.0000 O   0  0  0  0  0  0  0  0  0
    6.5343    3.5902    0.0000 C   0  0  0  0  0  0  0  0  0
    7.2488    3.1777    0.0000 C   0  0  0  0  0  0  0  0  0
    7.2488    2.3527    0.0000 C   0  0  0  0  0  0  0  0  0
    6.5343    1.9402    0.0000 C   0  0  0  0  0  0  0  0  0
    5.8198    2.3527    0.0000 C   0  0  0  0  0  0  0  0  0
    5.1053    1.9402    0.0000 C   0  0  0  0  0  0  0  0  0
    4.3909    2.3527    0.0000 O   0  0  0  0  0  0  0  0  0
    5.1053    1.1152    0.0000 C   0  0  0  0  0  0  0  0  0
    5.8198    0.7027    0.0000 C   0  0  0  0  0  0  0  0  0
    5.8198   -0.1223    0.0000 C   0  0  0  0  0  0  0  0  0
    5.1053   -0.5348    0.0000 N   0  0  0  0  0  0  0  0  0
    4.3909   -0.1223    0.0000 C   0  0  0  0  0  0  0  0  0
    4.3909    0.7027    0.0000 C   0  0  0  0  0  0  0  0  0
    5.1053   -1.3598    0.0000 C   0  0  0  0  0  0  0  0  0
    5.8198   -1.7723    0.0000 C   0  0  0  0  0  0  0  0  0
    5.8198   -2.5973    0.0000 C   0  0  0  0  0  0  0  0  0
    6.5343   -3.0098    0.0000 C   0  0  0  0  0  0  0  0  0
    6.5343   -3.8348    0.0000 C   0  0  0  0  0  0  0  0  0
    5.8198   -4.2473    0.0000 C   0  0  0  0  0  0  0  0  0
    5.8198   -5.0723    0.0000 O   0  0  0  0  0  0  0  0  0
    6.5343   -5.4848    0.0000 C   0  0  0  0  0  0  0  0  0
    5.1053   -3.8348    0.0000 C   0  0  0  0  0  0  0  0  0
    5.1053   -3.0098    0.0000 C   0  0  0  0  0  0  0  0  0
    5.8198    3.1777    0.0000 C   0  0  0  0  0  0  0  0  0
    5.1053    3.5902    0.0000 O   0  0  0  0  0  0  0  0  0
    4.3909    3.1777    0.0000 C   0  0  0  0  0  0  0  0  0
  1  2  1  0  0  0  0
  2  3  1  0  0  0  0
  3  4  1  0  0  0  0
  4  5  1  0  0  0  0
  5  6  4  0  0  0  0
  5 28  4  0  0  0  0
  6  7  4  0  0  0  0
  7  8  4  0  0  0  0
  8  9  4  0  0  0  0
  9 10  1  0  0  0  0
  9 28  4  0  0  0  0
 10 11  2  0  0  0  0
 10 12  1  0  0  0  0
 12 13  1  0  0  0  0
 12 17  1  0  0  0  0
 13 14  1  0  0  0  0
 14 15  1  0  0  0  0
 15 16  1  0  0  0  0
 15 18  1  0  0  0  0
 16 17  1  0  0  0  0
 18 19  1  0  0  0  0
 19 20  1  0  0  0  0
 20 21  4  0  0  0  0
 20 27  4  0  0  0  0
 21 22  4  0  0  0  0
 22 23  4  0  0  0  0
 23 24  1  0  0  0  0
 23 26  4  0  0  0  0
 24 25  1  0  0  0  0
 26 27  4  0  0  0  0
 28 29  1  0  0  0  0
 29 30  1  0  0  0  0
M  END
>  <Name_Molregno>
499031

>  <5-HT1A>
6

>  <5-HT1B>
5

>  <5-HT1D>
5.84

>  <5-HT1E>
5

>  <5-HT2C>
5.03

>  <5-HT3>
5

>  <5-HT5>
5

>  <5-HT6>
5

>  <5-HT7>
5.54

$$$$
499202
  Marvin  02231216192D 0   1.00000     0.00000     0

 27 30  0  0  0  0  0  0  0  0999 V2000
   -5.8456   -1.9199    0.0000 O   0  0  0  0  0  0  0  0  0
   -6.4587   -1.3678    0.0000 C   0  0  0  0  0  0  0  0  0
   -6.3725   -0.5473    0.0000 N   0  0  0  0  0  0  0  0  0
   -7.1262   -0.2118    0.0000 C   0  0  0  0  0  0  0  0  0
   -7.6782   -0.8249    0.0000 C   0  0  0  0  0  0  0  0  0
   -7.2657   -1.5394    0.0000 C   0  0  0  0  0  0  0  0  0
   -7.6782   -2.2538    0.0000 C   0  0  0  0  0  0  0  0  0
   -8.5032   -2.2538    0.0000 C   0  0  0  0  0  0  0  0  0
   -8.9157   -1.5394    0.0000 C   0  0  0  0  0  0  0  0  0
   -8.5032   -0.8249    0.0000 C   0  0  0  0  0  0  0  0  0
   -5.6580   -0.1348    0.0000 C   0  0  0  0  0  0  0  0  0
   -4.9436   -0.5473    0.0000 C   0  0  0  0  0  0  0  0  0
   -4.2291   -0.1348    0.0000 C   0  0  0  0  0  0  0  0  0
   -3.5146   -0.5473    0.0000 C   0  0  0  0  0  0  0  0  0
   -2.8001   -0.1348    0.0000 C   0  0  0  0  0  0  0  0  0
   -2.0857   -0.5473    0.0000 N   0  0  0  0  0  0  0  0  0
   -1.3712   -0.1348    0.0000 C   0  0  0  0  0  0  0  0  0
   -0.6567   -0.5473    0.0000 C   0  0  0  0  0  0  0  0  0
   -0.6567   -1.3723    0.0000 N   0  0  0  0  0  0  0  0  0
   -1.3712   -1.7848    0.0000 C   0  0  0  0  0  0  0  0  0
   -2.0857   -1.3723    0.0000 C   0  0  0  0  0  0  0  0  0
    0.0577   -1.7848    0.0000 C   0  0  0  0  0  0  0  0  0
    0.7722   -1.3723    0.0000 C   0  0  0  0  0  0  0  0  0
    1.4867   -1.7848    0.0000 C   0  0  0  0  0  0  0  0  0
    1.4867   -2.6098    0.0000 C   0  0  0  0  0  0  0  0  0
    0.7722   -3.0223    0.0000 C   0  0  0  0  0  0  0  0  0
    0.0577   -2.6098    0.0000 C   0  0  0  0  0  0  0  0  0
  1  2  2  0  0  0  0
  2  3  1  0  0  0  0
  2  6  1  0  0  0  0
  3  4  1  0  0  0  0
  3 11  1  0  0  0  0
  4  5  1  0  0  0  0
  5  6  4  0  0  0  0
  5 10  4  0  0  0  0
  6  7  4  0  0  0  0
  7  8  4  0  0  0  0
  8  9  4  0  0  0  0
  9 10  4  0  0  0  0
 11 12  1  0  0  0  0
 12 13  1  0  0  0  0
 13 14  1  0  0  0  0
 14 15  1  0  0  0  0
 15 16  1  0  0  0  0
 16 17  1  0  0  0  0
 16 21  1  0  0  0  0
 17 18  1  0  0  0  0
 18 19  1  0  0  0  0
 19 20  1  0  0  0  0
 19 22  1  0  0  0  0
 20 21  1  0  0  0  0
 22 23  4  0  0  0  0
 22 27  4  0  0  0  0
 23 24  4  0  0  0  0
 24 25  4  0  0  0  0
 25 26  4  0  0  0  0
 26 27  4  0  0  0  0
M  END
>  <Name_Molregno>
499202

>  <5-HT1A>
6

>  <5-HT7>
6.69

$$$$
499269
  Marvin  02231216192D 0   1.00000     0.00000     0

 30 34  0  0  0  0  0  0  0  0999 V2000
    5.3408   -3.6690    0.0000 O   0  0  0  0  0  0  0  0  0
    4.5562   -3.9239    0.0000 C   0  0  0  0  0  0  0  0  0
    3.8887   -3.4390    0.0000 N   0  0  0  0  0  0  0  0  0
    3.2213   -3.9239    0.0000 C   0  0  0  0  0  0  0  0  0
    3.4762   -4.7086    0.0000 C   0  0  0  0  0  0  0  0  0
    4.3012   -4.7086    0.0000 C   0  0  0  0  0  0  0  0  0
    2.9242   -5.3217    0.0000 C   0  0  0  0  0  0  0  0  0
    2.1172   -5.1501    0.0000 C   0  0  0  0  0  0  0  0  0
    1.8623   -4.3655    0.0000 C   0  0  0  0  0  0  0  0  0
    2.4143   -3.7524    0.0000 C   0  0  0  0  0  0  0  0  0
    3.8887   -2.6140    0.0000 C   0  0  0  0  0  0  0  0  0
    3.1743   -2.2015    0.0000 C   0  0  0  0  0  0  0  0  0
    3.1743   -1.3765    0.0000 C   0  0  0  0  0  0  0  0  0
    2.4598   -0.9640    0.0000 C   0  0  0  0  0  0  0  0  0
    2.4598   -0.1390    0.0000 N   0  0  0  0  0  0  0  0  0
    1.7453    0.2735    0.0000 C   0  0  0  0  0  0  0  0  0
    1.7453    1.0985    0.0000 C   0  0  0  0  0  0  0  0  0
    2.4598    1.5110    0.0000 N   0  0  0  0  0  0  0  0  0
    3.1743    1.0985    0.0000 C   0  0  0  0  0  0  0  0  0
    3.1743    0.2735    0.0000 C   0  0  0  0  0  0  0  0  0
    2.4598    2.3360    0.0000 C   0  0  0  0  0  0  0  0  0
    3.1743    2.7485    0.0000 C   0  0  0  0  0  0  0  0  0
    3.1743    3.5735    0.0000 C   0  0  0  0  0  0  0  0  0
    2.4598    3.9860    0.0000 C   0  0  0  0  0  0  0  0  0
    1.7453    3.5735    0.0000 C   0  0  0  0  0  0  0  0  0
    1.7453    2.7485    0.0000 C   0  0  0  0  0  0  0  0  0
    3.8887    3.9860    0.0000 C   0  0  0  0  0  0  0  0  0
    4.6032    3.5735    0.0000 C   0  0  0  0  0  0  0  0  0
    4.6032    2.7485    0.0000 C   0  0  0  0  0  0  0  0  0
    3.8887    2.3360    0.0000 C   0  0  0  0  0  0  0  0  0
  1  2  2  0  0  0  0
  2  3  1  0  0  0  0
  2  6  1  0  0  0  0
  3  4  1  0  0  0  0
  3 11  1  0  0  0  0
  4  5  4  0  0  0  0
  4 10  4  0  0  0  0
  5  6  1  0  0  0  0
  5  7  4  0  0  0  0
  7  8  4  0  0  0  0
  8  9  4  0  0  0  0
  9 10  4  0  0  0  0
 11 12  1  0  0  0  0
 12 13  1  0  0  0  0
 13 14  1  0  0  0  0
 14 15  1  0  0  0  0
 15 16  1  0  0  0  0
 15 20  1  0  0  0  0
 16 17  1  0  0  0  0
 17 18  1  0  0  0  0
 18 19  1  0  0  0  0
 18 21  1  0  0  0  0
 19 20  1  0  0  0  0
 21 22  4  0  0  0  0
 21 26  4  0  0  0  0
 22 23  4  0  0  0  0
 22 30  4  0  0  0  0
 23 24  4  0  0  0  0
 23 27  4  0  0  0  0
 24 25  4  0  0  0  0
 25 26  4  0  0  0  0
 27 28  4  0  0  0  0
 28 29  4  0  0  0  0
 29 30  4  0  0  0  0
M  END
>  <Name_Molregno>
499269

>  <5-HT1A>
7.66

>  <5-HT7>
7.33

$$$$
499270
  Marvin  02231216192D 0   1.00000     0.00000     0

 27 30  0  0  0  0  0  0  0  0999 V2000
   -4.3766   -1.8305    0.0000 O   0  0  0  0  0  0  0  0  0
   -4.9897   -1.2784    0.0000 C   0  0  0  0  0  0  0  0  0
   -4.9034   -0.4580    0.0000 N   0  0  0  0  0  0  0  0  0
   -5.6571   -0.1224    0.0000 C   0  0  0  0  0  0  0  0  0
   -6.2091   -0.7355    0.0000 C   0  0  0  0  0  0  0  0  0
   -5.7966   -1.4500    0.0000 C   0  0  0  0  0  0  0  0  0
   -7.0161   -0.5640    0.0000 C   0  0  0  0  0  0  0  0  0
   -7.2710    0.2207    0.0000 C   0  0  0  0  0  0  0  0  0
   -6.7190    0.8337    0.0000 C   0  0  0  0  0  0  0  0  0
   -5.9120    0.6622    0.0000 C   0  0  0  0  0  0  0  0  0
   -4.1889   -0.0455    0.0000 C   0  0  0  0  0  0  0  0  0
   -3.4745   -0.4580    0.0000 C   0  0  0  0  0  0  0  0  0
   -2.7600   -0.0455    0.0000 C   0  0  0  0  0  0  0  0  0
   -2.0455   -0.4580    0.0000 C   0  0  0  0  0  0  0  0  0
   -1.3311   -0.0455    0.0000 C   0  0  0  0  0  0  0  0  0
   -0.6166   -0.4580    0.0000 N   0  0  0  0  0  0  0  0  0
    0.0979   -0.0455    0.0000 C   0  0  0  0  0  0  0  0  0
    0.8123   -0.4580    0.0000 C   0  0  0  0  0  0  0  0  0
    0.8123   -1.2830    0.0000 N   0  0  0  0  0  0  0  0  0
    0.0979   -1.6955    0.0000 C   0  0  0  0  0  0  0  0  0
   -0.6166   -1.2830    0.0000 C   0  0  0  0  0  0  0  0  0
    1.5268   -1.6955    0.0000 C   0  0  0  0  0  0  0  0  0
    2.2413   -1.2830    0.0000 C   0  0  0  0  0  0  0  0  0
    2.9558   -1.6955    0.0000 C   0  0  0  0  0  0  0  0  0
    2.9558   -2.5205    0.0000 C   0  0  0  0  0  0  0  0  0
    2.2413   -2.9330    0.0000 C   0  0  0  0  0  0  0  0  0
    1.5268   -2.5205    0.0000 C   0  0  0  0  0  0  0  0  0
  1  2  2  0  0  0  0
  2  3  1  0  0  0  0
  2  6  1  0  0  0  0
  3  4  1  0  0  0  0
  3 11  1  0  0  0  0
  4  5  4  0  0  0  0
  4 10  4  0  0  0  0
  5  6  1  0  0  0  0
  5  7  4  0  0  0  0
  7  8  4  0  0  0  0
  8  9  4  0  0  0  0
  9 10  4  0  0  0  0
 11 12  1  0  0  0  0
 12 13  1  0  0  0  0
 13 14  1  0  0  0  0
 14 15  1  0  0  0  0
 15 16  1  0  0  0  0
 16 17  1  0  0  0  0
 16 21  1  0  0  0  0
 17 18  1  0  0  0  0
 18 19  1  0  0  0  0
 19 20  1  0  0  0  0
 19 22  1  0  0  0  0
 20 21  1  0  0  0  0
 22 23  4  0  0  0  0
 22 27  4  0  0  0  0
 23 24  4  0  0  0  0
 24 25  4  0  0  0  0
 25 26  4  0  0  0  0
 26 27  4  0  0  0  0
M  END
>  <Name_Molregno>
499270

>  <5-HT1A>
6

>  <5-HT7>
7.2

$$$$
499271
  Marvin  02231216192D 0   1.00000     0.00000     0

 29 32  0  0  0  0  0  0  0  0999 V2000
   -8.0581    0.0161    0.0000 O   0  0  0  0  0  0  0  0  0
   -8.7725   -0.3964    0.0000 C   0  0  0  0  0  0  0  0  0
   -8.0581    0.8411    0.0000 C   0  0  0  0  0  0  0  0  0
   -8.7725    1.2536    0.0000 C   0  0  0  0  0  0  0  0  0
   -8.7725    2.0786    0.0000 C   0  0  0  0  0  0  0  0  0
   -8.0581    2.4911    0.0000 C   0  0  0  0  0  0  0  0  0
   -7.3436    2.0786    0.0000 C   0  0  0  0  0  0  0  0  0
   -7.3436    1.2536    0.0000 C   0  0  0  0  0  0  0  0  0
   -6.6291    0.8411    0.0000 N   0  0  0  0  0  0  0  0  0
   -5.9147    1.2536    0.0000 C   0  0  0  0  0  0  0  0  0
   -5.2002    0.8411    0.0000 C   0  0  0  0  0  0  0  0  0
   -5.2002    0.0161    0.0000 N   0  0  0  0  0  0  0  0  0
   -5.9147   -0.3964    0.0000 C   0  0  0  0  0  0  0  0  0
   -6.6291    0.0161    0.0000 C   0  0  0  0  0  0  0  0  0
   -4.4857   -0.3964    0.0000 C   0  0  0  0  0  0  0  0  0
   -3.7712    0.0161    0.0000 C   0  0  0  0  0  0  0  0  0
   -3.0568   -0.3964    0.0000 C   0  0  0  0  0  0  0  0  0
   -2.3423    0.0161    0.0000 C   0  0  0  0  0  0  0  0  0
   -1.6278   -0.3964    0.0000 C   0  0  0  0  0  0  0  0  0
   -0.9134    0.0161    0.0000 N   0  0  0  0  0  0  0  0  0
   -0.1597   -0.3194    0.0000 C   0  0  0  0  0  0  0  0  0
    0.3923    0.2937    0.0000 C   0  0  0  0  0  0  0  0  0
   -0.0202    1.0082    0.0000 C   0  0  0  0  0  0  0  0  0
   -0.8271    0.8366    0.0000 C   0  0  0  0  0  0  0  0  0
   -1.4402    1.3887    0.0000 O   0  0  0  0  0  0  0  0  0
    1.1993    0.1222    0.0000 C   0  0  0  0  0  0  0  0  0
    1.4543   -0.6625    0.0000 C   0  0  0  0  0  0  0  0  0
    0.9022   -1.2756    0.0000 C   0  0  0  0  0  0  0  0  0
    0.0953   -1.1040    0.0000 C   0  0  0  0  0  0  0  0  0
  1  2  1  0  0  0  0
  1  3  1  0  0  0  0
  3  4  4  0  0  0  0
  3  8  4  0  0  0  0
  4  5  4  0  0  0  0
  5  6  4  0  0  0  0
  6  7  4  0  0  0  0
  7  8  4  0  0  0  0
  8  9  1  0  0  0  0
  9 10  1  0  0  0  0
  9 14  1  0  0  0  0
 10 11  1  0  0  0  0
 11 12  1  0  0  0  0
 12 13  1  0  0  0  0
 12 15  1  0  0  0  0
 13 14  1  0  0  0  0
 15 16  1  0  0  0  0
 16 17  1  0  0  0  0
 17 18  1  0  0  0  0
 18 19  1  0  0  0  0
 19 20  1  0  0  0  0
 20 21  1  0  0  0  0
 20 24  1  0  0  0  0
 21 22  4  0  0  0  0
 21 29  4  0  0  0  0
 22 23  1  0  0  0  0
 22 26  4  0  0  0  0
 23 24  1  0  0  0  0
 24 25  2  0  0  0  0
 26 27  4  0  0  0  0
 27 28  4  0  0  0  0
 28 29  4  0  0  0  0
M  END
>  <Name_Molregno>
499271

>  <5-HT1A>
6

>  <5-HT7>
7.2

$$$$
499341
  Marvin  02231216192D 0   1.00000     0.00000     0

 31 35  0  0  0  0  0  0  0  0999 V2000
   -4.4201   -4.1530    0.0000 O   0  0  0  0  0  0  0  0  0
   -5.0332   -3.6010    0.0000 C   0  0  0  0  0  0  0  0  0
   -4.9470   -2.7805    0.0000 N   0  0  0  0  0  0  0  0  0
   -5.7007   -2.4450    0.0000 C   0  0  0  0  0  0  0  0  0
   -6.2527   -3.0581    0.0000 C   0  0  0  0  0  0  0  0  0
   -5.8402   -3.7725    0.0000 C   0  0  0  0  0  0  0  0  0
   -7.0597   -2.8865    0.0000 C   0  0  0  0  0  0  0  0  0
   -7.3146   -2.1019    0.0000 C   0  0  0  0  0  0  0  0  0
   -6.7626   -1.4888    0.0000 C   0  0  0  0  0  0  0  0  0
   -5.9556   -1.6604    0.0000 C   0  0  0  0  0  0  0  0  0
   -4.2325   -2.3680    0.0000 C   0  0  0  0  0  0  0  0  0
   -3.5180   -2.7805    0.0000 C   0  0  0  0  0  0  0  0  0
   -2.8036   -2.3680    0.0000 C   0  0  0  0  0  0  0  0  0
   -2.0891   -2.7805    0.0000 C   0  0  0  0  0  0  0  0  0
   -1.3746   -2.3680    0.0000 C   0  0  0  0  0  0  0  0  0
   -1.3746   -1.5430    0.0000 N   0  0  0  0  0  0  0  0  0
   -2.0891   -1.1305    0.0000 C   0  0  0  0  0  0  0  0  0
   -2.0891   -0.3055    0.0000 C   0  0  0  0  0  0  0  0  0
   -1.3746    0.1070    0.0000 N   0  0  0  0  0  0  0  0  0
   -0.6602   -0.3055    0.0000 C   0  0  0  0  0  0  0  0  0
   -0.6602   -1.1305    0.0000 C   0  0  0  0  0  0  0  0  0
   -1.3746    0.9320    0.0000 C   0  0  0  0  0  0  0  0  0
   -0.6602    1.3445    0.0000 C   0  0  0  0  0  0  0  0  0
   -0.6602    2.1695    0.0000 C   0  0  0  0  0  0  0  0  0
   -1.3746    2.5820    0.0000 C   0  0  0  0  0  0  0  0  0
   -2.0891    2.1695    0.0000 C   0  0  0  0  0  0  0  0  0
   -2.0891    1.3445    0.0000 C   0  0  0  0  0  0  0  0  0
    0.0543    2.5820    0.0000 C   0  0  0  0  0  0  0  0  0
    0.7688    2.1695    0.0000 C   0  0  0  0  0  0  0  0  0
    0.7688    1.3445    0.0000 C   0  0  0  0  0  0  0  0  0
    0.0543    0.9320    0.0000 C   0  0  0  0  0  0  0  0  0
  1  2  2  0  0  0  0
  2  3  1  0  0  0  0
  2  6  1  0  0  0  0
  3  4  1  0  0  0  0
  3 11  1  0  0  0  0
  4  5  4  0  0  0  0
  4 10  4  0  0  0  0
  5  6  1  0  0  0  0
  5  7  4  0  0  0  0
  7  8  4  0  0  0  0
  8  9  4  0  0  0  0
  9 10  4  0  0  0  0
 11 12  1  0  0  0  0
 12 13  1  0  0  0  0
 13 14  1  0  0  0  0
 14 15  1  0  0  0  0
 15 16  1  0  0  0  0
 16 17  1  0  0  0  0
 16 21  1  0  0  0  0
 17 18  1  0  0  0  0
 18 19  1  0  0  0  0
 19 20  1  0  0  0  0
 19 22  1  0  0  0  0
 20 21  1  0  0  0  0
 22 23  4  0  0  0  0
 22 27  4  0  0  0  0
 23 24  4  0  0  0  0
 23 31  4  0  0  0  0
 24 25  4  0  0  0  0
 24 28  4  0  0  0  0
 25 26  4  0  0  0  0
 26 27  4  0  0  0  0
 28 29  4  0  0  0  0
 29 30  4  0  0  0  0
 30 31  4  0  0  0  0
M  END
>  <Name_Molregno>
499341

>  <5-HT1A>
7.8

>  <5-HT7>
7.16

$$$$
499342
  Marvin  02231216192D 0   1.00000     0.00000     0

 30 34  0  0  0  0  0  0  0  0999 V2000
   -0.5810   -2.3067    0.0000 O   0  0  0  0  0  0  0  0  0
   -0.7526   -3.1136    0.0000 C   0  0  0  0  0  0  0  0  0
   -1.5062   -3.4492    0.0000 N   0  0  0  0  0  0  0  0  0
   -1.4200   -4.2697    0.0000 C   0  0  0  0  0  0  0  0  0
   -0.6130   -4.4412    0.0000 C   0  0  0  0  0  0  0  0  0
   -0.2005   -3.7267    0.0000 C   0  0  0  0  0  0  0  0  0
   -0.3581   -5.2258    0.0000 C   0  0  0  0  0  0  0  0  0
   -0.9101   -5.8389    0.0000 C   0  0  0  0  0  0  0  0  0
   -1.7171   -5.6674    0.0000 C   0  0  0  0  0  0  0  0  0
   -1.9720   -4.8828    0.0000 C   0  0  0  0  0  0  0  0  0
   -2.2207   -3.0367    0.0000 C   0  0  0  0  0  0  0  0  0
   -2.2207   -2.2117    0.0000 C   0  0  0  0  0  0  0  0  0
   -2.9352   -1.7992    0.0000 C   0  0  0  0  0  0  0  0  0
   -2.9352   -0.9742    0.0000 C   0  0  0  0  0  0  0  0  0
   -3.6497   -0.5617    0.0000 C   0  0  0  0  0  0  0  0  0
   -3.6497    0.2633    0.0000 N   0  0  0  0  0  0  0  0  0
   -4.3641    0.6758    0.0000 C   0  0  0  0  0  0  0  0  0
   -4.3641    1.5008    0.0000 C   0  0  0  0  0  0  0  0  0
   -3.6497    1.9133    0.0000 N   0  0  0  0  0  0  0  0  0
   -2.9352    1.5008    0.0000 C   0  0  0  0  0  0  0  0  0
   -2.9352    0.6758    0.0000 C   0  0  0  0  0  0  0  0  0
   -3.6497    2.7383    0.0000 C   0  0  0  0  0  0  0  0  0
   -4.3641    3.1508    0.0000 C   0  0  0  0  0  0  0  0  0
   -5.1487    2.8959    0.0000 N   0  0  0  0  0  0  0  0  0
   -5.6337    3.5633    0.0000 C   0  0  0  0  0  0  0  0  0
   -5.1487    4.2307    0.0000 N   0  0  0  0  0  0  0  0  0
   -4.3641    3.9758    0.0000 C   0  0  0  0  0  0  0  0  0
   -3.6497    4.3883    0.0000 C   0  0  0  0  0  0  0  0  0
   -2.9352    3.9758    0.0000 C   0  0  0  0  0  0  0  0  0
   -2.9352    3.1508    0.0000 C   0  0  0  0  0  0  0  0  0
  1  2  2  0  0  0  0
  2  3  1  0  0  0  0
  2  6  1  0  0  0  0
  3  4  1  0  0  0  0
  3 11  1  0  0  0  0
  4  5  4  0  0  0  0
  4 10  4  0  0  0  0
  5  6  1  0  0  0  0
  5  7  4  0  0  0  0
  7  8  4  0  0  0  0
  8  9  4  0  0  0  0
  9 10  4  0  0  0  0
 11 12  1  0  0  0  0
 12 13  1  0  0  0  0
 13 14  1  0  0  0  0
 14 15  1  0  0  0  0
 15 16  1  0  0  0  0
 16 17  1  0  0  0  0
 16 21  1  0  0  0  0
 17 18  1  0  0  0  0
 18 19  1  0  0  0  0
 19 20  1  0  0  0  0
 19 22  1  0  0  0  0
 20 21  1  0  0  0  0
 22 23  4  0  0  0  0
 22 30  4  0  0  0  0
 23 24  4  0  0  0  0
 23 27  4  0  0  0  0
 24 25  4  0  0  0  0
 25 26  4  0  0  0  0
 26 27  4  0  0  0  0
 27 28  4  0  0  0  0
 28 29  4  0  0  0  0
 29 30  4  0  0  0  0
M  STY  1   1 DAT
M  SAL   1  1  26
M  SDT   1 MRV_IMPLICIT_H                                        
M  SDD   1     0.0000    0.0000    DR    ALL  0       0  
M  SED   1 IMPL_H1
M  END
>  <Name_Molregno>
499342

>  <5-HT1A>
7.74

>  <5-HT7>
7.17

$$$$
499343
  Marvin  02231216192D 0   1.00000     0.00000     0

 30 34  0  0  0  0  0  0  0  0999 V2000
   -0.8793   -3.6690    0.0000 O   0  0  0  0  0  0  0  0  0
   -1.6639   -3.9239    0.0000 C   0  0  0  0  0  0  0  0  0
   -2.3313   -3.4390    0.0000 N   0  0  0  0  0  0  0  0  0
   -2.9988   -3.9239    0.0000 C   0  0  0  0  0  0  0  0  0
   -2.7438   -4.7086    0.0000 C   0  0  0  0  0  0  0  0  0
   -1.9188   -4.7086    0.0000 C   0  0  0  0  0  0  0  0  0
   -3.2959   -5.3217    0.0000 C   0  0  0  0  0  0  0  0  0
   -4.1028   -5.1501    0.0000 C   0  0  0  0  0  0  0  0  0
   -4.3578   -4.3655    0.0000 C   0  0  0  0  0  0  0  0  0
   -3.8057   -3.7524    0.0000 C   0  0  0  0  0  0  0  0  0
   -2.3313   -2.6140    0.0000 C   0  0  0  0  0  0  0  0  0
   -3.0458   -2.2015    0.0000 C   0  0  0  0  0  0  0  0  0
   -3.0458   -1.3765    0.0000 C   0  0  0  0  0  0  0  0  0
   -3.7603   -0.9640    0.0000 C   0  0  0  0  0  0  0  0  0
   -3.7603   -0.1390    0.0000 N   0  0  0  0  0  0  0  0  0
   -4.4747    0.2735    0.0000 C   0  0  0  0  0  0  0  0  0
   -4.4747    1.0985    0.0000 C   0  0  0  0  0  0  0  0  0
   -3.7603    1.5110    0.0000 N   0  0  0  0  0  0  0  0  0
   -3.0458    1.0985    0.0000 C   0  0  0  0  0  0  0  0  0
   -3.0458    0.2735    0.0000 C   0  0  0  0  0  0  0  0  0
   -3.7603    2.3360    0.0000 C   0  0  0  0  0  0  0  0  0
   -3.0458    2.7485    0.0000 C   0  0  0  0  0  0  0  0  0
   -3.0458    3.5735    0.0000 C   0  0  0  0  0  0  0  0  0
   -3.7603    3.9860    0.0000 C   0  0  0  0  0  0  0  0  0
   -4.4747    3.5735    0.0000 C   0  0  0  0  0  0  0  0  0
   -4.4747    2.7485    0.0000 C   0  0  0  0  0  0  0  0  0
   -2.3313    3.9860    0.0000 C   0  0  0  0  0  0  0  0  0
   -1.6169    3.5735    0.0000 C   0  0  0  0  0  0  0  0  0
   -1.6169    2.7485    0.0000 C   0  0  0  0  0  0  0  0  0
   -2.3313    2.3360    0.0000 C   0  0  0  0  0  0  0  0  0
  1  2  2  0  0  0  0
  2  3  1  0  0  0  0
  2  6  1  0  0  0  0
  3  4  1  0  0  0  0
  3 11  1  0  0  0  0
  4  5  4  0  0  0  0
  4 10  4  0  0  0  0
  5  6  1  0  0  0  0
  5  7  4  0  0  0  0
  7  8  4  0  0  0  0
  8  9  4  0  0  0  0
  9 10  4  0  0  0  0
 11 12  1  0  0  0  0
 12 13  2  0  0  0  0
 13 14  1  0  0  0  0
 14 15  1  0  0  0  0
 15 16  1  0  0  0  0
 15 20  1  0  0  0  0
 16 17  1  0  0  0  0
 17 18  1  0  0  0  0
 18 19  1  0  0  0  0
 18 21  1  0  0  0  0
 19 20  1  0  0  0  0
 21 22  4  0  0  0  0
 21 26  4  0  0  0  0
 22 23  4  0  0  0  0
 22 30  4  0  0  0  0
 23 24  4  0  0  0  0
 23 27  4  0  0  0  0
 24 25  4  0  0  0  0
 25 26  4  0  0  0  0
 27 28  4  0  0  0  0
 28 29  4  0  0  0  0
 29 30  4  0  0  0  0
M  END
>  <Name_Molregno>
499343

>  <5-HT1A>
7.67

>  <5-HT7>
6.88

$$$$
499408
  Marvin  02231216192D 0   1.00000     0.00000     0

 30 34  0  0  0  0  0  0  0  0999 V2000
   -0.2057   -3.0322    0.0000 O   0  0  0  0  0  0  0  0  0
   -0.9903   -3.2871    0.0000 C   0  0  0  0  0  0  0  0  0
   -1.6577   -2.8022    0.0000 N   0  0  0  0  0  0  0  0  0
   -2.3252   -3.2871    0.0000 C   0  0  0  0  0  0  0  0  0
   -2.0702   -4.0718    0.0000 C   0  0  0  0  0  0  0  0  0
   -1.2452   -4.0718    0.0000 C   0  0  0  0  0  0  0  0  0
   -2.6223   -4.6849    0.0000 C   0  0  0  0  0  0  0  0  0
   -3.4292   -4.5133    0.0000 C   0  0  0  0  0  0  0  0  0
   -3.6842   -3.7287    0.0000 C   0  0  0  0  0  0  0  0  0
   -3.1321   -3.1156    0.0000 C   0  0  0  0  0  0  0  0  0
   -1.6577   -1.9772    0.0000 C   0  0  0  0  0  0  0  0  0
   -2.3722   -1.5647    0.0000 C   0  0  0  0  0  0  0  0  0
   -3.0867   -1.1522    0.0000 C   0  0  0  0  0  0  0  0  0
   -3.8011   -0.7397    0.0000 C   0  0  0  0  0  0  0  0  0
   -3.8011    0.0853    0.0000 N   0  0  0  0  0  0  0  0  0
   -4.5156    0.4978    0.0000 C   0  0  0  0  0  0  0  0  0
   -4.5156    1.3228    0.0000 C   0  0  0  0  0  0  0  0  0
   -3.8011    1.7353    0.0000 N   0  0  0  0  0  0  0  0  0
   -3.0867    1.3228    0.0000 C   0  0  0  0  0  0  0  0  0
   -3.0867    0.4978    0.0000 C   0  0  0  0  0  0  0  0  0
   -3.8011    2.5603    0.0000 C   0  0  0  0  0  0  0  0  0
   -3.0867    2.9728    0.0000 C   0  0  0  0  0  0  0  0  0
   -3.0867    3.7978    0.0000 C   0  0  0  0  0  0  0  0  0
   -3.8011    4.2103    0.0000 C   0  0  0  0  0  0  0  0  0
   -4.5156    3.7978    0.0000 C   0  0  0  0  0  0  0  0  0
   -4.5156    2.9728    0.0000 C   0  0  0  0  0  0  0  0  0
   -2.3722    4.2103    0.0000 C   0  0  0  0  0  0  0  0  0
   -1.6577    3.7978    0.0000 C   0  0  0  0  0  0  0  0  0
   -1.6577    2.9728    0.0000 C   0  0  0  0  0  0  0  0  0
   -2.3722    2.5603    0.0000 C   0  0  0  0  0  0  0  0  0
  1  2  2  0  0  0  0
  2  3  1  0  0  0  0
  2  6  1  0  0  0  0
  3  4  1  0  0  0  0
  3 11  1  0  0  0  0
  4  5  4  0  0  0  0
  4 10  4  0  0  0  0
  5  6  1  0  0  0  0
  5  7  4  0  0  0  0
  7  8  4  0  0  0  0
  8  9  4  0  0  0  0
  9 10  4  0  0  0  0
 11 12  1  0  0  0  0
 12 13  3  0  0  0  0
 13 14  1  0  0  0  0
 14 15  1  0  0  0  0
 15 16  1  0  0  0  0
 15 20  1  0  0  0  0
 16 17  1  0  0  0  0
 17 18  1  0  0  0  0
 18 19  1  0  0  0  0
 18 21  1  0  0  0  0
 19 20  1  0  0  0  0
 21 22  4  0  0  0  0
 21 26  4  0  0  0  0
 22 23  4  0  0  0  0
 22 30  4  0  0  0  0
 23 24  4  0  0  0  0
 23 27  4  0  0  0  0
 24 25  4  0  0  0  0
 25 26  4  0  0  0  0
 27 28  4  0  0  0  0
 28 29  4  0  0  0  0
 29 30  4  0  0  0  0
M  END
>  <Name_Molregno>
499408

>  <5-HT1A>
7.59

>  <5-HT7>
6

$$$$
499409
  Marvin  02231216192D 0   1.00000     0.00000     0

 34 39  0  0  0  0  0  0  0  0999 V2000
   -0.7904   -0.6977    0.0000 O   0  0  0  0  0  0  0  0  0
   -0.9620   -1.5047    0.0000 C   0  0  0  0  0  0  0  0  0
   -1.7156   -1.8402    0.0000 N   0  0  0  0  0  0  0  0  0
   -1.6294   -2.6607    0.0000 C   0  0  0  0  0  0  0  0  0
   -0.8224   -2.8322    0.0000 C   0  0  0  0  0  0  0  0  0
   -0.4099   -2.1177    0.0000 C   0  0  0  0  0  0  0  0  0
   -0.5675   -3.6168    0.0000 C   0  0  0  0  0  0  0  0  0
   -1.1195   -4.2299    0.0000 C   0  0  0  0  0  0  0  0  0
   -1.9265   -4.0584    0.0000 C   0  0  0  0  0  0  0  0  0
   -2.1814   -3.2738    0.0000 C   0  0  0  0  0  0  0  0  0
   -2.4301   -1.4277    0.0000 C   0  0  0  0  0  0  0  0  0
   -2.4301   -0.6027    0.0000 C   0  0  0  0  0  0  0  0  0
   -3.1446   -0.1902    0.0000 C   0  0  0  0  0  0  0  0  0
   -3.1446    0.6348    0.0000 C   0  0  0  0  0  0  0  0  0
   -2.4301    1.0473    0.0000 C   0  0  0  0  0  0  0  0  0
   -1.7156    0.6348    0.0000 C   0  0  0  0  0  0  0  0  0
   -1.7156   -0.1902    0.0000 C   0  0  0  0  0  0  0  0  0
   -3.8591    1.0473    0.0000 C   0  0  0  0  0  0  0  0  0
   -3.8591    1.8723    0.0000 N   0  0  0  0  0  0  0  0  0
   -4.5735    2.2848    0.0000 C   0  0  0  0  0  0  0  0  0
   -4.5735    3.1098    0.0000 C   0  0  0  0  0  0  0  0  0
   -3.8591    3.5223    0.0000 N   0  0  0  0  0  0  0  0  0
   -3.1446    3.1098    0.0000 C   0  0  0  0  0  0  0  0  0
   -3.1446    2.2848    0.0000 C   0  0  0  0  0  0  0  0  0
   -3.8591    4.3473    0.0000 C   0  0  0  0  0  0  0  0  0
   -3.1446    4.7598    0.0000 C   0  0  0  0  0  0  0  0  0
   -3.1446    5.5848    0.0000 C   0  0  0  0  0  0  0  0  0
   -3.8591    5.9973    0.0000 C   0  0  0  0  0  0  0  0  0
   -4.5735    5.5848    0.0000 C   0  0  0  0  0  0  0  0  0
   -4.5735    4.7598    0.0000 C   0  0  0  0  0  0  0  0  0
   -2.4301    5.9973    0.0000 C   0  0  0  0  0  0  0  0  0
   -1.7156    5.5848    0.0000 C   0  0  0  0  0  0  0  0  0
   -1.7156    4.7598    0.0000 C   0  0  0  0  0  0  0  0  0
   -2.4301    4.3473    0.0000 C   0  0  0  0  0  0  0  0  0
  1  2  2  0  0  0  0
  2  3  1  0  0  0  0
  2  6  1  0  0  0  0
  3  4  1  0  0  0  0
  3 11  1  0  0  0  0
  4  5  4  0  0  0  0
  4 10  4  0  0  0  0
  5  6  1  0  0  0  0
  5  7  4  0  0  0  0
  7  8  4  0  0  0  0
  8  9  4  0  0  0  0
  9 10  4  0  0  0  0
 11 12  1  0  0  0  0
 12 13  4  0  0  0  0
 12 17  4  0  0  0  0
 13 14  4  0  0  0  0
 14 15  4  0  0  0  0
 14 18  1  0  0  0  0
 15 16  4  0  0  0  0
 16 17  4  0  0  0  0
 18 19  1  0  0  0  0
 19 20  1  0  0  0  0
 19 24  1  0  0  0  0
 20 21  1  0  0  0  0
 21 22  1  0  0  0  0
 22 23  1  0  0  0  0
 22 25  1  0  0  0  0
 23 24  1  0  0  0  0
 25 26  4  0  0  0  0
 25 30  4  0  0  0  0
 26 27  4  0  0  0  0
 26 34  4  0  0  0  0
 27 28  4  0  0  0  0
 27 31  4  0  0  0  0
 28 29  4  0  0  0  0
 29 30  4  0  0  0  0
 31 32  4  0  0  0  0
 32 33  4  0  0  0  0
 33 34  4  0  0  0  0
M  END
>  <Name_Molregno>
499409

>  <5-HT1A>
6

>  <5-HT7>
6

$$$$
499410
  Marvin  02231216192D 0   1.00000     0.00000     0

 34 39  0  0  0  0  0  0  0  0999 V2000
   -1.5844    0.3222    0.0000 O   0  0  0  0  0  0  0  0  0
   -0.9713   -0.2298    0.0000 C   0  0  0  0  0  0  0  0  0
   -1.0575   -1.0503    0.0000 N   0  0  0  0  0  0  0  0  0
   -0.3038   -1.3858    0.0000 C   0  0  0  0  0  0  0  0  0
    0.2482   -0.7727    0.0000 C   0  0  0  0  0  0  0  0  0
   -0.1643   -0.0583    0.0000 C   0  0  0  0  0  0  0  0  0
    1.0552   -0.9443    0.0000 C   0  0  0  0  0  0  0  0  0
    1.3101   -1.7289    0.0000 C   0  0  0  0  0  0  0  0  0
    0.7581   -2.3420    0.0000 C   0  0  0  0  0  0  0  0  0
   -0.0489   -2.1704    0.0000 C   0  0  0  0  0  0  0  0  0
   -1.7720   -1.4628    0.0000 C   0  0  0  0  0  0  0  0  0
   -2.4865   -1.0503    0.0000 C   0  0  0  0  0  0  0  0  0
   -3.2009   -1.4628    0.0000 C   0  0  0  0  0  0  0  0  0
   -3.9154   -1.0503    0.0000 C   0  0  0  0  0  0  0  0  0
   -3.9154   -0.2253    0.0000 C   0  0  0  0  0  0  0  0  0
   -3.2009    0.1872    0.0000 C   0  0  0  0  0  0  0  0  0
   -2.4865   -0.2253    0.0000 C   0  0  0  0  0  0  0  0  0
   -4.6299    0.1872    0.0000 C   0  0  0  0  0  0  0  0  0
   -4.6299    1.0122    0.0000 N   0  0  0  0  0  0  0  0  0
   -5.3443    1.4247    0.0000 C   0  0  0  0  0  0  0  0  0
   -5.3443    2.2497    0.0000 C   0  0  0  0  0  0  0  0  0
   -4.6299    2.6622    0.0000 N   0  0  0  0  0  0  0  0  0
   -3.9154    2.2497    0.0000 C   0  0  0  0  0  0  0  0  0
   -3.9154    1.4247    0.0000 C   0  0  0  0  0  0  0  0  0
   -4.6299    3.4872    0.0000 C   0  0  0  0  0  0  0  0  0
   -3.9154    3.8997    0.0000 C   0  0  0  0  0  0  0  0  0
   -3.9154    4.7247    0.0000 C   0  0  0  0  0  0  0  0  0
   -4.6299    5.1372    0.0000 C   0  0  0  0  0  0  0  0  0
   -5.3443    4.7247    0.0000 C   0  0  0  0  0  0  0  0  0
   -5.3443    3.8997    0.0000 C   0  0  0  0  0  0  0  0  0
   -3.2009    5.1372    0.0000 C   0  0  0  0  0  0  0  0  0
   -2.4865    4.7247    0.0000 C   0  0  0  0  0  0  0  0  0
   -2.4865    3.8997    0.0000 C   0  0  0  0  0  0  0  0  0
   -3.2009    3.4872    0.0000 C   0  0  0  0  0  0  0  0  0
  1  2  2  0  0  0  0
  2  3  1  0  0  0  0
  2  6  1  0  0  0  0
  3  4  1  0  0  0  0
  3 11  1  0  0  0  0
  4  5  4  0  0  0  0
  4 10  4  0  0  0  0
  5  6  1  0  0  0  0
  5  7  4  0  0  0  0
  7  8  4  0  0  0  0
  8  9  4  0  0  0  0
  9 10  4  0  0  0  0
 11 12  1  0  0  0  0
 12 13  4  0  0  0  0
 12 17  4  0  0  0  0
 13 14  4  0  0  0  0
 14 15  4  0  0  0  0
 15 16  4  0  0  0  0
 15 18  1  0  0  0  0
 16 17  4  0  0  0  0
 18 19  1  0  0  0  0
 19 20  1  0  0  0  0
 19 24  1  0  0  0  0
 20 21  1  0  0  0  0
 21 22  1  0  0  0  0
 22 23  1  0  0  0  0
 22 25  1  0  0  0  0
 23 24  1  0  0  0  0
 25 26  4  0  0  0  0
 25 30  4  0  0  0  0
 26 27  4  0  0  0  0
 26 34  4  0  0  0  0
 27 28  4  0  0  0  0
 27 31  4  0  0  0  0
 28 29  4  0  0  0  0
 29 30  4  0  0  0  0
 31 32  4  0  0  0  0
 32 33  4  0  0  0  0
 33 34  4  0  0  0  0
M  END
>  <Name_Molregno>
499410

>  <5-HT1A>
6.74

>  <5-HT7>
6

$$$$
499411
  Marvin  02231216192D 0   1.00000     0.00000     0

 26 29  0  0  0  0  0  0  0  0999 V2000
   -4.0391    2.4085    0.0000 O   0  0  0  0  0  0  0  0  0
   -3.2141    2.4085    0.0000 C   0  0  0  0  0  0  0  0  0
   -2.7292    1.7411    0.0000 N   0  0  0  0  0  0  0  0  0
   -1.9445    1.9960    0.0000 C   0  0  0  0  0  0  0  0  0
   -1.9445    2.8210    0.0000 C   0  0  0  0  0  0  0  0  0
   -2.7292    3.0760    0.0000 C   0  0  0  0  0  0  0  0  0
   -1.2301    3.2335    0.0000 C   0  0  0  0  0  0  0  0  0
   -0.5156    2.8210    0.0000 C   0  0  0  0  0  0  0  0  0
   -0.5156    1.9960    0.0000 C   0  0  0  0  0  0  0  0  0
   -1.2301    1.5835    0.0000 C   0  0  0  0  0  0  0  0  0
   -2.9841    0.9565    0.0000 C   0  0  0  0  0  0  0  0  0
   -2.4321    0.3434    0.0000 C   0  0  0  0  0  0  0  0  0
   -2.6870   -0.4413    0.0000 C   0  0  0  0  0  0  0  0  0
   -2.1350   -1.0543    0.0000 C   0  0  0  0  0  0  0  0  0
   -2.3899   -1.8390    0.0000 N   0  0  0  0  0  0  0  0  0
   -1.8379   -2.4521    0.0000 C   0  0  0  0  0  0  0  0  0
   -2.0928   -3.2367    0.0000 C   0  0  0  0  0  0  0  0  0
   -2.8998   -3.4082    0.0000 C   0  0  0  0  0  0  0  0  0
   -3.4518   -2.7951    0.0000 C   0  0  0  0  0  0  0  0  0
   -3.1969   -2.0105    0.0000 C   0  0  0  0  0  0  0  0  0
   -3.1547   -4.1928    0.0000 C   0  0  0  0  0  0  0  0  0
   -2.6027   -4.8059    0.0000 C   0  0  0  0  0  0  0  0  0
   -2.8576   -5.5905    0.0000 C   0  0  0  0  0  0  0  0  0
   -3.6646   -5.7621    0.0000 C   0  0  0  0  0  0  0  0  0
   -4.2166   -5.1490    0.0000 C   0  0  0  0  0  0  0  0  0
   -3.9617   -4.3644    0.0000 C   0  0  0  0  0  0  0  0  0
  1  2  2  0  0  0  0
  2  3  1  0  0  0  0
  2  6  1  0  0  0  0
  3  4  1  0  0  0  0
  3 11  1  0  0  0  0
  4  5  4  0  0  0  0
  4 10  4  0  0  0  0
  5  6  1  0  0  0  0
  5  7  4  0  0  0  0
  7  8  4  0  0  0  0
  8  9  4  0  0  0  0
  9 10  4  0  0  0  0
 11 12  1  0  0  0  0
 12 13  1  0  0  0  0
 13 14  1  0  0  0  0
 14 15  1  0  0  0  0
 15 16  1  0  0  0  0
 15 20  1  0  0  0  0
 16 17  1  0  0  0  0
 17 18  1  0  0  0  0
 18 19  1  0  0  0  0
 18 21  1  0  0  0  0
 19 20  1  0  0  0  0
 21 22  4  0  0  0  0
 21 26  4  0  0  0  0
 22 23  4  0  0  0  0
 23 24  4  0  0  0  0
 24 25  4  0  0  0  0
 25 26  4  0  0  0  0
M  END
>  <Name_Molregno>
499411

>  <5-HT1A>
6

>  <5-HT7>
6.8

$$$$
499477
  Marvin  02231216192D 0   1.00000     0.00000     0

 26 29  0  0  1  0  0  0  0  0999 V2000
   -2.8858    5.2736    0.0000 O   0  0  0  0  0  0  0  0  0
   -2.0608    5.2736    0.0000 C   0  0  0  0  0  0  0  0  0
   -1.5759    4.6062    0.0000 N   0  0  0  0  0  0  0  0  0
   -0.7912    4.8611    0.0000 C   0  0  0  0  0  0  0  0  0
   -0.7912    5.6861    0.0000 C   0  0  0  0  0  0  0  0  0
   -1.5759    5.9411    0.0000 C   0  0  0  0  0  0  0  0  0
   -0.0768    6.0986    0.0000 C   0  0  0  0  0  0  0  0  0
    0.6377    5.6861    0.0000 C   0  0  0  0  0  0  0  0  0
    0.6377    4.8611    0.0000 C   0  0  0  0  0  0  0  0  0
   -0.0768    4.4486    0.0000 C   0  0  0  0  0  0  0  0  0
   -1.8308    3.8216    0.0000 C   0  0  0  0  0  0  0  0  0
   -1.2788    3.2085    0.0000 C   0  0  0  0  0  0  0  0  0
   -1.5337    2.4238    0.0000 C   0  0  0  0  0  0  0  0  0
   -0.9817    1.8108    0.0000 C   0  0  0  0  0  0  0  0  0
   -1.2366    1.0261    0.0000 N   0  0  0  0  0  0  0  0  0
   -0.6846    0.4130    0.0000 C   0  0  0  0  0  0  0  0  0
   -0.9395   -0.3716    0.0000 C   0  0  0  0  0  0  0  0  0
   -1.7465   -0.5431    0.0000 C   0  0  0  0  0  0  0  0  0
   -2.2985    0.0700    0.0000 C   0  0  0  0  0  0  0  0  0
   -2.0436    0.8546    0.0000 C   0  0  0  0  0  0  0  0  0
   -0.3875   -0.9847    0.0000 C   0  0  0  0  0  0  0  0  0
    0.4195   -0.8132    0.0000 C   0  0  0  0  0  0  0  0  0
    0.9715   -1.4262    0.0000 C   0  0  0  0  0  0  0  0  0
    0.7166   -2.2109    0.0000 C   0  0  0  0  0  0  0  0  0
   -0.0904   -2.3824    0.0000 C   0  0  0  0  0  0  0  0  0
   -0.6424   -1.7693    0.0000 C   0  0  0  0  0  0  0  0  0
  1  2  2  0  0  0  0
  2  3  1  0  0  0  0
  2  6  1  0  0  0  0
  3  4  1  0  0  0  0
  3 11  1  0  0  0  0
  4  5  4  0  0  0  0
  4 10  4  0  0  0  0
  5  6  1  0  0  0  0
  5  7  4  0  0  0  0
  7  8  4  0  0  0  0
  8  9  4  0  0  0  0
  9 10  4  0  0  0  0
 11 12  1  0  0  0  0
 12 13  1  0  0  0  0
 13 14  1  0  0  0  0
 14 15  1  0  0  0  0
 15 16  1  0  0  0  0
 15 20  1  0  0  0  0
 16 17  1  0  0  0  0
 17 18  1  0  0  0  0
 17 21  1  0  0  0  0
 18 19  1  0  0  0  0
 19 20  1  0  0  0  0
 21 22  4  0  0  0  0
 21 26  4  0  0  0  0
 22 23  4  0  0  0  0
 23 24  4  0  0  0  0
 24 25  4  0  0  0  0
 25 26  4  0  0  0  0
M  END
>  <Name_Molregno>
499477

>  <5-HT1A>
6

>  <5-HT7>
6.71

$$$$
499478
  Marvin  02231216192D 0   1.00000     0.00000     0

 24 27  0  0  0  0  0  0  0  0999 V2000
   -5.1686   -1.8768    0.0000 O   0  0  0  0  0  0  0  0  0
   -4.9971   -1.0698    0.0000 C   0  0  0  0  0  0  0  0  0
   -4.2434   -0.7343    0.0000 N   0  0  0  0  0  0  0  0  0
   -4.3297    0.0862    0.0000 C   0  0  0  0  0  0  0  0  0
   -5.1366    0.2577    0.0000 C   0  0  0  0  0  0  0  0  0
   -5.5491   -0.4567    0.0000 C   0  0  0  0  0  0  0  0  0
   -5.3916    1.0424    0.0000 C   0  0  0  0  0  0  0  0  0
   -4.8396    1.6555    0.0000 C   0  0  0  0  0  0  0  0  0
   -4.0326    1.4839    0.0000 C   0  0  0  0  0  0  0  0  0
   -3.7776    0.6993    0.0000 C   0  0  0  0  0  0  0  0  0
   -3.5290   -1.1468    0.0000 C   0  0  0  0  0  0  0  0  0
   -2.8145   -0.7343    0.0000 C   0  0  0  0  0  0  0  0  0
   -2.1000   -1.1468    0.0000 C   0  0  0  0  0  0  0  0  0
   -1.3856   -0.7343    0.0000 C   0  0  0  0  0  0  0  0  0
   -0.6711   -1.1468    0.0000 N   0  0  0  0  0  0  0  0  0
   -0.6711   -1.9718    0.0000 C   0  0  0  0  0  0  0  0  0
    0.0434   -2.3843    0.0000 C   0  0  0  0  0  0  0  0  0
    0.7579   -1.9718    0.0000 C   0  0  0  0  0  0  0  0  0
    0.7579   -1.1468    0.0000 C   0  0  0  0  0  0  0  0  0
    0.0434   -0.7343    0.0000 C   0  0  0  0  0  0  0  0  0
    1.4723   -0.7343    0.0000 C   0  0  0  0  0  0  0  0  0
    2.1868   -1.1468    0.0000 C   0  0  0  0  0  0  0  0  0
    2.1868   -1.9718    0.0000 C   0  0  0  0  0  0  0  0  0
    1.4723   -2.3843    0.0000 C   0  0  0  0  0  0  0  0  0
  1  2  2  0  0  0  0
  2  3  1  0  0  0  0
  2  6  1  0  0  0  0
  3  4  1  0  0  0  0
  3 11  1  0  0  0  0
  4  5  4  0  0  0  0
  4 10  4  0  0  0  0
  5  6  1  0  0  0  0
  5  7  4  0  0  0  0
  7  8  4  0  0  0  0
  8  9  4  0  0  0  0
  9 10  4  0  0  0  0
 11 12  1  0  0  0  0
 12 13  1  0  0  0  0
 13 14  1  0  0  0  0
 14 15  1  0  0  0  0
 15 16  1  0  0  0  0
 15 20  1  0  0  0  0
 16 17  1  0  0  0  0
 17 18  1  0  0  0  0
 18 19  4  0  0  0  0
 18 24  4  0  0  0  0
 19 20  1  0  0  0  0
 19 21  4  0  0  0  0
 21 22  4  0  0  0  0
 22 23  4  0  0  0  0
 23 24  4  0  0  0  0
M  END
>  <Name_Molregno>
499478

>  <5-HT1A>
6.66

>  <5-HT7>
8.15

$$$$
499479
  Marvin  02231216192D 0   1.00000     0.00000     0

 23 26  0  0  0  0  0  0  0  0999 V2000
   -2.2061   -0.0703    0.0000 O   0  0  0  0  0  0  0  0  0
   -2.8192    0.4818    0.0000 C   0  0  0  0  0  0  0  0  0
   -2.7329    1.3023    0.0000 N   0  0  0  0  0  0  0  0  0
   -3.4866    1.6378    0.0000 C   0  0  0  0  0  0  0  0  0
   -4.0386    1.0247    0.0000 C   0  0  0  0  0  0  0  0  0
   -3.6261    0.3102    0.0000 C   0  0  0  0  0  0  0  0  0
   -4.8456    1.1962    0.0000 C   0  0  0  0  0  0  0  0  0
   -5.1005    1.9809    0.0000 C   0  0  0  0  0  0  0  0  0
   -4.5485    2.5940    0.0000 C   0  0  0  0  0  0  0  0  0
   -3.7415    2.4224    0.0000 C   0  0  0  0  0  0  0  0  0
   -2.0185    1.7148    0.0000 C   0  0  0  0  0  0  0  0  0
   -1.3040    1.3023    0.0000 C   0  0  0  0  0  0  0  0  0
   -0.5895    1.7148    0.0000 C   0  0  0  0  0  0  0  0  0
    0.1250    1.3023    0.0000 N   0  0  0  0  0  0  0  0  0
    0.1250    0.4773    0.0000 C   0  0  0  0  0  0  0  0  0
    0.8394    0.0648    0.0000 C   0  0  0  0  0  0  0  0  0
    1.5539    0.4773    0.0000 C   0  0  0  0  0  0  0  0  0
    1.5539    1.3023    0.0000 C   0  0  0  0  0  0  0  0  0
    0.8394    1.7148    0.0000 C   0  0  0  0  0  0  0  0  0
    2.2684    1.7148    0.0000 C   0  0  0  0  0  0  0  0  0
    2.9828    1.3023    0.0000 C   0  0  0  0  0  0  0  0  0
    2.9828    0.4773    0.0000 C   0  0  0  0  0  0  0  0  0
    2.2684    0.0648    0.0000 C   0  0  0  0  0  0  0  0  0
  1  2  2  0  0  0  0
  2  3  1  0  0  0  0
  2  6  1  0  0  0  0
  3  4  1  0  0  0  0
  3 11  1  0  0  0  0
  4  5  4  0  0  0  0
  4 10  4  0  0  0  0
  5  6  1  0  0  0  0
  5  7  4  0  0  0  0
  7  8  4  0  0  0  0
  8  9  4  0  0  0  0
  9 10  4  0  0  0  0
 11 12  1  0  0  0  0
 12 13  1  0  0  0  0
 13 14  1  0  0  0  0
 14 15  1  0  0  0  0
 14 19  1  0  0  0  0
 15 16  1  0  0  0  0
 16 17  1  0  0  0  0
 17 18  4  0  0  0  0
 17 23  4  0  0  0  0
 18 19  1  0  0  0  0
 18 20  4  0  0  0  0
 20 21  4  0  0  0  0
 21 22  4  0  0  0  0
 22 23  4  0  0  0  0
M  END
>  <Name_Molregno>
499479

>  <5-HT1A>
6

>  <5-HT7>
6.98

$$$$
499480
  Marvin  02231216192D 0   1.00000     0.00000     0

 22 25  0  0  0  0  0  0  0  0999 V2000
   -0.9204   -2.2397    0.0000 O   0  0  0  0  0  0  0  0  0
   -0.7488   -1.4327    0.0000 C   0  0  0  0  0  0  0  0  0
    0.0048   -1.0971    0.0000 N   0  0  0  0  0  0  0  0  0
   -0.0814   -0.2767    0.0000 C   0  0  0  0  0  0  0  0  0
   -0.8884   -0.1051    0.0000 C   0  0  0  0  0  0  0  0  0
   -1.3009   -0.8196    0.0000 C   0  0  0  0  0  0  0  0  0
   -1.1433    0.6795    0.0000 C   0  0  0  0  0  0  0  0  0
   -0.5913    1.2926    0.0000 C   0  0  0  0  0  0  0  0  0
    0.2157    1.1211    0.0000 C   0  0  0  0  0  0  0  0  0
    0.4706    0.3364    0.0000 C   0  0  0  0  0  0  0  0  0
    0.7193   -1.5096    0.0000 C   0  0  0  0  0  0  0  0  0
    1.4338   -1.0971    0.0000 C   0  0  0  0  0  0  0  0  0
    2.1482   -1.5096    0.0000 N   0  0  0  0  0  0  0  0  0
    2.1482   -2.3346    0.0000 C   0  0  0  0  0  0  0  0  0
    2.8627   -2.7471    0.0000 C   0  0  0  0  0  0  0  0  0
    3.5772   -2.3346    0.0000 C   0  0  0  0  0  0  0  0  0
    3.5772   -1.5096    0.0000 C   0  0  0  0  0  0  0  0  0
    2.8627   -1.0971    0.0000 C   0  0  0  0  0  0  0  0  0
    4.2917   -1.0971    0.0000 C   0  0  0  0  0  0  0  0  0
    5.0061   -1.5096    0.0000 C   0  0  0  0  0  0  0  0  0
    5.0061   -2.3346    0.0000 C   0  0  0  0  0  0  0  0  0
    4.2917   -2.7471    0.0000 C   0  0  0  0  0  0  0  0  0
  1  2  2  0  0  0  0
  2  3  1  0  0  0  0
  2  6  1  0  0  0  0
  3  4  1  0  0  0  0
  3 11  1  0  0  0  0
  4  5  4  0  0  0  0
  4 10  4  0  0  0  0
  5  6  1  0  0  0  0
  5  7  4  0  0  0  0
  7  8  4  0  0  0  0
  8  9  4  0  0  0  0
  9 10  4  0  0  0  0
 11 12  1  0  0  0  0
 12 13  1  0  0  0  0
 13 14  1  0  0  0  0
 13 18  1  0  0  0  0
 14 15  1  0  0  0  0
 15 16  1  0  0  0  0
 16 17  4  0  0  0  0
 16 22  4  0  0  0  0
 17 18  1  0  0  0  0
 17 19  4  0  0  0  0
 19 20  4  0  0  0  0
 20 21  4  0  0  0  0
 21 22  4  0  0  0  0
M  END
>  <Name_Molregno>
499480

>  <5-HT1A>
6

>  <5-HT7>
6.46

$$$$
513010
  Marvin  02231216192D 0   1.00000     0.00000     0

 22 24  0  0  1  0  0  0  0  0999 V2000
   -0.2296   -0.4433    0.0000 O   0  0  0  0  0  0  0  0  0
    0.5954   -0.4441    0.0000 C   0  0  0  0  0  0  0  0  0
    1.0086    0.2700    0.0000 O   0  0  0  0  0  0  0  0  0
    1.0072   -1.1590    0.0000 C   0  0  0  0  0  0  0  0  0
    1.8322   -1.1598    0.0000 C   0  0  0  0  0  0  0  0  0
    2.2440   -1.8747    0.0000 C   0  0  0  0  0  0  0  0  0
    1.8308   -2.5887    0.0000 C   0  0  0  0  0  0  0  0  0
    1.0058   -2.5879    0.0000 C   0  0  0  0  0  0  0  0  0
    0.5940   -1.8730    0.0000 C   0  0  0  0  0  0  0  0  0
   -0.6414    0.2716    0.0000 C   0  0  0  0  0  0  0  0  0
   -0.7796    1.0890    0.0000 C   0  0  0  0  0  0  0  0  0
   -1.7084    1.0735    0.0000 C   0  0  0  0  0  0  0  0  0
   -2.2690    1.5134    0.0000 N   0  0  0  0  0  0  0  0  0
   -2.1293    0.7003    0.0000 C   0  0  0  0  0  0  0  0  0
   -2.6492   -0.0120    0.0000 C   0  0  0  0  0  0  0  0  0
   -2.0289    0.3649    0.0000 C   0  0  0  0  0  0  0  0  0
   -1.1576    0.7003    0.0000 C   0  0  0  0  0  0  0  0  0
   -1.4378   -0.0757    0.0000 C   0  0  0  0  0  0  0  0  0
   -2.2499   -0.2210    0.0000 O   0  0  0  0  0  0  0  0  0
   -2.5301   -0.9969    0.0000 C   0  0  0  0  0  0  0  0  0
   -0.9059   -0.7063    0.0000 O   0  0  0  0  0  0  0  0  0
   -2.6916    2.2219    0.0000 C   0  0  0  0  0  0  0  0  0
  1  2  1  0  0  0  0
  1 10  1  0  0  0  0
  2  3  2  0  0  0  0
  2  4  1  0  0  0  0
  4  5  4  0  0  0  0
  4  9  4  0  0  0  0
  5  6  4  0  0  0  0
  6  7  4  0  0  0  0
  7  8  4  0  0  0  0
  8  9  4  0  0  0  0
 10 11  1  0  0  0  0
 10 17  1  0  0  0  0
 11 12  1  0  0  0  0
 12 13  1  0  0  0  0
 12 16  1  0  0  0  0
 13 14  1  0  0  0  0
 13 22  1  0  0  0  0
 14 15  1  0  0  0  0
 14 17  1  0  0  0  0
 15 16  1  0  0  0  0
 17 18  1  0  0  0  0
 18 19  1  0  0  0  0
 18 21  2  0  0  0  0
 19 20  1  0  0  0  0
M  END
>  <Name_Molregno>
513010

>  <5-HT1A>
5

>  <5-HT1B>
5.47

>  <5-HT1D>
5

>  <5-HT1E>
5

>  <5-HT3>
5.31

>  <5-HT5>
5

>  <5-HT6>
5

>  <5-HT7>
5

>  <Alpha-1A>
5.68

>  <Alpha-1B>
5

>  <Alpha-2A>
5

>  <Alpha-2C>
5

>  <Beta-1>
5

>  <Beta-2>
5

>  <DOPAMINE D1>
5

>  <DOPAMINE D2>
5

>  <DOPAMINE D4>
5

>  <DOPAMINE D5>
5

>  <Dopamine transporter>
6.67

>  <HISTAMINE H1>
5.67

>  <HISTAMINE H2>
5

>  <HISTAMINE H4>
5

>  <Muscarinic acetylcholine receptor M1>
5

>  <Muscarinic acetylcholine receptor M2>
5

>  <Muscarinic acetylcholine receptor M3>
5

>  <Muscarinic acetylcholine receptor M4>
5

>  <Muscarinic acetylcholine receptor M5>
5

>  <Norepinephrine transporter>
5.76

>  <Serotonin transporter>
6.68

$$$$
513996
  Marvin  02231216192D 0   1.00000     0.00000     0

 31 35  0  0  0  0  0  0  0  0999 V2000
   -2.1904   -4.3104    0.0000 O   0  0  0  0  0  0  0  0  0
   -2.1904   -5.1354    0.0000 C   0  0  0  0  0  0  0  0  0
   -2.9049   -5.5479    0.0000 C   0  0  0  0  0  0  0  0  0
   -2.9049   -6.3729    0.0000 O   0  0  0  0  0  0  0  0  0
   -3.6194   -5.1354    0.0000 N   0  0  0  0  0  0  0  0  0
   -3.6194   -4.3104    0.0000 C   0  0  0  0  0  0  0  0  0
   -4.3338   -3.8979    0.0000 C   0  0  0  0  0  0  0  0  0
   -4.3338   -3.0729    0.0000 C   0  0  0  0  0  0  0  0  0
   -3.6194   -2.6604    0.0000 C   0  0  0  0  0  0  0  0  0
   -2.9049   -3.0729    0.0000 C   0  0  0  0  0  0  0  0  0
   -2.9049   -3.8979    0.0000 C   0  0  0  0  0  0  0  0  0
   -5.0483   -2.6604    0.0000 C   0  0  0  0  0  0  0  0  0
   -5.0483   -1.8354    0.0000 C   0  0  0  0  0  0  0  0  0
   -5.7628   -1.4229    0.0000 C   0  0  0  0  0  0  0  0  0
   -5.7628   -0.5979    0.0000 N   0  0  0  0  0  0  0  0  0
   -6.4773   -0.1854    0.0000 C   0  0  0  0  0  0  0  0  0
   -6.4773    0.6396    0.0000 C   0  0  0  0  0  0  0  0  0
   -5.7628    1.0521    0.0000 N   0  0  0  0  0  0  0  0  0
   -5.0483    0.6396    0.0000 C   0  0  0  0  0  0  0  0  0
   -5.0483   -0.1854    0.0000 C   0  0  0  0  0  0  0  0  0
   -5.7628    1.8771    0.0000 C   0  0  0  0  0  0  0  0  0
   -5.0483    2.2896    0.0000 C   0  0  0  0  0  0  0  0  0
   -5.0483    3.1146    0.0000 C   0  0  0  0  0  0  0  0  0
   -4.3338    3.5271    0.0000 N   0  0  0  0  0  0  0  0  0
   -3.6194    3.1146    0.0000 C   0  0  0  0  0  0  0  0  0
   -3.6194    2.2896    0.0000 C   0  0  0  0  0  0  0  0  0
   -4.3338    1.8771    0.0000 C   0  0  0  0  0  0  0  0  0
   -2.9049    3.5271    0.0000 C   0  0  0  0  0  0  0  0  0
   -5.7628    3.5271    0.0000 C   0  0  0  0  0  0  0  0  0
   -6.4773    3.1146    0.0000 C   0  0  0  0  0  0  0  0  0
   -6.4773    2.2896    0.0000 C   0  0  0  0  0  0  0  0  0
  1  2  1  0  0  0  0
  1 11  1  0  0  0  0
  2  3  1  0  0  0  0
  3  4  2  0  0  0  0
  3  5  1  0  0  0  0
  5  6  1  0  0  0  0
  6  7  4  0  0  0  0
  6 11  4  0  0  0  0
  7  8  4  0  0  0  0
  8  9  4  0  0  0  0
  8 12  1  0  0  0  0
  9 10  4  0  0  0  0
 10 11  4  0  0  0  0
 12 13  1  0  0  0  0
 13 14  1  0  0  0  0
 14 15  1  0  0  0  0
 15 16  1  0  0  0  0
 15 20  1  0  0  0  0
 16 17  1  0  0  0  0
 17 18  1  0  0  0  0
 18 19  1  0  0  0  0
 18 21  1  0  0  0  0
 19 20  1  0  0  0  0
 21 22  4  0  0  0  0
 21 31  4  0  0  0  0
 22 23  4  0  0  0  0
 22 27  4  0  0  0  0
 23 24  4  0  0  0  0
 23 29  4  0  0  0  0
 24 25  4  0  0  0  0
 25 26  4  0  0  0  0
 25 28  1  0  0  0  0
 26 27  4  0  0  0  0
 29 30  4  0  0  0  0
 30 31  4  0  0  0  0
M  END
>  <Name_Molregno>
513996

>  <5-HT1A>
8.6

>  <5-HT1B>
7.3

>  <5-HT1D>
8

$$$$
513997
  Marvin  02231216192D 0   1.00000     0.00000     0

 32 36  0  0  0  0  0  0  0  0999 V2000
   -4.3598   -4.2605    0.0000 O   0  0  0  0  0  0  0  0  0
   -5.0743   -4.6730    0.0000 C   0  0  0  0  0  0  0  0  0
   -5.7888   -4.2605    0.0000 C   0  0  0  0  0  0  0  0  0
   -6.5032   -4.6730    0.0000 O   0  0  0  0  0  0  0  0  0
   -5.7888   -3.4355    0.0000 N   0  0  0  0  0  0  0  0  0
   -5.0743   -3.0230    0.0000 C   0  0  0  0  0  0  0  0  0
   -5.0743   -2.1980    0.0000 C   0  0  0  0  0  0  0  0  0
   -4.3598   -1.7855    0.0000 C   0  0  0  0  0  0  0  0  0
   -3.6454   -2.1980    0.0000 C   0  0  0  0  0  0  0  0  0
   -3.6454   -3.0230    0.0000 C   0  0  0  0  0  0  0  0  0
   -4.3598   -3.4355    0.0000 C   0  0  0  0  0  0  0  0  0
   -4.3598   -0.9605    0.0000 C   0  0  0  0  0  0  0  0  0
   -5.0743   -0.5480    0.0000 C   0  0  0  0  0  0  0  0  0
   -5.0743    0.2770    0.0000 C   0  0  0  0  0  0  0  0  0
   -5.7888    0.6895    0.0000 C   0  0  0  0  0  0  0  0  0
   -5.7888    1.5145    0.0000 N   0  0  0  0  0  0  0  0  0
   -6.5032    1.9270    0.0000 C   0  0  0  0  0  0  0  0  0
   -6.5032    2.7520    0.0000 C   0  0  0  0  0  0  0  0  0
   -5.7888    3.1645    0.0000 N   0  0  0  0  0  0  0  0  0
   -5.0743    2.7520    0.0000 C   0  0  0  0  0  0  0  0  0
   -5.0743    1.9270    0.0000 C   0  0  0  0  0  0  0  0  0
   -5.7888    3.9895    0.0000 C   0  0  0  0  0  0  0  0  0
   -5.0743    4.4020    0.0000 C   0  0  0  0  0  0  0  0  0
   -5.0743    5.2270    0.0000 C   0  0  0  0  0  0  0  0  0
   -4.3598    5.6395    0.0000 N   0  0  0  0  0  0  0  0  0
   -3.6454    5.2270    0.0000 C   0  0  0  0  0  0  0  0  0
   -3.6454    4.4020    0.0000 C   0  0  0  0  0  0  0  0  0
   -4.3598    3.9895    0.0000 C   0  0  0  0  0  0  0  0  0
   -2.9309    5.6395    0.0000 C   0  0  0  0  0  0  0  0  0
   -5.7888    5.6395    0.0000 C   0  0  0  0  0  0  0  0  0
   -6.5032    5.2270    0.0000 C   0  0  0  0  0  0  0  0  0
   -6.5032    4.4020    0.0000 C   0  0  0  0  0  0  0  0  0
  1  2  1  0  0  0  0
  1 11  1  0  0  0  0
  2  3  1  0  0  0  0
  3  4  2  0  0  0  0
  3  5  1  0  0  0  0
  5  6  1  0  0  0  0
  6  7  4  0  0  0  0
  6 11  4  0  0  0  0
  7  8  4  0  0  0  0
  8  9  4  0  0  0  0
  8 12  1  0  0  0  0
  9 10  4  0  0  0  0
 10 11  4  0  0  0  0
 12 13  1  0  0  0  0
 13 14  1  0  0  0  0
 14 15  1  0  0  0  0
 15 16  1  0  0  0  0
 16 17  1  0  0  0  0
 16 21  1  0  0  0  0
 17 18  1  0  0  0  0
 18 19  1  0  0  0  0
 19 20  1  0  0  0  0
 19 22  1  0  0  0  0
 20 21  1  0  0  0  0
 22 23  4  0  0  0  0
 22 32  4  0  0  0  0
 23 24  4  0  0  0  0
 23 28  4  0  0  0  0
 24 25  4  0  0  0  0
 24 30  4  0  0  0  0
 25 26  4  0  0  0  0
 26 27  4  0  0  0  0
 26 29  1  0  0  0  0
 27 28  4  0  0  0  0
 30 31  4  0  0  0  0
 31 32  4  0  0  0  0
M  END
>  <Name_Molregno>
513997

>  <5-HT1A>
9.2

>  <5-HT1B>
8.2

>  <5-HT1D>
7.9

$$$$
513998
  Marvin  02231216192D 0   1.00000     0.00000     0

 29 33  0  0  0  0  0  0  0  0999 V2000
   -1.8956   -3.6417    0.0000 O   0  0  0  0  0  0  0  0  0
   -1.8956   -4.4667    0.0000 C   0  0  0  0  0  0  0  0  0
   -2.6101   -4.8792    0.0000 C   0  0  0  0  0  0  0  0  0
   -2.6101   -5.7042    0.0000 O   0  0  0  0  0  0  0  0  0
   -3.3246   -4.4667    0.0000 N   0  0  0  0  0  0  0  0  0
   -3.3246   -3.6417    0.0000 C   0  0  0  0  0  0  0  0  0
   -4.0390   -3.2292    0.0000 C   0  0  0  0  0  0  0  0  0
   -4.0390   -2.4042    0.0000 C   0  0  0  0  0  0  0  0  0
   -3.3246   -1.9917    0.0000 C   0  0  0  0  0  0  0  0  0
   -2.6101   -2.4042    0.0000 C   0  0  0  0  0  0  0  0  0
   -2.6101   -3.2292    0.0000 C   0  0  0  0  0  0  0  0  0
   -4.7535   -1.9917    0.0000 C   0  0  0  0  0  0  0  0  0
   -4.7535   -1.1667    0.0000 N   0  0  0  0  0  0  0  0  0
   -5.4680   -0.7542    0.0000 C   0  0  0  0  0  0  0  0  0
   -5.4680    0.0708    0.0000 C   0  0  0  0  0  0  0  0  0
   -4.7535    0.4833    0.0000 N   0  0  0  0  0  0  0  0  0
   -4.0390    0.0708    0.0000 C   0  0  0  0  0  0  0  0  0
   -4.0390   -0.7542    0.0000 C   0  0  0  0  0  0  0  0  0
   -4.7535    1.3083    0.0000 C   0  0  0  0  0  0  0  0  0
   -4.0390    1.7208    0.0000 C   0  0  0  0  0  0  0  0  0
   -4.0390    2.5458    0.0000 C   0  0  0  0  0  0  0  0  0
   -3.3246    2.9583    0.0000 N   0  0  0  0  0  0  0  0  0
   -2.6101    2.5458    0.0000 C   0  0  0  0  0  0  0  0  0
   -2.6101    1.7208    0.0000 C   0  0  0  0  0  0  0  0  0
   -3.3246    1.3083    0.0000 C   0  0  0  0  0  0  0  0  0
   -1.8956    2.9583    0.0000 C   0  0  0  0  0  0  0  0  0
   -4.7535    2.9583    0.0000 C   0  0  0  0  0  0  0  0  0
   -5.4680    2.5458    0.0000 C   0  0  0  0  0  0  0  0  0
   -5.4680    1.7208    0.0000 C   0  0  0  0  0  0  0  0  0
  1  2  1  0  0  0  0
  1 11  1  0  0  0  0
  2  3  1  0  0  0  0
  3  4  2  0  0  0  0
  3  5  1  0  0  0  0
  5  6  1  0  0  0  0
  6  7  4  0  0  0  0
  6 11  4  0  0  0  0
  7  8  4  0  0  0  0
  8  9  4  0  0  0  0
  8 12  1  0  0  0  0
  9 10  4  0  0  0  0
 10 11  4  0  0  0  0
 12 13  1  0  0  0  0
 13 14  1  0  0  0  0
 13 18  1  0  0  0  0
 14 15  1  0  0  0  0
 15 16  1  0  0  0  0
 16 17  1  0  0  0  0
 16 19  1  0  0  0  0
 17 18  1  0  0  0  0
 19 20  4  0  0  0  0
 19 29  4  0  0  0  0
 20 21  4  0  0  0  0
 20 25  4  0  0  0  0
 21 22  4  0  0  0  0
 21 27  4  0  0  0  0
 22 23  4  0  0  0  0
 23 24  4  0  0  0  0
 23 26  1  0  0  0  0
 24 25  4  0  0  0  0
 27 28  4  0  0  0  0
 28 29  4  0  0  0  0
M  END
>  <Name_Molregno>
513998

>  <5-HT1A>
6.2

>  <5-HT1B>
5

>  <5-HT1D>
6.9

$$$$
514014
  Marvin  02231216192D 0   1.00000     0.00000     0

 32 36  0  0  1  0  0  0  0  0999 V2000
    0.6038    0.6317    0.0000 Cl  0  0  0  0  0  0  0  0  0
    0.6038   -0.1933    0.0000 C   0  0  0  0  0  0  0  0  0
    1.3183   -0.6058    0.0000 C   0  0  0  0  0  0  0  0  0
    2.0327   -0.1933    0.0000 O   0  0  0  0  0  0  0  0  0
    2.7472   -0.6058    0.0000 C   0  0  0  0  0  0  0  0  0
    2.7472   -1.4308    0.0000 C   0  0  0  0  0  0  0  0  0
    3.4617   -1.8433    0.0000 N   0  0  0  0  0  0  0  0  0
    4.1761   -1.4308    0.0000 C   0  0  0  0  0  0  0  0  0
    4.8906   -1.8433    0.0000 C   0  0  0  0  0  0  0  0  0
    5.6051   -1.4308    0.0000 C   0  0  0  0  0  0  0  0  0
    6.3196   -1.8433    0.0000 C   0  0  0  0  0  0  0  0  0
    7.0732   -1.5077    0.0000 C   0  0  0  0  0  0  0  0  0
    7.3282   -0.7231    0.0000 C   0  0  0  0  0  0  0  0  0
    8.1351   -0.5516    0.0000 C   0  0  0  0  0  0  0  0  0
    8.3901    0.2331    0.0000 F   0  0  0  0  0  0  0  0  0
    8.6872   -1.1646    0.0000 C   0  0  0  0  0  0  0  0  0
    8.4322   -1.9493    0.0000 C   0  0  0  0  0  0  0  0  0
    7.6253   -2.1208    0.0000 C   0  0  0  0  0  0  0  0  0
    7.2128   -2.8353    0.0000 N   0  0  0  0  0  0  0  0  0
    6.4058   -2.6637    0.0000 C   0  0  0  0  0  0  0  0  0
    3.4617   -2.6683    0.0000 C   0  0  0  0  0  0  0  0  0
    4.0450   -3.2516    0.0000 C   0  0  0  0  0  0  0  0  0
    3.4617   -3.8350    0.0000 C   0  0  0  0  0  0  0  0  0
    2.8783   -3.2516    0.0000 C   0  0  0  0  0  0  0  0  0
    2.0327   -1.8433    0.0000 C   0  0  0  0  0  0  0  0  0
    1.3183   -1.4308    0.0000 C   0  0  0  0  0  0  0  0  0
    0.6038   -1.8433    0.0000 C   0  0  0  0  0  0  0  0  0
   -0.1107   -1.4308    0.0000 C   0  0  0  0  0  0  0  0  0
   -0.1107   -0.6058    0.0000 C   0  0  0  0  0  0  0  0  0
    0.6038   -2.6683    0.0000 C   0  0  0  0  0  0  0  0  0
   -0.1107   -3.0808    0.0000 O   0  0  0  0  0  0  0  0  0
    1.3183   -3.0808    0.0000 N   0  0  0  0  0  0  0  0  0
  1  2  1  0  0  0  0
  2  3  4  0  0  0  0
  2 29  4  0  0  0  0
  3  4  1  0  0  0  0
  3 26  4  0  0  0  0
  4  5  1  0  0  0  0
  5  6  1  0  0  0  0
  6  7  1  0  0  0  0
  6 25  1  0  0  0  0
  7  8  1  0  0  0  0
  7 21  1  0  0  0  0
  8  9  1  0  0  0  0
  9 10  1  0  0  0  0
 10 11  1  0  0  0  0
 11 12  4  0  0  0  0
 11 20  4  0  0  0  0
 12 13  4  0  0  0  0
 12 18  4  0  0  0  0
 13 14  4  0  0  0  0
 14 15  1  0  0  0  0
 14 16  4  0  0  0  0
 16 17  4  0  0  0  0
 17 18  4  0  0  0  0
 18 19  4  0  0  0  0
 19 20  4  0  0  0  0
 21 22  1  0  0  0  0
 21 24  1  0  0  0  0
 22 23  1  0  0  0  0
 23 24  1  0  0  0  0
 25 26  1  0  0  0  0
 26 27  4  0  0  0  0
 27 28  4  0  0  0  0
 27 30  1  0  0  0  0
 28 29  4  0  0  0  0
 30 31  2  0  0  0  0
 30 32  1  0  0  0  0
M  STY  1   1 DAT
M  SAL   1  1  19
M  SDT   1 MRV_IMPLICIT_H                                        
M  SDD   1     0.0000    0.0000    DR    ALL  0       0  
M  SED   1 IMPL_H1
M  END
>  <Name_Molregno>
514014

>  <5-HT1A>
8.09

$$$$
514016
  Marvin  02231216192D 0   1.00000     0.00000     0

 31 35  0  0  1  0  0  0  0  0999 V2000
   -7.8229   -0.5187    0.0000 F   0  0  0  0  0  0  0  0  0
   -7.5680   -1.3034    0.0000 C   0  0  0  0  0  0  0  0  0
   -6.7610   -1.4749    0.0000 C   0  0  0  0  0  0  0  0  0
   -6.5061   -2.2595    0.0000 C   0  0  0  0  0  0  0  0  0
   -7.0581   -2.8726    0.0000 C   0  0  0  0  0  0  0  0  0
   -6.6456   -3.5871    0.0000 N   0  0  0  0  0  0  0  0  0
   -5.8386   -3.4156    0.0000 C   0  0  0  0  0  0  0  0  0
   -5.7524   -2.5951    0.0000 C   0  0  0  0  0  0  0  0  0
   -5.0379   -2.1826    0.0000 C   0  0  0  0  0  0  0  0  0
   -4.3235   -2.5951    0.0000 C   0  0  0  0  0  0  0  0  0
   -3.6090   -2.1826    0.0000 C   0  0  0  0  0  0  0  0  0
   -2.8945   -2.5951    0.0000 N   0  0  0  0  0  0  0  0  0
   -2.8945   -3.4201    0.0000 C   0  0  0  0  0  0  0  0  0
   -2.3111   -4.0034    0.0000 C   0  0  0  0  0  0  0  0  0
   -2.8945   -4.5868    0.0000 C   0  0  0  0  0  0  0  0  0
   -3.4779   -4.0034    0.0000 C   0  0  0  0  0  0  0  0  0
   -2.1800   -2.1826    0.0000 C   0  0  0  0  0  0  0  0  0
   -1.4656   -2.5951    0.0000 C   0  0  0  0  0  0  0  0  0
   -0.7511   -2.1826    0.0000 C   0  0  0  0  0  0  0  0  0
   -0.7511   -1.3576    0.0000 C   0  0  0  0  0  0  0  0  0
   -1.4656   -0.9451    0.0000 O   0  0  0  0  0  0  0  0  0
   -2.1800   -1.3576    0.0000 C   0  0  0  0  0  0  0  0  0
   -0.0366   -0.9451    0.0000 C   0  0  0  0  0  0  0  0  0
    0.6778   -1.3576    0.0000 C   0  0  0  0  0  0  0  0  0
    0.6778   -2.1826    0.0000 C   0  0  0  0  0  0  0  0  0
   -0.0366   -2.5951    0.0000 C   0  0  0  0  0  0  0  0  0
   -0.0366   -3.4201    0.0000 C   0  0  0  0  0  0  0  0  0
    0.6778   -3.8326    0.0000 O   0  0  0  0  0  0  0  0  0
   -0.7511   -3.8326    0.0000 N   0  0  0  0  0  0  0  0  0
   -7.8651   -2.7011    0.0000 C   0  0  0  0  0  0  0  0  0
   -8.1200   -1.9165    0.0000 C   0  0  0  0  0  0  0  0  0
  1  2  1  0  0  0  0
  2  3  4  0  0  0  0
  2 31  4  0  0  0  0
  3  4  4  0  0  0  0
  4  5  4  0  0  0  0
  4  8  4  0  0  0  0
  5  6  4  0  0  0  0
  5 30  4  0  0  0  0
  6  7  4  0  0  0  0
  7  8  4  0  0  0  0
  8  9  1  0  0  0  0
  9 10  1  0  0  0  0
 10 11  1  0  0  0  0
 11 12  1  0  0  0  0
 12 13  1  0  0  0  0
 12 17  1  0  0  0  0
 13 14  1  0  0  0  0
 13 16  1  0  0  0  0
 14 15  1  0  0  0  0
 15 16  1  0  0  0  0
 17 18  1  0  0  0  0
 17 22  1  0  0  0  0
 18 19  1  0  0  0  0
 19 20  4  0  0  0  0
 19 26  4  0  0  0  0
 20 21  1  0  0  0  0
 20 23  4  0  0  0  0
 21 22  1  0  0  0  0
 23 24  4  0  0  0  0
 24 25  4  0  0  0  0
 25 26  4  0  0  0  0
 26 27  1  0  0  0  0
 27 28  2  0  0  0  0
 27 29  1  0  0  0  0
 30 31  4  0  0  0  0
M  STY  1   1 DAT
M  SAL   1  1   6
M  SDT   1 MRV_IMPLICIT_H                                        
M  SDD   1     0.0000    0.0000    DR    ALL  0       0  
M  SED   1 IMPL_H1
M  END
>  <Name_Molregno>
514016

>  <5-HT1A>
8.49

$$$$
514068
  Marvin  02231216192D 0   1.00000     0.00000     0

 33 37  0  0  1  0  0  0  0  0999 V2000
   -6.6733   -4.9327    0.0000 O   0  0  0  0  0  0  0  0  0
   -7.3878   -5.3452    0.0000 C   0  0  0  0  0  0  0  0  0
   -8.1023   -4.9327    0.0000 C   0  0  0  0  0  0  0  0  0
   -8.8167   -5.3452    0.0000 O   0  0  0  0  0  0  0  0  0
   -8.1023   -4.1077    0.0000 N   0  0  0  0  0  0  0  0  0
   -7.3878   -3.6952    0.0000 C   0  0  0  0  0  0  0  0  0
   -7.3878   -2.8702    0.0000 C   0  0  0  0  0  0  0  0  0
   -6.6733   -2.4577    0.0000 C   0  0  0  0  0  0  0  0  0
   -5.9589   -2.8702    0.0000 C   0  0  0  0  0  0  0  0  0
   -5.9589   -3.6952    0.0000 C   0  0  0  0  0  0  0  0  0
   -6.6733   -4.1077    0.0000 C   0  0  0  0  0  0  0  0  0
   -6.6733   -1.6327    0.0000 C   0  0  0  0  0  0  0  0  0
   -5.9589   -1.2202    0.0000 C   0  0  0  0  0  0  0  0  0
   -5.9589   -0.3952    0.0000 C   0  0  0  0  0  0  0  0  0
   -5.2444    0.0173    0.0000 C   0  0  0  0  0  0  0  0  0
   -4.5299   -0.3952    0.0000 N   0  0  0  0  0  0  0  0  0
   -4.5299   -1.2202    0.0000 C   0  0  0  0  0  0  0  0  0
   -5.2444   -1.6327    0.0000 C   0  0  0  0  0  0  0  0  0
   -3.8154    0.0173    0.0000 C   0  0  0  0  0  0  0  0  0
   -3.8154    0.8423    0.0000 C   0  0  0  0  0  0  0  0  0
   -3.1010    1.2548    0.0000 O   0  0  0  0  0  0  0  0  0
   -3.1010    2.0798    0.0000 C   0  0  0  0  0  0  0  0  0
   -2.3865    2.4923    0.0000 C   0  0  0  0  0  0  0  0  0
   -2.3865    3.3173    0.0000 C   0  0  0  0  0  0  0  0  0
   -1.6720    3.7298    0.0000 N   0  0  0  0  0  0  0  0  0
   -0.9576    3.3173    0.0000 C   0  0  0  0  0  0  0  0  0
   -0.9576    2.4923    0.0000 C   0  0  0  0  0  0  0  0  0
   -1.6720    2.0798    0.0000 C   0  0  0  0  0  0  0  0  0
   -0.2431    3.7298    0.0000 C   0  0  0  0  0  0  0  0  0
   -3.1010    3.7298    0.0000 C   0  0  0  0  0  0  0  0  0
   -3.8154    3.3173    0.0000 C   0  0  0  0  0  0  0  0  0
   -3.8154    2.4923    0.0000 C   0  0  0  0  0  0  0  0  0
   -3.1010   -0.3952    0.0000 C   0  0  0  0  0  0  0  0  0
  1  2  1  0  0  0  0
  1 11  1  0  0  0  0
  2  3  1  0  0  0  0
  3  4  2  0  0  0  0
  3  5  1  0  0  0  0
  5  6  1  0  0  0  0
  6  7  4  0  0  0  0
  6 11  4  0  0  0  0
  7  8  4  0  0  0  0
  8  9  4  0  0  0  0
  8 12  1  0  0  0  0
  9 10  4  0  0  0  0
 10 11  4  0  0  0  0
 12 13  1  0  0  0  0
 13 14  1  0  0  0  0
 13 18  1  0  0  0  0
 14 15  1  0  0  0  0
 15 16  1  0  0  0  0
 16 17  1  0  0  0  0
 16 19  1  0  0  0  0
 17 18  1  0  0  0  0
 19 20  1  0  0  0  0
 19 33  1  0  0  0  0
 20 21  1  0  0  0  0
 21 22  1  0  0  0  0
 22 23  4  0  0  0  0
 22 32  4  0  0  0  0
 23 24  4  0  0  0  0
 23 28  4  0  0  0  0
 24 25  4  0  0  0  0
 24 30  4  0  0  0  0
 25 26  4  0  0  0  0
 26 27  4  0  0  0  0
 26 29  1  0  0  0  0
 27 28  4  0  0  0  0
 30 31  4  0  0  0  0
 31 32  4  0  0  0  0
M  END
>  <Name_Molregno>
514068

>  <5-HT1A>
7.15

>  <5-HT1B>
7.2

>  <5-HT1D>
6.45

$$$$
514069
  Marvin  02231216192D 0   1.00000     0.00000     0

 33 37  0  0  1  0  0  0  0  0999 V2000
   -6.6545   -5.0150    0.0000 O   0  0  0  0  0  0  0  0  0
   -7.3689   -5.4275    0.0000 C   0  0  0  0  0  0  0  0  0
   -8.0834   -5.0150    0.0000 C   0  0  0  0  0  0  0  0  0
   -8.7979   -5.4275    0.0000 O   0  0  0  0  0  0  0  0  0
   -8.0834   -4.1900    0.0000 N   0  0  0  0  0  0  0  0  0
   -7.3689   -3.7775    0.0000 C   0  0  0  0  0  0  0  0  0
   -7.3689   -2.9525    0.0000 C   0  0  0  0  0  0  0  0  0
   -6.6545   -2.5400    0.0000 C   0  0  0  0  0  0  0  0  0
   -5.9400   -2.9525    0.0000 C   0  0  0  0  0  0  0  0  0
   -5.9400   -3.7775    0.0000 C   0  0  0  0  0  0  0  0  0
   -6.6545   -4.1900    0.0000 C   0  0  0  0  0  0  0  0  0
   -6.6545   -1.7150    0.0000 C   0  0  0  0  0  0  0  0  0
   -5.9400   -1.3025    0.0000 C   0  0  0  0  0  0  0  0  0
   -5.9400   -0.4775    0.0000 C   0  0  0  0  0  0  0  0  0
   -5.2255   -0.0650    0.0000 C   0  0  0  0  0  0  0  0  0
   -4.5111   -0.4775    0.0000 N   0  0  0  0  0  0  0  0  0
   -4.5111   -1.3025    0.0000 C   0  0  0  0  0  0  0  0  0
   -5.2255   -1.7150    0.0000 C   0  0  0  0  0  0  0  0  0
   -3.7966   -0.0650    0.0000 C   0  0  0  0  0  0  0  0  0
   -3.7966    0.7600    0.0000 C   0  0  0  0  0  0  0  0  0
   -3.0821    1.1725    0.0000 O   0  0  0  0  0  0  0  0  0
   -3.0821    1.9975    0.0000 C   0  0  0  0  0  0  0  0  0
   -2.3676    2.4100    0.0000 C   0  0  0  0  0  0  0  0  0
   -2.3676    3.2350    0.0000 C   0  0  0  0  0  0  0  0  0
   -1.6532    3.6475    0.0000 N   0  0  0  0  0  0  0  0  0
   -0.9387    3.2350    0.0000 C   0  0  0  0  0  0  0  0  0
   -0.9387    2.4100    0.0000 C   0  0  0  0  0  0  0  0  0
   -1.6532    1.9975    0.0000 C   0  0  0  0  0  0  0  0  0
   -0.2242    3.6475    0.0000 C   0  0  0  0  0  0  0  0  0
   -3.0821    3.6475    0.0000 C   0  0  0  0  0  0  0  0  0
   -3.7966    3.2350    0.0000 C   0  0  0  0  0  0  0  0  0
   -3.7966    2.4100    0.0000 C   0  0  0  0  0  0  0  0  0
   -4.5111    1.1725    0.0000 C   0  0  0  0  0  0  0  0  0
  1  2  1  0  0  0  0
  1 11  1  0  0  0  0
  2  3  1  0  0  0  0
  3  4  2  0  0  0  0
  3  5  1  0  0  0  0
  5  6  1  0  0  0  0
  6  7  4  0  0  0  0
  6 11  4  0  0  0  0
  7  8  4  0  0  0  0
  8  9  4  0  0  0  0
  8 12  1  0  0  0  0
  9 10  4  0  0  0  0
 10 11  4  0  0  0  0
 12 13  1  0  0  0  0
 13 14  1  0  0  0  0
 13 18  1  0  0  0  0
 14 15  1  0  0  0  0
 15 16  1  0  0  0  0
 16 17  1  0  0  0  0
 16 19  1  0  0  0  0
 17 18  1  0  0  0  0
 19 20  1  0  0  0  0
 20 21  1  0  0  0  0
 20 33  1  0  0  0  0
 21 22  1  0  0  0  0
 22 23  4  0  0  0  0
 22 32  4  0  0  0  0
 23 24  4  0  0  0  0
 23 28  4  0  0  0  0
 24 25  4  0  0  0  0
 24 30  4  0  0  0  0
 25 26  4  0  0  0  0
 26 27  4  0  0  0  0
 26 29  1  0  0  0  0
 27 28  4  0  0  0  0
 30 31  4  0  0  0  0
 31 32  4  0  0  0  0
M  END
>  <Name_Molregno>
514069

>  <5-HT1A>
6.4

>  <5-HT1B>
6.7

>  <5-HT1D>
7.1

$$$$
514070
  Marvin  02231216192D 0   1.00000     0.00000     0

 31 35  0  0  0  0  0  0  0  0999 V2000
   -8.9817   -2.8268    0.0000 O   0  0  0  0  0  0  0  0  0
   -9.6962   -2.4143    0.0000 C   0  0  0  0  0  0  0  0  0
   -9.6962   -1.5893    0.0000 C   0  0  0  0  0  0  0  0  0
  -10.4107   -1.1768    0.0000 O   0  0  0  0  0  0  0  0  0
   -8.9817   -1.1768    0.0000 N   0  0  0  0  0  0  0  0  0
   -8.2672   -1.5893    0.0000 C   0  0  0  0  0  0  0  0  0
   -7.5528   -1.1768    0.0000 C   0  0  0  0  0  0  0  0  0
   -6.8383   -1.5893    0.0000 C   0  0  0  0  0  0  0  0  0
   -6.1238   -1.1768    0.0000 O   0  0  0  0  0  0  0  0  0
   -6.1238   -0.3518    0.0000 C   0  0  0  0  0  0  0  0  0
   -5.4094    0.0607    0.0000 C   0  0  0  0  0  0  0  0  0
   -5.1958    0.8576    0.0000 C   0  0  0  0  0  0  0  0  0
   -4.3989    0.6440    0.0000 N   0  0  0  0  0  0  0  0  0
   -4.6125   -0.1529    0.0000 C   0  0  0  0  0  0  0  0  0
   -3.6845    1.0565    0.0000 C   0  0  0  0  0  0  0  0  0
   -3.6845    1.8815    0.0000 C   0  0  0  0  0  0  0  0  0
   -2.9700    2.2940    0.0000 O   0  0  0  0  0  0  0  0  0
   -2.9700    3.1190    0.0000 C   0  0  0  0  0  0  0  0  0
   -2.2555    3.5315    0.0000 C   0  0  0  0  0  0  0  0  0
   -2.2555    4.3565    0.0000 C   0  0  0  0  0  0  0  0  0
   -1.5411    4.7690    0.0000 N   0  0  0  0  0  0  0  0  0
   -0.8266    4.3565    0.0000 C   0  0  0  0  0  0  0  0  0
   -0.8266    3.5315    0.0000 C   0  0  0  0  0  0  0  0  0
   -1.5411    3.1190    0.0000 C   0  0  0  0  0  0  0  0  0
   -0.1121    4.7690    0.0000 C   0  0  0  0  0  0  0  0  0
   -2.9700    4.7690    0.0000 C   0  0  0  0  0  0  0  0  0
   -3.6845    4.3565    0.0000 C   0  0  0  0  0  0  0  0  0
   -3.6845    3.5315    0.0000 C   0  0  0  0  0  0  0  0  0
   -6.8383   -2.4143    0.0000 C   0  0  0  0  0  0  0  0  0
   -7.5528   -2.8268    0.0000 C   0  0  0  0  0  0  0  0  0
   -8.2672   -2.4143    0.0000 C   0  0  0  0  0  0  0  0  0
  1  2  1  0  0  0  0
  1 31  1  0  0  0  0
  2  3  1  0  0  0  0
  3  4  2  0  0  0  0
  3  5  1  0  0  0  0
  5  6  1  0  0  0  0
  6  7  4  0  0  0  0
  6 31  4  0  0  0  0
  7  8  4  0  0  0  0
  8  9  1  0  0  0  0
  8 29  4  0  0  0  0
  9 10  1  0  0  0  0
 10 11  1  0  0  0  0
 11 12  1  0  0  0  0
 11 14  1  0  0  0  0
 12 13  1  0  0  0  0
 13 14  1  0  0  0  0
 13 15  1  0  0  0  0
 15 16  1  0  0  0  0
 16 17  1  0  0  0  0
 17 18  1  0  0  0  0
 18 19  4  0  0  0  0
 18 28  4  0  0  0  0
 19 20  4  0  0  0  0
 19 24  4  0  0  0  0
 20 21  4  0  0  0  0
 20 26  4  0  0  0  0
 21 22  4  0  0  0  0
 22 23  4  0  0  0  0
 22 25  1  0  0  0  0
 23 24  4  0  0  0  0
 26 27  4  0  0  0  0
 27 28  4  0  0  0  0
 29 30  4  0  0  0  0
 30 31  4  0  0  0  0
M  END
>  <Name_Molregno>
514070

>  <5-HT1A>
7.3

>  <5-HT1B>
7.3

>  <5-HT1D>
8.1

$$$$
514071
  Marvin  02231216192D 0   1.00000     0.00000     0

 32 36  0  0  0  0  0  0  0  0999 V2000
  -10.2451   -1.4055    0.0000 O   0  0  0  0  0  0  0  0  0
  -10.9595   -0.9930    0.0000 C   0  0  0  0  0  0  0  0  0
  -10.9595   -0.1680    0.0000 C   0  0  0  0  0  0  0  0  0
  -11.6740    0.2445    0.0000 O   0  0  0  0  0  0  0  0  0
  -10.2451    0.2445    0.0000 N   0  0  0  0  0  0  0  0  0
   -9.5306   -0.1680    0.0000 C   0  0  0  0  0  0  0  0  0
   -8.8161    0.2445    0.0000 C   0  0  0  0  0  0  0  0  0
   -8.1017   -0.1680    0.0000 C   0  0  0  0  0  0  0  0  0
   -7.3872    0.2445    0.0000 O   0  0  0  0  0  0  0  0  0
   -7.3872    1.0695    0.0000 C   0  0  0  0  0  0  0  0  0
   -6.6727    1.4820    0.0000 C   0  0  0  0  0  0  0  0  0
   -6.4592    2.2788    0.0000 C   0  0  0  0  0  0  0  0  0
   -5.6623    2.0653    0.0000 N   0  0  0  0  0  0  0  0  0
   -5.8758    1.2684    0.0000 C   0  0  0  0  0  0  0  0  0
   -4.9478    2.4778    0.0000 C   0  0  0  0  0  0  0  0  0
   -4.2334    2.0653    0.0000 C   0  0  0  0  0  0  0  0  0
   -3.5189    2.4778    0.0000 C   0  0  0  0  0  0  0  0  0
   -2.8044    2.0653    0.0000 O   0  0  0  0  0  0  0  0  0
   -2.0899    2.4778    0.0000 C   0  0  0  0  0  0  0  0  0
   -1.3755    2.0653    0.0000 C   0  0  0  0  0  0  0  0  0
   -0.6610    2.4778    0.0000 C   0  0  0  0  0  0  0  0  0
    0.0535    2.0653    0.0000 N   0  0  0  0  0  0  0  0  0
    0.0535    1.2403    0.0000 C   0  0  0  0  0  0  0  0  0
   -0.6610    0.8278    0.0000 C   0  0  0  0  0  0  0  0  0
   -1.3755    1.2403    0.0000 C   0  0  0  0  0  0  0  0  0
    0.7679    0.8278    0.0000 C   0  0  0  0  0  0  0  0  0
   -0.6610    3.3028    0.0000 C   0  0  0  0  0  0  0  0  0
   -1.3755    3.7153    0.0000 C   0  0  0  0  0  0  0  0  0
   -2.0899    3.3028    0.0000 C   0  0  0  0  0  0  0  0  0
   -8.1017   -0.9930    0.0000 C   0  0  0  0  0  0  0  0  0
   -8.8161   -1.4055    0.0000 C   0  0  0  0  0  0  0  0  0
   -9.5306   -0.9930    0.0000 C   0  0  0  0  0  0  0  0  0
  1  2  1  0  0  0  0
  1 32  1  0  0  0  0
  2  3  1  0  0  0  0
  3  4  2  0  0  0  0
  3  5  1  0  0  0  0
  5  6  1  0  0  0  0
  6  7  4  0  0  0  0
  6 32  4  0  0  0  0
  7  8  4  0  0  0  0
  8  9  1  0  0  0  0
  8 30  4  0  0  0  0
  9 10  1  0  0  0  0
 10 11  1  0  0  0  0
 11 12  1  0  0  0  0
 11 14  1  0  0  0  0
 12 13  1  0  0  0  0
 13 14  1  0  0  0  0
 13 15  1  0  0  0  0
 15 16  1  0  0  0  0
 16 17  1  0  0  0  0
 17 18  1  0  0  0  0
 18 19  1  0  0  0  0
 19 20  4  0  0  0  0
 19 29  4  0  0  0  0
 20 21  4  0  0  0  0
 20 25  4  0  0  0  0
 21 22  4  0  0  0  0
 21 27  4  0  0  0  0
 22 23  4  0  0  0  0
 23 24  4  0  0  0  0
 23 26  1  0  0  0  0
 24 25  4  0  0  0  0
 27 28  4  0  0  0  0
 28 29  4  0  0  0  0
 30 31  4  0  0  0  0
 31 32  4  0  0  0  0
M  END
>  <Name_Molregno>
514071

>  <5-HT1A>
7.1

>  <5-HT1B>
6.5

>  <5-HT1D>
6.8

$$$$
514087
  Marvin  02231216192D 0   1.00000     0.00000     0

 33 37  0  0  1  0  0  0  0  0999 V2000
    0.6704    4.0597    0.0000 F   0  0  0  0  0  0  0  0  0
    0.6704    3.2347    0.0000 C   0  0  0  0  0  0  0  0  0
    1.3849    2.8222    0.0000 C   0  0  0  0  0  0  0  0  0
    2.0994    3.2347    0.0000 O   0  0  0  0  0  0  0  0  0
    2.8139    2.8222    0.0000 C   0  0  0  0  0  0  0  0  0
    2.8139    1.9972    0.0000 C   0  0  0  0  0  0  0  0  0
    3.5283    1.5847    0.0000 N   0  0  0  0  0  0  0  0  0
    4.2428    1.9972    0.0000 C   0  0  0  0  0  0  0  0  0
    4.9573    1.5847    0.0000 C   0  0  0  0  0  0  0  0  0
    5.6717    1.9972    0.0000 C   0  0  0  0  0  0  0  0  0
    6.3862    1.5847    0.0000 C   0  0  0  0  0  0  0  0  0
    7.1399    1.9202    0.0000 C   0  0  0  0  0  0  0  0  0
    7.3948    2.7049    0.0000 C   0  0  0  0  0  0  0  0  0
    8.2018    2.8764    0.0000 C   0  0  0  0  0  0  0  0  0
    8.4567    3.6610    0.0000 F   0  0  0  0  0  0  0  0  0
    8.7538    2.2633    0.0000 C   0  0  0  0  0  0  0  0  0
    8.4989    1.4787    0.0000 C   0  0  0  0  0  0  0  0  0
    7.6919    1.3071    0.0000 C   0  0  0  0  0  0  0  0  0
    7.2794    0.5927    0.0000 N   0  0  0  0  0  0  0  0  0
    6.4724    0.7642    0.0000 C   0  0  0  0  0  0  0  0  0
    3.5283    0.7597    0.0000 C   0  0  0  0  0  0  0  0  0
    4.1117    0.1763    0.0000 C   0  0  0  0  0  0  0  0  0
    3.5283   -0.4071    0.0000 C   0  0  0  0  0  0  0  0  0
    2.9450    0.1763    0.0000 C   0  0  0  0  0  0  0  0  0
    2.0994    1.5847    0.0000 C   0  0  0  0  0  0  0  0  0
    1.3849    1.9972    0.0000 C   0  0  0  0  0  0  0  0  0
    0.6704    1.5847    0.0000 C   0  0  0  0  0  0  0  0  0
   -0.0440    1.9972    0.0000 C   0  0  0  0  0  0  0  0  0
   -0.0440    2.8222    0.0000 C   0  0  0  0  0  0  0  0  0
    0.6704    0.7597    0.0000 C   0  0  0  0  0  0  0  0  0
    1.3849    0.3472    0.0000 O   0  0  0  0  0  0  0  0  0
   -0.0440    0.3472    0.0000 N   0  0  0  0  0  0  0  0  0
   -0.0440   -0.4778    0.0000 C   0  0  0  0  0  0  0  0  0
  1  2  1  0  0  0  0
  2  3  4  0  0  0  0
  2 29  4  0  0  0  0
  3  4  1  0  0  0  0
  3 26  4  0  0  0  0
  4  5  1  0  0  0  0
  5  6  1  0  0  0  0
  6  7  1  0  0  0  0
  6 25  1  0  0  0  0
  7  8  1  0  0  0  0
  7 21  1  0  0  0  0
  8  9  1  0  0  0  0
  9 10  1  0  0  0  0
 10 11  1  0  0  0  0
 11 12  4  0  0  0  0
 11 20  4  0  0  0  0
 12 13  4  0  0  0  0
 12 18  4  0  0  0  0
 13 14  4  0  0  0  0
 14 15  1  0  0  0  0
 14 16  4  0  0  0  0
 16 17  4  0  0  0  0
 17 18  4  0  0  0  0
 18 19  4  0  0  0  0
 19 20  4  0  0  0  0
 21 22  1  0  0  0  0
 21 24  1  0  0  0  0
 22 23  1  0  0  0  0
 23 24  1  0  0  0  0
 25 26  1  0  0  0  0
 26 27  4  0  0  0  0
 27 28  4  0  0  0  0
 27 30  1  0  0  0  0
 28 29  4  0  0  0  0
 30 31  2  0  0  0  0
 30 32  1  0  0  0  0
 32 33  1  0  0  0  0
M  STY  1   1 DAT
M  SAL   1  1  19
M  SDT   1 MRV_IMPLICIT_H                                        
M  SDD   1     0.0000    0.0000    DR    ALL  0       0  
M  SED   1 IMPL_H1
M  END
>  <Name_Molregno>
514087

>  <5-HT1A>
8.58

$$$$
514089
  Marvin  02231216192D 0   1.00000     0.00000     0

 33 37  0  0  1  0  0  0  0  0999 V2000
    0.6704    0.6564    0.0000 F   0  0  0  0  0  0  0  0  0
    0.6704   -0.1686    0.0000 C   0  0  0  0  0  0  0  0  0
    1.3849   -0.5811    0.0000 C   0  0  0  0  0  0  0  0  0
    2.0994   -0.1686    0.0000 O   0  0  0  0  0  0  0  0  0
    2.8139   -0.5811    0.0000 C   0  0  0  0  0  0  0  0  0
    2.8139   -1.4061    0.0000 C   0  0  0  0  0  0  0  0  0
    3.5283   -1.8186    0.0000 N   0  0  0  0  0  0  0  0  0
    4.2428   -1.4061    0.0000 C   0  0  0  0  0  0  0  0  0
    4.9573   -1.8186    0.0000 C   0  0  0  0  0  0  0  0  0
    5.6717   -1.4061    0.0000 C   0  0  0  0  0  0  0  0  0
    6.3862   -1.8186    0.0000 C   0  0  0  0  0  0  0  0  0
    7.1399   -1.4831    0.0000 C   0  0  0  0  0  0  0  0  0
    7.3948   -0.6985    0.0000 C   0  0  0  0  0  0  0  0  0
    8.2018   -0.5269    0.0000 C   0  0  0  0  0  0  0  0  0
    8.4567    0.2577    0.0000 F   0  0  0  0  0  0  0  0  0
    8.7538   -1.1400    0.0000 C   0  0  0  0  0  0  0  0  0
    8.4989   -1.9246    0.0000 C   0  0  0  0  0  0  0  0  0
    7.6919   -2.0962    0.0000 C   0  0  0  0  0  0  0  0  0
    7.2794   -2.8106    0.0000 N   0  0  0  0  0  0  0  0  0
    6.4724   -2.6391    0.0000 C   0  0  0  0  0  0  0  0  0
    3.5283   -2.6436    0.0000 C   0  0  0  0  0  0  0  0  0
    4.1117   -3.2270    0.0000 C   0  0  0  0  0  0  0  0  0
    3.5283   -3.8104    0.0000 C   0  0  0  0  0  0  0  0  0
    2.9450   -3.2270    0.0000 C   0  0  0  0  0  0  0  0  0
    2.0994   -1.8186    0.0000 C   0  0  0  0  0  0  0  0  0
    1.3849   -1.4061    0.0000 C   0  0  0  0  0  0  0  0  0
    0.6704   -1.8186    0.0000 C   0  0  0  0  0  0  0  0  0
   -0.0440   -1.4061    0.0000 C   0  0  0  0  0  0  0  0  0
   -0.0440   -0.5811    0.0000 C   0  0  0  0  0  0  0  0  0
    0.6704   -2.6436    0.0000 C   0  0  0  0  0  0  0  0  0
   -0.0440   -3.0561    0.0000 O   0  0  0  0  0  0  0  0  0
   -0.0440   -3.8811    0.0000 C   0  0  0  0  0  0  0  0  0
    1.3849   -3.0561    0.0000 O   0  0  0  0  0  0  0  0  0
  1  2  1  0  0  0  0
  2  3  4  0  0  0  0
  2 29  4  0  0  0  0
  3  4  1  0  0  0  0
  3 26  4  0  0  0  0
  4  5  1  0  0  0  0
  5  6  1  0  0  0  0
  6  7  1  0  0  0  0
  6 25  1  0  0  0  0
  7  8  1  0  0  0  0
  7 21  1  0  0  0  0
  8  9  1  0  0  0  0
  9 10  1  0  0  0  0
 10 11  1  0  0  0  0
 11 12  4  0  0  0  0
 11 20  4  0  0  0  0
 12 13  4  0  0  0  0
 12 18  4  0  0  0  0
 13 14  4  0  0  0  0
 14 15  1  0  0  0  0
 14 16  4  0  0  0  0
 16 17  4  0  0  0  0
 17 18  4  0  0  0  0
 18 19  4  0  0  0  0
 19 20  4  0  0  0  0
 21 22  1  0  0  0  0
 21 24  1  0  0  0  0
 22 23  1  0  0  0  0
 23 24  1  0  0  0  0
 25 26  1  0  0  0  0
 26 27  4  0  0  0  0
 27 28  4  0  0  0  0
 27 30  1  0  0  0  0
 28 29  4  0  0  0  0
 30 31  1  0  0  0  0
 30 33  2  0  0  0  0
 31 32  1  0  0  0  0
M  STY  1   1 DAT
M  SAL   1  1  19
M  SDT   1 MRV_IMPLICIT_H                                        
M  SDD   1     0.0000    0.0000    DR    ALL  0       0  
M  SED   1 IMPL_H1
M  END
>  <Name_Molregno>
514089

>  <5-HT1A>
7.13

$$$$
514140
  Marvin  02231216192D 0   1.00000     0.00000     0

 31 35  0  0  0  0  0  0  0  0999 V2000
   -6.7607   -7.2868    0.0000 O   0  0  0  0  0  0  0  0  0
   -7.4751   -6.8743    0.0000 C   0  0  0  0  0  0  0  0  0
   -7.4751   -6.0493    0.0000 C   0  0  0  0  0  0  0  0  0
   -8.1896   -5.6368    0.0000 O   0  0  0  0  0  0  0  0  0
   -6.7607   -5.6368    0.0000 N   0  0  0  0  0  0  0  0  0
   -6.0462   -6.0493    0.0000 C   0  0  0  0  0  0  0  0  0
   -5.3317   -5.6368    0.0000 C   0  0  0  0  0  0  0  0  0
   -4.6173   -6.0493    0.0000 C   0  0  0  0  0  0  0  0  0
   -3.9028   -5.6368    0.0000 O   0  0  0  0  0  0  0  0  0
   -3.9028   -4.8118    0.0000 C   0  0  0  0  0  0  0  0  0
   -4.4862   -4.2284    0.0000 C   0  0  0  0  0  0  0  0  0
   -3.9028   -3.6451    0.0000 N   0  0  0  0  0  0  0  0  0
   -3.3194   -4.2284    0.0000 C   0  0  0  0  0  0  0  0  0
   -3.9028   -2.8201    0.0000 C   0  0  0  0  0  0  0  0  0
   -3.1883   -2.4076    0.0000 C   0  0  0  0  0  0  0  0  0
   -3.1883   -1.5826    0.0000 C   0  0  0  0  0  0  0  0  0
   -2.4739   -1.1701    0.0000 O   0  0  0  0  0  0  0  0  0
   -2.4739   -0.3451    0.0000 C   0  0  0  0  0  0  0  0  0
   -1.7594    0.0674    0.0000 C   0  0  0  0  0  0  0  0  0
   -1.7594    0.8924    0.0000 C   0  0  0  0  0  0  0  0  0
   -1.0449    1.3049    0.0000 N   0  0  0  0  0  0  0  0  0
   -0.3304    0.8924    0.0000 C   0  0  0  0  0  0  0  0  0
   -0.3304    0.0674    0.0000 C   0  0  0  0  0  0  0  0  0
   -1.0449   -0.3451    0.0000 C   0  0  0  0  0  0  0  0  0
    0.3840    1.3049    0.0000 C   0  0  0  0  0  0  0  0  0
   -2.4739    1.3049    0.0000 C   0  0  0  0  0  0  0  0  0
   -3.1883    0.8924    0.0000 C   0  0  0  0  0  0  0  0  0
   -3.1883    0.0674    0.0000 C   0  0  0  0  0  0  0  0  0
   -4.6173   -6.8743    0.0000 C   0  0  0  0  0  0  0  0  0
   -5.3317   -7.2868    0.0000 C   0  0  0  0  0  0  0  0  0
   -6.0462   -6.8743    0.0000 C   0  0  0  0  0  0  0  0  0
  1  2  1  0  0  0  0
  1 31  1  0  0  0  0
  2  3  1  0  0  0  0
  3  4  2  0  0  0  0
  3  5  1  0  0  0  0
  5  6  1  0  0  0  0
  6  7  4  0  0  0  0
  6 31  4  0  0  0  0
  7  8  4  0  0  0  0
  8  9  1  0  0  0  0
  8 29  4  0  0  0  0
  9 10  1  0  0  0  0
 10 11  1  0  0  0  0
 10 13  1  0  0  0  0
 11 12  1  0  0  0  0
 12 13  1  0  0  0  0
 12 14  1  0  0  0  0
 14 15  1  0  0  0  0
 15 16  1  0  0  0  0
 16 17  1  0  0  0  0
 17 18  1  0  0  0  0
 18 19  4  0  0  0  0
 18 28  4  0  0  0  0
 19 20  4  0  0  0  0
 19 24  4  0  0  0  0
 20 21  4  0  0  0  0
 20 26  4  0  0  0  0
 21 22  4  0  0  0  0
 22 23  4  0  0  0  0
 22 25  1  0  0  0  0
 23 24  4  0  0  0  0
 26 27  4  0  0  0  0
 27 28  4  0  0  0  0
 29 30  4  0  0  0  0
 30 31  4  0  0  0  0
M  END
>  <Name_Molregno>
514140

>  <5-HT1A>
6.8

>  <5-HT1B>
6.4

>  <5-HT1D>
6.6

$$$$
514141
  Marvin  02231216192D 0   1.00000     0.00000     0

 30 34  0  0  0  0  0  0  0  0999 V2000
   -5.6081   -4.4397    0.0000 O   0  0  0  0  0  0  0  0  0
   -6.3225   -4.8523    0.0000 C   0  0  0  0  0  0  0  0  0
   -7.0370   -4.4397    0.0000 C   0  0  0  0  0  0  0  0  0
   -7.7515   -4.8522    0.0000 O   0  0  0  0  0  0  0  0  0
   -7.0370   -3.6148    0.0000 N   0  0  0  0  0  0  0  0  0
   -6.3225   -3.2022    0.0000 C   0  0  0  0  0  0  0  0  0
   -6.3225   -2.3772    0.0000 C   0  0  0  0  0  0  0  0  0
   -5.6081   -1.9647    0.0000 C   0  0  0  0  0  0  0  0  0
   -4.8936   -2.3772    0.0000 C   0  0  0  0  0  0  0  0  0
   -4.8936   -3.2022    0.0000 C   0  0  0  0  0  0  0  0  0
   -5.6081   -3.6147    0.0000 C   0  0  0  0  0  0  0  0  0
   -5.6081   -1.1397    0.0000 C   0  0  0  0  0  0  0  0  0
   -4.8936   -0.7273    0.0000 N   0  0  0  0  0  0  0  0  0
   -4.8936    0.0978    0.0000 C   0  0  0  0  0  0  0  0  0
   -4.1791    0.5103    0.0000 C   0  0  0  0  0  0  0  0  0
   -3.4646    0.0978    0.0000 C   0  0  0  0  0  0  0  0  0
   -2.7502    0.5102    0.0000 O   0  0  0  0  0  0  0  0  0
   -2.7502    1.3352    0.0000 C   0  0  0  0  0  0  0  0  0
   -2.0357    1.7477    0.0000 C   0  0  0  0  0  0  0  0  0
   -2.0357    2.5728    0.0000 C   0  0  0  0  0  0  0  0  0
   -1.3212    2.9853    0.0000 N   0  0  0  0  0  0  0  0  0
   -0.6068    2.5728    0.0000 C   0  0  0  0  0  0  0  0  0
   -0.6068    1.7477    0.0000 C   0  0  0  0  0  0  0  0  0
   -1.3212    1.3352    0.0000 C   0  0  0  0  0  0  0  0  0
    0.1077    2.9852    0.0000 C   0  0  0  0  0  0  0  0  0
   -2.7502    2.9853    0.0000 C   0  0  0  0  0  0  0  0  0
   -3.4646    2.5728    0.0000 C   0  0  0  0  0  0  0  0  0
   -3.4646    1.7478    0.0000 C   0  0  0  0  0  0  0  0  0
   -3.4646   -0.7273    0.0000 C   0  0  0  0  0  0  0  0  0
   -4.1791   -1.1397    0.0000 C   0  0  0  0  0  0  0  0  0
  1  2  1  0  0  0  0
  1 11  1  0  0  0  0
  2  3  1  0  0  0  0
  3  4  2  0  0  0  0
  3  5  1  0  0  0  0
  5  6  1  0  0  0  0
  6  7  4  0  0  0  0
  6 11  4  0  0  0  0
  7  8  4  0  0  0  0
  8  9  4  0  0  0  0
  8 12  1  0  0  0  0
  9 10  4  0  0  0  0
 10 11  4  0  0  0  0
 12 13  1  0  0  0  0
 13 14  1  0  0  0  0
 13 30  1  0  0  0  0
 14 15  1  0  0  0  0
 15 16  1  0  0  0  0
 16 17  1  0  0  0  0
 16 29  1  0  0  0  0
 17 18  1  0  0  0  0
 18 19  4  0  0  0  0
 18 28  4  0  0  0  0
 19 20  4  0  0  0  0
 19 24  4  0  0  0  0
 20 21  4  0  0  0  0
 20 26  4  0  0  0  0
 21 22  4  0  0  0  0
 22 23  4  0  0  0  0
 22 25  1  0  0  0  0
 23 24  4  0  0  0  0
 26 27  4  0  0  0  0
 27 28  4  0  0  0  0
 29 30  1  0  0  0  0
M  END
>  <Name_Molregno>
514141

>  <5-HT1A>
5

>  <5-HT1B>
5.6

>  <5-HT1D>
5.9

$$$$
514142
  Marvin  02231216192D 0   1.00000     0.00000     0

 31 35  0  0  0  0  0  0  0  0999 V2000
   -2.7434   -4.1765    0.0000 O   0  0  0  0  0  0  0  0  0
   -2.7434   -5.0015    0.0000 C   0  0  0  0  0  0  0  0  0
   -3.4579   -5.4140    0.0000 C   0  0  0  0  0  0  0  0  0
   -3.4579   -6.2390    0.0000 O   0  0  0  0  0  0  0  0  0
   -4.1723   -5.0015    0.0000 N   0  0  0  0  0  0  0  0  0
   -4.1723   -4.1765    0.0000 C   0  0  0  0  0  0  0  0  0
   -4.8868   -3.7640    0.0000 C   0  0  0  0  0  0  0  0  0
   -4.8868   -2.9390    0.0000 C   0  0  0  0  0  0  0  0  0
   -4.1723   -2.5265    0.0000 C   0  0  0  0  0  0  0  0  0
   -3.4579   -2.9390    0.0000 C   0  0  0  0  0  0  0  0  0
   -3.4579   -3.7640    0.0000 C   0  0  0  0  0  0  0  0  0
   -5.6013   -2.5265    0.0000 C   0  0  0  0  0  0  0  0  0
   -5.6013   -1.7015    0.0000 N   0  0  0  0  0  0  0  0  0
   -6.3158   -1.2890    0.0000 C   0  0  0  0  0  0  0  0  0
   -6.3158   -0.4640    0.0000 C   0  0  0  0  0  0  0  0  0
   -5.6013   -0.0515    0.0000 C   0  0  0  0  0  0  0  0  0
   -4.8868   -0.4640    0.0000 C   0  0  0  0  0  0  0  0  0
   -4.8868   -1.2890    0.0000 C   0  0  0  0  0  0  0  0  0
   -5.6013    0.7735    0.0000 C   0  0  0  0  0  0  0  0  0
   -4.8868    1.1860    0.0000 O   0  0  0  0  0  0  0  0  0
   -4.8868    2.0110    0.0000 C   0  0  0  0  0  0  0  0  0
   -4.1723    2.4235    0.0000 C   0  0  0  0  0  0  0  0  0
   -4.1723    3.2485    0.0000 C   0  0  0  0  0  0  0  0  0
   -3.4579    3.6610    0.0000 N   0  0  0  0  0  0  0  0  0
   -2.7434    3.2485    0.0000 C   0  0  0  0  0  0  0  0  0
   -2.7434    2.4235    0.0000 C   0  0  0  0  0  0  0  0  0
   -3.4579    2.0110    0.0000 C   0  0  0  0  0  0  0  0  0
   -2.0289    3.6610    0.0000 C   0  0  0  0  0  0  0  0  0
   -4.8868    3.6610    0.0000 C   0  0  0  0  0  0  0  0  0
   -5.6013    3.2485    0.0000 C   0  0  0  0  0  0  0  0  0
   -5.6013    2.4235    0.0000 C   0  0  0  0  0  0  0  0  0
  1  2  1  0  0  0  0
  1 11  1  0  0  0  0
  2  3  1  0  0  0  0
  3  4  2  0  0  0  0
  3  5  1  0  0  0  0
  5  6  1  0  0  0  0
  6  7  4  0  0  0  0
  6 11  4  0  0  0  0
  7  8  4  0  0  0  0
  8  9  4  0  0  0  0
  8 12  1  0  0  0  0
  9 10  4  0  0  0  0
 10 11  4  0  0  0  0
 12 13  1  0  0  0  0
 13 14  1  0  0  0  0
 13 18  1  0  0  0  0
 14 15  1  0  0  0  0
 15 16  1  0  0  0  0
 16 17  1  0  0  0  0
 16 19  1  0  0  0  0
 17 18  1  0  0  0  0
 19 20  1  0  0  0  0
 20 21  1  0  0  0  0
 21 22  4  0  0  0  0
 21 31  4  0  0  0  0
 22 23  4  0  0  0  0
 22 27  4  0  0  0  0
 23 24  4  0  0  0  0
 23 29  4  0  0  0  0
 24 25  4  0  0  0  0
 25 26  4  0  0  0  0
 25 28  1  0  0  0  0
 26 27  4  0  0  0  0
 29 30  4  0  0  0  0
 30 31  4  0  0  0  0
M  END
>  <Name_Molregno>
514142

>  <5-HT1A>
5.8

>  <5-HT1B>
5

>  <5-HT1D>
5.9

$$$$
514143
  Marvin  02231216192D 0   1.00000     0.00000     0

 31 35  0  0  0  0  0  0  0  0999 V2000
   -8.4893   -2.6857    0.0000 O   0  0  0  0  0  0  0  0  0
   -9.2038   -2.2732    0.0000 C   0  0  0  0  0  0  0  0  0
   -9.2038   -1.4482    0.0000 C   0  0  0  0  0  0  0  0  0
   -9.9183   -1.0357    0.0000 O   0  0  0  0  0  0  0  0  0
   -8.4893   -1.0357    0.0000 N   0  0  0  0  0  0  0  0  0
   -7.7748   -1.4482    0.0000 C   0  0  0  0  0  0  0  0  0
   -7.0604   -1.0357    0.0000 C   0  0  0  0  0  0  0  0  0
   -6.3459   -1.4482    0.0000 C   0  0  0  0  0  0  0  0  0
   -6.3459   -2.2732    0.0000 C   0  0  0  0  0  0  0  0  0
   -7.0604   -2.6857    0.0000 C   0  0  0  0  0  0  0  0  0
   -7.7748   -2.2732    0.0000 C   0  0  0  0  0  0  0  0  0
   -5.6314   -1.0357    0.0000 C   0  0  0  0  0  0  0  0  0
   -5.6314   -0.2107    0.0000 C   0  0  0  0  0  0  0  0  0
   -4.9170    0.2018    0.0000 N   0  0  0  0  0  0  0  0  0
   -4.9170    1.0268    0.0000 C   0  0  0  0  0  0  0  0  0
   -4.2025    1.4393    0.0000 C   0  0  0  0  0  0  0  0  0
   -3.4880    1.0268    0.0000 C   0  0  0  0  0  0  0  0  0
   -2.7735    1.4393    0.0000 O   0  0  0  0  0  0  0  0  0
   -2.7735    2.2643    0.0000 C   0  0  0  0  0  0  0  0  0
   -2.0591    2.6768    0.0000 C   0  0  0  0  0  0  0  0  0
   -2.0591    3.5018    0.0000 C   0  0  0  0  0  0  0  0  0
   -1.3446    3.9143    0.0000 N   0  0  0  0  0  0  0  0  0
   -0.6301    3.5018    0.0000 C   0  0  0  0  0  0  0  0  0
   -0.6301    2.6768    0.0000 C   0  0  0  0  0  0  0  0  0
   -1.3446    2.2643    0.0000 C   0  0  0  0  0  0  0  0  0
    0.0843    3.9143    0.0000 C   0  0  0  0  0  0  0  0  0
   -2.7735    3.9143    0.0000 C   0  0  0  0  0  0  0  0  0
   -3.4880    3.5018    0.0000 C   0  0  0  0  0  0  0  0  0
   -3.4880    2.6768    0.0000 C   0  0  0  0  0  0  0  0  0
   -3.4880    0.2018    0.0000 C   0  0  0  0  0  0  0  0  0
   -4.2025   -0.2107    0.0000 C   0  0  0  0  0  0  0  0  0
  1  2  1  0  0  0  0
  1 11  1  0  0  0  0
  2  3  1  0  0  0  0
  3  4  2  0  0  0  0
  3  5  1  0  0  0  0
  5  6  1  0  0  0  0
  6  7  4  0  0  0  0
  6 11  4  0  0  0  0
  7  8  4  0  0  0  0
  8  9  4  0  0  0  0
  8 12  1  0  0  0  0
  9 10  4  0  0  0  0
 10 11  4  0  0  0  0
 12 13  1  0  0  0  0
 13 14  1  0  0  0  0
 14 15  1  0  0  0  0
 14 31  1  0  0  0  0
 15 16  1  0  0  0  0
 16 17  1  0  0  0  0
 17 18  1  0  0  0  0
 17 30  1  0  0  0  0
 18 19  1  0  0  0  0
 19 20  4  0  0  0  0
 19 29  4  0  0  0  0
 20 21  4  0  0  0  0
 20 25  4  0  0  0  0
 21 22  4  0  0  0  0
 21 27  4  0  0  0  0
 22 23  4  0  0  0  0
 23 24  4  0  0  0  0
 23 26  1  0  0  0  0
 24 25  4  0  0  0  0
 27 28  4  0  0  0  0
 28 29  4  0  0  0  0
 30 31  1  0  0  0  0
M  END
>  <Name_Molregno>
514143

>  <5-HT1A>
6.5

>  <5-HT1B>
7.6

>  <5-HT1D>
8.2

$$$$
514156
  Marvin  02231216192D 0   1.00000     0.00000     0

 34 38  0  0  1  0  0  0  0  0999 V2000
    0.6362    0.6213    0.0000 F   0  0  0  0  0  0  0  0  0
    0.6362   -0.2037    0.0000 C   0  0  0  0  0  0  0  0  0
    1.3506   -0.6162    0.0000 C   0  0  0  0  0  0  0  0  0
    2.0651   -0.2037    0.0000 O   0  0  0  0  0  0  0  0  0
    2.7796   -0.6162    0.0000 C   0  0  0  0  0  0  0  0  0
    2.7796   -1.4412    0.0000 C   0  0  0  0  0  0  0  0  0
    3.4941   -1.8537    0.0000 N   0  0  0  0  0  0  0  0  0
    4.2085   -1.4412    0.0000 C   0  0  0  0  0  0  0  0  0
    4.9230   -1.8537    0.0000 C   0  0  0  0  0  0  0  0  0
    5.6375   -1.4412    0.0000 C   0  0  0  0  0  0  0  0  0
    6.3519   -1.8537    0.0000 C   0  0  0  0  0  0  0  0  0
    7.1056   -1.5182    0.0000 C   0  0  0  0  0  0  0  0  0
    7.3606   -0.7336    0.0000 C   0  0  0  0  0  0  0  0  0
    8.1675   -0.5620    0.0000 C   0  0  0  0  0  0  0  0  0
    8.4225    0.2226    0.0000 F   0  0  0  0  0  0  0  0  0
    8.7196   -1.1751    0.0000 C   0  0  0  0  0  0  0  0  0
    8.4646   -1.9597    0.0000 C   0  0  0  0  0  0  0  0  0
    7.6576   -2.1313    0.0000 C   0  0  0  0  0  0  0  0  0
    7.2451   -2.8457    0.0000 N   0  0  0  0  0  0  0  0  0
    6.4382   -2.6742    0.0000 C   0  0  0  0  0  0  0  0  0
    3.4941   -2.6787    0.0000 C   0  0  0  0  0  0  0  0  0
    4.0774   -3.2621    0.0000 C   0  0  0  0  0  0  0  0  0
    3.4941   -3.8455    0.0000 C   0  0  0  0  0  0  0  0  0
    2.9107   -3.2621    0.0000 C   0  0  0  0  0  0  0  0  0
    2.0651   -1.8537    0.0000 C   0  0  0  0  0  0  0  0  0
    1.3506   -1.4412    0.0000 C   0  0  0  0  0  0  0  0  0
    0.6362   -1.8537    0.0000 C   0  0  0  0  0  0  0  0  0
   -0.0783   -1.4412    0.0000 C   0  0  0  0  0  0  0  0  0
   -0.0783   -0.6162    0.0000 C   0  0  0  0  0  0  0  0  0
    0.6362   -2.6787    0.0000 C   0  0  0  0  0  0  0  0  0
   -0.0783   -3.0912    0.0000 O   0  0  0  0  0  0  0  0  0
    1.3506   -3.0912    0.0000 N   0  0  0  0  0  0  0  0  0
    1.3506   -3.9162    0.0000 C   0  0  0  0  0  0  0  0  0
    0.6362   -4.3287    0.0000 C   0  0  0  0  0  0  0  0  0
  1  2  1  0  0  0  0
  2  3  4  0  0  0  0
  2 29  4  0  0  0  0
  3  4  1  0  0  0  0
  3 26  4  0  0  0  0
  4  5  1  0  0  0  0
  5  6  1  0  0  0  0
  6  7  1  0  0  0  0
  6 25  1  0  0  0  0
  7  8  1  0  0  0  0
  7 21  1  0  0  0  0
  8  9  1  0  0  0  0
  9 10  1  0  0  0  0
 10 11  1  0  0  0  0
 11 12  4  0  0  0  0
 11 20  4  0  0  0  0
 12 13  4  0  0  0  0
 12 18  4  0  0  0  0
 13 14  4  0  0  0  0
 14 15  1  0  0  0  0
 14 16  4  0  0  0  0
 16 17  4  0  0  0  0
 17 18  4  0  0  0  0
 18 19  4  0  0  0  0
 19 20  4  0  0  0  0
 21 22  1  0  0  0  0
 21 24  1  0  0  0  0
 22 23  1  0  0  0  0
 23 24  1  0  0  0  0
 25 26  1  0  0  0  0
 26 27  4  0  0  0  0
 27 28  4  0  0  0  0
 27 30  1  0  0  0  0
 28 29  4  0  0  0  0
 30 31  2  0  0  0  0
 30 32  1  0  0  0  0
 32 33  1  0  0  0  0
 33 34  1  0  0  0  0
M  STY  1   1 DAT
M  SAL   1  1  19
M  SDT   1 MRV_IMPLICIT_H                                        
M  SDD   1     0.0000    0.0000    DR    ALL  0       0  
M  SED   1 IMPL_H1
M  END
>  <Name_Molregno>
514156

>  <5-HT1A>
7.75

$$$$
514157
  Marvin  02231216192D 0   1.00000     0.00000     0

 35 39  0  0  1  0  0  0  0  0999 V2000
   -1.6559   -0.9914    0.0000 F   0  0  0  0  0  0  0  0  0
   -1.6559   -1.8164    0.0000 C   0  0  0  0  0  0  0  0  0
   -0.9415   -2.2289    0.0000 C   0  0  0  0  0  0  0  0  0
   -0.2270   -1.8164    0.0000 O   0  0  0  0  0  0  0  0  0
    0.4875   -2.2289    0.0000 C   0  0  0  0  0  0  0  0  0
    0.4875   -3.0539    0.0000 C   0  0  0  0  0  0  0  0  0
    1.2019   -3.4664    0.0000 N   0  0  0  0  0  0  0  0  0
    1.9164   -3.0539    0.0000 C   0  0  0  0  0  0  0  0  0
    2.6309   -3.4664    0.0000 C   0  0  0  0  0  0  0  0  0
    3.3454   -3.0539    0.0000 C   0  0  0  0  0  0  0  0  0
    4.0598   -3.4664    0.0000 C   0  0  0  0  0  0  0  0  0
    4.8135   -3.1309    0.0000 C   0  0  0  0  0  0  0  0  0
    5.0684   -2.3463    0.0000 C   0  0  0  0  0  0  0  0  0
    5.8754   -2.1747    0.0000 C   0  0  0  0  0  0  0  0  0
    6.1304   -1.3901    0.0000 F   0  0  0  0  0  0  0  0  0
    6.4274   -2.7878    0.0000 C   0  0  0  0  0  0  0  0  0
    6.1725   -3.5724    0.0000 C   0  0  0  0  0  0  0  0  0
    5.3655   -3.7440    0.0000 C   0  0  0  0  0  0  0  0  0
    4.9530   -4.4584    0.0000 N   0  0  0  0  0  0  0  0  0
    4.1461   -4.2869    0.0000 C   0  0  0  0  0  0  0  0  0
    1.2019   -4.2914    0.0000 C   0  0  0  0  0  0  0  0  0
    1.7853   -4.8748    0.0000 C   0  0  0  0  0  0  0  0  0
    1.2019   -5.4582    0.0000 C   0  0  0  0  0  0  0  0  0
    0.6186   -4.8748    0.0000 C   0  0  0  0  0  0  0  0  0
   -0.2270   -3.4664    0.0000 C   0  0  0  0  0  0  0  0  0
   -0.9415   -3.0539    0.0000 C   0  0  0  0  0  0  0  0  0
   -1.6559   -3.4664    0.0000 C   0  0  0  0  0  0  0  0  0
   -2.3704   -3.0539    0.0000 C   0  0  0  0  0  0  0  0  0
   -2.3704   -2.2289    0.0000 C   0  0  0  0  0  0  0  0  0
   -1.6559   -4.2914    0.0000 C   0  0  0  0  0  0  0  0  0
   -0.9415   -4.7039    0.0000 O   0  0  0  0  0  0  0  0  0
   -2.3704   -4.7039    0.0000 N   0  0  0  0  0  0  0  0  0
   -2.3704   -5.5289    0.0000 C   0  0  0  0  0  0  0  0  0
   -3.0849   -5.9414    0.0000 C   0  0  0  0  0  0  0  0  0
   -3.0849   -6.7664    0.0000 C   0  0  0  0  0  0  0  0  0
  1  2  1  0  0  0  0
  2  3  4  0  0  0  0
  2 29  4  0  0  0  0
  3  4  1  0  0  0  0
  3 26  4  0  0  0  0
  4  5  1  0  0  0  0
  5  6  1  0  0  0  0
  6  7  1  0  0  0  0
  6 25  1  0  0  0  0
  7  8  1  0  0  0  0
  7 21  1  0  0  0  0
  8  9  1  0  0  0  0
  9 10  1  0  0  0  0
 10 11  1  0  0  0  0
 11 12  4  0  0  0  0
 11 20  4  0  0  0  0
 12 13  4  0  0  0  0
 12 18  4  0  0  0  0
 13 14  4  0  0  0  0
 14 15  1  0  0  0  0
 14 16  4  0  0  0  0
 16 17  4  0  0  0  0
 17 18  4  0  0  0  0
 18 19  4  0  0  0  0
 19 20  4  0  0  0  0
 21 22  1  0  0  0  0
 21 24  1  0  0  0  0
 22 23  1  0  0  0  0
 23 24  1  0  0  0  0
 25 26  1  0  0  0  0
 26 27  4  0  0  0  0
 27 28  4  0  0  0  0
 27 30  1  0  0  0  0
 28 29  4  0  0  0  0
 30 31  2  0  0  0  0
 30 32  1  0  0  0  0
 32 33  1  0  0  0  0
 33 34  1  0  0  0  0
 34 35  1  0  0  0  0
M  STY  1   1 DAT
M  SAL   1  1  19
M  SDT   1 MRV_IMPLICIT_H                                        
M  SDD   1     0.0000    0.0000    DR    ALL  0       0  
M  SED   1 IMPL_H1
M  END
>  <Name_Molregno>
514157

>  <5-HT1A>
6.71

$$$$
514158
  Marvin  02231216192D 0   1.00000     0.00000     0

 35 39  0  0  1  0  0  0  0  0999 V2000
    0.6556    0.6441    0.0000 F   0  0  0  0  0  0  0  0  0
    0.6556   -0.1809    0.0000 C   0  0  0  0  0  0  0  0  0
    1.3701   -0.5934    0.0000 C   0  0  0  0  0  0  0  0  0
    2.0846   -0.1809    0.0000 O   0  0  0  0  0  0  0  0  0
    2.7990   -0.5934    0.0000 C   0  0  0  0  0  0  0  0  0
    2.7990   -1.4184    0.0000 C   0  0  0  0  0  0  0  0  0
    3.5135   -1.8309    0.0000 N   0  0  0  0  0  0  0  0  0
    4.2280   -1.4184    0.0000 C   0  0  0  0  0  0  0  0  0
    4.9425   -1.8309    0.0000 C   0  0  0  0  0  0  0  0  0
    5.6569   -1.4184    0.0000 C   0  0  0  0  0  0  0  0  0
    6.3714   -1.8309    0.0000 C   0  0  0  0  0  0  0  0  0
    7.1251   -1.4953    0.0000 C   0  0  0  0  0  0  0  0  0
    7.3800   -0.7107    0.0000 C   0  0  0  0  0  0  0  0  0
    8.1870   -0.5392    0.0000 C   0  0  0  0  0  0  0  0  0
    8.4419    0.2455    0.0000 F   0  0  0  0  0  0  0  0  0
    8.7390   -1.1523    0.0000 C   0  0  0  0  0  0  0  0  0
    8.4841   -1.9369    0.0000 C   0  0  0  0  0  0  0  0  0
    7.6771   -2.1084    0.0000 C   0  0  0  0  0  0  0  0  0
    7.2646   -2.8229    0.0000 N   0  0  0  0  0  0  0  0  0
    6.4576   -2.6514    0.0000 C   0  0  0  0  0  0  0  0  0
    3.5135   -2.6559    0.0000 C   0  0  0  0  0  0  0  0  0
    4.0969   -3.2392    0.0000 C   0  0  0  0  0  0  0  0  0
    3.5135   -3.8226    0.0000 C   0  0  0  0  0  0  0  0  0
    2.9302   -3.2392    0.0000 C   0  0  0  0  0  0  0  0  0
    2.0846   -1.8309    0.0000 C   0  0  0  0  0  0  0  0  0
    1.3701   -1.4184    0.0000 C   0  0  0  0  0  0  0  0  0
    0.6556   -1.8309    0.0000 C   0  0  0  0  0  0  0  0  0
   -0.0588   -1.4184    0.0000 C   0  0  0  0  0  0  0  0  0
   -0.0588   -0.5934    0.0000 C   0  0  0  0  0  0  0  0  0
    0.6556   -2.6559    0.0000 C   0  0  0  0  0  0  0  0  0
   -0.0588   -3.0684    0.0000 O   0  0  0  0  0  0  0  0  0
    1.3701   -3.0684    0.0000 N   0  0  0  0  0  0  0  0  0
    1.3701   -3.8934    0.0000 C   0  0  0  0  0  0  0  0  0
    0.6556   -4.3059    0.0000 C   0  0  0  0  0  0  0  0  0
    2.0846   -4.3059    0.0000 C   0  0  0  0  0  0  0  0  0
  1  2  1  0  0  0  0
  2  3  4  0  0  0  0
  2 29  4  0  0  0  0
  3  4  1  0  0  0  0
  3 26  4  0  0  0  0
  4  5  1  0  0  0  0
  5  6  1  0  0  0  0
  6  7  1  0  0  0  0
  6 25  1  0  0  0  0
  7  8  1  0  0  0  0
  7 21  1  0  0  0  0
  8  9  1  0  0  0  0
  9 10  1  0  0  0  0
 10 11  1  0  0  0  0
 11 12  4  0  0  0  0
 11 20  4  0  0  0  0
 12 13  4  0  0  0  0
 12 18  4  0  0  0  0
 13 14  4  0  0  0  0
 14 15  1  0  0  0  0
 14 16  4  0  0  0  0
 16 17  4  0  0  0  0
 17 18  4  0  0  0  0
 18 19  4  0  0  0  0
 19 20  4  0  0  0  0
 21 22  1  0  0  0  0
 21 24  1  0  0  0  0
 22 23  1  0  0  0  0
 23 24  1  0  0  0  0
 25 26  1  0  0  0  0
 26 27  4  0  0  0  0
 27 28  4  0  0  0  0
 27 30  1  0  0  0  0
 28 29  4  0  0  0  0
 30 31  2  0  0  0  0
 30 32  1  0  0  0  0
 32 33  1  0  0  0  0
 33 34  1  0  0  0  0
 33 35  1  0  0  0  0
M  STY  1   1 DAT
M  SAL   1  1  19
M  SDT   1 MRV_IMPLICIT_H                                        
M  SDD   1     0.0000    0.0000    DR    ALL  0       0  
M  SED   1 IMPL_H1
M  END
>  <Name_Molregno>
514158

>  <5-HT1A>
7.34

$$$$
514254
  Marvin  02231216192D 0   1.00000     0.00000     0

 32 36  0  0  0  0  0  0  0  0999 V2000
   -8.4507   -2.6793    0.0000 O   0  0  0  0  0  0  0  0  0
   -9.1652   -2.2668    0.0000 C   0  0  0  0  0  0  0  0  0
   -9.1652   -1.4418    0.0000 C   0  0  0  0  0  0  0  0  0
   -9.8797   -1.0293    0.0000 O   0  0  0  0  0  0  0  0  0
   -8.4507   -1.0293    0.0000 N   0  0  0  0  0  0  0  0  0
   -7.7363   -1.4418    0.0000 C   0  0  0  0  0  0  0  0  0
   -7.0218   -1.0293    0.0000 C   0  0  0  0  0  0  0  0  0
   -6.3073   -1.4418    0.0000 C   0  0  0  0  0  0  0  0  0
   -6.3073   -2.2668    0.0000 C   0  0  0  0  0  0  0  0  0
   -7.0218   -2.6793    0.0000 C   0  0  0  0  0  0  0  0  0
   -7.7363   -2.2668    0.0000 C   0  0  0  0  0  0  0  0  0
   -5.5928   -1.0293    0.0000 C   0  0  0  0  0  0  0  0  0
   -4.8784   -1.4418    0.0000 O   0  0  0  0  0  0  0  0  0
   -5.5928   -0.2043    0.0000 C   0  0  0  0  0  0  0  0  0
   -4.8784    0.2082    0.0000 N   0  0  0  0  0  0  0  0  0
   -4.8784    1.0332    0.0000 C   0  0  0  0  0  0  0  0  0
   -4.1639    1.4457    0.0000 C   0  0  0  0  0  0  0  0  0
   -3.4494    1.0332    0.0000 C   0  0  0  0  0  0  0  0  0
   -2.7350    1.4457    0.0000 O   0  0  0  0  0  0  0  0  0
   -2.7350    2.2707    0.0000 C   0  0  0  0  0  0  0  0  0
   -2.0205    2.6832    0.0000 C   0  0  0  0  0  0  0  0  0
   -2.0205    3.5082    0.0000 C   0  0  0  0  0  0  0  0  0
   -1.3060    3.9207    0.0000 N   0  0  0  0  0  0  0  0  0
   -0.5916    3.5082    0.0000 C   0  0  0  0  0  0  0  0  0
   -0.5916    2.6832    0.0000 C   0  0  0  0  0  0  0  0  0
   -1.3060    2.2707    0.0000 C   0  0  0  0  0  0  0  0  0
    0.1229    3.9207    0.0000 C   0  0  0  0  0  0  0  0  0
   -2.7350    3.9207    0.0000 C   0  0  0  0  0  0  0  0  0
   -3.4494    3.5082    0.0000 C   0  0  0  0  0  0  0  0  0
   -3.4494    2.6832    0.0000 C   0  0  0  0  0  0  0  0  0
   -3.4494    0.2082    0.0000 C   0  0  0  0  0  0  0  0  0
   -4.1639   -0.2043    0.0000 C   0  0  0  0  0  0  0  0  0
  1  2  1  0  0  0  0
  1 11  1  0  0  0  0
  2  3  1  0  0  0  0
  3  4  2  0  0  0  0
  3  5  1  0  0  0  0
  5  6  1  0  0  0  0
  6  7  4  0  0  0  0
  6 11  4  0  0  0  0
  7  8  4  0  0  0  0
  8  9  4  0  0  0  0
  8 12  1  0  0  0  0
  9 10  4  0  0  0  0
 10 11  4  0  0  0  0
 12 13  2  0  0  0  0
 12 14  1  0  0  0  0
 14 15  1  0  0  0  0
 15 16  1  0  0  0  0
 15 32  1  0  0  0  0
 16 17  1  0  0  0  0
 17 18  1  0  0  0  0
 18 19  1  0  0  0  0
 18 31  1  0  0  0  0
 19 20  1  0  0  0  0
 20 21  4  0  0  0  0
 20 30  4  0  0  0  0
 21 22  4  0  0  0  0
 21 26  4  0  0  0  0
 22 23  4  0  0  0  0
 22 28  4  0  0  0  0
 23 24  4  0  0  0  0
 24 25  4  0  0  0  0
 24 27  1  0  0  0  0
 25 26  4  0  0  0  0
 28 29  4  0  0  0  0
 29 30  4  0  0  0  0
 31 32  1  0  0  0  0
M  END
>  <Name_Molregno>
514254

>  <5-HT1A>
5

>  <5-HT1B>
5.3

>  <5-HT1D>
5.7

$$$$
514255
  Marvin  02231216192D 0   1.00000     0.00000     0

 33 37  0  0  0  0  0  0  0  0999 V2000
   -4.9347   -4.3130    0.0000 O   0  0  0  0  0  0  0  0  0
   -5.6491   -4.7255    0.0000 C   0  0  0  0  0  0  0  0  0
   -6.3636   -4.3130    0.0000 C   0  0  0  0  0  0  0  0  0
   -7.0781   -4.7255    0.0000 O   0  0  0  0  0  0  0  0  0
   -6.3636   -3.4880    0.0000 N   0  0  0  0  0  0  0  0  0
   -5.6491   -3.0755    0.0000 C   0  0  0  0  0  0  0  0  0
   -5.6491   -2.2505    0.0000 C   0  0  0  0  0  0  0  0  0
   -4.9347   -1.8380    0.0000 C   0  0  0  0  0  0  0  0  0
   -4.2202   -2.2505    0.0000 C   0  0  0  0  0  0  0  0  0
   -4.2202   -3.0755    0.0000 C   0  0  0  0  0  0  0  0  0
   -4.9347   -3.4880    0.0000 C   0  0  0  0  0  0  0  0  0
   -4.9347   -1.0130    0.0000 C   0  0  0  0  0  0  0  0  0
   -4.2202   -0.6005    0.0000 O   0  0  0  0  0  0  0  0  0
   -5.6491   -0.6005    0.0000 C   0  0  0  0  0  0  0  0  0
   -5.6491    0.2245    0.0000 N   0  0  0  0  0  0  0  0  0
   -6.3636    0.6370    0.0000 C   0  0  0  0  0  0  0  0  0
   -6.3636    1.4620    0.0000 C   0  0  0  0  0  0  0  0  0
   -5.6491    1.8745    0.0000 C   0  0  0  0  0  0  0  0  0
   -4.9347    1.4620    0.0000 C   0  0  0  0  0  0  0  0  0
   -4.9347    0.6370    0.0000 C   0  0  0  0  0  0  0  0  0
   -5.6491    2.6995    0.0000 C   0  0  0  0  0  0  0  0  0
   -4.9347    3.1120    0.0000 O   0  0  0  0  0  0  0  0  0
   -4.9347    3.9370    0.0000 C   0  0  0  0  0  0  0  0  0
   -4.2202    4.3495    0.0000 C   0  0  0  0  0  0  0  0  0
   -4.2202    5.1745    0.0000 C   0  0  0  0  0  0  0  0  0
   -3.5057    5.5870    0.0000 N   0  0  0  0  0  0  0  0  0
   -2.7913    5.1745    0.0000 C   0  0  0  0  0  0  0  0  0
   -2.7913    4.3495    0.0000 C   0  0  0  0  0  0  0  0  0
   -3.5057    3.9370    0.0000 C   0  0  0  0  0  0  0  0  0
   -2.0768    5.5870    0.0000 C   0  0  0  0  0  0  0  0  0
   -4.9347    5.5870    0.0000 C   0  0  0  0  0  0  0  0  0
   -5.6491    5.1745    0.0000 C   0  0  0  0  0  0  0  0  0
   -5.6491    4.3495    0.0000 C   0  0  0  0  0  0  0  0  0
  1  2  1  0  0  0  0
  1 11  1  0  0  0  0
  2  3  1  0  0  0  0
  3  4  2  0  0  0  0
  3  5  1  0  0  0  0
  5  6  1  0  0  0  0
  6  7  4  0  0  0  0
  6 11  4  0  0  0  0
  7  8  4  0  0  0  0
  8  9  4  0  0  0  0
  8 12  1  0  0  0  0
  9 10  4  0  0  0  0
 10 11  4  0  0  0  0
 12 13  2  0  0  0  0
 12 14  1  0  0  0  0
 14 15  1  0  0  0  0
 15 16  1  0  0  0  0
 15 20  1  0  0  0  0
 16 17  1  0  0  0  0
 17 18  1  0  0  0  0
 18 19  1  0  0  0  0
 18 21  1  0  0  0  0
 19 20  1  0  0  0  0
 21 22  1  0  0  0  0
 22 23  1  0  0  0  0
 23 24  4  0  0  0  0
 23 33  4  0  0  0  0
 24 25  4  0  0  0  0
 24 29  4  0  0  0  0
 25 26  4  0  0  0  0
 25 31  4  0  0  0  0
 26 27  4  0  0  0  0
 27 28  4  0  0  0  0
 27 30  1  0  0  0  0
 28 29  4  0  0  0  0
 31 32  4  0  0  0  0
 32 33  4  0  0  0  0
M  END
>  <Name_Molregno>
514255

>  <5-HT1A>
6.3

>  <5-HT1B>
6.2

>  <5-HT1D>
6.6

$$$$
514269
  Marvin  02231216192D 0   1.00000     0.00000     0

 35 40  0  0  1  0  0  0  0  0999 V2000
   -1.5773   -1.1845    0.0000 F   0  0  0  0  0  0  0  0  0
   -1.5773   -2.0095    0.0000 C   0  0  0  0  0  0  0  0  0
   -0.8628   -2.4220    0.0000 C   0  0  0  0  0  0  0  0  0
   -0.1483   -2.0095    0.0000 O   0  0  0  0  0  0  0  0  0
    0.5661   -2.4220    0.0000 C   0  0  0  0  0  0  0  0  0
    0.5661   -3.2470    0.0000 C   0  0  0  0  0  0  0  0  0
    1.2806   -3.6595    0.0000 N   0  0  0  0  0  0  0  0  0
    1.9951   -3.2470    0.0000 C   0  0  0  0  0  0  0  0  0
    2.7095   -3.6595    0.0000 C   0  0  0  0  0  0  0  0  0
    3.4240   -3.2470    0.0000 C   0  0  0  0  0  0  0  0  0
    4.1385   -3.6595    0.0000 C   0  0  0  0  0  0  0  0  0
    4.8922   -3.3239    0.0000 C   0  0  0  0  0  0  0  0  0
    5.1471   -2.5393    0.0000 C   0  0  0  0  0  0  0  0  0
    5.9541   -2.3678    0.0000 C   0  0  0  0  0  0  0  0  0
    6.2090   -1.5832    0.0000 F   0  0  0  0  0  0  0  0  0
    6.5061   -2.9809    0.0000 C   0  0  0  0  0  0  0  0  0
    6.2512   -3.7655    0.0000 C   0  0  0  0  0  0  0  0  0
    5.4442   -3.9370    0.0000 C   0  0  0  0  0  0  0  0  0
    5.0317   -4.6515    0.0000 N   0  0  0  0  0  0  0  0  0
    4.2247   -4.4800    0.0000 C   0  0  0  0  0  0  0  0  0
    1.2806   -4.4845    0.0000 C   0  0  0  0  0  0  0  0  0
    1.8640   -5.0679    0.0000 C   0  0  0  0  0  0  0  0  0
    1.2806   -5.6512    0.0000 C   0  0  0  0  0  0  0  0  0
    0.6972   -5.0679    0.0000 C   0  0  0  0  0  0  0  0  0
   -0.1483   -3.6595    0.0000 C   0  0  0  0  0  0  0  0  0
   -0.8628   -3.2470    0.0000 C   0  0  0  0  0  0  0  0  0
   -1.5773   -3.6595    0.0000 C   0  0  0  0  0  0  0  0  0
   -2.2918   -3.2470    0.0000 C   0  0  0  0  0  0  0  0  0
   -2.2918   -2.4220    0.0000 C   0  0  0  0  0  0  0  0  0
   -1.5773   -4.4845    0.0000 C   0  0  0  0  0  0  0  0  0
   -0.8628   -4.8970    0.0000 O   0  0  0  0  0  0  0  0  0
   -2.2918   -4.8970    0.0000 N   0  0  0  0  0  0  0  0  0
   -3.0062   -4.4845    0.0000 C   0  0  0  0  0  0  0  0  0
   -3.8312   -4.4845    0.0000 C   0  0  0  0  0  0  0  0  0
   -3.4187   -3.7700    0.0000 C   0  0  0  0  0  0  0  0  0
  1  2  1  0  0  0  0
  2  3  4  0  0  0  0
  2 29  4  0  0  0  0
  3  4  1  0  0  0  0
  3 26  4  0  0  0  0
  4  5  1  0  0  0  0
  5  6  1  0  0  0  0
  6  7  1  0  0  0  0
  6 25  1  0  0  0  0
  7  8  1  0  0  0  0
  7 21  1  0  0  0  0
  8  9  1  0  0  0  0
  9 10  1  0  0  0  0
 10 11  1  0  0  0  0
 11 12  4  0  0  0  0
 11 20  4  0  0  0  0
 12 13  4  0  0  0  0
 12 18  4  0  0  0  0
 13 14  4  0  0  0  0
 14 15  1  0  0  0  0
 14 16  4  0  0  0  0
 16 17  4  0  0  0  0
 17 18  4  0  0  0  0
 18 19  4  0  0  0  0
 19 20  4  0  0  0  0
 21 22  1  0  0  0  0
 21 24  1  0  0  0  0
 22 23  1  0  0  0  0
 23 24  1  0  0  0  0
 25 26  1  0  0  0  0
 26 27  4  0  0  0  0
 27 28  4  0  0  0  0
 27 30  1  0  0  0  0
 28 29  4  0  0  0  0
 30 31  2  0  0  0  0
 30 32  1  0  0  0  0
 32 33  1  0  0  0  0
 33 34  1  0  0  0  0
 33 35  1  0  0  0  0
 34 35  1  0  0  0  0
M  STY  1   1 DAT
M  SAL   1  1  19
M  SDT   1 MRV_IMPLICIT_H                                        
M  SDD   1     0.0000    0.0000    DR    ALL  0       0  
M  SED   1 IMPL_H1
M  END
>  <Name_Molregno>
514269

>  <5-HT1A>
7.72

$$$$
514270
  Marvin  02231216192D 0   1.00000     0.00000     0

 36 41  0  0  1  0  0  0  0  0999 V2000
   -1.5626   -1.1908    0.0000 F   0  0  0  0  0  0  0  0  0
   -1.5626   -2.0158    0.0000 C   0  0  0  0  0  0  0  0  0
   -0.8481   -2.4283    0.0000 C   0  0  0  0  0  0  0  0  0
   -0.1336   -2.0158    0.0000 O   0  0  0  0  0  0  0  0  0
    0.5808   -2.4283    0.0000 C   0  0  0  0  0  0  0  0  0
    0.5808   -3.2533    0.0000 C   0  0  0  0  0  0  0  0  0
    1.2953   -3.6658    0.0000 N   0  0  0  0  0  0  0  0  0
    2.0098   -3.2533    0.0000 C   0  0  0  0  0  0  0  0  0
    2.7242   -3.6658    0.0000 C   0  0  0  0  0  0  0  0  0
    3.4387   -3.2533    0.0000 C   0  0  0  0  0  0  0  0  0
    4.1532   -3.6658    0.0000 C   0  0  0  0  0  0  0  0  0
    4.9069   -3.3302    0.0000 C   0  0  0  0  0  0  0  0  0
    5.1618   -2.5456    0.0000 C   0  0  0  0  0  0  0  0  0
    5.9688   -2.3741    0.0000 C   0  0  0  0  0  0  0  0  0
    6.2237   -1.5894    0.0000 F   0  0  0  0  0  0  0  0  0
    6.5208   -2.9872    0.0000 C   0  0  0  0  0  0  0  0  0
    6.2659   -3.7718    0.0000 C   0  0  0  0  0  0  0  0  0
    5.4589   -3.9433    0.0000 C   0  0  0  0  0  0  0  0  0
    5.0464   -4.6578    0.0000 N   0  0  0  0  0  0  0  0  0
    4.2394   -4.4863    0.0000 C   0  0  0  0  0  0  0  0  0
    1.2953   -4.4908    0.0000 C   0  0  0  0  0  0  0  0  0
    1.8787   -5.0741    0.0000 C   0  0  0  0  0  0  0  0  0
    1.2953   -5.6575    0.0000 C   0  0  0  0  0  0  0  0  0
    0.7119   -5.0741    0.0000 C   0  0  0  0  0  0  0  0  0
   -0.1336   -3.6658    0.0000 C   0  0  0  0  0  0  0  0  0
   -0.8481   -3.2533    0.0000 C   0  0  0  0  0  0  0  0  0
   -1.5626   -3.6658    0.0000 C   0  0  0  0  0  0  0  0  0
   -2.2771   -3.2533    0.0000 C   0  0  0  0  0  0  0  0  0
   -2.2771   -2.4283    0.0000 C   0  0  0  0  0  0  0  0  0
   -1.5626   -4.4908    0.0000 C   0  0  0  0  0  0  0  0  0
   -0.8481   -4.9033    0.0000 O   0  0  0  0  0  0  0  0  0
   -2.2771   -4.9033    0.0000 N   0  0  0  0  0  0  0  0  0
   -2.9915   -4.4908    0.0000 C   0  0  0  0  0  0  0  0  0
   -3.7884   -4.7043    0.0000 C   0  0  0  0  0  0  0  0  0
   -4.0019   -3.9074    0.0000 C   0  0  0  0  0  0  0  0  0
   -3.2051   -3.6939    0.0000 C   0  0  0  0  0  0  0  0  0
  1  2  1  0  0  0  0
  2  3  4  0  0  0  0
  2 29  4  0  0  0  0
  3  4  1  0  0  0  0
  3 26  4  0  0  0  0
  4  5  1  0  0  0  0
  5  6  1  0  0  0  0
  6  7  1  0  0  0  0
  6 25  1  0  0  0  0
  7  8  1  0  0  0  0
  7 21  1  0  0  0  0
  8  9  1  0  0  0  0
  9 10  1  0  0  0  0
 10 11  1  0  0  0  0
 11 12  4  0  0  0  0
 11 20  4  0  0  0  0
 12 13  4  0  0  0  0
 12 18  4  0  0  0  0
 13 14  4  0  0  0  0
 14 15  1  0  0  0  0
 14 16  4  0  0  0  0
 16 17  4  0  0  0  0
 17 18  4  0  0  0  0
 18 19  4  0  0  0  0
 19 20  4  0  0  0  0
 21 22  1  0  0  0  0
 21 24  1  0  0  0  0
 22 23  1  0  0  0  0
 23 24  1  0  0  0  0
 25 26  1  0  0  0  0
 26 27  4  0  0  0  0
 27 28  4  0  0  0  0
 27 30  1  0  0  0  0
 28 29  4  0  0  0  0
 30 31  2  0  0  0  0
 30 32  1  0  0  0  0
 32 33  1  0  0  0  0
 33 34  1  0  0  0  0
 33 36  1  0  0  0  0
 34 35  1  0  0  0  0
 35 36  1  0  0  0  0
M  STY  1   1 DAT
M  SAL   1  1  19
M  SDT   1 MRV_IMPLICIT_H                                        
M  SDD   1     0.0000    0.0000    DR    ALL  0       0  
M  SED   1 IMPL_H1
M  END
>  <Name_Molregno>
514270

>  <5-HT1A>
6.67

$$$$
514272
  Marvin  02231216192D 0   1.00000     0.00000     0

 36 41  0  0  1  0  0  0  0  0999 V2000
    0.8386    0.5713    0.0000 F   0  0  0  0  0  0  0  0  0
    0.8386   -0.2537    0.0000 C   0  0  0  0  0  0  0  0  0
    1.5531   -0.6662    0.0000 C   0  0  0  0  0  0  0  0  0
    2.2676   -0.2537    0.0000 O   0  0  0  0  0  0  0  0  0
    2.9820   -0.6662    0.0000 C   0  0  0  0  0  0  0  0  0
    2.9820   -1.4912    0.0000 C   0  0  0  0  0  0  0  0  0
    3.6965   -1.9037    0.0000 N   0  0  0  0  0  0  0  0  0
    4.4110   -1.4912    0.0000 C   0  0  0  0  0  0  0  0  0
    5.1255   -1.9037    0.0000 C   0  0  0  0  0  0  0  0  0
    5.8399   -1.4912    0.0000 C   0  0  0  0  0  0  0  0  0
    6.5544   -1.9037    0.0000 C   0  0  0  0  0  0  0  0  0
    7.3081   -1.5681    0.0000 C   0  0  0  0  0  0  0  0  0
    7.5630   -0.7835    0.0000 C   0  0  0  0  0  0  0  0  0
    8.3700   -0.6119    0.0000 C   0  0  0  0  0  0  0  0  0
    8.6249    0.1727    0.0000 F   0  0  0  0  0  0  0  0  0
    8.9220   -1.2250    0.0000 C   0  0  0  0  0  0  0  0  0
    8.6671   -2.0097    0.0000 C   0  0  0  0  0  0  0  0  0
    7.8601   -2.1812    0.0000 C   0  0  0  0  0  0  0  0  0
    7.4476   -2.8957    0.0000 N   0  0  0  0  0  0  0  0  0
    6.6406   -2.7241    0.0000 C   0  0  0  0  0  0  0  0  0
    3.6965   -2.7287    0.0000 C   0  0  0  0  0  0  0  0  0
    4.2799   -3.3120    0.0000 C   0  0  0  0  0  0  0  0  0
    3.6965   -3.8954    0.0000 C   0  0  0  0  0  0  0  0  0
    3.1132   -3.3120    0.0000 C   0  0  0  0  0  0  0  0  0
    2.2676   -1.9037    0.0000 C   0  0  0  0  0  0  0  0  0
    1.5531   -1.4912    0.0000 C   0  0  0  0  0  0  0  0  0
    0.8386   -1.9037    0.0000 C   0  0  0  0  0  0  0  0  0
    0.1242   -1.4912    0.0000 C   0  0  0  0  0  0  0  0  0
    0.1242   -0.6662    0.0000 C   0  0  0  0  0  0  0  0  0
    0.8386   -2.7287    0.0000 C   0  0  0  0  0  0  0  0  0
    1.5531   -3.1412    0.0000 O   0  0  0  0  0  0  0  0  0
    0.1242   -3.1412    0.0000 N   0  0  0  0  0  0  0  0  0
    0.1242   -3.9662    0.0000 C   0  0  0  0  0  0  0  0  0
   -0.5903   -4.3787    0.0000 C   0  0  0  0  0  0  0  0  0
   -1.0028   -5.0931    0.0000 C   0  0  0  0  0  0  0  0  0
   -1.4153   -4.3787    0.0000 C   0  0  0  0  0  0  0  0  0
  1  2  1  0  0  0  0
  2  3  4  0  0  0  0
  2 29  4  0  0  0  0
  3  4  1  0  0  0  0
  3 26  4  0  0  0  0
  4  5  1  0  0  0  0
  5  6  1  0  0  0  0
  6  7  1  0  0  0  0
  6 25  1  0  0  0  0
  7  8  1  0  0  0  0
  7 21  1  0  0  0  0
  8  9  1  0  0  0  0
  9 10  1  0  0  0  0
 10 11  1  0  0  0  0
 11 12  4  0  0  0  0
 11 20  4  0  0  0  0
 12 13  4  0  0  0  0
 12 18  4  0  0  0  0
 13 14  4  0  0  0  0
 14 15  1  0  0  0  0
 14 16  4  0  0  0  0
 16 17  4  0  0  0  0
 17 18  4  0  0  0  0
 18 19  4  0  0  0  0
 19 20  4  0  0  0  0
 21 22  1  0  0  0  0
 21 24  1  0  0  0  0
 22 23  1  0  0  0  0
 23 24  1  0  0  0  0
 25 26  1  0  0  0  0
 26 27  4  0  0  0  0
 27 28  4  0  0  0  0
 27 30  1  0  0  0  0
 28 29  4  0  0  0  0
 30 31  2  0  0  0  0
 30 32  1  0  0  0  0
 32 33  1  0  0  0  0
 33 34  1  0  0  0  0
 34 35  1  0  0  0  0
 34 36  1  0  0  0  0
 35 36  1  0  0  0  0
M  STY  1   1 DAT
M  SAL   1  1  19
M  SDT   1 MRV_IMPLICIT_H                                        
M  SDD   1     0.0000    0.0000    DR    ALL  0       0  
M  SED   1 IMPL_H1
M  END
>  <Name_Molregno>
514272

>  <5-HT1A>
6.79

$$$$
514335
  Marvin  02231216192D 0   1.00000     0.00000     0

 34 38  0  0  1  0  0  0  0  0999 V2000
    0.6875    0.5949    0.0000 F   0  0  0  0  0  0  0  0  0
    0.6875   -0.2301    0.0000 C   0  0  0  0  0  0  0  0  0
    1.4020   -0.6426    0.0000 C   0  0  0  0  0  0  0  0  0
    2.1165   -0.2301    0.0000 O   0  0  0  0  0  0  0  0  0
    2.8309   -0.6426    0.0000 C   0  0  0  0  0  0  0  0  0
    2.8309   -1.4676    0.0000 C   0  0  0  0  0  0  0  0  0
    3.5454   -1.8801    0.0000 N   0  0  0  0  0  0  0  0  0
    4.2599   -1.4676    0.0000 C   0  0  0  0  0  0  0  0  0
    4.9743   -1.8801    0.0000 C   0  0  0  0  0  0  0  0  0
    5.6888   -1.4676    0.0000 C   0  0  0  0  0  0  0  0  0
    6.4033   -1.8801    0.0000 C   0  0  0  0  0  0  0  0  0
    7.1570   -1.5445    0.0000 C   0  0  0  0  0  0  0  0  0
    7.4119   -0.7599    0.0000 C   0  0  0  0  0  0  0  0  0
    8.2189   -0.5884    0.0000 C   0  0  0  0  0  0  0  0  0
    8.4738    0.1963    0.0000 F   0  0  0  0  0  0  0  0  0
    8.7709   -1.2015    0.0000 C   0  0  0  0  0  0  0  0  0
    8.5160   -1.9861    0.0000 C   0  0  0  0  0  0  0  0  0
    7.7090   -2.1576    0.0000 C   0  0  0  0  0  0  0  0  0
    7.2965   -2.8721    0.0000 N   0  0  0  0  0  0  0  0  0
    6.4895   -2.7006    0.0000 C   0  0  0  0  0  0  0  0  0
    3.5454   -2.7051    0.0000 C   0  0  0  0  0  0  0  0  0
    4.1288   -3.2884    0.0000 C   0  0  0  0  0  0  0  0  0
    3.5454   -3.8718    0.0000 C   0  0  0  0  0  0  0  0  0
    2.9620   -3.2884    0.0000 C   0  0  0  0  0  0  0  0  0
    2.1165   -1.8801    0.0000 C   0  0  0  0  0  0  0  0  0
    1.4020   -1.4676    0.0000 C   0  0  0  0  0  0  0  0  0
    0.6875   -1.8801    0.0000 C   0  0  0  0  0  0  0  0  0
   -0.0270   -1.4676    0.0000 C   0  0  0  0  0  0  0  0  0
   -0.0270   -0.6426    0.0000 C   0  0  0  0  0  0  0  0  0
    0.6875   -2.7051    0.0000 C   0  0  0  0  0  0  0  0  0
    1.4020   -3.1176    0.0000 O   0  0  0  0  0  0  0  0  0
   -0.0270   -3.1176    0.0000 N   0  0  0  0  0  0  0  0  0
   -0.0270   -3.9426    0.0000 C   0  0  0  0  0  0  0  0  0
   -0.7414   -2.7051    0.0000 C   0  0  0  0  0  0  0  0  0
  1  2  1  0  0  0  0
  2  3  4  0  0  0  0
  2 29  4  0  0  0  0
  3  4  1  0  0  0  0
  3 26  4  0  0  0  0
  4  5  1  0  0  0  0
  5  6  1  0  0  0  0
  6  7  1  0  0  0  0
  6 25  1  0  0  0  0
  7  8  1  0  0  0  0
  7 21  1  0  0  0  0
  8  9  1  0  0  0  0
  9 10  1  0  0  0  0
 10 11  1  0  0  0  0
 11 12  4  0  0  0  0
 11 20  4  0  0  0  0
 12 13  4  0  0  0  0
 12 18  4  0  0  0  0
 13 14  4  0  0  0  0
 14 15  1  0  0  0  0
 14 16  4  0  0  0  0
 16 17  4  0  0  0  0
 17 18  4  0  0  0  0
 18 19  4  0  0  0  0
 19 20  4  0  0  0  0
 21 22  1  0  0  0  0
 21 24  1  0  0  0  0
 22 23  1  0  0  0  0
 23 24  1  0  0  0  0
 25 26  1  0  0  0  0
 26 27  4  0  0  0  0
 27 28  4  0  0  0  0
 27 30  1  0  0  0  0
 28 29  4  0  0  0  0
 30 31  2  0  0  0  0
 30 32  1  0  0  0  0
 32 33  1  0  0  0  0
 32 34  1  0  0  0  0
M  STY  1   1 DAT
M  SAL   1  1  19
M  SDT   1 MRV_IMPLICIT_H                                        
M  SDD   1     0.0000    0.0000    DR    ALL  0       0  
M  SED   1 IMPL_H1
M  END
>  <Name_Molregno>
514335

>  <5-HT1A>
6.43

$$$$
514336
  Marvin  02231216192D 0   1.00000     0.00000     0

 33 37  0  0  1  0  0  0  0  0999 V2000
    0.5319    0.4091    0.0000 F   0  0  0  0  0  0  0  0  0
    0.5319   -0.4159    0.0000 C   0  0  0  0  0  0  0  0  0
    1.2464   -0.8284    0.0000 C   0  0  0  0  0  0  0  0  0
    1.9608   -0.4159    0.0000 O   0  0  0  0  0  0  0  0  0
    2.6753   -0.8284    0.0000 C   0  0  0  0  0  0  0  0  0
    2.6753   -1.6534    0.0000 C   0  0  0  0  0  0  0  0  0
    3.3898   -2.0659    0.0000 N   0  0  0  0  0  0  0  0  0
    4.1043   -1.6534    0.0000 C   0  0  0  0  0  0  0  0  0
    4.8187   -2.0659    0.0000 C   0  0  0  0  0  0  0  0  0
    5.5332   -1.6534    0.0000 C   0  0  0  0  0  0  0  0  0
    6.2477   -2.0659    0.0000 C   0  0  0  0  0  0  0  0  0
    7.0013   -1.7303    0.0000 C   0  0  0  0  0  0  0  0  0
    7.2563   -0.9457    0.0000 C   0  0  0  0  0  0  0  0  0
    8.0633   -0.7742    0.0000 C   0  0  0  0  0  0  0  0  0
    8.6153   -1.3873    0.0000 C   0  0  0  0  0  0  0  0  0
    8.3604   -2.1719    0.0000 C   0  0  0  0  0  0  0  0  0
    7.5534   -2.3434    0.0000 C   0  0  0  0  0  0  0  0  0
    7.1409   -3.0579    0.0000 N   0  0  0  0  0  0  0  0  0
    6.3339   -2.8863    0.0000 C   0  0  0  0  0  0  0  0  0
    8.3182    0.0105    0.0000 C   0  0  0  0  0  0  0  0  0
    8.5731    0.7951    0.0000 N   0  0  0  0  0  0  0  0  0
    3.3898   -2.8909    0.0000 C   0  0  0  0  0  0  0  0  0
    3.9732   -3.4742    0.0000 C   0  0  0  0  0  0  0  0  0
    3.3898   -4.0576    0.0000 C   0  0  0  0  0  0  0  0  0
    2.8064   -3.4742    0.0000 C   0  0  0  0  0  0  0  0  0
    1.9608   -2.0659    0.0000 C   0  0  0  0  0  0  0  0  0
    1.2464   -1.6534    0.0000 C   0  0  0  0  0  0  0  0  0
    0.5319   -2.0659    0.0000 C   0  0  0  0  0  0  0  0  0
   -0.1826   -1.6534    0.0000 C   0  0  0  0  0  0  0  0  0
   -0.1826   -0.8284    0.0000 C   0  0  0  0  0  0  0  0  0
    0.5319   -2.8909    0.0000 C   0  0  0  0  0  0  0  0  0
   -0.1826   -3.3034    0.0000 O   0  0  0  0  0  0  0  0  0
    1.2464   -3.3034    0.0000 N   0  0  0  0  0  0  0  0  0
  1  2  1  0  0  0  0
  2  3  4  0  0  0  0
  2 30  4  0  0  0  0
  3  4  1  0  0  0  0
  3 27  4  0  0  0  0
  4  5  1  0  0  0  0
  5  6  1  0  0  0  0
  6  7  1  0  0  0  0
  6 26  1  0  0  0  0
  7  8  1  0  0  0  0
  7 22  1  0  0  0  0
  8  9  1  0  0  0  0
  9 10  1  0  0  0  0
 10 11  1  0  0  0  0
 11 12  4  0  0  0  0
 11 19  4  0  0  0  0
 12 13  4  0  0  0  0
 12 17  4  0  0  0  0
 13 14  4  0  0  0  0
 14 15  4  0  0  0  0
 14 20  1  0  0  0  0
 15 16  4  0  0  0  0
 16 17  4  0  0  0  0
 17 18  4  0  0  0  0
 18 19  4  0  0  0  0
 20 21  3  0  0  0  0
 22 23  1  0  0  0  0
 22 25  1  0  0  0  0
 23 24  1  0  0  0  0
 24 25  1  0  0  0  0
 26 27  1  0  0  0  0
 27 28  4  0  0  0  0
 28 29  4  0  0  0  0
 28 31  1  0  0  0  0
 29 30  4  0  0  0  0
 31 32  2  0  0  0  0
 31 33  1  0  0  0  0
M  STY  1   1 DAT
M  SAL   1  1  18
M  SDT   1 MRV_IMPLICIT_H                                        
M  SDD   1     0.0000    0.0000    DR    ALL  0       0  
M  SED   1 IMPL_H1
M  END
>  <Name_Molregno>
514336

>  <5-HT1A>
7.65

$$$$
514337
  Marvin  02231216192D 0   1.00000     0.00000     0

 33 37  0  0  1  0  0  0  0  0999 V2000
   -1.4338   -0.2144    0.0000 F   0  0  0  0  0  0  0  0  0
   -1.4338   -1.0394    0.0000 C   0  0  0  0  0  0  0  0  0
   -0.7194   -1.4519    0.0000 C   0  0  0  0  0  0  0  0  0
   -0.0049   -1.0394    0.0000 O   0  0  0  0  0  0  0  0  0
    0.7096   -1.4519    0.0000 C   0  0  0  0  0  0  0  0  0
    0.7096   -2.2769    0.0000 C   0  0  0  0  0  0  0  0  0
    1.4240   -2.6894    0.0000 N   0  0  0  0  0  0  0  0  0
    1.4240   -3.5144    0.0000 C   0  0  0  0  0  0  0  0  0
    0.7096   -3.9269    0.0000 C   0  0  0  0  0  0  0  0  0
    0.2971   -4.6414    0.0000 C   0  0  0  0  0  0  0  0  0
   -0.1154   -3.9269    0.0000 C   0  0  0  0  0  0  0  0  0
    2.1385   -2.2769    0.0000 C   0  0  0  0  0  0  0  0  0
    2.8530   -2.6894    0.0000 C   0  0  0  0  0  0  0  0  0
    3.5675   -2.2769    0.0000 C   0  0  0  0  0  0  0  0  0
    4.2819   -2.6894    0.0000 C   0  0  0  0  0  0  0  0  0
    5.0356   -2.3539    0.0000 C   0  0  0  0  0  0  0  0  0
    5.2905   -1.5693    0.0000 C   0  0  0  0  0  0  0  0  0
    6.0975   -1.3977    0.0000 C   0  0  0  0  0  0  0  0  0
    6.3524   -0.6131    0.0000 F   0  0  0  0  0  0  0  0  0
    6.6495   -2.0108    0.0000 C   0  0  0  0  0  0  0  0  0
    6.3946   -2.7954    0.0000 C   0  0  0  0  0  0  0  0  0
    5.5876   -2.9670    0.0000 C   0  0  0  0  0  0  0  0  0
    5.1751   -3.6814    0.0000 N   0  0  0  0  0  0  0  0  0
    4.3682   -3.5099    0.0000 C   0  0  0  0  0  0  0  0  0
    2.1385   -1.4519    0.0000 C   0  0  0  0  0  0  0  0  0
   -0.0049   -2.6894    0.0000 C   0  0  0  0  0  0  0  0  0
   -0.7194   -2.2769    0.0000 C   0  0  0  0  0  0  0  0  0
   -1.4338   -2.6894    0.0000 C   0  0  0  0  0  0  0  0  0
   -2.1483   -2.2769    0.0000 C   0  0  0  0  0  0  0  0  0
   -2.1483   -1.4519    0.0000 C   0  0  0  0  0  0  0  0  0
   -1.4338   -3.5144    0.0000 C   0  0  0  0  0  0  0  0  0
   -2.1483   -3.9269    0.0000 O   0  0  0  0  0  0  0  0  0
   -0.7194   -3.9269    0.0000 N   0  0  0  0  0  0  0  0  0
  1  2  1  0  0  0  0
  2  3  4  0  0  0  0
  2 30  4  0  0  0  0
  3  4  1  0  0  0  0
  3 27  4  0  0  0  0
  4  5  1  0  0  0  0
  5  6  1  0  0  0  0
  6  7  1  0  0  0  0
  6 26  1  0  0  0  0
  7  8  1  0  0  0  0
  7 12  1  0  0  0  0
  8  9  1  0  0  0  0
  9 10  1  0  0  0  0
  9 11  1  0  0  0  0
 10 11  1  0  0  0  0
 12 13  1  0  0  0  0
 12 25  1  0  0  0  0
 13 14  1  0  0  0  0
 14 15  1  0  0  0  0
 15 16  4  0  0  0  0
 15 24  4  0  0  0  0
 16 17  4  0  0  0  0
 16 22  4  0  0  0  0
 17 18  4  0  0  0  0
 18 19  1  0  0  0  0
 18 20  4  0  0  0  0
 20 21  4  0  0  0  0
 21 22  4  0  0  0  0
 22 23  4  0  0  0  0
 23 24  4  0  0  0  0
 26 27  1  0  0  0  0
 27 28  4  0  0  0  0
 28 29  4  0  0  0  0
 28 31  1  0  0  0  0
 29 30  4  0  0  0  0
 31 32  2  0  0  0  0
 31 33  1  0  0  0  0
M  STY  1   1 DAT
M  SAL   1  1  23
M  SDT   1 MRV_IMPLICIT_H                                        
M  SDD   1     0.0000    0.0000    DR    ALL  0       0  
M  SED   1 IMPL_H1
M  END
>  <Name_Molregno>
514337

>  <5-HT1A>
8.11

$$$$
514431
  Marvin  02231216192D 0   1.00000     0.00000     0

 33 37  0  0  1  0  0  0  0  0999 V2000
    0.5624    3.9658    0.0000 F   0  0  0  0  0  0  0  0  0
    0.5624    3.1408    0.0000 C   0  0  0  0  0  0  0  0  0
    1.2769    2.7283    0.0000 C   0  0  0  0  0  0  0  0  0
    1.9914    3.1408    0.0000 O   0  0  0  0  0  0  0  0  0
    2.7058    2.7283    0.0000 C   0  0  0  0  0  0  0  0  0
    2.7058    1.9033    0.0000 C   0  0  0  0  0  0  0  0  0
    3.4203    1.4908    0.0000 N   0  0  0  0  0  0  0  0  0
    4.1348    1.9033    0.0000 C   0  0  0  0  0  0  0  0  0
    4.8492    1.4908    0.0000 C   0  0  0  0  0  0  0  0  0
    5.5637    1.9033    0.0000 C   0  0  0  0  0  0  0  0  0
    6.2782    1.4908    0.0000 C   0  0  0  0  0  0  0  0  0
    7.0319    1.8263    0.0000 C   0  0  0  0  0  0  0  0  0
    7.2868    2.6110    0.0000 C   0  0  0  0  0  0  0  0  0
    8.0938    2.7825    0.0000 C   0  0  0  0  0  0  0  0  0
    8.3487    3.5671    0.0000 O   0  0  0  0  0  0  0  0  0
    9.1557    3.7386    0.0000 C   0  0  0  0  0  0  0  0  0
    8.6458    2.1694    0.0000 C   0  0  0  0  0  0  0  0  0
    8.3909    1.3848    0.0000 C   0  0  0  0  0  0  0  0  0
    7.5839    1.2132    0.0000 C   0  0  0  0  0  0  0  0  0
    7.1714    0.4988    0.0000 N   0  0  0  0  0  0  0  0  0
    6.3644    0.6703    0.0000 C   0  0  0  0  0  0  0  0  0
    3.4203    0.6658    0.0000 C   0  0  0  0  0  0  0  0  0
    4.0037    0.0824    0.0000 C   0  0  0  0  0  0  0  0  0
    3.4203   -0.5009    0.0000 C   0  0  0  0  0  0  0  0  0
    2.8369    0.0824    0.0000 C   0  0  0  0  0  0  0  0  0
    1.9914    1.4908    0.0000 C   0  0  0  0  0  0  0  0  0
    1.2769    1.9033    0.0000 C   0  0  0  0  0  0  0  0  0
    0.5624    1.4908    0.0000 C   0  0  0  0  0  0  0  0  0
   -0.1521    1.9033    0.0000 C   0  0  0  0  0  0  0  0  0
   -0.1521    2.7283    0.0000 C   0  0  0  0  0  0  0  0  0
    0.5624    0.6658    0.0000 C   0  0  0  0  0  0  0  0  0
   -0.1521    0.2533    0.0000 O   0  0  0  0  0  0  0  0  0
    1.2769    0.2533    0.0000 N   0  0  0  0  0  0  0  0  0
  1  2  1  0  0  0  0
  2  3  4  0  0  0  0
  2 30  4  0  0  0  0
  3  4  1  0  0  0  0
  3 27  4  0  0  0  0
  4  5  1  0  0  0  0
  5  6  1  0  0  0  0
  6  7  1  0  0  0  0
  6 26  1  0  0  0  0
  7  8  1  0  0  0  0
  7 22  1  0  0  0  0
  8  9  1  0  0  0  0
  9 10  1  0  0  0  0
 10 11  1  0  0  0  0
 11 12  4  0  0  0  0
 11 21  4  0  0  0  0
 12 13  4  0  0  0  0
 12 19  4  0  0  0  0
 13 14  4  0  0  0  0
 14 15  1  0  0  0  0
 14 17  4  0  0  0  0
 15 16  1  0  0  0  0
 17 18  4  0  0  0  0
 18 19  4  0  0  0  0
 19 20  4  0  0  0  0
 20 21  4  0  0  0  0
 22 23  1  0  0  0  0
 22 25  1  0  0  0  0
 23 24  1  0  0  0  0
 24 25  1  0  0  0  0
 26 27  1  0  0  0  0
 27 28  4  0  0  0  0
 28 29  4  0  0  0  0
 28 31  1  0  0  0  0
 29 30  4  0  0  0  0
 31 32  2  0  0  0  0
 31 33  1  0  0  0  0
M  STY  1   1 DAT
M  SAL   1  1  20
M  SDT   1 MRV_IMPLICIT_H                                        
M  SDD   1     0.0000    0.0000    DR    ALL  0       0  
M  SED   1 IMPL_H1
M  END
>  <Name_Molregno>
514431

>  <5-HT1A>
8.92

$$$$
514432
  Marvin  02231216192D 0   1.00000     0.00000     0

 32 36  0  0  1  0  0  0  0  0999 V2000
   -7.4981   -1.2615    0.0000 Cl  0  0  0  0  0  0  0  0  0
   -7.2431   -2.0461    0.0000 C   0  0  0  0  0  0  0  0  0
   -6.4362   -2.2177    0.0000 C   0  0  0  0  0  0  0  0  0
   -6.1812   -3.0023    0.0000 C   0  0  0  0  0  0  0  0  0
   -6.7333   -3.6154    0.0000 C   0  0  0  0  0  0  0  0  0
   -6.3208   -4.3298    0.0000 N   0  0  0  0  0  0  0  0  0
   -5.5138   -4.1583    0.0000 C   0  0  0  0  0  0  0  0  0
   -5.4275   -3.3378    0.0000 C   0  0  0  0  0  0  0  0  0
   -4.7131   -2.9253    0.0000 C   0  0  0  0  0  0  0  0  0
   -3.9986   -3.3378    0.0000 C   0  0  0  0  0  0  0  0  0
   -3.2841   -2.9253    0.0000 C   0  0  0  0  0  0  0  0  0
   -2.5697   -3.3378    0.0000 N   0  0  0  0  0  0  0  0  0
   -2.5697   -4.1628    0.0000 C   0  0  0  0  0  0  0  0  0
   -1.9863   -4.7462    0.0000 C   0  0  0  0  0  0  0  0  0
   -2.5697   -5.3296    0.0000 C   0  0  0  0  0  0  0  0  0
   -3.1530   -4.7462    0.0000 C   0  0  0  0  0  0  0  0  0
   -1.8552   -2.9253    0.0000 C   0  0  0  0  0  0  0  0  0
   -1.1407   -3.3378    0.0000 C   0  0  0  0  0  0  0  0  0
   -0.4262   -2.9253    0.0000 C   0  0  0  0  0  0  0  0  0
   -0.4262   -2.1003    0.0000 C   0  0  0  0  0  0  0  0  0
   -1.1407   -1.6878    0.0000 O   0  0  0  0  0  0  0  0  0
   -1.8552   -2.1003    0.0000 C   0  0  0  0  0  0  0  0  0
    0.2882   -1.6878    0.0000 C   0  0  0  0  0  0  0  0  0
    0.2882   -0.8628    0.0000 F   0  0  0  0  0  0  0  0  0
    1.0027   -2.1003    0.0000 C   0  0  0  0  0  0  0  0  0
    1.0027   -2.9253    0.0000 C   0  0  0  0  0  0  0  0  0
    0.2882   -3.3378    0.0000 C   0  0  0  0  0  0  0  0  0
    0.2882   -4.1628    0.0000 C   0  0  0  0  0  0  0  0  0
    1.0027   -4.5753    0.0000 O   0  0  0  0  0  0  0  0  0
   -0.4262   -4.5753    0.0000 N   0  0  0  0  0  0  0  0  0
   -7.5402   -3.4438    0.0000 C   0  0  0  0  0  0  0  0  0
   -7.7952   -2.6592    0.0000 C   0  0  0  0  0  0  0  0  0
  1  2  1  0  0  0  0
  2  3  4  0  0  0  0
  2 32  4  0  0  0  0
  3  4  4  0  0  0  0
  4  5  4  0  0  0  0
  4  8  4  0  0  0  0
  5  6  4  0  0  0  0
  5 31  4  0  0  0  0
  6  7  4  0  0  0  0
  7  8  4  0  0  0  0
  8  9  1  0  0  0  0
  9 10  1  0  0  0  0
 10 11  1  0  0  0  0
 11 12  1  0  0  0  0
 12 13  1  0  0  0  0
 12 17  1  0  0  0  0
 13 14  1  0  0  0  0
 13 16  1  0  0  0  0
 14 15  1  0  0  0  0
 15 16  1  0  0  0  0
 17 18  1  0  0  0  0
 17 22  1  0  0  0  0
 18 19  1  0  0  0  0
 19 20  4  0  0  0  0
 19 27  4  0  0  0  0
 20 21  1  0  0  0  0
 20 23  4  0  0  0  0
 21 22  1  0  0  0  0
 23 24  1  0  0  0  0
 23 25  4  0  0  0  0
 25 26  4  0  0  0  0
 26 27  4  0  0  0  0
 27 28  1  0  0  0  0
 28 29  2  0  0  0  0
 28 30  1  0  0  0  0
 31 32  4  0  0  0  0
M  STY  1   1 DAT
M  SAL   1  1   6
M  SDT   1 MRV_IMPLICIT_H                                        
M  SDD   1     0.0000    0.0000    DR    ALL  0       0  
M  SED   1 IMPL_H1
M  END
>  <Name_Molregno>
514432

>  <5-HT1A>
8.4

$$$$
514433
  Marvin  02231216192D 0   1.00000     0.00000     0

 32 36  0  0  1  0  0  0  0  0999 V2000
    1.2789    1.8388    0.0000 F   0  0  0  0  0  0  0  0  0
    1.2789    1.0138    0.0000 C   0  0  0  0  0  0  0  0  0
    1.9933    0.6013    0.0000 C   0  0  0  0  0  0  0  0  0
    2.7078    1.0138    0.0000 O   0  0  0  0  0  0  0  0  0
    3.4223    0.6013    0.0000 C   0  0  0  0  0  0  0  0  0
    3.4223   -0.2237    0.0000 C   0  0  0  0  0  0  0  0  0
    4.1367   -0.6362    0.0000 N   0  0  0  0  0  0  0  0  0
    4.1367   -1.4612    0.0000 C   0  0  0  0  0  0  0  0  0
    4.8512   -1.8737    0.0000 C   0  0  0  0  0  0  0  0  0
    4.8512   -2.6987    0.0000 C   0  0  0  0  0  0  0  0  0
    5.5657   -3.1112    0.0000 C   0  0  0  0  0  0  0  0  0
    5.6519   -3.9317    0.0000 C   0  0  0  0  0  0  0  0  0
    6.4589   -4.1032    0.0000 C   0  0  0  0  0  0  0  0  0
    6.8714   -3.3887    0.0000 N   0  0  0  0  0  0  0  0  0
    6.3194   -2.7756    0.0000 C   0  0  0  0  0  0  0  0  0
    6.7138   -4.8878    0.0000 C   0  0  0  0  0  0  0  0  0
    6.1618   -5.5009    0.0000 C   0  0  0  0  0  0  0  0  0
    6.4167   -6.2855    0.0000 F   0  0  0  0  0  0  0  0  0
    5.3548   -5.3294    0.0000 C   0  0  0  0  0  0  0  0  0
    5.0999   -4.5447    0.0000 C   0  0  0  0  0  0  0  0  0
    4.8512   -0.2237    0.0000 C   0  0  0  0  0  0  0  0  0
    5.0647    0.5732    0.0000 C   0  0  0  0  0  0  0  0  0
    5.8616    0.3597    0.0000 C   0  0  0  0  0  0  0  0  0
    5.6481   -0.4372    0.0000 C   0  0  0  0  0  0  0  0  0
    2.7078   -0.6362    0.0000 C   0  0  0  0  0  0  0  0  0
    1.9933   -0.2237    0.0000 C   0  0  0  0  0  0  0  0  0
    1.2789   -0.6362    0.0000 C   0  0  0  0  0  0  0  0  0
    0.5644   -0.2237    0.0000 C   0  0  0  0  0  0  0  0  0
    0.5644    0.6013    0.0000 C   0  0  0  0  0  0  0  0  0
    1.2789   -1.4612    0.0000 C   0  0  0  0  0  0  0  0  0
    0.5644   -1.8737    0.0000 O   0  0  0  0  0  0  0  0  0
    1.9933   -1.8737    0.0000 N   0  0  0  0  0  0  0  0  0
  1  2  1  0  0  0  0
  2  3  4  0  0  0  0
  2 29  4  0  0  0  0
  3  4  1  0  0  0  0
  3 26  4  0  0  0  0
  4  5  1  0  0  0  0
  5  6  1  0  0  0  0
  6  7  1  0  0  0  0
  6 25  1  0  0  0  0
  7  8  1  0  0  0  0
  7 21  1  0  0  0  0
  8  9  1  0  0  0  0
  9 10  1  0  0  0  0
 10 11  1  0  0  0  0
 11 12  4  0  0  0  0
 11 15  4  0  0  0  0
 12 13  4  0  0  0  0
 12 20  4  0  0  0  0
 13 14  4  0  0  0  0
 13 16  4  0  0  0  0
 14 15  4  0  0  0  0
 16 17  4  0  0  0  0
 17 18  1  0  0  0  0
 17 19  4  0  0  0  0
 19 20  4  0  0  0  0
 21 22  1  0  0  0  0
 21 24  1  0  0  0  0
 22 23  1  0  0  0  0
 23 24  1  0  0  0  0
 25 26  1  0  0  0  0
 26 27  4  0  0  0  0
 27 28  4  0  0  0  0
 27 30  1  0  0  0  0
 28 29  4  0  0  0  0
 30 31  2  0  0  0  0
 30 32  1  0  0  0  0
M  STY  1   1 DAT
M  SAL   1  1  14
M  SDT   1 MRV_IMPLICIT_H                                        
M  SDD   1     0.0000    0.0000    DR    ALL  0       0  
M  SED   1 IMPL_H1
M  END
>  <Name_Molregno>
514433

>  <5-HT1A>
8.3

$$$$
514503
  Marvin  02231216192D 0   1.00000     0.00000     0

 33 37  0  0  1  0  0  0  0  0999 V2000
    1.2885    5.1286    0.0000 F   0  0  0  0  0  0  0  0  0
    1.2885    4.3036    0.0000 C   0  0  0  0  0  0  0  0  0
    2.0030    3.8911    0.0000 C   0  0  0  0  0  0  0  0  0
    2.7174    4.3036    0.0000 O   0  0  0  0  0  0  0  0  0
    3.4319    3.8911    0.0000 C   0  0  0  0  0  0  0  0  0
    3.4319    3.0661    0.0000 C   0  0  0  0  0  0  0  0  0
    4.1464    2.6536    0.0000 N   0  0  0  0  0  0  0  0  0
    4.1464    1.8286    0.0000 C   0  0  0  0  0  0  0  0  0
    4.8608    1.4161    0.0000 C   0  0  0  0  0  0  0  0  0
    4.8608    0.5911    0.0000 C   0  0  0  0  0  0  0  0  0
    5.5753    0.1786    0.0000 C   0  0  0  0  0  0  0  0  0
    5.6615   -0.6418    0.0000 C   0  0  0  0  0  0  0  0  0
    6.4685   -0.8134    0.0000 C   0  0  0  0  0  0  0  0  0
    6.8810   -0.0989    0.0000 N   0  0  0  0  0  0  0  0  0
    6.3290    0.5142    0.0000 C   0  0  0  0  0  0  0  0  0
    6.7235   -1.5980    0.0000 C   0  0  0  0  0  0  0  0  0
    7.5304   -1.7695    0.0000 O   0  0  0  0  0  0  0  0  0
    8.0825   -1.1564    0.0000 C   0  0  0  0  0  0  0  0  0
    6.1714   -2.2111    0.0000 C   0  0  0  0  0  0  0  0  0
    5.3644   -2.0396    0.0000 C   0  0  0  0  0  0  0  0  0
    5.1095   -1.2549    0.0000 C   0  0  0  0  0  0  0  0  0
    4.8608    3.0661    0.0000 C   0  0  0  0  0  0  0  0  0
    5.0744    3.8630    0.0000 C   0  0  0  0  0  0  0  0  0
    5.8713    3.6495    0.0000 C   0  0  0  0  0  0  0  0  0
    5.6577    2.8526    0.0000 C   0  0  0  0  0  0  0  0  0
    2.7174    2.6536    0.0000 C   0  0  0  0  0  0  0  0  0
    2.0030    3.0661    0.0000 C   0  0  0  0  0  0  0  0  0
    1.2885    2.6536    0.0000 C   0  0  0  0  0  0  0  0  0
    0.5740    3.0661    0.0000 C   0  0  0  0  0  0  0  0  0
    0.5740    3.8911    0.0000 C   0  0  0  0  0  0  0  0  0
    1.2885    1.8286    0.0000 C   0  0  0  0  0  0  0  0  0
    0.5740    1.4161    0.0000 O   0  0  0  0  0  0  0  0  0
    2.0030    1.4161    0.0000 N   0  0  0  0  0  0  0  0  0
  1  2  1  0  0  0  0
  2  3  4  0  0  0  0
  2 30  4  0  0  0  0
  3  4  1  0  0  0  0
  3 27  4  0  0  0  0
  4  5  1  0  0  0  0
  5  6  1  0  0  0  0
  6  7  1  0  0  0  0
  6 26  1  0  0  0  0
  7  8  1  0  0  0  0
  7 22  1  0  0  0  0
  8  9  1  0  0  0  0
  9 10  1  0  0  0  0
 10 11  1  0  0  0  0
 11 12  4  0  0  0  0
 11 15  4  0  0  0  0
 12 13  4  0  0  0  0
 12 21  4  0  0  0  0
 13 14  4  0  0  0  0
 13 16  4  0  0  0  0
 14 15  4  0  0  0  0
 16 17  1  0  0  0  0
 16 19  4  0  0  0  0
 17 18  1  0  0  0  0
 19 20  4  0  0  0  0
 20 21  4  0  0  0  0
 22 23  1  0  0  0  0
 22 25  1  0  0  0  0
 23 24  1  0  0  0  0
 24 25  1  0  0  0  0
 26 27  1  0  0  0  0
 27 28  4  0  0  0  0
 28 29  4  0  0  0  0
 28 31  1  0  0  0  0
 29 30  4  0  0  0  0
 31 32  2  0  0  0  0
 31 33  1  0  0  0  0
M  STY  1   1 DAT
M  SAL   1  1  14
M  SDT   1 MRV_IMPLICIT_H                                        
M  SDD   1     0.0000    0.0000    DR    ALL  0       0  
M  SED   1 IMPL_H1
M  END
>  <Name_Molregno>
514503

>  <5-HT1A>
8.49

$$$$
514504
  Marvin  02231216192D 0   1.00000     0.00000     0

 32 36  0  0  1  0  0  0  0  0999 V2000
    0.2384   -1.6283    0.0000 Cl  0  0  0  0  0  0  0  0  0
    1.0454   -1.4568    0.0000 C   0  0  0  0  0  0  0  0  0
    1.3003   -0.6722    0.0000 C   0  0  0  0  0  0  0  0  0
    0.8878    0.0423    0.0000 N   0  0  0  0  0  0  0  0  0
    1.4399    0.6554    0.0000 C   0  0  0  0  0  0  0  0  0
    2.1935    0.3198    0.0000 C   0  0  0  0  0  0  0  0  0
    2.1073   -0.5007    0.0000 C   0  0  0  0  0  0  0  0  0
    2.6593   -1.1138    0.0000 C   0  0  0  0  0  0  0  0  0
    2.4044   -1.8984    0.0000 C   0  0  0  0  0  0  0  0  0
    1.5974   -2.0699    0.0000 C   0  0  0  0  0  0  0  0  0
    2.9080    0.7323    0.0000 C   0  0  0  0  0  0  0  0  0
    3.6225    0.3198    0.0000 C   0  0  0  0  0  0  0  0  0
    4.3370    0.7323    0.0000 C   0  0  0  0  0  0  0  0  0
    5.0514    0.3198    0.0000 N   0  0  0  0  0  0  0  0  0
    5.0514   -0.5052    0.0000 C   0  0  0  0  0  0  0  0  0
    5.6348   -1.0886    0.0000 C   0  0  0  0  0  0  0  0  0
    5.0514   -1.6719    0.0000 C   0  0  0  0  0  0  0  0  0
    4.4681   -1.0886    0.0000 C   0  0  0  0  0  0  0  0  0
    5.7659    0.7323    0.0000 C   0  0  0  0  0  0  0  0  0
    6.4804    0.3198    0.0000 C   0  0  0  0  0  0  0  0  0
    7.1948    0.7323    0.0000 C   0  0  0  0  0  0  0  0  0
    7.1948    1.5573    0.0000 C   0  0  0  0  0  0  0  0  0
    6.4804    1.9698    0.0000 O   0  0  0  0  0  0  0  0  0
    5.7659    1.5573    0.0000 C   0  0  0  0  0  0  0  0  0
    7.9093    1.9698    0.0000 C   0  0  0  0  0  0  0  0  0
    7.9093    2.7948    0.0000 F   0  0  0  0  0  0  0  0  0
    8.6238    1.5573    0.0000 C   0  0  0  0  0  0  0  0  0
    8.6238    0.7323    0.0000 C   0  0  0  0  0  0  0  0  0
    7.9093    0.3198    0.0000 C   0  0  0  0  0  0  0  0  0
    7.9093   -0.5052    0.0000 C   0  0  0  0  0  0  0  0  0
    8.6238   -0.9177    0.0000 O   0  0  0  0  0  0  0  0  0
    7.1948   -0.9177    0.0000 N   0  0  0  0  0  0  0  0  0
  1  2  1  0  0  0  0
  2  3  4  0  0  0  0
  2 10  4  0  0  0  0
  3  4  4  0  0  0  0
  3  7  4  0  0  0  0
  4  5  4  0  0  0  0
  5  6  4  0  0  0  0
  6  7  4  0  0  0  0
  6 11  1  0  0  0  0
  7  8  4  0  0  0  0
  8  9  4  0  0  0  0
  9 10  4  0  0  0  0
 11 12  1  0  0  0  0
 12 13  1  0  0  0  0
 13 14  1  0  0  0  0
 14 15  1  0  0  0  0
 14 19  1  0  0  0  0
 15 16  1  0  0  0  0
 15 18  1  0  0  0  0
 16 17  1  0  0  0  0
 17 18  1  0  0  0  0
 19 20  1  0  0  0  0
 19 24  1  0  0  0  0
 20 21  1  0  0  0  0
 21 22  4  0  0  0  0
 21 29  4  0  0  0  0
 22 23  1  0  0  0  0
 22 25  4  0  0  0  0
 23 24  1  0  0  0  0
 25 26  1  0  0  0  0
 25 27  4  0  0  0  0
 27 28  4  0  0  0  0
 28 29  4  0  0  0  0
 29 30  1  0  0  0  0
 30 31  2  0  0  0  0
 30 32  1  0  0  0  0
M  STY  1   1 DAT
M  SAL   1  1   4
M  SDT   1 MRV_IMPLICIT_H                                        
M  SDD   1     0.0000    0.0000    DR    ALL  0       0  
M  SED   1 IMPL_H1
M  END
>  <Name_Molregno>
514504

>  <5-HT1A>
7.58

$$$$
514505
  Marvin  02231216192D 0   1.00000     0.00000     0

 33 37  0  0  1  0  0  0  0  0999 V2000
   -0.2250   -0.9601    0.0000 F   0  0  0  0  0  0  0  0  0
    0.3270   -0.3470    0.0000 C   0  0  0  0  0  0  0  0  0
    0.0721    0.4376    0.0000 C   0  0  0  0  0  0  0  0  0
    0.6241    1.0507    0.0000 C   0  0  0  0  0  0  0  0  0
    0.3692    1.8353    0.0000 F   0  0  0  0  0  0  0  0  0
    1.4311    0.8791    0.0000 C   0  0  0  0  0  0  0  0  0
    1.6860    0.0945    0.0000 C   0  0  0  0  0  0  0  0  0
    1.1340   -0.5186    0.0000 C   0  0  0  0  0  0  0  0  0
    1.5465   -1.2330    0.0000 N   0  0  0  0  0  0  0  0  0
    2.3535   -1.0615    0.0000 C   0  0  0  0  0  0  0  0  0
    2.4397   -0.2410    0.0000 C   0  0  0  0  0  0  0  0  0
    3.1542    0.1715    0.0000 C   0  0  0  0  0  0  0  0  0
    3.8686   -0.2410    0.0000 C   0  0  0  0  0  0  0  0  0
    4.5831    0.1715    0.0000 C   0  0  0  0  0  0  0  0  0
    5.2976   -0.2410    0.0000 N   0  0  0  0  0  0  0  0  0
    5.2976   -1.0660    0.0000 C   0  0  0  0  0  0  0  0  0
    5.8809   -1.6494    0.0000 C   0  0  0  0  0  0  0  0  0
    5.2976   -2.2328    0.0000 C   0  0  0  0  0  0  0  0  0
    4.7142   -1.6494    0.0000 C   0  0  0  0  0  0  0  0  0
    6.0120    0.1715    0.0000 C   0  0  0  0  0  0  0  0  0
    6.7265   -0.2410    0.0000 C   0  0  0  0  0  0  0  0  0
    7.4410    0.1715    0.0000 C   0  0  0  0  0  0  0  0  0
    7.4410    0.9965    0.0000 C   0  0  0  0  0  0  0  0  0
    6.7265    1.4090    0.0000 O   0  0  0  0  0  0  0  0  0
    6.0120    0.9965    0.0000 C   0  0  0  0  0  0  0  0  0
    8.1555    1.4090    0.0000 C   0  0  0  0  0  0  0  0  0
    8.1555    2.2340    0.0000 F   0  0  0  0  0  0  0  0  0
    8.8699    0.9965    0.0000 C   0  0  0  0  0  0  0  0  0
    8.8699    0.1715    0.0000 C   0  0  0  0  0  0  0  0  0
    8.1555   -0.2410    0.0000 C   0  0  0  0  0  0  0  0  0
    8.1555   -1.0660    0.0000 C   0  0  0  0  0  0  0  0  0
    8.8699   -1.4785    0.0000 O   0  0  0  0  0  0  0  0  0
    7.4410   -1.4785    0.0000 N   0  0  0  0  0  0  0  0  0
  1  2  1  0  0  0  0
  2  3  4  0  0  0  0
  2  8  4  0  0  0  0
  3  4  4  0  0  0  0
  4  5  1  0  0  0  0
  4  6  4  0  0  0  0
  6  7  4  0  0  0  0
  7  8  4  0  0  0  0
  7 11  4  0  0  0  0
  8  9  4  0  0  0  0
  9 10  4  0  0  0  0
 10 11  4  0  0  0  0
 11 12  1  0  0  0  0
 12 13  1  0  0  0  0
 13 14  1  0  0  0  0
 14 15  1  0  0  0  0
 15 16  1  0  0  0  0
 15 20  1  0  0  0  0
 16 17  1  0  0  0  0
 16 19  1  0  0  0  0
 17 18  1  0  0  0  0
 18 19  1  0  0  0  0
 20 21  1  0  0  0  0
 20 25  1  0  0  0  0
 21 22  1  0  0  0  0
 22 23  4  0  0  0  0
 22 30  4  0  0  0  0
 23 24  1  0  0  0  0
 23 26  4  0  0  0  0
 24 25  1  0  0  0  0
 26 27  1  0  0  0  0
 26 28  4  0  0  0  0
 28 29  4  0  0  0  0
 29 30  4  0  0  0  0
 30 31  1  0  0  0  0
 31 32  2  0  0  0  0
 31 33  1  0  0  0  0
M  STY  1   1 DAT
M  SAL   1  1   9
M  SDT   1 MRV_IMPLICIT_H                                        
M  SDD   1     0.0000    0.0000    DR    ALL  0       0  
M  SED   1 IMPL_H1
M  END
>  <Name_Molregno>
514505

>  <5-HT1A>
7.96

$$$$
514509
  Marvin  02231216192D 0   1.00000     0.00000     0

 19 21  0  0  1  0  0  0  0  0999 V2000
   -2.0695   -2.0649    0.0000 O   0  0  0  0  0  0  0  0  0
   -1.3550   -1.6524    0.0000 C   0  0  0  0  0  0  0  0  0
   -0.6406   -2.0649    0.0000 C   0  0  0  0  0  0  0  0  0
    0.0739   -1.6524    0.0000 C   0  0  0  0  0  0  0  0  0
    0.0739   -0.8274    0.0000 C   0  0  0  0  0  0  0  0  0
   -0.6406   -0.4149    0.0000 C   0  0  0  0  0  0  0  0  0
   -1.3550   -0.8274    0.0000 C   0  0  0  0  0  0  0  0  0
   -2.0695   -0.4149    0.0000 O   0  0  0  0  0  0  0  0  0
    0.7189   -0.3131    0.0000 C   0  0  0  0  0  0  0  0  0
    1.5232   -0.4966    0.0000 C   0  0  0  0  0  0  0  0  0
    1.8812   -1.2399    0.0000 N   0  0  0  0  0  0  0  0  0
    1.5232   -1.9832    0.0000 C   0  0  0  0  0  0  0  0  0
    0.7189   -2.1668    0.0000 C   0  0  0  0  0  0  0  0  0
    0.5353   -2.9711    0.0000 C   0  0  0  0  0  0  0  0  0
    1.1401   -3.5323    0.0000 C   0  0  0  0  0  0  0  0  0
    0.9565   -4.3366    0.0000 C   0  0  0  0  0  0  0  0  0
    0.1682   -4.5798    0.0000 C   0  0  0  0  0  0  0  0  0
   -0.4366   -4.0186    0.0000 C   0  0  0  0  0  0  0  0  0
   -0.2530   -3.2143    0.0000 C   0  0  0  0  0  0  0  0  0
  1  2  1  0  0  0  0
  2  3  4  0  0  0  0
  2  7  4  0  0  0  0
  3  4  4  0  0  0  0
  4  5  4  0  0  0  0
  4 13  1  0  0  0  0
  5  6  4  0  0  0  0
  5  9  1  0  0  0  0
  6  7  4  0  0  0  0
  7  8  1  0  0  0  0
  9 10  1  0  0  0  0
 10 11  1  0  0  0  0
 11 12  1  0  0  0  0
 12 13  1  0  0  0  0
 13 14  1  0  0  0  0
 14 15  4  0  0  0  0
 14 19  4  0  0  0  0
 15 16  4  0  0  0  0
 16 17  4  0  0  0  0
 17 18  4  0  0  0  0
 18 19  4  0  0  0  0
M  END
>  <Name_Molregno>
514509

>  <5-HT1A>
5.51

>  <DOPAMINE D1>
6.88

>  <DOPAMINE D2>
5.11

>  <DOPAMINE D3>
5

>  <DOPAMINE D5>
7

>  <HISTAMINE H1>
5.6

$$$$
514572
  Marvin  02231216192D 0   1.00000     0.00000     0

 32 35  0  0  1  0  0  0  0  0999 V2000
   -0.2347   -1.9533    0.0000 F   0  0  0  0  0  0  0  0  0
    0.4876   -2.3519    0.0000 C   0  0  0  0  0  0  0  0  0
    1.1940   -1.9257    0.0000 C   0  0  0  0  0  0  0  0  0
    1.9163   -2.3243    0.0000 C   0  0  0  0  0  0  0  0  0
    2.5186   -1.7606    0.0000 N   0  0  0  0  0  0  0  0  0
    2.1686   -1.0135    0.0000 C   0  0  0  0  0  0  0  0  0
    1.3499   -1.1156    0.0000 C   0  0  0  0  0  0  0  0  0
    3.3288   -1.9165    0.0000 C   0  0  0  0  0  0  0  0  0
    3.8689   -1.2928    0.0000 C   0  0  0  0  0  0  0  0  0
    4.6790   -1.4487    0.0000 C   0  0  0  0  0  0  0  0  0
    5.2191   -0.8251    0.0000 C   0  0  0  0  0  0  0  0  0
    6.0292   -0.9810    0.0000 N   0  0  0  0  0  0  0  0  0
    6.2993   -1.7606    0.0000 C   0  0  0  0  0  0  0  0  0
    7.1094   -1.9165    0.0000 C   0  0  0  0  0  0  0  0  0
    7.3794   -2.6960    0.0000 C   0  0  0  0  0  0  0  0  0
    6.5693   -0.3574    0.0000 C   0  0  0  0  0  0  0  0  0
    7.3794   -0.5133    0.0000 C   0  0  0  0  0  0  0  0  0
    7.9195    0.1104    0.0000 C   0  0  0  0  0  0  0  0  0
    7.6495    0.8899    0.0000 C   0  0  0  0  0  0  0  0  0
    6.8394    1.0458    0.0000 O   0  0  0  0  0  0  0  0  0
    6.2993    0.4222    0.0000 C   0  0  0  0  0  0  0  0  0
    8.1896    1.5136    0.0000 C   0  0  0  0  0  0  0  0  0
    7.9195    2.2931    0.0000 F   0  0  0  0  0  0  0  0  0
    8.9997    1.3576    0.0000 C   0  0  0  0  0  0  0  0  0
    9.2698    0.5781    0.0000 C   0  0  0  0  0  0  0  0  0
    8.7297   -0.0455    0.0000 C   0  0  0  0  0  0  0  0  0
    8.9997   -0.8251    0.0000 C   0  0  0  0  0  0  0  0  0
    9.8098   -0.9810    0.0000 O   0  0  0  0  0  0  0  0  0
    8.4596   -1.4487    0.0000 N   0  0  0  0  0  0  0  0  0
    1.9322   -3.1492    0.0000 C   0  0  0  0  0  0  0  0  0
    1.2259   -3.5754    0.0000 C   0  0  0  0  0  0  0  0  0
    0.5036   -3.1768    0.0000 C   0  0  0  0  0  0  0  0  0
  1  2  1  0  0  0  0
  2  3  4  0  0  0  0
  2 32  4  0  0  0  0
  3  4  4  0  0  0  0
  3  7  4  0  0  0  0
  4  5  4  0  0  0  0
  4 30  4  0  0  0  0
  5  6  4  0  0  0  0
  5  8  1  0  0  0  0
  6  7  4  0  0  0  0
  8  9  1  0  0  0  0
  9 10  1  0  0  0  0
 10 11  1  0  0  0  0
 11 12  1  0  0  0  0
 12 13  1  0  0  0  0
 12 16  1  0  0  0  0
 13 14  1  0  0  0  0
 14 15  1  0  0  0  0
 16 17  1  0  0  0  0
 16 21  1  0  0  0  0
 17 18  1  0  0  0  0
 18 19  4  0  0  0  0
 18 26  4  0  0  0  0
 19 20  1  0  0  0  0
 19 22  4  0  0  0  0
 20 21  1  0  0  0  0
 22 23  1  0  0  0  0
 22 24  4  0  0  0  0
 24 25  4  0  0  0  0
 25 26  4  0  0  0  0
 26 27  1  0  0  0  0
 27 28  2  0  0  0  0
 27 29  1  0  0  0  0
 30 31  4  0  0  0  0
 31 32  4  0  0  0  0
M  END
>  <Name_Molregno>
514572

>  <5-HT1A>
7.85

$$$$
514573
  Marvin  02231216192D 0   1.00000     0.00000     0

 32 35  0  0  1  0  0  0  0  0999 V2000
   -2.1701   -3.9648    0.0000 F   0  0  0  0  0  0  0  0  0
   -1.7576   -3.2503    0.0000 C   0  0  0  0  0  0  0  0  0
   -2.1701   -2.5358    0.0000 C   0  0  0  0  0  0  0  0  0
   -2.9951   -2.5358    0.0000 O   0  0  0  0  0  0  0  0  0
   -3.4076   -1.8214    0.0000 C   0  0  0  0  0  0  0  0  0
   -2.9951   -1.1069    0.0000 C   0  0  0  0  0  0  0  0  0
   -3.4076   -0.3924    0.0000 N   0  0  0  0  0  0  0  0  0
   -4.2326   -0.3924    0.0000 C   0  0  0  0  0  0  0  0  0
   -4.6451    0.3220    0.0000 C   0  0  0  0  0  0  0  0  0
   -5.4701    0.3220    0.0000 C   0  0  0  0  0  0  0  0  0
   -5.8826    1.0365    0.0000 C   0  0  0  0  0  0  0  0  0
   -6.7076    1.0365    0.0000 N   0  0  0  0  0  0  0  0  0
   -7.1925    1.7040    0.0000 C   0  0  0  0  0  0  0  0  0
   -7.9772    1.4490    0.0000 C   0  0  0  0  0  0  0  0  0
   -8.5902    2.0010    0.0000 C   0  0  0  0  0  0  0  0  0
   -8.4187    2.8080    0.0000 C   0  0  0  0  0  0  0  0  0
   -9.0318    3.3600    0.0000 F   0  0  0  0  0  0  0  0  0
   -7.6341    3.0630    0.0000 C   0  0  0  0  0  0  0  0  0
   -7.0210    2.5109    0.0000 C   0  0  0  0  0  0  0  0  0
   -7.9772    0.6240    0.0000 C   0  0  0  0  0  0  0  0  0
   -7.1925    0.3691    0.0000 C   0  0  0  0  0  0  0  0  0
   -2.9951    0.3220    0.0000 C   0  0  0  0  0  0  0  0  0
   -3.4076    1.0365    0.0000 C   0  0  0  0  0  0  0  0  0
   -2.9951    1.7510    0.0000 C   0  0  0  0  0  0  0  0  0
   -2.1701   -1.1069    0.0000 C   0  0  0  0  0  0  0  0  0
   -1.7576   -1.8214    0.0000 C   0  0  0  0  0  0  0  0  0
   -0.9326   -1.8214    0.0000 C   0  0  0  0  0  0  0  0  0
   -0.5201   -2.5358    0.0000 C   0  0  0  0  0  0  0  0  0
   -0.9326   -3.2503    0.0000 C   0  0  0  0  0  0  0  0  0
   -0.5201   -1.1069    0.0000 C   0  0  0  0  0  0  0  0  0
    0.3049   -1.1069    0.0000 O   0  0  0  0  0  0  0  0  0
   -0.9326   -0.3924    0.0000 N   0  0  0  0  0  0  0  0  0
  1  2  1  0  0  0  0
  2  3  4  0  0  0  0
  2 29  4  0  0  0  0
  3  4  1  0  0  0  0
  3 26  4  0  0  0  0
  4  5  1  0  0  0  0
  5  6  1  0  0  0  0
  6  7  1  0  0  0  0
  6 25  1  0  0  0  0
  7  8  1  0  0  0  0
  7 22  1  0  0  0  0
  8  9  1  0  0  0  0
  9 10  1  0  0  0  0
 10 11  1  0  0  0  0
 11 12  1  0  0  0  0
 12 13  4  0  0  0  0
 12 21  4  0  0  0  0
 13 14  4  0  0  0  0
 13 19  4  0  0  0  0
 14 15  4  0  0  0  0
 14 20  4  0  0  0  0
 15 16  4  0  0  0  0
 16 17  1  0  0  0  0
 16 18  4  0  0  0  0
 18 19  4  0  0  0  0
 20 21  4  0  0  0  0
 22 23  1  0  0  0  0
 23 24  1  0  0  0  0
 25 26  1  0  0  0  0
 26 27  4  0  0  0  0
 27 28  4  0  0  0  0
 27 30  1  0  0  0  0
 28 29  4  0  0  0  0
 30 31  2  0  0  0  0
 30 32  1  0  0  0  0
M  END
>  <Name_Molregno>
514573

>  <5-HT1A>
8.18

$$$$
514574
  Marvin  02231216192D 0   1.00000     0.00000     0

 32 35  0  0  1  0  0  0  0  0999 V2000
   -0.0559    1.7919    0.0000 F   0  0  0  0  0  0  0  0  0
   -0.8660    1.9478    0.0000 C   0  0  0  0  0  0  0  0  0
   -1.4061    1.3242    0.0000 C   0  0  0  0  0  0  0  0  0
   -1.1361    0.5446    0.0000 O   0  0  0  0  0  0  0  0  0
   -1.6762   -0.0790    0.0000 C   0  0  0  0  0  0  0  0  0
   -2.4863    0.0769    0.0000 C   0  0  0  0  0  0  0  0  0
   -3.0264   -0.5467    0.0000 N   0  0  0  0  0  0  0  0  0
   -3.8365   -0.3908    0.0000 C   0  0  0  0  0  0  0  0  0
   -4.3766   -1.0145    0.0000 C   0  0  0  0  0  0  0  0  0
   -5.1868   -0.8586    0.0000 C   0  0  0  0  0  0  0  0  0
   -5.7269   -1.4822    0.0000 C   0  0  0  0  0  0  0  0  0
   -6.5370   -1.3263    0.0000 N   0  0  0  0  0  0  0  0  0
   -7.1393   -1.8901    0.0000 C   0  0  0  0  0  0  0  0  0
   -7.1234   -2.7149    0.0000 C   0  0  0  0  0  0  0  0  0
   -7.8297   -3.1411    0.0000 C   0  0  0  0  0  0  0  0  0
   -7.8138   -3.9660    0.0000 F   0  0  0  0  0  0  0  0  0
   -8.5520   -2.7425    0.0000 C   0  0  0  0  0  0  0  0  0
   -8.5680   -1.9177    0.0000 C   0  0  0  0  0  0  0  0  0
   -7.8616   -1.4914    0.0000 C   0  0  0  0  0  0  0  0  0
   -7.7057   -0.6813    0.0000 C   0  0  0  0  0  0  0  0  0
   -6.8870   -0.5792    0.0000 C   0  0  0  0  0  0  0  0  0
   -2.7564   -1.3263    0.0000 C   0  0  0  0  0  0  0  0  0
   -1.9462   -1.4822    0.0000 C   0  0  0  0  0  0  0  0  0
   -1.6762   -2.2618    0.0000 C   0  0  0  0  0  0  0  0  0
   -2.7564    0.8564    0.0000 C   0  0  0  0  0  0  0  0  0
   -2.2163    1.4801    0.0000 C   0  0  0  0  0  0  0  0  0
   -2.4863    2.2596    0.0000 C   0  0  0  0  0  0  0  0  0
   -1.9462    2.8833    0.0000 C   0  0  0  0  0  0  0  0  0
   -1.1361    2.7274    0.0000 C   0  0  0  0  0  0  0  0  0
   -3.2964    2.4156    0.0000 C   0  0  0  0  0  0  0  0  0
   -3.5665    3.1951    0.0000 O   0  0  0  0  0  0  0  0  0
   -3.8365    1.7919    0.0000 N   0  0  0  0  0  0  0  0  0
  1  2  1  0  0  0  0
  2  3  4  0  0  0  0
  2 29  4  0  0  0  0
  3  4  1  0  0  0  0
  3 26  4  0  0  0  0
  4  5  1  0  0  0  0
  5  6  1  0  0  0  0
  6  7  1  0  0  0  0
  6 25  1  0  0  0  0
  7  8  1  0  0  0  0
  7 22  1  0  0  0  0
  8  9  1  0  0  0  0
  9 10  1  0  0  0  0
 10 11  1  0  0  0  0
 11 12  1  0  0  0  0
 12 13  4  0  0  0  0
 12 21  4  0  0  0  0
 13 14  4  0  0  0  0
 13 19  4  0  0  0  0
 14 15  4  0  0  0  0
 15 16  1  0  0  0  0
 15 17  4  0  0  0  0
 17 18  4  0  0  0  0
 18 19  4  0  0  0  0
 19 20  4  0  0  0  0
 20 21  4  0  0  0  0
 22 23  1  0  0  0  0
 23 24  1  0  0  0  0
 25 26  1  0  0  0  0
 26 27  4  0  0  0  0
 27 28  4  0  0  0  0
 27 30  1  0  0  0  0
 28 29  4  0  0  0  0
 30 31  2  0  0  0  0
 30 32  1  0  0  0  0
M  END
>  <Name_Molregno>
514574

>  <5-HT1A>
7.97

$$$$
514575
  Marvin  02231216192D 0   1.00000     0.00000     0

 32 35  0  0  1  0  0  0  0  0999 V2000
    0.4648   -1.9836    0.0000 F   0  0  0  0  0  0  0  0  0
   -0.3539   -2.0856    0.0000 C   0  0  0  0  0  0  0  0  0
   -0.6748   -2.8456    0.0000 C   0  0  0  0  0  0  0  0  0
   -0.3247   -3.5927    0.0000 N   0  0  0  0  0  0  0  0  0
   -0.9271   -4.1565    0.0000 C   0  0  0  0  0  0  0  0  0
   -1.6494   -3.7578    0.0000 C   0  0  0  0  0  0  0  0  0
   -1.4935   -2.9477    0.0000 C   0  0  0  0  0  0  0  0  0
   -1.9912   -2.2898    0.0000 C   0  0  0  0  0  0  0  0  0
   -1.6702   -1.5297    0.0000 C   0  0  0  0  0  0  0  0  0
   -0.8516   -1.4277    0.0000 C   0  0  0  0  0  0  0  0  0
    0.4854   -3.7486    0.0000 C   0  0  0  0  0  0  0  0  0
    1.0255   -3.1250    0.0000 C   0  0  0  0  0  0  0  0  0
    1.8356   -3.2809    0.0000 C   0  0  0  0  0  0  0  0  0
    2.3757   -2.6572    0.0000 C   0  0  0  0  0  0  0  0  0
    3.1858   -2.8131    0.0000 N   0  0  0  0  0  0  0  0  0
    3.4559   -3.5927    0.0000 C   0  0  0  0  0  0  0  0  0
    4.2660   -3.7486    0.0000 C   0  0  0  0  0  0  0  0  0
    4.5361   -4.5282    0.0000 C   0  0  0  0  0  0  0  0  0
    3.7259   -2.1895    0.0000 C   0  0  0  0  0  0  0  0  0
    4.5361   -2.3454    0.0000 C   0  0  0  0  0  0  0  0  0
    5.0761   -1.7218    0.0000 C   0  0  0  0  0  0  0  0  0
    4.8061   -0.9422    0.0000 C   0  0  0  0  0  0  0  0  0
    3.9960   -0.7863    0.0000 O   0  0  0  0  0  0  0  0  0
    3.4559   -1.4099    0.0000 C   0  0  0  0  0  0  0  0  0
    5.3462   -0.3186    0.0000 C   0  0  0  0  0  0  0  0  0
    5.0761    0.4610    0.0000 F   0  0  0  0  0  0  0  0  0
    6.1563   -0.4745    0.0000 C   0  0  0  0  0  0  0  0  0
    6.4264   -1.2540    0.0000 C   0  0  0  0  0  0  0  0  0
    5.8863   -1.8777    0.0000 C   0  0  0  0  0  0  0  0  0
    6.1563   -2.6572    0.0000 C   0  0  0  0  0  0  0  0  0
    6.9665   -2.8131    0.0000 O   0  0  0  0  0  0  0  0  0
    5.6162   -3.2809    0.0000 N   0  0  0  0  0  0  0  0  0
  1  2  1  0  0  0  0
  2  3  4  0  0  0  0
  2 10  4  0  0  0  0
  3  4  4  0  0  0  0
  3  7  4  0  0  0  0
  4  5  4  0  0  0  0
  4 11  1  0  0  0  0
  5  6  4  0  0  0  0
  6  7  4  0  0  0  0
  7  8  4  0  0  0  0
  8  9  4  0  0  0  0
  9 10  4  0  0  0  0
 11 12  1  0  0  0  0
 12 13  1  0  0  0  0
 13 14  1  0  0  0  0
 14 15  1  0  0  0  0
 15 16  1  0  0  0  0
 15 19  1  0  0  0  0
 16 17  1  0  0  0  0
 17 18  1  0  0  0  0
 19 20  1  0  0  0  0
 19 24  1  0  0  0  0
 20 21  1  0  0  0  0
 21 22  4  0  0  0  0
 21 29  4  0  0  0  0
 22 23  1  0  0  0  0
 22 25  4  0  0  0  0
 23 24  1  0  0  0  0
 25 26  1  0  0  0  0
 25 27  4  0  0  0  0
 27 28  4  0  0  0  0
 28 29  4  0  0  0  0
 29 30  1  0  0  0  0
 30 31  2  0  0  0  0
 30 32  1  0  0  0  0
M  END
>  <Name_Molregno>
514575

>  <5-HT1A>
7.78

$$$$
514658
  Marvin  02231216192D 0   1.00000     0.00000     0

 33 37  0  0  1  0  0  0  0  0999 V2000
   -0.0612   -2.0936    0.0000 F   0  0  0  0  0  0  0  0  0
    0.7235   -2.3486    0.0000 C   0  0  0  0  0  0  0  0  0
    1.3365   -1.7965    0.0000 C   0  0  0  0  0  0  0  0  0
    2.1212   -2.0515    0.0000 C   0  0  0  0  0  0  0  0  0
    2.6061   -1.3840    0.0000 N   0  0  0  0  0  0  0  0  0
    2.1212   -0.7166    0.0000 C   0  0  0  0  0  0  0  0  0
    1.3365   -0.9715    0.0000 C   0  0  0  0  0  0  0  0  0
    3.4311   -1.3840    0.0000 C   0  0  0  0  0  0  0  0  0
    3.8436   -0.6696    0.0000 C   0  0  0  0  0  0  0  0  0
    4.6686   -0.6696    0.0000 C   0  0  0  0  0  0  0  0  0
    5.0811    0.0449    0.0000 C   0  0  0  0  0  0  0  0  0
    5.9061    0.0449    0.0000 N   0  0  0  0  0  0  0  0  0
    6.3186   -0.6696    0.0000 C   0  0  0  0  0  0  0  0  0
    5.9061   -1.3840    0.0000 C   0  0  0  0  0  0  0  0  0
    5.9061   -2.2090    0.0000 C   0  0  0  0  0  0  0  0  0
    5.1916   -1.7965    0.0000 C   0  0  0  0  0  0  0  0  0
    6.3186    0.7594    0.0000 C   0  0  0  0  0  0  0  0  0
    7.1436    0.7594    0.0000 C   0  0  0  0  0  0  0  0  0
    7.5561    1.4738    0.0000 C   0  0  0  0  0  0  0  0  0
    7.1436    2.1883    0.0000 C   0  0  0  0  0  0  0  0  0
    6.3186    2.1883    0.0000 O   0  0  0  0  0  0  0  0  0
    5.9061    1.4738    0.0000 C   0  0  0  0  0  0  0  0  0
    7.5561    2.9028    0.0000 C   0  0  0  0  0  0  0  0  0
    7.1436    3.6173    0.0000 F   0  0  0  0  0  0  0  0  0
    8.3811    2.9028    0.0000 C   0  0  0  0  0  0  0  0  0
    8.7936    2.1883    0.0000 C   0  0  0  0  0  0  0  0  0
    8.3811    1.4738    0.0000 C   0  0  0  0  0  0  0  0  0
    8.7936    0.7594    0.0000 C   0  0  0  0  0  0  0  0  0
    9.6186    0.7594    0.0000 O   0  0  0  0  0  0  0  0  0
    8.3811    0.0449    0.0000 N   0  0  0  0  0  0  0  0  0
    2.2927   -2.8584    0.0000 C   0  0  0  0  0  0  0  0  0
    1.6796   -3.4105    0.0000 C   0  0  0  0  0  0  0  0  0
    0.8950   -3.1555    0.0000 C   0  0  0  0  0  0  0  0  0
  1  2  1  0  0  0  0
  2  3  4  0  0  0  0
  2 33  4  0  0  0  0
  3  4  4  0  0  0  0
  3  7  4  0  0  0  0
  4  5  4  0  0  0  0
  4 31  4  0  0  0  0
  5  6  4  0  0  0  0
  5  8  1  0  0  0  0
  6  7  4  0  0  0  0
  8  9  1  0  0  0  0
  9 10  1  0  0  0  0
 10 11  1  0  0  0  0
 11 12  1  0  0  0  0
 12 13  1  0  0  0  0
 12 17  1  0  0  0  0
 13 14  1  0  0  0  0
 14 15  1  0  0  0  0
 14 16  1  0  0  0  0
 15 16  1  0  0  0  0
 17 18  1  0  0  0  0
 17 22  1  0  0  0  0
 18 19  1  0  0  0  0
 19 20  4  0  0  0  0
 19 27  4  0  0  0  0
 20 21  1  0  0  0  0
 20 23  4  0  0  0  0
 21 22  1  0  0  0  0
 23 24  1  0  0  0  0
 23 25  4  0  0  0  0
 25 26  4  0  0  0  0
 26 27  4  0  0  0  0
 27 28  1  0  0  0  0
 28 29  2  0  0  0  0
 28 30  1  0  0  0  0
 31 32  4  0  0  0  0
 32 33  4  0  0  0  0
M  END
>  <Name_Molregno>
514658

>  <5-HT1A>
8.02

$$$$
514659
  Marvin  02231216192D 0   1.00000     0.00000     0

 33 37  0  0  1  0  0  0  0  0999 V2000
   -1.4817    0.1090    0.0000 F   0  0  0  0  0  0  0  0  0
   -1.4817   -0.7160    0.0000 C   0  0  0  0  0  0  0  0  0
   -0.7673   -1.1285    0.0000 C   0  0  0  0  0  0  0  0  0
   -0.0528   -0.7160    0.0000 O   0  0  0  0  0  0  0  0  0
    0.6617   -1.1285    0.0000 C   0  0  0  0  0  0  0  0  0
    0.6617   -1.9535    0.0000 C   0  0  0  0  0  0  0  0  0
    1.3762   -2.3660    0.0000 N   0  0  0  0  0  0  0  0  0
    1.3762   -3.1910    0.0000 C   0  0  0  0  0  0  0  0  0
    0.6617   -3.6035    0.0000 C   0  0  0  0  0  0  0  0  0
    0.2492   -4.3180    0.0000 C   0  0  0  0  0  0  0  0  0
   -0.1633   -3.6035    0.0000 C   0  0  0  0  0  0  0  0  0
    2.0906   -1.9535    0.0000 C   0  0  0  0  0  0  0  0  0
    2.8051   -2.3660    0.0000 C   0  0  0  0  0  0  0  0  0
    3.5196   -1.9535    0.0000 C   0  0  0  0  0  0  0  0  0
    4.2340   -2.3660    0.0000 C   0  0  0  0  0  0  0  0  0
    4.9485   -1.9535    0.0000 N   0  0  0  0  0  0  0  0  0
    5.7022   -2.2890    0.0000 C   0  0  0  0  0  0  0  0  0
    6.2542   -1.6759    0.0000 C   0  0  0  0  0  0  0  0  0
    7.0612   -1.8475    0.0000 C   0  0  0  0  0  0  0  0  0
    7.3161   -2.6321    0.0000 C   0  0  0  0  0  0  0  0  0
    8.1231   -2.8036    0.0000 F   0  0  0  0  0  0  0  0  0
    6.7641   -3.2452    0.0000 C   0  0  0  0  0  0  0  0  0
    5.9571   -3.0737    0.0000 C   0  0  0  0  0  0  0  0  0
    5.8417   -0.9615    0.0000 C   0  0  0  0  0  0  0  0  0
    5.0347   -1.1330    0.0000 C   0  0  0  0  0  0  0  0  0
   -0.0528   -2.3660    0.0000 C   0  0  0  0  0  0  0  0  0
   -0.7673   -1.9535    0.0000 C   0  0  0  0  0  0  0  0  0
   -1.4817   -2.3660    0.0000 C   0  0  0  0  0  0  0  0  0
   -2.1962   -1.9535    0.0000 C   0  0  0  0  0  0  0  0  0
   -2.1962   -1.1285    0.0000 C   0  0  0  0  0  0  0  0  0
   -1.4817   -3.1910    0.0000 C   0  0  0  0  0  0  0  0  0
   -2.1962   -3.6035    0.0000 O   0  0  0  0  0  0  0  0  0
   -0.7673   -3.6035    0.0000 N   0  0  0  0  0  0  0  0  0
  1  2  1  0  0  0  0
  2  3  4  0  0  0  0
  2 30  4  0  0  0  0
  3  4  1  0  0  0  0
  3 27  4  0  0  0  0
  4  5  1  0  0  0  0
  5  6  1  0  0  0  0
  6  7  1  0  0  0  0
  6 26  1  0  0  0  0
  7  8  1  0  0  0  0
  7 12  1  0  0  0  0
  8  9  1  0  0  0  0
  9 10  1  0  0  0  0
  9 11  1  0  0  0  0
 10 11  1  0  0  0  0
 12 13  1  0  0  0  0
 13 14  1  0  0  0  0
 14 15  1  0  0  0  0
 15 16  1  0  0  0  0
 16 17  4  0  0  0  0
 16 25  4  0  0  0  0
 17 18  4  0  0  0  0
 17 23  4  0  0  0  0
 18 19  4  0  0  0  0
 18 24  4  0  0  0  0
 19 20  4  0  0  0  0
 20 21  1  0  0  0  0
 20 22  4  0  0  0  0
 22 23  4  0  0  0  0
 24 25  4  0  0  0  0
 26 27  1  0  0  0  0
 27 28  4  0  0  0  0
 28 29  4  0  0  0  0
 28 31  1  0  0  0  0
 29 30  4  0  0  0  0
 31 32  2  0  0  0  0
 31 33  1  0  0  0  0
M  END
>  <Name_Molregno>
514659

>  <5-HT1A>
8.26

$$$$
514660
  Marvin  02231216192D 0   1.00000     0.00000     0

 33 37  0  0  1  0  0  0  0  0999 V2000
   -2.7303   -2.8068    0.0000 F   0  0  0  0  0  0  0  0  0
   -2.0158   -3.2193    0.0000 C   0  0  0  0  0  0  0  0  0
   -1.3013   -2.8068    0.0000 C   0  0  0  0  0  0  0  0  0
   -1.3013   -1.9818    0.0000 O   0  0  0  0  0  0  0  0  0
   -0.5869   -1.5693    0.0000 C   0  0  0  0  0  0  0  0  0
    0.1276   -1.9818    0.0000 C   0  0  0  0  0  0  0  0  0
    0.8421   -1.5693    0.0000 N   0  0  0  0  0  0  0  0  0
    0.8421   -0.7443    0.0000 C   0  0  0  0  0  0  0  0  0
    1.5565   -0.3318    0.0000 C   0  0  0  0  0  0  0  0  0
    1.9690    0.3827    0.0000 C   0  0  0  0  0  0  0  0  0
    2.3815   -0.3318    0.0000 C   0  0  0  0  0  0  0  0  0
    1.5565   -1.9818    0.0000 C   0  0  0  0  0  0  0  0  0
    2.2710   -1.5693    0.0000 C   0  0  0  0  0  0  0  0  0
    2.9855   -1.9818    0.0000 C   0  0  0  0  0  0  0  0  0
    3.7000   -1.5693    0.0000 C   0  0  0  0  0  0  0  0  0
    4.4144   -1.9818    0.0000 N   0  0  0  0  0  0  0  0  0
    5.1681   -1.6462    0.0000 C   0  0  0  0  0  0  0  0  0
    5.4230   -0.8616    0.0000 C   0  0  0  0  0  0  0  0  0
    6.2300   -0.6901    0.0000 C   0  0  0  0  0  0  0  0  0
    6.4849    0.0946    0.0000 F   0  0  0  0  0  0  0  0  0
    6.7820   -1.3032    0.0000 C   0  0  0  0  0  0  0  0  0
    6.5271   -2.0878    0.0000 C   0  0  0  0  0  0  0  0  0
    5.7201   -2.2593    0.0000 C   0  0  0  0  0  0  0  0  0
    5.3076   -2.9738    0.0000 C   0  0  0  0  0  0  0  0  0
    4.5007   -2.8023    0.0000 C   0  0  0  0  0  0  0  0  0
    0.1276   -2.8068    0.0000 C   0  0  0  0  0  0  0  0  0
   -0.5869   -3.2193    0.0000 C   0  0  0  0  0  0  0  0  0
   -0.5869   -4.0443    0.0000 C   0  0  0  0  0  0  0  0  0
   -1.3013   -4.4568    0.0000 C   0  0  0  0  0  0  0  0  0
   -2.0158   -4.0443    0.0000 C   0  0  0  0  0  0  0  0  0
    0.1276   -4.4568    0.0000 C   0  0  0  0  0  0  0  0  0
    0.1276   -5.2818    0.0000 O   0  0  0  0  0  0  0  0  0
    0.8421   -4.0443    0.0000 N   0  0  0  0  0  0  0  0  0
  1  2  1  0  0  0  0
  2  3  4  0  0  0  0
  2 30  4  0  0  0  0
  3  4  1  0  0  0  0
  3 27  4  0  0  0  0
  4  5  1  0  0  0  0
  5  6  1  0  0  0  0
  6  7  1  0  0  0  0
  6 26  1  0  0  0  0
  7  8  1  0  0  0  0
  7 12  1  0  0  0  0
  8  9  1  0  0  0  0
  9 10  1  0  0  0  0
  9 11  1  0  0  0  0
 10 11  1  0  0  0  0
 12 13  1  0  0  0  0
 13 14  1  0  0  0  0
 14 15  1  0  0  0  0
 15 16  1  0  0  0  0
 16 17  4  0  0  0  0
 16 25  4  0  0  0  0
 17 18  4  0  0  0  0
 17 23  4  0  0  0  0
 18 19  4  0  0  0  0
 19 20  1  0  0  0  0
 19 21  4  0  0  0  0
 21 22  4  0  0  0  0
 22 23  4  0  0  0  0
 23 24  4  0  0  0  0
 24 25  4  0  0  0  0
 26 27  1  0  0  0  0
 27 28  4  0  0  0  0
 28 29  4  0  0  0  0
 28 31  1  0  0  0  0
 29 30  4  0  0  0  0
 31 32  2  0  0  0  0
 31 33  1  0  0  0  0
M  END
>  <Name_Molregno>
514660

>  <5-HT1A>
8.49

$$$$
514661
  Marvin  02231216192D 0   1.00000     0.00000     0

 33 37  0  0  1  0  0  0  0  0999 V2000
   -4.8610   -0.4332    0.0000 F   0  0  0  0  0  0  0  0  0
   -5.6456   -0.6881    0.0000 C   0  0  0  0  0  0  0  0  0
   -5.8171   -1.4951    0.0000 C   0  0  0  0  0  0  0  0  0
   -5.3322   -2.1625    0.0000 N   0  0  0  0  0  0  0  0  0
   -5.8171   -2.8300    0.0000 C   0  0  0  0  0  0  0  0  0
   -6.6017   -2.5750    0.0000 C   0  0  0  0  0  0  0  0  0
   -6.6017   -1.7500    0.0000 C   0  0  0  0  0  0  0  0  0
   -7.2148   -1.1980    0.0000 C   0  0  0  0  0  0  0  0  0
   -7.0433   -0.3910    0.0000 C   0  0  0  0  0  0  0  0  0
   -6.2587   -0.1361    0.0000 C   0  0  0  0  0  0  0  0  0
   -4.5072   -2.1625    0.0000 C   0  0  0  0  0  0  0  0  0
   -4.0947   -1.4480    0.0000 C   0  0  0  0  0  0  0  0  0
   -3.2697   -1.4480    0.0000 C   0  0  0  0  0  0  0  0  0
   -2.8572   -0.7336    0.0000 C   0  0  0  0  0  0  0  0  0
   -2.0322   -0.7336    0.0000 N   0  0  0  0  0  0  0  0  0
   -1.6197   -1.4480    0.0000 C   0  0  0  0  0  0  0  0  0
   -2.0322   -2.1625    0.0000 C   0  0  0  0  0  0  0  0  0
   -2.0322   -2.9875    0.0000 C   0  0  0  0  0  0  0  0  0
   -2.7466   -2.5750    0.0000 C   0  0  0  0  0  0  0  0  0
   -1.6197   -0.0191    0.0000 C   0  0  0  0  0  0  0  0  0
   -0.7947   -0.0191    0.0000 C   0  0  0  0  0  0  0  0  0
   -0.3822    0.6954    0.0000 C   0  0  0  0  0  0  0  0  0
   -0.7947    1.4098    0.0000 C   0  0  0  0  0  0  0  0  0
   -1.6197    1.4098    0.0000 O   0  0  0  0  0  0  0  0  0
   -2.0322    0.6954    0.0000 C   0  0  0  0  0  0  0  0  0
   -0.3822    2.1243    0.0000 C   0  0  0  0  0  0  0  0  0
   -0.7947    2.8388    0.0000 F   0  0  0  0  0  0  0  0  0
    0.4428    2.1243    0.0000 C   0  0  0  0  0  0  0  0  0
    0.8553    1.4098    0.0000 C   0  0  0  0  0  0  0  0  0
    0.4428    0.6954    0.0000 C   0  0  0  0  0  0  0  0  0
    0.8553   -0.0191    0.0000 C   0  0  0  0  0  0  0  0  0
    1.6803   -0.0191    0.0000 O   0  0  0  0  0  0  0  0  0
    0.4428   -0.7336    0.0000 N   0  0  0  0  0  0  0  0  0
  1  2  1  0  0  0  0
  2  3  4  0  0  0  0
  2 10  4  0  0  0  0
  3  4  4  0  0  0  0
  3  7  4  0  0  0  0
  4  5  4  0  0  0  0
  4 11  1  0  0  0  0
  5  6  4  0  0  0  0
  6  7  4  0  0  0  0
  7  8  4  0  0  0  0
  8  9  4  0  0  0  0
  9 10  4  0  0  0  0
 11 12  1  0  0  0  0
 12 13  1  0  0  0  0
 13 14  1  0  0  0  0
 14 15  1  0  0  0  0
 15 16  1  0  0  0  0
 15 20  1  0  0  0  0
 16 17  1  0  0  0  0
 17 18  1  0  0  0  0
 17 19  1  0  0  0  0
 18 19  1  0  0  0  0
 20 21  1  0  0  0  0
 20 25  1  0  0  0  0
 21 22  1  0  0  0  0
 22 23  4  0  0  0  0
 22 30  4  0  0  0  0
 23 24  1  0  0  0  0
 23 26  4  0  0  0  0
 24 25  1  0  0  0  0
 26 27  1  0  0  0  0
 26 28  4  0  0  0  0
 28 29  4  0  0  0  0
 29 30  4  0  0  0  0
 30 31  1  0  0  0  0
 31 32  2  0  0  0  0
 31 33  1  0  0  0  0
M  END
>  <Name_Molregno>
514661

>  <5-HT1A>
7.72

$$$$
514723
  Marvin  02231216192D 0   1.00000     0.00000     0

 33 37  0  0  1  0  0  0  0  0999 V2000
  -10.4493   -0.4988    0.0000 F   0  0  0  0  0  0  0  0  0
   -9.8973   -1.1119    0.0000 C   0  0  0  0  0  0  0  0  0
   -9.0903   -0.9404    0.0000 C   0  0  0  0  0  0  0  0  0
   -8.5383   -1.5535    0.0000 C   0  0  0  0  0  0  0  0  0
   -7.7846   -1.2179    0.0000 N   0  0  0  0  0  0  0  0  0
   -7.8708   -0.3974    0.0000 C   0  0  0  0  0  0  0  0  0
   -8.6778   -0.2259    0.0000 C   0  0  0  0  0  0  0  0  0
   -7.0701   -1.6304    0.0000 C   0  0  0  0  0  0  0  0  0
   -6.3557   -1.2179    0.0000 C   0  0  0  0  0  0  0  0  0
   -5.6412   -1.6304    0.0000 C   0  0  0  0  0  0  0  0  0
   -4.9267   -1.2179    0.0000 C   0  0  0  0  0  0  0  0  0
   -4.2123   -1.6304    0.0000 N   0  0  0  0  0  0  0  0  0
   -4.2123   -2.4554    0.0000 C   0  0  0  0  0  0  0  0  0
   -3.6289   -3.0388    0.0000 C   0  0  0  0  0  0  0  0  0
   -4.2123   -3.6222    0.0000 C   0  0  0  0  0  0  0  0  0
   -4.7956   -3.0388    0.0000 C   0  0  0  0  0  0  0  0  0
   -3.4978   -1.2179    0.0000 C   0  0  0  0  0  0  0  0  0
   -2.7833   -1.6304    0.0000 C   0  0  0  0  0  0  0  0  0
   -2.0688   -1.2179    0.0000 C   0  0  0  0  0  0  0  0  0
   -2.0688   -0.3929    0.0000 C   0  0  0  0  0  0  0  0  0
   -2.7833    0.0196    0.0000 O   0  0  0  0  0  0  0  0  0
   -3.4978   -0.3929    0.0000 C   0  0  0  0  0  0  0  0  0
   -1.3544    0.0196    0.0000 C   0  0  0  0  0  0  0  0  0
   -1.3544    0.8446    0.0000 F   0  0  0  0  0  0  0  0  0
   -0.6399   -0.3929    0.0000 C   0  0  0  0  0  0  0  0  0
   -0.6399   -1.2179    0.0000 C   0  0  0  0  0  0  0  0  0
   -1.3544   -1.6304    0.0000 C   0  0  0  0  0  0  0  0  0
   -1.3544   -2.4554    0.0000 C   0  0  0  0  0  0  0  0  0
   -0.6399   -2.8679    0.0000 O   0  0  0  0  0  0  0  0  0
   -2.0688   -2.8679    0.0000 N   0  0  0  0  0  0  0  0  0
   -8.7932   -2.3381    0.0000 C   0  0  0  0  0  0  0  0  0
   -9.6002   -2.5096    0.0000 C   0  0  0  0  0  0  0  0  0
  -10.1522   -1.8965    0.0000 C   0  0  0  0  0  0  0  0  0
  1  2  1  0  0  0  0
  2  3  4  0  0  0  0
  2 33  4  0  0  0  0
  3  4  4  0  0  0  0
  3  7  4  0  0  0  0
  4  5  4  0  0  0  0
  4 31  4  0  0  0  0
  5  6  4  0  0  0  0
  5  8  1  0  0  0  0
  6  7  4  0  0  0  0
  8  9  1  0  0  0  0
  9 10  1  0  0  0  0
 10 11  1  0  0  0  0
 11 12  1  0  0  0  0
 12 13  1  0  0  0  0
 12 17  1  0  0  0  0
 13 14  1  0  0  0  0
 13 16  1  0  0  0  0
 14 15  1  0  0  0  0
 15 16  1  0  0  0  0
 17 18  1  0  0  0  0
 17 22  1  0  0  0  0
 18 19  1  0  0  0  0
 19 20  4  0  0  0  0
 19 27  4  0  0  0  0
 20 21  1  0  0  0  0
 20 23  4  0  0  0  0
 21 22  1  0  0  0  0
 23 24  1  0  0  0  0
 23 25  4  0  0  0  0
 25 26  4  0  0  0  0
 26 27  4  0  0  0  0
 27 28  1  0  0  0  0
 28 29  2  0  0  0  0
 28 30  1  0  0  0  0
 31 32  4  0  0  0  0
 32 33  4  0  0  0  0
M  END
>  <Name_Molregno>
514723

>  <5-HT1A>
7.76

$$$$
514724
  Marvin  02231216192D 0   1.00000     0.00000     0

 33 37  0  0  1  0  0  0  0  0999 V2000
    0.5626    4.1221    0.0000 F   0  0  0  0  0  0  0  0  0
    0.5626    3.2971    0.0000 C   0  0  0  0  0  0  0  0  0
    1.2771    2.8846    0.0000 C   0  0  0  0  0  0  0  0  0
    1.9915    3.2971    0.0000 O   0  0  0  0  0  0  0  0  0
    2.7060    2.8846    0.0000 C   0  0  0  0  0  0  0  0  0
    2.7060    2.0596    0.0000 C   0  0  0  0  0  0  0  0  0
    3.4205    1.6471    0.0000 N   0  0  0  0  0  0  0  0  0
    4.1350    2.0596    0.0000 C   0  0  0  0  0  0  0  0  0
    4.8494    1.6471    0.0000 C   0  0  0  0  0  0  0  0  0
    5.5639    2.0596    0.0000 C   0  0  0  0  0  0  0  0  0
    6.2784    1.6471    0.0000 C   0  0  0  0  0  0  0  0  0
    6.9928    2.0596    0.0000 N   0  0  0  0  0  0  0  0  0
    7.7465    1.7240    0.0000 C   0  0  0  0  0  0  0  0  0
    8.2986    2.3371    0.0000 C   0  0  0  0  0  0  0  0  0
    9.1055    2.1656    0.0000 C   0  0  0  0  0  0  0  0  0
    9.3605    1.3810    0.0000 C   0  0  0  0  0  0  0  0  0
   10.1674    1.2095    0.0000 F   0  0  0  0  0  0  0  0  0
    8.8084    0.7679    0.0000 C   0  0  0  0  0  0  0  0  0
    8.0015    0.9394    0.0000 C   0  0  0  0  0  0  0  0  0
    7.8861    3.0516    0.0000 C   0  0  0  0  0  0  0  0  0
    7.0791    2.8801    0.0000 C   0  0  0  0  0  0  0  0  0
    3.4205    0.8221    0.0000 C   0  0  0  0  0  0  0  0  0
    4.0039    0.2387    0.0000 C   0  0  0  0  0  0  0  0  0
    3.4205   -0.3446    0.0000 C   0  0  0  0  0  0  0  0  0
    2.8371    0.2387    0.0000 C   0  0  0  0  0  0  0  0  0
    1.9915    1.6471    0.0000 C   0  0  0  0  0  0  0  0  0
    1.2771    2.0596    0.0000 C   0  0  0  0  0  0  0  0  0
    0.5626    1.6471    0.0000 C   0  0  0  0  0  0  0  0  0
   -0.1519    2.0596    0.0000 C   0  0  0  0  0  0  0  0  0
   -0.1519    2.8846    0.0000 C   0  0  0  0  0  0  0  0  0
    0.5626    0.8221    0.0000 C   0  0  0  0  0  0  0  0  0
   -0.1519    0.4096    0.0000 O   0  0  0  0  0  0  0  0  0
    1.2771    0.4096    0.0000 N   0  0  0  0  0  0  0  0  0
  1  2  1  0  0  0  0
  2  3  4  0  0  0  0
  2 30  4  0  0  0  0
  3  4  1  0  0  0  0
  3 27  4  0  0  0  0
  4  5  1  0  0  0  0
  5  6  1  0  0  0  0
  6  7  1  0  0  0  0
  6 26  1  0  0  0  0
  7  8  1  0  0  0  0
  7 22  1  0  0  0  0
  8  9  1  0  0  0  0
  9 10  1  0  0  0  0
 10 11  1  0  0  0  0
 11 12  1  0  0  0  0
 12 13  4  0  0  0  0
 12 21  4  0  0  0  0
 13 14  4  0  0  0  0
 13 19  4  0  0  0  0
 14 15  4  0  0  0  0
 14 20  4  0  0  0  0
 15 16  4  0  0  0  0
 16 17  1  0  0  0  0
 16 18  4  0  0  0  0
 18 19  4  0  0  0  0
 20 21  4  0  0  0  0
 22 23  1  0  0  0  0
 22 25  1  0  0  0  0
 23 24  1  0  0  0  0
 24 25  1  0  0  0  0
 26 27  1  0  0  0  0
 27 28  4  0  0  0  0
 28 29  4  0  0  0  0
 28 31  1  0  0  0  0
 29 30  4  0  0  0  0
 31 32  2  0  0  0  0
 31 33  1  0  0  0  0
M  END
>  <Name_Molregno>
514724

>  <5-HT1A>
7.97

$$$$
514725
  Marvin  02231216192D 0   1.00000     0.00000     0

 33 37  0  0  1  0  0  0  0  0999 V2000
    1.3262    1.9161    0.0000 F   0  0  0  0  0  0  0  0  0
    1.3262    1.0911    0.0000 C   0  0  0  0  0  0  0  0  0
    2.0407    0.6786    0.0000 C   0  0  0  0  0  0  0  0  0
    2.7551    1.0911    0.0000 O   0  0  0  0  0  0  0  0  0
    3.4696    0.6786    0.0000 C   0  0  0  0  0  0  0  0  0
    3.4696   -0.1464    0.0000 C   0  0  0  0  0  0  0  0  0
    4.1841   -0.5589    0.0000 N   0  0  0  0  0  0  0  0  0
    4.1841   -1.3839    0.0000 C   0  0  0  0  0  0  0  0  0
    4.8985   -1.7964    0.0000 C   0  0  0  0  0  0  0  0  0
    4.8985   -2.6214    0.0000 C   0  0  0  0  0  0  0  0  0
    5.6130   -3.0339    0.0000 C   0  0  0  0  0  0  0  0  0
    5.6130   -3.8589    0.0000 N   0  0  0  0  0  0  0  0  0
    6.2805   -4.3438    0.0000 C   0  0  0  0  0  0  0  0  0
    7.0874   -4.1723    0.0000 C   0  0  0  0  0  0  0  0  0
    7.6395   -4.7854    0.0000 C   0  0  0  0  0  0  0  0  0
    8.4464   -4.6139    0.0000 F   0  0  0  0  0  0  0  0  0
    7.3845   -5.5700    0.0000 C   0  0  0  0  0  0  0  0  0
    6.5775   -5.7415    0.0000 C   0  0  0  0  0  0  0  0  0
    6.0255   -5.1285    0.0000 C   0  0  0  0  0  0  0  0  0
    5.2005   -5.1285    0.0000 C   0  0  0  0  0  0  0  0  0
    4.9456   -4.3438    0.0000 C   0  0  0  0  0  0  0  0  0
    4.8985   -0.1464    0.0000 C   0  0  0  0  0  0  0  0  0
    5.1121    0.6505    0.0000 C   0  0  0  0  0  0  0  0  0
    5.9090    0.4370    0.0000 C   0  0  0  0  0  0  0  0  0
    5.6954   -0.3599    0.0000 C   0  0  0  0  0  0  0  0  0
    2.7551   -0.5589    0.0000 C   0  0  0  0  0  0  0  0  0
    2.0407   -0.1464    0.0000 C   0  0  0  0  0  0  0  0  0
    1.3262   -0.5589    0.0000 C   0  0  0  0  0  0  0  0  0
    0.6117   -0.1464    0.0000 C   0  0  0  0  0  0  0  0  0
    0.6117    0.6786    0.0000 C   0  0  0  0  0  0  0  0  0
    1.3262   -1.3839    0.0000 C   0  0  0  0  0  0  0  0  0
    0.6117   -1.7964    0.0000 O   0  0  0  0  0  0  0  0  0
    2.0407   -1.7964    0.0000 N   0  0  0  0  0  0  0  0  0
  1  2  1  0  0  0  0
  2  3  4  0  0  0  0
  2 30  4  0  0  0  0
  3  4  1  0  0  0  0
  3 27  4  0  0  0  0
  4  5  1  0  0  0  0
  5  6  1  0  0  0  0
  6  7  1  0  0  0  0
  6 26  1  0  0  0  0
  7  8  1  0  0  0  0
  7 22  1  0  0  0  0
  8  9  1  0  0  0  0
  9 10  1  0  0  0  0
 10 11  1  0  0  0  0
 11 12  1  0  0  0  0
 12 13  4  0  0  0  0
 12 21  4  0  0  0  0
 13 14  4  0  0  0  0
 13 19  4  0  0  0  0
 14 15  4  0  0  0  0
 15 16  1  0  0  0  0
 15 17  4  0  0  0  0
 17 18  4  0  0  0  0
 18 19  4  0  0  0  0
 19 20  4  0  0  0  0
 20 21  4  0  0  0  0
 22 23  1  0  0  0  0
 22 25  1  0  0  0  0
 23 24  1  0  0  0  0
 24 25  1  0  0  0  0
 26 27  1  0  0  0  0
 27 28  4  0  0  0  0
 28 29  4  0  0  0  0
 28 31  1  0  0  0  0
 29 30  4  0  0  0  0
 31 32  2  0  0  0  0
 31 33  1  0  0  0  0
M  END
>  <Name_Molregno>
514725

>  <5-HT1A>
7.89

$$$$
514726
  Marvin  02231216192D 0   1.00000     0.00000     0

 33 37  0  0  1  0  0  0  0  0999 V2000
    1.6089    1.7326    0.0000 F   0  0  0  0  0  0  0  0  0
    0.8020    1.9042    0.0000 C   0  0  0  0  0  0  0  0  0
    0.2499    1.2911    0.0000 C   0  0  0  0  0  0  0  0  0
    0.3362    0.4706    0.0000 N   0  0  0  0  0  0  0  0  0
   -0.4175    0.1350    0.0000 C   0  0  0  0  0  0  0  0  0
   -0.9695    0.7481    0.0000 C   0  0  0  0  0  0  0  0  0
   -0.5570    1.4626    0.0000 C   0  0  0  0  0  0  0  0  0
   -0.8120    2.2472    0.0000 C   0  0  0  0  0  0  0  0  0
   -0.2599    2.8603    0.0000 C   0  0  0  0  0  0  0  0  0
    0.5470    2.6888    0.0000 C   0  0  0  0  0  0  0  0  0
    1.0506    0.0581    0.0000 C   0  0  0  0  0  0  0  0  0
    1.7651    0.4706    0.0000 C   0  0  0  0  0  0  0  0  0
    2.4796    0.0581    0.0000 C   0  0  0  0  0  0  0  0  0
    3.1941    0.4706    0.0000 C   0  0  0  0  0  0  0  0  0
    3.9085    0.0581    0.0000 N   0  0  0  0  0  0  0  0  0
    3.9085   -0.7669    0.0000 C   0  0  0  0  0  0  0  0  0
    4.4919   -1.3503    0.0000 C   0  0  0  0  0  0  0  0  0
    3.9085   -1.9336    0.0000 C   0  0  0  0  0  0  0  0  0
    3.3252   -1.3503    0.0000 C   0  0  0  0  0  0  0  0  0
    4.6230    0.4706    0.0000 C   0  0  0  0  0  0  0  0  0
    5.3375    0.0581    0.0000 C   0  0  0  0  0  0  0  0  0
    6.0519    0.4706    0.0000 C   0  0  0  0  0  0  0  0  0
    6.0519    1.2956    0.0000 C   0  0  0  0  0  0  0  0  0
    5.3375    1.7081    0.0000 O   0  0  0  0  0  0  0  0  0
    4.6230    1.2956    0.0000 C   0  0  0  0  0  0  0  0  0
    6.7664    1.7081    0.0000 C   0  0  0  0  0  0  0  0  0
    6.7664    2.5331    0.0000 F   0  0  0  0  0  0  0  0  0
    7.4809    1.2956    0.0000 C   0  0  0  0  0  0  0  0  0
    7.4809    0.4706    0.0000 C   0  0  0  0  0  0  0  0  0
    6.7664    0.0581    0.0000 C   0  0  0  0  0  0  0  0  0
    6.7664   -0.7669    0.0000 C   0  0  0  0  0  0  0  0  0
    7.4809   -1.1794    0.0000 O   0  0  0  0  0  0  0  0  0
    6.0519   -1.1794    0.0000 N   0  0  0  0  0  0  0  0  0
  1  2  1  0  0  0  0
  2  3  4  0  0  0  0
  2 10  4  0  0  0  0
  3  4  4  0  0  0  0
  3  7  4  0  0  0  0
  4  5  4  0  0  0  0
  4 11  1  0  0  0  0
  5  6  4  0  0  0  0
  6  7  4  0  0  0  0
  7  8  4  0  0  0  0
  8  9  4  0  0  0  0
  9 10  4  0  0  0  0
 11 12  1  0  0  0  0
 12 13  1  0  0  0  0
 13 14  1  0  0  0  0
 14 15  1  0  0  0  0
 15 16  1  0  0  0  0
 15 20  1  0  0  0  0
 16 17  1  0  0  0  0
 16 19  1  0  0  0  0
 17 18  1  0  0  0  0
 18 19  1  0  0  0  0
 20 21  1  0  0  0  0
 20 25  1  0  0  0  0
 21 22  1  0  0  0  0
 22 23  4  0  0  0  0
 22 30  4  0  0  0  0
 23 24  1  0  0  0  0
 23 26  4  0  0  0  0
 24 25  1  0  0  0  0
 26 27  1  0  0  0  0
 26 28  4  0  0  0  0
 28 29  4  0  0  0  0
 29 30  4  0  0  0  0
 30 31  1  0  0  0  0
 31 32  2  0  0  0  0
 31 33  1  0  0  0  0
M  END
>  <Name_Molregno>
514726

>  <5-HT1A>
7.4

$$$$
514786
  Marvin  02231216192D 0   1.00000     0.00000     0

 30 33  0  0  1  0  0  0  0  0999 V2000
    3.6579   -5.6666    0.0000 F   0  0  0  0  0  0  0  0  0
    4.3723   -5.2541    0.0000 C   0  0  0  0  0  0  0  0  0
    4.3723   -4.4291    0.0000 C   0  0  0  0  0  0  0  0  0
    3.6579   -4.0166    0.0000 O   0  0  0  0  0  0  0  0  0
    3.6579   -3.1916    0.0000 C   0  0  0  0  0  0  0  0  0
    4.3723   -2.7791    0.0000 C   0  0  0  0  0  0  0  0  0
    4.3723   -1.9541    0.0000 N   0  0  0  0  0  0  0  0  0
    3.6579   -1.5416    0.0000 C   0  0  0  0  0  0  0  0  0
    3.6579   -0.7166    0.0000 C   0  0  0  0  0  0  0  0  0
    2.9434   -0.3041    0.0000 C   0  0  0  0  0  0  0  0  0
    2.9434    0.5209    0.0000 C   0  0  0  0  0  0  0  0  0
    2.2760    1.0059    0.0000 C   0  0  0  0  0  0  0  0  0
    1.4690    0.8343    0.0000 C   0  0  0  0  0  0  0  0  0
    0.9170    1.4474    0.0000 C   0  0  0  0  0  0  0  0  0
    0.1100    1.2759    0.0000 F   0  0  0  0  0  0  0  0  0
    1.1719    2.2321    0.0000 C   0  0  0  0  0  0  0  0  0
    1.9789    2.4036    0.0000 C   0  0  0  0  0  0  0  0  0
    2.5309    1.7905    0.0000 C   0  0  0  0  0  0  0  0  0
    3.3559    1.7905    0.0000 N   0  0  0  0  0  0  0  0  0
    3.6108    1.0059    0.0000 C   0  0  0  0  0  0  0  0  0
    5.0868   -1.5416    0.0000 C   0  0  0  0  0  0  0  0  0
    5.0868   -0.7166    0.0000 C   0  0  0  0  0  0  0  0  0
    5.8013   -0.3041    0.0000 C   0  0  0  0  0  0  0  0  0
    5.0868   -3.1916    0.0000 C   0  0  0  0  0  0  0  0  0
    5.0868   -4.0166    0.0000 C   0  0  0  0  0  0  0  0  0
    5.8013   -4.4291    0.0000 C   0  0  0  0  0  0  0  0  0
    6.5158   -4.0166    0.0000 O   0  0  0  0  0  0  0  0  0
    7.2302   -4.4291    0.0000 C   0  0  0  0  0  0  0  0  0
    5.8013   -5.2541    0.0000 C   0  0  0  0  0  0  0  0  0
    5.0868   -5.6666    0.0000 C   0  0  0  0  0  0  0  0  0
  1  2  1  0  0  0  0
  2  3  4  0  0  0  0
  2 30  4  0  0  0  0
  3  4  1  0  0  0  0
  3 25  4  0  0  0  0
  4  5  1  0  0  0  0
  5  6  1  0  0  0  0
  6  7  1  0  0  0  0
  6 24  1  0  0  0  0
  7  8  1  0  0  0  0
  7 21  1  0  0  0  0
  8  9  1  0  0  0  0
  9 10  1  0  0  0  0
 10 11  1  0  0  0  0
 11 12  4  0  0  0  0
 11 20  4  0  0  0  0
 12 13  4  0  0  0  0
 12 18  4  0  0  0  0
 13 14  4  0  0  0  0
 14 15  1  0  0  0  0
 14 16  4  0  0  0  0
 16 17  4  0  0  0  0
 17 18  4  0  0  0  0
 18 19  4  0  0  0  0
 19 20  4  0  0  0  0
 21 22  1  0  0  0  0
 22 23  1  0  0  0  0
 24 25  1  0  0  0  0
 25 26  4  0  0  0  0
 26 27  1  0  0  0  0
 26 29  4  0  0  0  0
 27 28  1  0  0  0  0
 29 30  4  0  0  0  0
M  STY  1   1 DAT
M  SAL   1  1  19
M  SDT   1 MRV_IMPLICIT_H                                        
M  SDD   1     0.0000    0.0000    DR    ALL  0       0  
M  SED   1 IMPL_H1
M  END
>  <Name_Molregno>
514786

>  <5-HT1A>
7.86

$$$$
514788
  Marvin  02231216192D 0   1.00000     0.00000     0

 30 34  0  0  1  0  0  0  0  0999 V2000
    0.5418    2.0256    0.0000 F   0  0  0  0  0  0  0  0  0
    0.5418    1.2006    0.0000 C   0  0  0  0  0  0  0  0  0
    1.2563    0.7881    0.0000 C   0  0  0  0  0  0  0  0  0
    1.9707    1.2006    0.0000 O   0  0  0  0  0  0  0  0  0
    2.6852    0.7881    0.0000 C   0  0  0  0  0  0  0  0  0
    2.6852   -0.0369    0.0000 C   0  0  0  0  0  0  0  0  0
    3.3997   -0.4494    0.0000 N   0  0  0  0  0  0  0  0  0
    4.1141   -0.0369    0.0000 C   0  0  0  0  0  0  0  0  0
    4.8286   -0.4494    0.0000 C   0  0  0  0  0  0  0  0  0
    4.8286   -1.2744    0.0000 C   0  0  0  0  0  0  0  0  0
    5.5431   -1.6869    0.0000 C   0  0  0  0  0  0  0  0  0
    6.2576   -1.2744    0.0000 C   0  0  0  0  0  0  0  0  0
    7.0422   -1.5294    0.0000 N   0  0  0  0  0  0  0  0  0
    7.5271   -0.8619    0.0000 C   0  0  0  0  0  0  0  0  0
    7.0422   -0.1945    0.0000 C   0  0  0  0  0  0  0  0  0
    7.3777    0.5592    0.0000 C   0  0  0  0  0  0  0  0  0
    8.1982    0.6454    0.0000 C   0  0  0  0  0  0  0  0  0
    8.5338    1.3991    0.0000 F   0  0  0  0  0  0  0  0  0
    8.6831   -0.0220    0.0000 C   0  0  0  0  0  0  0  0  0
    8.3476   -0.7757    0.0000 C   0  0  0  0  0  0  0  0  0
    6.2576   -0.4494    0.0000 C   0  0  0  0  0  0  0  0  0
    5.5431   -0.0369    0.0000 C   0  0  0  0  0  0  0  0  0
    1.9707   -0.4494    0.0000 C   0  0  0  0  0  0  0  0  0
    1.2563   -0.0369    0.0000 C   0  0  0  0  0  0  0  0  0
    0.5418   -0.4494    0.0000 C   0  0  0  0  0  0  0  0  0
   -0.1727   -0.0369    0.0000 C   0  0  0  0  0  0  0  0  0
   -0.1727    0.7881    0.0000 C   0  0  0  0  0  0  0  0  0
    0.5418   -1.2744    0.0000 C   0  0  0  0  0  0  0  0  0
   -0.1727   -1.6869    0.0000 O   0  0  0  0  0  0  0  0  0
    1.2563   -1.6869    0.0000 N   0  0  0  0  0  0  0  0  0
  1  2  1  0  0  0  0
  2  3  4  0  0  0  0
  2 27  4  0  0  0  0
  3  4  1  0  0  0  0
  3 24  4  0  0  0  0
  4  5  1  0  0  0  0
  5  6  1  0  0  0  0
  6  7  1  0  0  0  0
  6 23  1  0  0  0  0
  7  8  1  0  0  0  0
  8  9  1  0  0  0  0
  9 10  1  0  0  0  0
  9 22  1  0  0  0  0
 10 11  1  0  0  0  0
 11 12  1  0  0  0  0
 12 13  4  0  0  0  0
 12 21  4  0  0  0  0
 13 14  4  0  0  0  0
 14 15  4  0  0  0  0
 14 20  4  0  0  0  0
 15 16  4  0  0  0  0
 15 21  4  0  0  0  0
 16 17  4  0  0  0  0
 17 18  1  0  0  0  0
 17 19  4  0  0  0  0
 19 20  4  0  0  0  0
 21 22  1  0  0  0  0
 23 24  1  0  0  0  0
 24 25  4  0  0  0  0
 25 26  4  0  0  0  0
 25 28  1  0  0  0  0
 26 27  4  0  0  0  0
 28 29  2  0  0  0  0
 28 30  1  0  0  0  0
M  STY  1   1 DAT
M  SAL   1  1  13
M  SDT   1 MRV_IMPLICIT_H                                        
M  SDD   1     0.0000    0.0000    DR    ALL  0       0  
M  SED   1 IMPL_H1
M  END
>  <Name_Molregno>
514788

>  <5-HT1A>
7.46

$$$$
514790
  Marvin  02231216192D 0   1.00000     0.00000     0

 33 37  0  0  1  0  0  0  0  0999 V2000
    0.5520    0.7694    0.0000 F   0  0  0  0  0  0  0  0  0
    0.5520   -0.0556    0.0000 C   0  0  0  0  0  0  0  0  0
    1.2665   -0.4681    0.0000 C   0  0  0  0  0  0  0  0  0
    1.9809   -0.0556    0.0000 O   0  0  0  0  0  0  0  0  0
    2.6954   -0.4681    0.0000 C   0  0  0  0  0  0  0  0  0
    2.6954   -1.2931    0.0000 C   0  0  0  0  0  0  0  0  0
    3.4099   -1.7056    0.0000 N   0  0  0  0  0  0  0  0  0
    4.1243   -1.2931    0.0000 C   0  0  0  0  0  0  0  0  0
    4.8388   -1.7056    0.0000 C   0  0  0  0  0  0  0  0  0
    4.8388   -2.5306    0.0000 C   0  0  0  0  0  0  0  0  0
    5.5533   -2.9431    0.0000 C   0  0  0  0  0  0  0  0  0
    6.2678   -2.5306    0.0000 C   0  0  0  0  0  0  0  0  0
    7.0524   -2.7855    0.0000 N   0  0  0  0  0  0  0  0  0
    7.5373   -2.1181    0.0000 C   0  0  0  0  0  0  0  0  0
    7.0524   -1.4506    0.0000 C   0  0  0  0  0  0  0  0  0
    7.3879   -0.6970    0.0000 C   0  0  0  0  0  0  0  0  0
    8.2084   -0.6107    0.0000 C   0  0  0  0  0  0  0  0  0
    8.5440    0.1429    0.0000 F   0  0  0  0  0  0  0  0  0
    8.6933   -1.2782    0.0000 C   0  0  0  0  0  0  0  0  0
    8.3578   -2.0318    0.0000 C   0  0  0  0  0  0  0  0  0
    6.2678   -1.7056    0.0000 C   0  0  0  0  0  0  0  0  0
    5.5533   -1.2931    0.0000 C   0  0  0  0  0  0  0  0  0
    3.4099   -2.5306    0.0000 C   0  0  0  0  0  0  0  0  0
    4.1243   -2.9431    0.0000 C   0  0  0  0  0  0  0  0  0
    4.1243   -3.7681    0.0000 C   0  0  0  0  0  0  0  0  0
    1.9809   -1.7056    0.0000 C   0  0  0  0  0  0  0  0  0
    1.2665   -1.2931    0.0000 C   0  0  0  0  0  0  0  0  0
    0.5520   -1.7056    0.0000 C   0  0  0  0  0  0  0  0  0
   -0.1625   -1.2931    0.0000 C   0  0  0  0  0  0  0  0  0
   -0.1625   -0.4681    0.0000 C   0  0  0  0  0  0  0  0  0
    0.5520   -2.5306    0.0000 C   0  0  0  0  0  0  0  0  0
   -0.1625   -2.9431    0.0000 O   0  0  0  0  0  0  0  0  0
    1.2665   -2.9431    0.0000 N   0  0  0  0  0  0  0  0  0
  1  2  1  0  0  0  0
  2  3  4  0  0  0  0
  2 30  4  0  0  0  0
  3  4  1  0  0  0  0
  3 27  4  0  0  0  0
  4  5  1  0  0  0  0
  5  6  1  0  0  0  0
  6  7  1  0  0  0  0
  6 26  1  0  0  0  0
  7  8  1  0  0  0  0
  7 23  1  0  0  0  0
  8  9  1  0  0  0  0
  9 10  1  0  0  0  0
  9 22  1  0  0  0  0
 10 11  1  0  0  0  0
 11 12  1  0  0  0  0
 12 13  4  0  0  0  0
 12 21  4  0  0  0  0
 13 14  4  0  0  0  0
 14 15  4  0  0  0  0
 14 20  4  0  0  0  0
 15 16  4  0  0  0  0
 15 21  4  0  0  0  0
 16 17  4  0  0  0  0
 17 18  1  0  0  0  0
 17 19  4  0  0  0  0
 19 20  4  0  0  0  0
 21 22  1  0  0  0  0
 23 24  1  0  0  0  0
 24 25  1  0  0  0  0
 26 27  1  0  0  0  0
 27 28  4  0  0  0  0
 28 29  4  0  0  0  0
 28 31  1  0  0  0  0
 29 30  4  0  0  0  0
 31 32  2  0  0  0  0
 31 33  1  0  0  0  0
M  STY  1   1 DAT
M  SAL   1  1  13
M  SDT   1 MRV_IMPLICIT_H                                        
M  SDD   1     0.0000    0.0000    DR    ALL  0       0  
M  SED   1 IMPL_H1
M  END
>  <Name_Molregno>
514790

>  <5-HT1A>
7.67

$$$$
514856
  Marvin  02231216192D 0   1.00000     0.00000     0

 34 39  0  0  1  0  0  0  0  0999 V2000
    0.4600    3.9106    0.0000 F   0  0  0  0  0  0  0  0  0
    0.4600    3.0856    0.0000 C   0  0  0  0  0  0  0  0  0
    1.1745    2.6731    0.0000 C   0  0  0  0  0  0  0  0  0
    1.8889    3.0856    0.0000 O   0  0  0  0  0  0  0  0  0
    2.6034    2.6731    0.0000 C   0  0  0  0  0  0  0  0  0
    2.6034    1.8481    0.0000 C   0  0  0  0  0  0  0  0  0
    3.3179    1.4356    0.0000 N   0  0  0  0  0  0  0  0  0
    3.3179    0.6106    0.0000 C   0  0  0  0  0  0  0  0  0
    4.0323    0.1981    0.0000 C   0  0  0  0  0  0  0  0  0
    4.8573    0.1981    0.0000 C   0  0  0  0  0  0  0  0  0
    4.4448   -0.5164    0.0000 C   0  0  0  0  0  0  0  0  0
    4.0323    1.8481    0.0000 C   0  0  0  0  0  0  0  0  0
    4.7468    1.4356    0.0000 C   0  0  0  0  0  0  0  0  0
    4.7468    0.6106    0.0000 C   0  0  0  0  0  0  0  0  0
    5.4613    0.1981    0.0000 C   0  0  0  0  0  0  0  0  0
    6.1757    0.6106    0.0000 C   0  0  0  0  0  0  0  0  0
    6.9604    0.3556    0.0000 N   0  0  0  0  0  0  0  0  0
    7.4453    1.0231    0.0000 C   0  0  0  0  0  0  0  0  0
    6.9604    1.6905    0.0000 C   0  0  0  0  0  0  0  0  0
    7.2959    2.4442    0.0000 C   0  0  0  0  0  0  0  0  0
    8.1164    2.5304    0.0000 C   0  0  0  0  0  0  0  0  0
    8.4520    3.2841    0.0000 F   0  0  0  0  0  0  0  0  0
    8.6013    1.8630    0.0000 C   0  0  0  0  0  0  0  0  0
    8.2658    1.1093    0.0000 C   0  0  0  0  0  0  0  0  0
    6.1757    1.4356    0.0000 C   0  0  0  0  0  0  0  0  0
    5.4613    1.8481    0.0000 C   0  0  0  0  0  0  0  0  0
    1.8889    1.4356    0.0000 C   0  0  0  0  0  0  0  0  0
    1.1745    1.8481    0.0000 C   0  0  0  0  0  0  0  0  0
    0.4600    1.4356    0.0000 C   0  0  0  0  0  0  0  0  0
   -0.2545    1.8481    0.0000 C   0  0  0  0  0  0  0  0  0
   -0.2545    2.6731    0.0000 C   0  0  0  0  0  0  0  0  0
    0.4600    0.6106    0.0000 C   0  0  0  0  0  0  0  0  0
   -0.2545    0.1981    0.0000 O   0  0  0  0  0  0  0  0  0
    1.1745    0.1981    0.0000 N   0  0  0  0  0  0  0  0  0
  1  2  1  0  0  0  0
  2  3  4  0  0  0  0
  2 31  4  0  0  0  0
  3  4  1  0  0  0  0
  3 28  4  0  0  0  0
  4  5  1  0  0  0  0
  5  6  1  0  0  0  0
  6  7  1  0  0  0  0
  6 27  1  0  0  0  0
  7  8  1  0  0  0  0
  7 12  1  0  0  0  0
  8  9  1  0  0  0  0
  9 10  1  0  0  0  0
  9 11  1  0  0  0  0
 10 11  1  0  0  0  0
 12 13  1  0  0  0  0
 13 14  1  0  0  0  0
 13 26  1  0  0  0  0
 14 15  1  0  0  0  0
 15 16  1  0  0  0  0
 16 17  4  0  0  0  0
 16 25  4  0  0  0  0
 17 18  4  0  0  0  0
 18 19  4  0  0  0  0
 18 24  4  0  0  0  0
 19 20  4  0  0  0  0
 19 25  4  0  0  0  0
 20 21  4  0  0  0  0
 21 22  1  0  0  0  0
 21 23  4  0  0  0  0
 23 24  4  0  0  0  0
 25 26  1  0  0  0  0
 27 28  1  0  0  0  0
 28 29  4  0  0  0  0
 29 30  4  0  0  0  0
 29 32  1  0  0  0  0
 30 31  4  0  0  0  0
 32 33  2  0  0  0  0
 32 34  1  0  0  0  0
M  STY  1   1 DAT
M  SAL   1  1  17
M  SDT   1 MRV_IMPLICIT_H                                        
M  SDD   1     0.0000    0.0000    DR    ALL  0       0  
M  SED   1 IMPL_H1
M  END
>  <Name_Molregno>
514856

>  <5-HT1A>
7.48

$$$$
514934
  Marvin  02231216192D 0   1.00000     0.00000     0

 32 35  0  0  1  0  0  0  0  0999 V2000
    1.1746   -7.3894    0.0000 F   0  0  0  0  0  0  0  0  0
    1.8890   -6.9769    0.0000 C   0  0  0  0  0  0  0  0  0
    1.8890   -6.1519    0.0000 C   0  0  0  0  0  0  0  0  0
    1.1746   -5.7394    0.0000 O   0  0  0  0  0  0  0  0  0
    1.1746   -4.9144    0.0000 C   0  0  0  0  0  0  0  0  0
    1.8890   -4.5019    0.0000 C   0  0  0  0  0  0  0  0  0
    1.8890   -3.6769    0.0000 N   0  0  0  0  0  0  0  0  0
    1.1746   -3.2644    0.0000 C   0  0  0  0  0  0  0  0  0
    1.1746   -2.4394    0.0000 C   0  0  0  0  0  0  0  0  0
    0.4601   -2.0269    0.0000 C   0  0  0  0  0  0  0  0  0
    0.4601   -1.2019    0.0000 C   0  0  0  0  0  0  0  0  0
   -0.2073   -0.7170    0.0000 C   0  0  0  0  0  0  0  0  0
   -1.0143   -0.8885    0.0000 C   0  0  0  0  0  0  0  0  0
   -1.5663   -0.2755    0.0000 C   0  0  0  0  0  0  0  0  0
   -2.3733   -0.4470    0.0000 F   0  0  0  0  0  0  0  0  0
   -1.3114    0.5092    0.0000 C   0  0  0  0  0  0  0  0  0
   -0.5044    0.6807    0.0000 C   0  0  0  0  0  0  0  0  0
    0.0476    0.0676    0.0000 C   0  0  0  0  0  0  0  0  0
    0.8726    0.0676    0.0000 N   0  0  0  0  0  0  0  0  0
    1.1275   -0.7170    0.0000 C   0  0  0  0  0  0  0  0  0
    2.6035   -3.2644    0.0000 C   0  0  0  0  0  0  0  0  0
    2.6035   -2.4394    0.0000 C   0  0  0  0  0  0  0  0  0
    3.3180   -2.0269    0.0000 C   0  0  0  0  0  0  0  0  0
    2.6035   -4.9144    0.0000 C   0  0  0  0  0  0  0  0  0
    2.6035   -5.7394    0.0000 C   0  0  0  0  0  0  0  0  0
    3.3180   -6.1519    0.0000 C   0  0  0  0  0  0  0  0  0
    3.3180   -6.9769    0.0000 C   0  0  0  0  0  0  0  0  0
    2.6035   -7.3894    0.0000 C   0  0  0  0  0  0  0  0  0
    4.0325   -5.7394    0.0000 C   0  0  0  0  0  0  0  0  0
    4.0325   -4.9144    0.0000 O   0  0  0  0  0  0  0  0  0
    4.7469   -6.1519    0.0000 N   0  0  0  0  0  0  0  0  0
    5.4614   -5.7394    0.0000 C   0  0  0  0  0  0  0  0  0
  1  2  1  0  0  0  0
  2  3  4  0  0  0  0
  2 28  4  0  0  0  0
  3  4  1  0  0  0  0
  3 25  4  0  0  0  0
  4  5  1  0  0  0  0
  5  6  1  0  0  0  0
  6  7  1  0  0  0  0
  6 24  1  0  0  0  0
  7  8  1  0  0  0  0
  7 21  1  0  0  0  0
  8  9  1  0  0  0  0
  9 10  1  0  0  0  0
 10 11  1  0  0  0  0
 11 12  4  0  0  0  0
 11 20  4  0  0  0  0
 12 13  4  0  0  0  0
 12 18  4  0  0  0  0
 13 14  4  0  0  0  0
 14 15  1  0  0  0  0
 14 16  4  0  0  0  0
 16 17  4  0  0  0  0
 17 18  4  0  0  0  0
 18 19  4  0  0  0  0
 19 20  4  0  0  0  0
 21 22  1  0  0  0  0
 22 23  1  0  0  0  0
 24 25  1  0  0  0  0
 25 26  4  0  0  0  0
 26 27  4  0  0  0  0
 26 29  1  0  0  0  0
 27 28  4  0  0  0  0
 29 30  2  0  0  0  0
 29 31  1  0  0  0  0
 31 32  1  0  0  0  0
M  STY  1   1 DAT
M  SAL   1  1  19
M  SDT   1 MRV_IMPLICIT_H                                        
M  SDD   1     0.0000    0.0000    DR    ALL  0       0  
M  SED   1 IMPL_H1
M  END
>  <Name_Molregno>
514934

>  <5-HT1A>
8.84

$$$$
514936
  Marvin  02231216192D 0   1.00000     0.00000     0

 30 33  0  0  1  0  0  0  0  0999 V2000
   -0.2090   -0.0324    0.0000 F   0  0  0  0  0  0  0  0  0
    0.4041   -0.5844    0.0000 C   0  0  0  0  0  0  0  0  0
    1.1887   -0.3295    0.0000 C   0  0  0  0  0  0  0  0  0
    1.8018   -0.8815    0.0000 C   0  0  0  0  0  0  0  0  0
    1.6303   -1.6885    0.0000 C   0  0  0  0  0  0  0  0  0
    2.3447   -2.1010    0.0000 N   0  0  0  0  0  0  0  0  0
    2.9578   -1.5489    0.0000 C   0  0  0  0  0  0  0  0  0
    2.6223   -0.7953    0.0000 C   0  0  0  0  0  0  0  0  0
    3.0348   -0.0808    0.0000 C   0  0  0  0  0  0  0  0  0
    3.8598   -0.0808    0.0000 C   0  0  0  0  0  0  0  0  0
    4.2723    0.6337    0.0000 C   0  0  0  0  0  0  0  0  0
    5.0973    0.6337    0.0000 N   0  0  0  0  0  0  0  0  0
    5.5098   -0.0808    0.0000 C   0  0  0  0  0  0  0  0  0
    6.3348   -0.0808    0.0000 C   0  0  0  0  0  0  0  0  0
    6.7473   -0.7953    0.0000 C   0  0  0  0  0  0  0  0  0
    5.5098    1.3482    0.0000 C   0  0  0  0  0  0  0  0  0
    6.3348    1.3482    0.0000 C   0  0  0  0  0  0  0  0  0
    6.7473    2.0626    0.0000 C   0  0  0  0  0  0  0  0  0
    6.3348    2.7771    0.0000 C   0  0  0  0  0  0  0  0  0
    5.5098    2.7771    0.0000 O   0  0  0  0  0  0  0  0  0
    5.0973    2.0626    0.0000 C   0  0  0  0  0  0  0  0  0
    6.7473    3.4916    0.0000 C   0  0  0  0  0  0  0  0  0
    7.5723    3.4916    0.0000 C   0  0  0  0  0  0  0  0  0
    7.9848    2.7771    0.0000 C   0  0  0  0  0  0  0  0  0
    7.5723    2.0626    0.0000 C   0  0  0  0  0  0  0  0  0
    7.9848    1.3482    0.0000 C   0  0  0  0  0  0  0  0  0
    8.8098    1.3482    0.0000 O   0  0  0  0  0  0  0  0  0
    7.5723    0.6337    0.0000 N   0  0  0  0  0  0  0  0  0
    0.8457   -1.9434    0.0000 C   0  0  0  0  0  0  0  0  0
    0.2326   -1.3914    0.0000 C   0  0  0  0  0  0  0  0  0
  1  2  1  0  0  0  0
  2  3  4  0  0  0  0
  2 30  4  0  0  0  0
  3  4  4  0  0  0  0
  4  5  4  0  0  0  0
  4  8  4  0  0  0  0
  5  6  4  0  0  0  0
  5 29  4  0  0  0  0
  6  7  4  0  0  0  0
  7  8  4  0  0  0  0
  8  9  1  0  0  0  0
  9 10  1  0  0  0  0
 10 11  1  0  0  0  0
 11 12  1  0  0  0  0
 12 13  1  0  0  0  0
 12 16  1  0  0  0  0
 13 14  1  0  0  0  0
 14 15  1  0  0  0  0
 16 17  1  0  0  0  0
 16 21  1  0  0  0  0
 17 18  1  0  0  0  0
 18 19  4  0  0  0  0
 18 25  4  0  0  0  0
 19 20  1  0  0  0  0
 19 22  4  0  0  0  0
 20 21  1  0  0  0  0
 22 23  4  0  0  0  0
 23 24  4  0  0  0  0
 24 25  4  0  0  0  0
 25 26  1  0  0  0  0
 26 27  2  0  0  0  0
 26 28  1  0  0  0  0
 29 30  4  0  0  0  0
M  STY  1   1 DAT
M  SAL   1  1   6
M  SDT   1 MRV_IMPLICIT_H                                        
M  SDD   1     0.0000    0.0000    DR    ALL  0       0  
M  SED   1 IMPL_H1
M  END
>  <Name_Molregno>
514936

>  <5-HT1A>
9.03

$$$$
515522
  Marvin  02231216192D 0   1.00000     0.00000     0

 32 35  0  0  0  0  0  0  0  0999 V2000
    1.1351    2.0975    0.0000 Cl  0  0  0  0  0  0  0  0  0
    1.1351    1.2725    0.0000 C   0  0  0  0  0  0  0  0  0
    1.8496    0.8600    0.0000 C   0  0  0  0  0  0  0  0  0
    1.8496    0.0350    0.0000 C   0  0  0  0  0  0  0  0  0
    2.5640   -0.3775    0.0000 N   0  0  0  0  0  0  0  0  0
    3.2785    0.0350    0.0000 C   0  0  0  0  0  0  0  0  0
    3.9930   -0.3775    0.0000 C   0  0  0  0  0  0  0  0  0
    3.9930   -1.2025    0.0000 N   0  0  0  0  0  0  0  0  0
    3.2785   -1.6150    0.0000 C   0  0  0  0  0  0  0  0  0
    2.5640   -1.2025    0.0000 C   0  0  0  0  0  0  0  0  0
    4.7074   -1.6150    0.0000 C   0  0  0  0  0  0  0  0  0
    5.4219   -1.2025    0.0000 C   0  0  0  0  0  0  0  0  0
    6.1364   -1.6150    0.0000 O   0  0  0  0  0  0  0  0  0
    6.8508   -1.2025    0.0000 C   0  0  0  0  0  0  0  0  0
    6.8508   -0.3775    0.0000 C   0  0  0  0  0  0  0  0  0
    7.5653    0.0350    0.0000 C   0  0  0  0  0  0  0  0  0
    8.2798   -0.3775    0.0000 C   0  0  0  0  0  0  0  0  0
    8.2798   -1.2025    0.0000 C   0  0  0  0  0  0  0  0  0
    7.5653   -1.6150    0.0000 C   0  0  0  0  0  0  0  0  0
    7.5653   -2.4400    0.0000 C   0  0  0  0  0  0  0  0  0
    8.2798   -2.8525    0.0000 C   0  0  0  0  0  0  0  0  0
    8.2798   -3.6775    0.0000 C   0  0  0  0  0  0  0  0  0
    8.9943   -4.0900    0.0000 C   0  0  0  0  0  0  0  0  0
    8.9943   -4.9150    0.0000 C   0  0  0  0  0  0  0  0  0
    9.7087   -5.3275    0.0000 O   0  0  0  0  0  0  0  0  0
   10.4232   -4.9150    0.0000 C   0  0  0  0  0  0  0  0  0
    8.2798   -5.3275    0.0000 C   0  0  0  0  0  0  0  0  0
    7.5653   -4.9150    0.0000 C   0  0  0  0  0  0  0  0  0
    7.5653   -4.0900    0.0000 C   0  0  0  0  0  0  0  0  0
    1.1351   -0.3775    0.0000 C   0  0  0  0  0  0  0  0  0
    0.4206    0.0350    0.0000 C   0  0  0  0  0  0  0  0  0
    0.4206    0.8600    0.0000 C   0  0  0  0  0  0  0  0  0
  1  2  1  0  0  0  0
  2  3  4  0  0  0  0
  2 32  4  0  0  0  0
  3  4  4  0  0  0  0
  4  5  1  0  0  0  0
  4 30  4  0  0  0  0
  5  6  1  0  0  0  0
  5 10  1  0  0  0  0
  6  7  1  0  0  0  0
  7  8  1  0  0  0  0
  8  9  1  0  0  0  0
  8 11  1  0  0  0  0
  9 10  1  0  0  0  0
 11 12  1  0  0  0  0
 12 13  1  0  0  0  0
 13 14  1  0  0  0  0
 14 15  4  0  0  0  0
 14 19  4  0  0  0  0
 15 16  4  0  0  0  0
 16 17  4  0  0  0  0
 17 18  4  0  0  0  0
 18 19  4  0  0  0  0
 19 20  1  0  0  0  0
 20 21  1  0  0  0  0
 21 22  1  0  0  0  0
 22 23  4  0  0  0  0
 22 29  4  0  0  0  0
 23 24  4  0  0  0  0
 24 25  1  0  0  0  0
 24 27  4  0  0  0  0
 25 26  1  0  0  0  0
 27 28  4  0  0  0  0
 28 29  4  0  0  0  0
 30 31  4  0  0  0  0
 31 32  4  0  0  0  0
M  END
>  <Name_Molregno>
515522

>  <5-HT1A>
4.08

>  <DOPAMINE D2>
4

$$$$
515587
  Marvin  02231216192D 0   1.00000     0.00000     0

 33 36  0  0  0  0  0  0  0  0999 V2000
    3.0889    5.6344    0.0000 Cl  0  0  0  0  0  0  0  0  0
    3.0889    4.8094    0.0000 C   0  0  0  0  0  0  0  0  0
    3.8034    4.3969    0.0000 C   0  0  0  0  0  0  0  0  0
    3.8034    3.5719    0.0000 C   0  0  0  0  0  0  0  0  0
    4.5179    3.1594    0.0000 N   0  0  0  0  0  0  0  0  0
    5.2323    3.5719    0.0000 C   0  0  0  0  0  0  0  0  0
    5.9468    3.1594    0.0000 C   0  0  0  0  0  0  0  0  0
    5.9468    2.3344    0.0000 N   0  0  0  0  0  0  0  0  0
    5.2323    1.9219    0.0000 C   0  0  0  0  0  0  0  0  0
    4.5179    2.3344    0.0000 C   0  0  0  0  0  0  0  0  0
    6.6613    1.9219    0.0000 C   0  0  0  0  0  0  0  0  0
    6.6613    1.0969    0.0000 C   0  0  0  0  0  0  0  0  0
    7.3757    0.6844    0.0000 C   0  0  0  0  0  0  0  0  0
    7.3757   -0.1406    0.0000 O   0  0  0  0  0  0  0  0  0
    8.0902   -0.5531    0.0000 C   0  0  0  0  0  0  0  0  0
    8.8047   -0.1406    0.0000 C   0  0  0  0  0  0  0  0  0
    9.5192   -0.5531    0.0000 C   0  0  0  0  0  0  0  0  0
    9.5192   -1.3781    0.0000 C   0  0  0  0  0  0  0  0  0
    8.8047   -1.7906    0.0000 C   0  0  0  0  0  0  0  0  0
    8.0902   -1.3781    0.0000 C   0  0  0  0  0  0  0  0  0
    7.3757   -1.7906    0.0000 C   0  0  0  0  0  0  0  0  0
    7.3757   -2.6156    0.0000 C   0  0  0  0  0  0  0  0  0
    6.6613   -3.0281    0.0000 C   0  0  0  0  0  0  0  0  0
    6.6613   -3.8531    0.0000 C   0  0  0  0  0  0  0  0  0
    5.9468   -4.2656    0.0000 C   0  0  0  0  0  0  0  0  0
    5.9468   -5.0906    0.0000 O   0  0  0  0  0  0  0  0  0
    5.2323   -5.5031    0.0000 C   0  0  0  0  0  0  0  0  0
    5.2323   -3.8531    0.0000 C   0  0  0  0  0  0  0  0  0
    5.2323   -3.0281    0.0000 C   0  0  0  0  0  0  0  0  0
    5.9468   -2.6156    0.0000 C   0  0  0  0  0  0  0  0  0
    3.0889    3.1594    0.0000 C   0  0  0  0  0  0  0  0  0
    2.3744    3.5719    0.0000 C   0  0  0  0  0  0  0  0  0
    2.3744    4.3969    0.0000 C   0  0  0  0  0  0  0  0  0
  1  2  1  0  0  0  0
  2  3  4  0  0  0  0
  2 33  4  0  0  0  0
  3  4  4  0  0  0  0
  4  5  1  0  0  0  0
  4 31  4  0  0  0  0
  5  6  1  0  0  0  0
  5 10  1  0  0  0  0
  6  7  1  0  0  0  0
  7  8  1  0  0  0  0
  8  9  1  0  0  0  0
  8 11  1  0  0  0  0
  9 10  1  0  0  0  0
 11 12  1  0  0  0  0
 12 13  1  0  0  0  0
 13 14  1  0  0  0  0
 14 15  1  0  0  0  0
 15 16  4  0  0  0  0
 15 20  4  0  0  0  0
 16 17  4  0  0  0  0
 17 18  4  0  0  0  0
 18 19  4  0  0  0  0
 19 20  4  0  0  0  0
 20 21  1  0  0  0  0
 21 22  1  0  0  0  0
 22 23  1  0  0  0  0
 23 24  4  0  0  0  0
 23 30  4  0  0  0  0
 24 25  4  0  0  0  0
 25 26  1  0  0  0  0
 25 28  4  0  0  0  0
 26 27  1  0  0  0  0
 28 29  4  0  0  0  0
 29 30  4  0  0  0  0
 31 32  4  0  0  0  0
 32 33  4  0  0  0  0
M  END
>  <Name_Molregno>
515587

>  <5-HT1A>
3.98

>  <DOPAMINE D2>
4.27

$$$$
515588
  Marvin  02231216192D 0   1.00000     0.00000     0

 34 37  0  0  0  0  0  0  0  0999 V2000
  -11.4138    4.9840    0.0000 Cl  0  0  0  0  0  0  0  0  0
  -11.4138    4.1590    0.0000 C   0  0  0  0  0  0  0  0  0
  -10.6993    3.7465    0.0000 C   0  0  0  0  0  0  0  0  0
  -10.6993    2.9215    0.0000 C   0  0  0  0  0  0  0  0  0
   -9.9849    2.5090    0.0000 N   0  0  0  0  0  0  0  0  0
   -9.2704    2.9215    0.0000 C   0  0  0  0  0  0  0  0  0
   -8.5559    2.5090    0.0000 C   0  0  0  0  0  0  0  0  0
   -8.5559    1.6840    0.0000 N   0  0  0  0  0  0  0  0  0
   -9.2704    1.2715    0.0000 C   0  0  0  0  0  0  0  0  0
   -9.9849    1.6840    0.0000 C   0  0  0  0  0  0  0  0  0
   -7.8415    1.2715    0.0000 C   0  0  0  0  0  0  0  0  0
   -7.1270    1.6840    0.0000 C   0  0  0  0  0  0  0  0  0
   -6.4125    1.2715    0.0000 C   0  0  0  0  0  0  0  0  0
   -5.6981    1.6840    0.0000 C   0  0  0  0  0  0  0  0  0
   -4.9836    1.2715    0.0000 O   0  0  0  0  0  0  0  0  0
   -4.2691    1.6840    0.0000 C   0  0  0  0  0  0  0  0  0
   -4.2691    2.5090    0.0000 C   0  0  0  0  0  0  0  0  0
   -3.5546    2.9215    0.0000 C   0  0  0  0  0  0  0  0  0
   -2.8402    2.5090    0.0000 C   0  0  0  0  0  0  0  0  0
   -2.8402    1.6840    0.0000 C   0  0  0  0  0  0  0  0  0
   -3.5546    1.2715    0.0000 C   0  0  0  0  0  0  0  0  0
   -3.5546    0.4465    0.0000 C   0  0  0  0  0  0  0  0  0
   -2.8402    0.0340    0.0000 C   0  0  0  0  0  0  0  0  0
   -2.8402   -0.7910    0.0000 C   0  0  0  0  0  0  0  0  0
   -2.1257   -1.2035    0.0000 C   0  0  0  0  0  0  0  0  0
   -2.1257   -2.0285    0.0000 C   0  0  0  0  0  0  0  0  0
   -1.4112   -2.4410    0.0000 O   0  0  0  0  0  0  0  0  0
   -0.6968   -2.0285    0.0000 C   0  0  0  0  0  0  0  0  0
   -2.8402   -2.4410    0.0000 C   0  0  0  0  0  0  0  0  0
   -3.5546   -2.0285    0.0000 C   0  0  0  0  0  0  0  0  0
   -3.5546   -1.2035    0.0000 C   0  0  0  0  0  0  0  0  0
  -11.4138    2.5090    0.0000 C   0  0  0  0  0  0  0  0  0
  -12.1283    2.9215    0.0000 C   0  0  0  0  0  0  0  0  0
  -12.1283    3.7465    0.0000 C   0  0  0  0  0  0  0  0  0
  1  2  1  0  0  0  0
  2  3  4  0  0  0  0
  2 34  4  0  0  0  0
  3  4  4  0  0  0  0
  4  5  1  0  0  0  0
  4 32  4  0  0  0  0
  5  6  1  0  0  0  0
  5 10  1  0  0  0  0
  6  7  1  0  0  0  0
  7  8  1  0  0  0  0
  8  9  1  0  0  0  0
  8 11  1  0  0  0  0
  9 10  1  0  0  0  0
 11 12  1  0  0  0  0
 12 13  1  0  0  0  0
 13 14  1  0  0  0  0
 14 15  1  0  0  0  0
 15 16  1  0  0  0  0
 16 17  4  0  0  0  0
 16 21  4  0  0  0  0
 17 18  4  0  0  0  0
 18 19  4  0  0  0  0
 19 20  4  0  0  0  0
 20 21  4  0  0  0  0
 21 22  1  0  0  0  0
 22 23  1  0  0  0  0
 23 24  1  0  0  0  0
 24 25  4  0  0  0  0
 24 31  4  0  0  0  0
 25 26  4  0  0  0  0
 26 27  1  0  0  0  0
 26 29  4  0  0  0  0
 27 28  1  0  0  0  0
 29 30  4  0  0  0  0
 30 31  4  0  0  0  0
 32 33  4  0  0  0  0
 33 34  4  0  0  0  0
M  END
>  <Name_Molregno>
515588

>  <5-HT1A>
3.94

>  <DOPAMINE D2>
4

$$$$
515589
  Marvin  02231216192D 0   1.00000     0.00000     0

 35 38  0  0  0  0  0  0  0  0999 V2000
   -0.1770    0.2753    0.0000 Cl  0  0  0  0  0  0  0  0  0
    0.5374   -0.1372    0.0000 C   0  0  0  0  0  0  0  0  0
    1.2519    0.2753    0.0000 C   0  0  0  0  0  0  0  0  0
    1.9664   -0.1372    0.0000 C   0  0  0  0  0  0  0  0  0
    2.6808    0.2753    0.0000 N   0  0  0  0  0  0  0  0  0
    2.6808    1.1003    0.0000 C   0  0  0  0  0  0  0  0  0
    3.3953    1.5128    0.0000 C   0  0  0  0  0  0  0  0  0
    4.1098    1.1003    0.0000 N   0  0  0  0  0  0  0  0  0
    4.1098    0.2753    0.0000 C   0  0  0  0  0  0  0  0  0
    3.3953   -0.1372    0.0000 C   0  0  0  0  0  0  0  0  0
    4.8242    1.5128    0.0000 C   0  0  0  0  0  0  0  0  0
    5.5387    1.1003    0.0000 C   0  0  0  0  0  0  0  0  0
    6.2532    1.5128    0.0000 C   0  0  0  0  0  0  0  0  0
    6.9677    1.1003    0.0000 C   0  0  0  0  0  0  0  0  0
    7.6821    1.5128    0.0000 C   0  0  0  0  0  0  0  0  0
    8.3966    1.1003    0.0000 O   0  0  0  0  0  0  0  0  0
    9.1111    1.5128    0.0000 C   0  0  0  0  0  0  0  0  0
    9.1111    2.3378    0.0000 C   0  0  0  0  0  0  0  0  0
    9.8255    2.7503    0.0000 C   0  0  0  0  0  0  0  0  0
   10.5400    2.3378    0.0000 C   0  0  0  0  0  0  0  0  0
   10.5400    1.5128    0.0000 C   0  0  0  0  0  0  0  0  0
    9.8255    1.1003    0.0000 C   0  0  0  0  0  0  0  0  0
    9.8255    0.2753    0.0000 C   0  0  0  0  0  0  0  0  0
   10.5400   -0.1372    0.0000 C   0  0  0  0  0  0  0  0  0
   10.5400   -0.9622    0.0000 C   0  0  0  0  0  0  0  0  0
   11.2545   -1.3747    0.0000 C   0  0  0  0  0  0  0  0  0
   11.2545   -2.1997    0.0000 C   0  0  0  0  0  0  0  0  0
   11.9690   -2.6122    0.0000 O   0  0  0  0  0  0  0  0  0
   11.9690   -3.4372    0.0000 C   0  0  0  0  0  0  0  0  0
   10.5400   -2.6122    0.0000 C   0  0  0  0  0  0  0  0  0
    9.8255   -2.1997    0.0000 C   0  0  0  0  0  0  0  0  0
    9.8255   -1.3747    0.0000 C   0  0  0  0  0  0  0  0  0
    1.9664   -0.9622    0.0000 C   0  0  0  0  0  0  0  0  0
    1.2519   -1.3747    0.0000 C   0  0  0  0  0  0  0  0  0
    0.5374   -0.9622    0.0000 C   0  0  0  0  0  0  0  0  0
  1  2  1  0  0  0  0
  2  3  4  0  0  0  0
  2 35  4  0  0  0  0
  3  4  4  0  0  0  0
  4  5  1  0  0  0  0
  4 33  4  0  0  0  0
  5  6  1  0  0  0  0
  5 10  1  0  0  0  0
  6  7  1  0  0  0  0
  7  8  1  0  0  0  0
  8  9  1  0  0  0  0
  8 11  1  0  0  0  0
  9 10  1  0  0  0  0
 11 12  1  0  0  0  0
 12 13  1  0  0  0  0
 13 14  1  0  0  0  0
 14 15  1  0  0  0  0
 15 16  1  0  0  0  0
 16 17  1  0  0  0  0
 17 18  4  0  0  0  0
 17 22  4  0  0  0  0
 18 19  4  0  0  0  0
 19 20  4  0  0  0  0
 20 21  4  0  0  0  0
 21 22  4  0  0  0  0
 22 23  1  0  0  0  0
 23 24  1  0  0  0  0
 24 25  1  0  0  0  0
 25 26  4  0  0  0  0
 25 32  4  0  0  0  0
 26 27  4  0  0  0  0
 27 28  1  0  0  0  0
 27 30  4  0  0  0  0
 28 29  1  0  0  0  0
 30 31  4  0  0  0  0
 31 32  4  0  0  0  0
 33 34  4  0  0  0  0
 34 35  4  0  0  0  0
M  END
>  <Name_Molregno>
515589

>  <5-HT1A>
3.65

>  <DOPAMINE D2>
4

$$$$
515590
  Marvin  02231216192D 0   1.00000     0.00000     0

 35 38  0  0  0  0  0  0  0  0999 V2000
    1.6787    5.4552    0.0000 F   0  0  0  0  0  0  0  0  0
    1.6787    4.6302    0.0000 C   0  0  0  0  0  0  0  0  0
    0.8537    4.6302    0.0000 F   0  0  0  0  0  0  0  0  0
    2.5037    4.6302    0.0000 F   0  0  0  0  0  0  0  0  0
    1.6787    3.8052    0.0000 C   0  0  0  0  0  0  0  0  0
    2.3932    3.3927    0.0000 C   0  0  0  0  0  0  0  0  0
    2.3932    2.5677    0.0000 C   0  0  0  0  0  0  0  0  0
    3.1077    2.1552    0.0000 N   0  0  0  0  0  0  0  0  0
    3.8221    2.5677    0.0000 C   0  0  0  0  0  0  0  0  0
    4.5366    2.1552    0.0000 C   0  0  0  0  0  0  0  0  0
    4.5366    1.3302    0.0000 N   0  0  0  0  0  0  0  0  0
    3.8221    0.9177    0.0000 C   0  0  0  0  0  0  0  0  0
    3.1077    1.3302    0.0000 C   0  0  0  0  0  0  0  0  0
    5.2511    0.9177    0.0000 C   0  0  0  0  0  0  0  0  0
    5.9655    1.3302    0.0000 C   0  0  0  0  0  0  0  0  0
    6.6800    0.9177    0.0000 O   0  0  0  0  0  0  0  0  0
    7.3945    1.3302    0.0000 C   0  0  0  0  0  0  0  0  0
    7.3945    2.1552    0.0000 C   0  0  0  0  0  0  0  0  0
    8.1090    2.5677    0.0000 C   0  0  0  0  0  0  0  0  0
    8.8234    2.1552    0.0000 C   0  0  0  0  0  0  0  0  0
    8.8234    1.3302    0.0000 C   0  0  0  0  0  0  0  0  0
    8.1090    0.9177    0.0000 C   0  0  0  0  0  0  0  0  0
    8.1090    0.0927    0.0000 C   0  0  0  0  0  0  0  0  0
    8.8234   -0.3198    0.0000 C   0  0  0  0  0  0  0  0  0
    8.8234   -1.1448    0.0000 C   0  0  0  0  0  0  0  0  0
    9.5379   -1.5573    0.0000 C   0  0  0  0  0  0  0  0  0
    9.5379   -2.3823    0.0000 C   0  0  0  0  0  0  0  0  0
   10.2524   -2.7948    0.0000 O   0  0  0  0  0  0  0  0  0
   10.9668   -2.3823    0.0000 C   0  0  0  0  0  0  0  0  0
    8.8234   -2.7948    0.0000 C   0  0  0  0  0  0  0  0  0
    8.1090   -2.3823    0.0000 C   0  0  0  0  0  0  0  0  0
    8.1090   -1.5573    0.0000 C   0  0  0  0  0  0  0  0  0
    1.6787    2.1552    0.0000 C   0  0  0  0  0  0  0  0  0
    0.9642    2.5677    0.0000 C   0  0  0  0  0  0  0  0  0
    0.9642    3.3927    0.0000 C   0  0  0  0  0  0  0  0  0
  1  2  1  0  0  0  0
  2  3  1  0  0  0  0
  2  4  1  0  0  0  0
  2  5  1  0  0  0  0
  5  6  4  0  0  0  0
  5 35  4  0  0  0  0
  6  7  4  0  0  0  0
  7  8  1  0  0  0  0
  7 33  4  0  0  0  0
  8  9  1  0  0  0  0
  8 13  1  0  0  0  0
  9 10  1  0  0  0  0
 10 11  1  0  0  0  0
 11 12  1  0  0  0  0
 11 14  1  0  0  0  0
 12 13  1  0  0  0  0
 14 15  1  0  0  0  0
 15 16  1  0  0  0  0
 16 17  1  0  0  0  0
 17 18  4  0  0  0  0
 17 22  4  0  0  0  0
 18 19  4  0  0  0  0
 19 20  4  0  0  0  0
 20 21  4  0  0  0  0
 21 22  4  0  0  0  0
 22 23  1  0  0  0  0
 23 24  1  0  0  0  0
 24 25  1  0  0  0  0
 25 26  4  0  0  0  0
 25 32  4  0  0  0  0
 26 27  4  0  0  0  0
 27 28  1  0  0  0  0
 27 30  4  0  0  0  0
 28 29  1  0  0  0  0
 30 31  4  0  0  0  0
 31 32  4  0  0  0  0
 33 34  4  0  0  0  0
 34 35  4  0  0  0  0
M  END
>  <Name_Molregno>
515590

>  <5-HT1A>
3.92

>  <DOPAMINE D2>
4

$$$$
515686
  Marvin  02231216192D 0   1.00000     0.00000     0

 36 39  0  0  0  0  0  0  0  0999 V2000
    2.3970    4.7688    0.0000 F   0  0  0  0  0  0  0  0  0
    2.3970    3.9438    0.0000 C   0  0  0  0  0  0  0  0  0
    1.5720    3.9438    0.0000 F   0  0  0  0  0  0  0  0  0
    3.2220    3.9438    0.0000 F   0  0  0  0  0  0  0  0  0
    2.3970    3.1188    0.0000 C   0  0  0  0  0  0  0  0  0
    3.1115    2.7063    0.0000 C   0  0  0  0  0  0  0  0  0
    3.1115    1.8813    0.0000 C   0  0  0  0  0  0  0  0  0
    3.8259    1.4688    0.0000 N   0  0  0  0  0  0  0  0  0
    4.5404    1.8813    0.0000 C   0  0  0  0  0  0  0  0  0
    5.2549    1.4688    0.0000 C   0  0  0  0  0  0  0  0  0
    5.2549    0.6438    0.0000 N   0  0  0  0  0  0  0  0  0
    4.5404    0.2313    0.0000 C   0  0  0  0  0  0  0  0  0
    3.8259    0.6438    0.0000 C   0  0  0  0  0  0  0  0  0
    5.9693    0.2313    0.0000 C   0  0  0  0  0  0  0  0  0
    5.9693   -0.5937    0.0000 C   0  0  0  0  0  0  0  0  0
    6.6838   -1.0062    0.0000 C   0  0  0  0  0  0  0  0  0
    6.6838   -1.8312    0.0000 O   0  0  0  0  0  0  0  0  0
    7.3983   -2.2437    0.0000 C   0  0  0  0  0  0  0  0  0
    8.1128   -1.8312    0.0000 C   0  0  0  0  0  0  0  0  0
    8.8272   -2.2437    0.0000 C   0  0  0  0  0  0  0  0  0
    8.8272   -3.0687    0.0000 C   0  0  0  0  0  0  0  0  0
    8.1128   -3.4812    0.0000 C   0  0  0  0  0  0  0  0  0
    7.3983   -3.0687    0.0000 C   0  0  0  0  0  0  0  0  0
    6.6838   -3.4812    0.0000 C   0  0  0  0  0  0  0  0  0
    6.6838   -4.3062    0.0000 C   0  0  0  0  0  0  0  0  0
    5.9693   -4.7187    0.0000 C   0  0  0  0  0  0  0  0  0
    5.9693   -5.5437    0.0000 C   0  0  0  0  0  0  0  0  0
    5.2549   -5.9562    0.0000 C   0  0  0  0  0  0  0  0  0
    5.2549   -6.7812    0.0000 O   0  0  0  0  0  0  0  0  0
    4.5404   -7.1937    0.0000 C   0  0  0  0  0  0  0  0  0
    4.5404   -5.5437    0.0000 C   0  0  0  0  0  0  0  0  0
    4.5404   -4.7187    0.0000 C   0  0  0  0  0  0  0  0  0
    5.2549   -4.3062    0.0000 C   0  0  0  0  0  0  0  0  0
    2.3970    1.4688    0.0000 C   0  0  0  0  0  0  0  0  0
    1.6825    1.8813    0.0000 C   0  0  0  0  0  0  0  0  0
    1.6825    2.7063    0.0000 C   0  0  0  0  0  0  0  0  0
  1  2  1  0  0  0  0
  2  3  1  0  0  0  0
  2  4  1  0  0  0  0
  2  5  1  0  0  0  0
  5  6  4  0  0  0  0
  5 36  4  0  0  0  0
  6  7  4  0  0  0  0
  7  8  1  0  0  0  0
  7 34  4  0  0  0  0
  8  9  1  0  0  0  0
  8 13  1  0  0  0  0
  9 10  1  0  0  0  0
 10 11  1  0  0  0  0
 11 12  1  0  0  0  0
 11 14  1  0  0  0  0
 12 13  1  0  0  0  0
 14 15  1  0  0  0  0
 15 16  1  0  0  0  0
 16 17  1  0  0  0  0
 17 18  1  0  0  0  0
 18 19  4  0  0  0  0
 18 23  4  0  0  0  0
 19 20  4  0  0  0  0
 20 21  4  0  0  0  0
 21 22  4  0  0  0  0
 22 23  4  0  0  0  0
 23 24  1  0  0  0  0
 24 25  1  0  0  0  0
 25 26  1  0  0  0  0
 26 27  4  0  0  0  0
 26 33  4  0  0  0  0
 27 28  4  0  0  0  0
 28 29  1  0  0  0  0
 28 31  4  0  0  0  0
 29 30  1  0  0  0  0
 31 32  4  0  0  0  0
 32 33  4  0  0  0  0
 34 35  4  0  0  0  0
 35 36  4  0  0  0  0
M  END
>  <Name_Molregno>
515686

>  <5-HT1A>
3.77

>  <DOPAMINE D2>
3.92

$$$$
515687
  Marvin  02231216192D 0   1.00000     0.00000     0

 37 40  0  0  0  0  0  0  0  0999 V2000
  -10.0673    3.7212    0.0000 F   0  0  0  0  0  0  0  0  0
  -10.0673    2.8962    0.0000 C   0  0  0  0  0  0  0  0  0
  -10.8923    2.8962    0.0000 F   0  0  0  0  0  0  0  0  0
   -9.2423    2.8962    0.0000 F   0  0  0  0  0  0  0  0  0
  -10.0673    2.0712    0.0000 C   0  0  0  0  0  0  0  0  0
   -9.3528    1.6587    0.0000 C   0  0  0  0  0  0  0  0  0
   -9.3528    0.8337    0.0000 C   0  0  0  0  0  0  0  0  0
   -8.6383    0.4212    0.0000 N   0  0  0  0  0  0  0  0  0
   -7.9239    0.8337    0.0000 C   0  0  0  0  0  0  0  0  0
   -7.2094    0.4212    0.0000 C   0  0  0  0  0  0  0  0  0
   -7.2094   -0.4038    0.0000 N   0  0  0  0  0  0  0  0  0
   -7.9239   -0.8163    0.0000 C   0  0  0  0  0  0  0  0  0
   -8.6383   -0.4038    0.0000 C   0  0  0  0  0  0  0  0  0
   -6.4949   -0.8163    0.0000 C   0  0  0  0  0  0  0  0  0
   -5.7805   -0.4038    0.0000 C   0  0  0  0  0  0  0  0  0
   -5.0660   -0.8163    0.0000 C   0  0  0  0  0  0  0  0  0
   -4.3515   -0.4038    0.0000 C   0  0  0  0  0  0  0  0  0
   -3.6370   -0.8163    0.0000 O   0  0  0  0  0  0  0  0  0
   -2.9226   -0.4038    0.0000 C   0  0  0  0  0  0  0  0  0
   -2.9226    0.4212    0.0000 C   0  0  0  0  0  0  0  0  0
   -2.2081    0.8337    0.0000 C   0  0  0  0  0  0  0  0  0
   -1.4936    0.4212    0.0000 C   0  0  0  0  0  0  0  0  0
   -1.4936   -0.4038    0.0000 C   0  0  0  0  0  0  0  0  0
   -2.2081   -0.8163    0.0000 C   0  0  0  0  0  0  0  0  0
   -2.2081   -1.6413    0.0000 C   0  0  0  0  0  0  0  0  0
   -1.4936   -2.0538    0.0000 C   0  0  0  0  0  0  0  0  0
   -1.4936   -2.8788    0.0000 C   0  0  0  0  0  0  0  0  0
   -0.7792   -3.2913    0.0000 C   0  0  0  0  0  0  0  0  0
   -0.7792   -4.1163    0.0000 C   0  0  0  0  0  0  0  0  0
   -0.0647   -4.5288    0.0000 O   0  0  0  0  0  0  0  0  0
    0.6498   -4.1163    0.0000 C   0  0  0  0  0  0  0  0  0
   -1.4936   -4.5288    0.0000 C   0  0  0  0  0  0  0  0  0
   -2.2081   -4.1163    0.0000 C   0  0  0  0  0  0  0  0  0
   -2.2081   -3.2913    0.0000 C   0  0  0  0  0  0  0  0  0
  -10.0673    0.4212    0.0000 C   0  0  0  0  0  0  0  0  0
  -10.7818    0.8337    0.0000 C   0  0  0  0  0  0  0  0  0
  -10.7818    1.6587    0.0000 C   0  0  0  0  0  0  0  0  0
  1  2  1  0  0  0  0
  2  3  1  0  0  0  0
  2  4  1  0  0  0  0
  2  5  1  0  0  0  0
  5  6  4  0  0  0  0
  5 37  4  0  0  0  0
  6  7  4  0  0  0  0
  7  8  1  0  0  0  0
  7 35  4  0  0  0  0
  8  9  1  0  0  0  0
  8 13  1  0  0  0  0
  9 10  1  0  0  0  0
 10 11  1  0  0  0  0
 11 12  1  0  0  0  0
 11 14  1  0  0  0  0
 12 13  1  0  0  0  0
 14 15  1  0  0  0  0
 15 16  1  0  0  0  0
 16 17  1  0  0  0  0
 17 18  1  0  0  0  0
 18 19  1  0  0  0  0
 19 20  4  0  0  0  0
 19 24  4  0  0  0  0
 20 21  4  0  0  0  0
 21 22  4  0  0  0  0
 22 23  4  0  0  0  0
 23 24  4  0  0  0  0
 24 25  1  0  0  0  0
 25 26  1  0  0  0  0
 26 27  1  0  0  0  0
 27 28  4  0  0  0  0
 27 34  4  0  0  0  0
 28 29  4  0  0  0  0
 29 30  1  0  0  0  0
 29 32  4  0  0  0  0
 30 31  1  0  0  0  0
 32 33  4  0  0  0  0
 33 34  4  0  0  0  0
 35 36  4  0  0  0  0
 36 37  4  0  0  0  0
M  END
>  <Name_Molregno>
515687

>  <5-HT1A>
3.65

>  <DOPAMINE D2>
4

$$$$
515688
  Marvin  02231216192D 0   1.00000     0.00000     0

 33 36  0  0  0  0  0  0  0  0999 V2000
    0.3676    0.1400    0.0000 O   0  0  0  0  0  0  0  0  0
    0.3676   -0.6850    0.0000 C   0  0  0  0  0  0  0  0  0
    1.0820   -1.0975    0.0000 C   0  0  0  0  0  0  0  0  0
    1.0820   -1.9225    0.0000 N   0  0  0  0  0  0  0  0  0
    1.7965   -2.3350    0.0000 C   0  0  0  0  0  0  0  0  0
    1.7965   -3.1600    0.0000 C   0  0  0  0  0  0  0  0  0
    1.0820   -3.5725    0.0000 N   0  0  0  0  0  0  0  0  0
    0.3676   -3.1600    0.0000 C   0  0  0  0  0  0  0  0  0
    0.3676   -2.3350    0.0000 C   0  0  0  0  0  0  0  0  0
    1.0820   -4.3975    0.0000 C   0  0  0  0  0  0  0  0  0
    1.7965   -4.8100    0.0000 C   0  0  0  0  0  0  0  0  0
    1.7965   -5.6350    0.0000 C   0  0  0  0  0  0  0  0  0
    1.0820   -6.0475    0.0000 C   0  0  0  0  0  0  0  0  0
    0.3676   -5.6350    0.0000 C   0  0  0  0  0  0  0  0  0
    0.3676   -4.8100    0.0000 C   0  0  0  0  0  0  0  0  0
   -0.3469   -4.3975    0.0000 O   0  0  0  0  0  0  0  0  0
   -1.0614   -4.8100    0.0000 C   0  0  0  0  0  0  0  0  0
   -0.3469    0.5525    0.0000 C   0  0  0  0  0  0  0  0  0
   -1.0614    0.1400    0.0000 C   0  0  0  0  0  0  0  0  0
   -1.7758    0.5525    0.0000 C   0  0  0  0  0  0  0  0  0
   -1.7758    1.3775    0.0000 C   0  0  0  0  0  0  0  0  0
   -1.0614    1.7900    0.0000 C   0  0  0  0  0  0  0  0  0
   -0.3469    1.3775    0.0000 C   0  0  0  0  0  0  0  0  0
    0.3676    1.7900    0.0000 C   0  0  0  0  0  0  0  0  0
    0.3676    2.6150    0.0000 C   0  0  0  0  0  0  0  0  0
    1.0820    3.0275    0.0000 C   0  0  0  0  0  0  0  0  0
    1.0820    3.8525    0.0000 C   0  0  0  0  0  0  0  0  0
    1.7965    4.2650    0.0000 C   0  0  0  0  0  0  0  0  0
    1.7965    5.0900    0.0000 O   0  0  0  0  0  0  0  0  0
    1.0820    5.5025    0.0000 C   0  0  0  0  0  0  0  0  0
    2.5110    3.8525    0.0000 C   0  0  0  0  0  0  0  0  0
    2.5110    3.0275    0.0000 C   0  0  0  0  0  0  0  0  0
    1.7965    2.6150    0.0000 C   0  0  0  0  0  0  0  0  0
  1  2  1  0  0  0  0
  1 18  1  0  0  0  0
  2  3  1  0  0  0  0
  3  4  1  0  0  0  0
  4  5  1  0  0  0  0
  4  9  1  0  0  0  0
  5  6  1  0  0  0  0
  6  7  1  0  0  0  0
  7  8  1  0  0  0  0
  7 10  1  0  0  0  0
  8  9  1  0  0  0  0
 10 11  4  0  0  0  0
 10 15  4  0  0  0  0
 11 12  4  0  0  0  0
 12 13  4  0  0  0  0
 13 14  4  0  0  0  0
 14 15  4  0  0  0  0
 15 16  1  0  0  0  0
 16 17  1  0  0  0  0
 18 19  4  0  0  0  0
 18 23  4  0  0  0  0
 19 20  4  0  0  0  0
 20 21  4  0  0  0  0
 21 22  4  0  0  0  0
 22 23  4  0  0  0  0
 23 24  1  0  0  0  0
 24 25  1  0  0  0  0
 25 26  1  0  0  0  0
 26 27  4  0  0  0  0
 26 33  4  0  0  0  0
 27 28  4  0  0  0  0
 28 29  1  0  0  0  0
 28 31  4  0  0  0  0
 29 30  1  0  0  0  0
 31 32  4  0  0  0  0
 32 33  4  0  0  0  0
M  END
>  <Name_Molregno>
515688

>  <5-HT1A>
3.96

>  <DOPAMINE D2>
4.18

$$$$
515689
  Marvin  02231216192D 0   1.00000     0.00000     0

 34 37  0  0  0  0  0  0  0  0999 V2000
    0.8789    0.5544    0.0000 O   0  0  0  0  0  0  0  0  0
    0.1644    0.1419    0.0000 C   0  0  0  0  0  0  0  0  0
    0.1644   -0.6831    0.0000 C   0  0  0  0  0  0  0  0  0
   -0.5501   -1.0956    0.0000 C   0  0  0  0  0  0  0  0  0
   -0.5501   -1.9206    0.0000 N   0  0  0  0  0  0  0  0  0
    0.1644   -2.3331    0.0000 C   0  0  0  0  0  0  0  0  0
    0.1644   -3.1581    0.0000 C   0  0  0  0  0  0  0  0  0
   -0.5501   -3.5706    0.0000 N   0  0  0  0  0  0  0  0  0
   -1.2645   -3.1581    0.0000 C   0  0  0  0  0  0  0  0  0
   -1.2645   -2.3331    0.0000 C   0  0  0  0  0  0  0  0  0
   -0.5501   -4.3956    0.0000 C   0  0  0  0  0  0  0  0  0
    0.1644   -4.8081    0.0000 C   0  0  0  0  0  0  0  0  0
    0.1644   -5.6331    0.0000 C   0  0  0  0  0  0  0  0  0
   -0.5501   -6.0456    0.0000 C   0  0  0  0  0  0  0  0  0
   -1.2645   -5.6331    0.0000 C   0  0  0  0  0  0  0  0  0
   -1.2645   -4.8081    0.0000 C   0  0  0  0  0  0  0  0  0
   -1.9790   -4.3956    0.0000 O   0  0  0  0  0  0  0  0  0
   -2.6935   -4.8081    0.0000 C   0  0  0  0  0  0  0  0  0
    0.8789    1.3794    0.0000 C   0  0  0  0  0  0  0  0  0
    0.1644    1.7919    0.0000 C   0  0  0  0  0  0  0  0  0
    0.1644    2.6169    0.0000 C   0  0  0  0  0  0  0  0  0
    0.8789    3.0294    0.0000 C   0  0  0  0  0  0  0  0  0
    1.5933    2.6169    0.0000 C   0  0  0  0  0  0  0  0  0
    1.5933    1.7919    0.0000 C   0  0  0  0  0  0  0  0  0
    2.3078    1.3794    0.0000 C   0  0  0  0  0  0  0  0  0
    3.0223    1.7919    0.0000 C   0  0  0  0  0  0  0  0  0
    3.7368    1.3794    0.0000 C   0  0  0  0  0  0  0  0  0
    4.4512    1.7919    0.0000 C   0  0  0  0  0  0  0  0  0
    5.1657    1.3794    0.0000 C   0  0  0  0  0  0  0  0  0
    5.8802    1.7919    0.0000 O   0  0  0  0  0  0  0  0  0
    6.5946    1.3794    0.0000 C   0  0  0  0  0  0  0  0  0
    5.1657    0.5544    0.0000 C   0  0  0  0  0  0  0  0  0
    4.4512    0.1419    0.0000 C   0  0  0  0  0  0  0  0  0
    3.7368    0.5544    0.0000 C   0  0  0  0  0  0  0  0  0
  1  2  1  0  0  0  0
  1 19  1  0  0  0  0
  2  3  1  0  0  0  0
  3  4  1  0  0  0  0
  4  5  1  0  0  0  0
  5  6  1  0  0  0  0
  5 10  1  0  0  0  0
  6  7  1  0  0  0  0
  7  8  1  0  0  0  0
  8  9  1  0  0  0  0
  8 11  1  0  0  0  0
  9 10  1  0  0  0  0
 11 12  4  0  0  0  0
 11 16  4  0  0  0  0
 12 13  4  0  0  0  0
 13 14  4  0  0  0  0
 14 15  4  0  0  0  0
 15 16  4  0  0  0  0
 16 17  1  0  0  0  0
 17 18  1  0  0  0  0
 19 20  4  0  0  0  0
 19 24  4  0  0  0  0
 20 21  4  0  0  0  0
 21 22  4  0  0  0  0
 22 23  4  0  0  0  0
 23 24  4  0  0  0  0
 24 25  1  0  0  0  0
 25 26  1  0  0  0  0
 26 27  1  0  0  0  0
 27 28  4  0  0  0  0
 27 34  4  0  0  0  0
 28 29  4  0  0  0  0
 29 30  1  0  0  0  0
 29 32  4  0  0  0  0
 30 31  1  0  0  0  0
 32 33  4  0  0  0  0
 33 34  4  0  0  0  0
M  END
>  <Name_Molregno>
515689

>  <5-HT1A>
4.06

>  <DOPAMINE D2>
5.2

$$$$
515751
  Marvin  02231216192D 0   1.00000     0.00000     0

 35 38  0  0  0  0  0  0  0  0999 V2000
    0.0833    0.2076    0.0000 O   0  0  0  0  0  0  0  0  0
    0.7978   -0.2049    0.0000 C   0  0  0  0  0  0  0  0  0
    1.5123    0.2076    0.0000 C   0  0  0  0  0  0  0  0  0
    2.2268   -0.2049    0.0000 C   0  0  0  0  0  0  0  0  0
    2.9412    0.2076    0.0000 C   0  0  0  0  0  0  0  0  0
    3.6557   -0.2049    0.0000 N   0  0  0  0  0  0  0  0  0
    4.3702    0.2076    0.0000 C   0  0  0  0  0  0  0  0  0
    5.0846   -0.2049    0.0000 C   0  0  0  0  0  0  0  0  0
    5.0846   -1.0299    0.0000 N   0  0  0  0  0  0  0  0  0
    4.3702   -1.4424    0.0000 C   0  0  0  0  0  0  0  0  0
    3.6557   -1.0299    0.0000 C   0  0  0  0  0  0  0  0  0
    5.7991   -1.4424    0.0000 C   0  0  0  0  0  0  0  0  0
    6.5136   -1.0299    0.0000 C   0  0  0  0  0  0  0  0  0
    7.2280   -1.4424    0.0000 C   0  0  0  0  0  0  0  0  0
    7.2280   -2.2674    0.0000 C   0  0  0  0  0  0  0  0  0
    6.5136   -2.6799    0.0000 C   0  0  0  0  0  0  0  0  0
    5.7991   -2.2674    0.0000 C   0  0  0  0  0  0  0  0  0
    5.0846   -2.6799    0.0000 O   0  0  0  0  0  0  0  0  0
    5.0846   -3.5049    0.0000 C   0  0  0  0  0  0  0  0  0
   -0.6311   -0.2049    0.0000 C   0  0  0  0  0  0  0  0  0
   -0.6311   -1.0299    0.0000 C   0  0  0  0  0  0  0  0  0
   -1.3456   -1.4424    0.0000 C   0  0  0  0  0  0  0  0  0
   -2.0601   -1.0299    0.0000 C   0  0  0  0  0  0  0  0  0
   -2.0601   -0.2049    0.0000 C   0  0  0  0  0  0  0  0  0
   -1.3456    0.2076    0.0000 C   0  0  0  0  0  0  0  0  0
   -1.3456    1.0326    0.0000 C   0  0  0  0  0  0  0  0  0
   -2.0601    1.4451    0.0000 C   0  0  0  0  0  0  0  0  0
   -2.0601    2.2701    0.0000 C   0  0  0  0  0  0  0  0  0
   -2.7745    2.6826    0.0000 C   0  0  0  0  0  0  0  0  0
   -2.7745    3.5076    0.0000 C   0  0  0  0  0  0  0  0  0
   -3.4890    3.9201    0.0000 O   0  0  0  0  0  0  0  0  0
   -4.2035    3.5076    0.0000 C   0  0  0  0  0  0  0  0  0
   -2.0601    3.9201    0.0000 C   0  0  0  0  0  0  0  0  0
   -1.3456    3.5076    0.0000 C   0  0  0  0  0  0  0  0  0
   -1.3456    2.6826    0.0000 C   0  0  0  0  0  0  0  0  0
  1  2  1  0  0  0  0
  1 20  1  0  0  0  0
  2  3  1  0  0  0  0
  3  4  1  0  0  0  0
  4  5  1  0  0  0  0
  5  6  1  0  0  0  0
  6  7  1  0  0  0  0
  6 11  1  0  0  0  0
  7  8  1  0  0  0  0
  8  9  1  0  0  0  0
  9 10  1  0  0  0  0
  9 12  1  0  0  0  0
 10 11  1  0  0  0  0
 12 13  4  0  0  0  0
 12 17  4  0  0  0  0
 13 14  4  0  0  0  0
 14 15  4  0  0  0  0
 15 16  4  0  0  0  0
 16 17  4  0  0  0  0
 17 18  1  0  0  0  0
 18 19  1  0  0  0  0
 20 21  4  0  0  0  0
 20 25  4  0  0  0  0
 21 22  4  0  0  0  0
 22 23  4  0  0  0  0
 23 24  4  0  0  0  0
 24 25  4  0  0  0  0
 25 26  1  0  0  0  0
 26 27  1  0  0  0  0
 27 28  1  0  0  0  0
 28 29  4  0  0  0  0
 28 35  4  0  0  0  0
 29 30  4  0  0  0  0
 30 31  1  0  0  0  0
 30 33  4  0  0  0  0
 31 32  1  0  0  0  0
 33 34  4  0  0  0  0
 34 35  4  0  0  0  0
M  END
>  <Name_Molregno>
515751

>  <5-HT1A>
3.98

>  <DOPAMINE D2>
4.59

$$$$
515752
  Marvin  02231216192D 0   1.00000     0.00000     0

 36 39  0  0  0  0  0  0  0  0999 V2000
   -0.0442   -0.0315    0.0000 O   0  0  0  0  0  0  0  0  0
    0.6702   -0.4440    0.0000 C   0  0  0  0  0  0  0  0  0
    1.3847   -0.0315    0.0000 C   0  0  0  0  0  0  0  0  0
    2.0992   -0.4440    0.0000 C   0  0  0  0  0  0  0  0  0
    2.8136   -0.0315    0.0000 C   0  0  0  0  0  0  0  0  0
    3.5281   -0.4440    0.0000 C   0  0  0  0  0  0  0  0  0
    4.2426   -0.0315    0.0000 N   0  0  0  0  0  0  0  0  0
    4.2426    0.7935    0.0000 C   0  0  0  0  0  0  0  0  0
    4.9571    1.2060    0.0000 C   0  0  0  0  0  0  0  0  0
    5.6715    0.7935    0.0000 N   0  0  0  0  0  0  0  0  0
    5.6715   -0.0315    0.0000 C   0  0  0  0  0  0  0  0  0
    4.9571   -0.4440    0.0000 C   0  0  0  0  0  0  0  0  0
    6.3860    1.2060    0.0000 C   0  0  0  0  0  0  0  0  0
    6.3860    2.0310    0.0000 C   0  0  0  0  0  0  0  0  0
    7.1005    2.4435    0.0000 C   0  0  0  0  0  0  0  0  0
    7.8149    2.0310    0.0000 C   0  0  0  0  0  0  0  0  0
    7.8149    1.2060    0.0000 C   0  0  0  0  0  0  0  0  0
    7.1005    0.7935    0.0000 C   0  0  0  0  0  0  0  0  0
    7.1005   -0.0315    0.0000 O   0  0  0  0  0  0  0  0  0
    7.8149   -0.4440    0.0000 C   0  0  0  0  0  0  0  0  0
   -0.7587   -0.4440    0.0000 C   0  0  0  0  0  0  0  0  0
   -0.7587   -1.2690    0.0000 C   0  0  0  0  0  0  0  0  0
   -1.4732   -1.6815    0.0000 C   0  0  0  0  0  0  0  0  0
   -2.1877   -1.2690    0.0000 C   0  0  0  0  0  0  0  0  0
   -2.1877   -0.4440    0.0000 C   0  0  0  0  0  0  0  0  0
   -1.4732   -0.0315    0.0000 C   0  0  0  0  0  0  0  0  0
   -1.4732    0.7935    0.0000 C   0  0  0  0  0  0  0  0  0
   -2.1877    1.2060    0.0000 C   0  0  0  0  0  0  0  0  0
   -2.1877    2.0310    0.0000 C   0  0  0  0  0  0  0  0  0
   -2.9021    2.4435    0.0000 C   0  0  0  0  0  0  0  0  0
   -2.9021    3.2685    0.0000 C   0  0  0  0  0  0  0  0  0
   -3.6166    3.6810    0.0000 O   0  0  0  0  0  0  0  0  0
   -3.6166    4.5060    0.0000 C   0  0  0  0  0  0  0  0  0
   -2.1877    3.6810    0.0000 C   0  0  0  0  0  0  0  0  0
   -1.4732    3.2685    0.0000 C   0  0  0  0  0  0  0  0  0
   -1.4732    2.4435    0.0000 C   0  0  0  0  0  0  0  0  0
  1  2  1  0  0  0  0
  1 21  1  0  0  0  0
  2  3  1  0  0  0  0
  3  4  1  0  0  0  0
  4  5  1  0  0  0  0
  5  6  1  0  0  0  0
  6  7  1  0  0  0  0
  7  8  1  0  0  0  0
  7 12  1  0  0  0  0
  8  9  1  0  0  0  0
  9 10  1  0  0  0  0
 10 11  1  0  0  0  0
 10 13  1  0  0  0  0
 11 12  1  0  0  0  0
 13 14  4  0  0  0  0
 13 18  4  0  0  0  0
 14 15  4  0  0  0  0
 15 16  4  0  0  0  0
 16 17  4  0  0  0  0
 17 18  4  0  0  0  0
 18 19  1  0  0  0  0
 19 20  1  0  0  0  0
 21 22  4  0  0  0  0
 21 26  4  0  0  0  0
 22 23  4  0  0  0  0
 23 24  4  0  0  0  0
 24 25  4  0  0  0  0
 25 26  4  0  0  0  0
 26 27  1  0  0  0  0
 27 28  1  0  0  0  0
 28 29  1  0  0  0  0
 29 30  4  0  0  0  0
 29 36  4  0  0  0  0
 30 31  4  0  0  0  0
 31 32  1  0  0  0  0
 31 34  4  0  0  0  0
 32 33  1  0  0  0  0
 34 35  4  0  0  0  0
 35 36  4  0  0  0  0
M  END
>  <Name_Molregno>
515752

>  <5-HT1A>
3.65

>  <DOPAMINE D2>
4

$$$$
515753
  Marvin  02231216192D 0   1.00000     0.00000     0

 32 35  0  0  0  0  0  0  0  0999 V2000
    5.9050    6.1162    0.0000 F   0  0  0  0  0  0  0  0  0
    5.9050    5.2912    0.0000 C   0  0  0  0  0  0  0  0  0
    6.6194    4.8787    0.0000 C   0  0  0  0  0  0  0  0  0
    6.6194    4.0537    0.0000 C   0  0  0  0  0  0  0  0  0
    5.9050    3.6412    0.0000 C   0  0  0  0  0  0  0  0  0
    5.9050    2.8162    0.0000 N   0  0  0  0  0  0  0  0  0
    6.6194    2.4037    0.0000 C   0  0  0  0  0  0  0  0  0
    6.6194    1.5787    0.0000 C   0  0  0  0  0  0  0  0  0
    5.9050    1.1662    0.0000 N   0  0  0  0  0  0  0  0  0
    5.1905    1.5787    0.0000 C   0  0  0  0  0  0  0  0  0
    5.1905    2.4037    0.0000 C   0  0  0  0  0  0  0  0  0
    5.9050    0.3412    0.0000 C   0  0  0  0  0  0  0  0  0
    6.6194   -0.0713    0.0000 C   0  0  0  0  0  0  0  0  0
    6.6194   -0.8963    0.0000 O   0  0  0  0  0  0  0  0  0
    7.3339   -1.3088    0.0000 C   0  0  0  0  0  0  0  0  0
    8.0484   -0.8963    0.0000 C   0  0  0  0  0  0  0  0  0
    8.7629   -1.3088    0.0000 C   0  0  0  0  0  0  0  0  0
    8.7629   -2.1338    0.0000 C   0  0  0  0  0  0  0  0  0
    8.0484   -2.5463    0.0000 C   0  0  0  0  0  0  0  0  0
    7.3339   -2.1338    0.0000 C   0  0  0  0  0  0  0  0  0
    6.6194   -2.5463    0.0000 C   0  0  0  0  0  0  0  0  0
    6.6194   -3.3713    0.0000 C   0  0  0  0  0  0  0  0  0
    5.9050   -3.7838    0.0000 C   0  0  0  0  0  0  0  0  0
    5.9050   -4.6088    0.0000 C   0  0  0  0  0  0  0  0  0
    5.1905   -5.0213    0.0000 C   0  0  0  0  0  0  0  0  0
    5.1905   -5.8463    0.0000 O   0  0  0  0  0  0  0  0  0
    5.9050   -6.2588    0.0000 C   0  0  0  0  0  0  0  0  0
    4.4760   -4.6088    0.0000 C   0  0  0  0  0  0  0  0  0
    4.4760   -3.7838    0.0000 C   0  0  0  0  0  0  0  0  0
    5.1905   -3.3713    0.0000 C   0  0  0  0  0  0  0  0  0
    5.1905    4.0537    0.0000 C   0  0  0  0  0  0  0  0  0
    5.1905    4.8787    0.0000 C   0  0  0  0  0  0  0  0  0
  1  2  1  0  0  0  0
  2  3  4  0  0  0  0
  2 32  4  0  0  0  0
  3  4  4  0  0  0  0
  4  5  4  0  0  0  0
  5  6  1  0  0  0  0
  5 31  4  0  0  0  0
  6  7  1  0  0  0  0
  6 11  1  0  0  0  0
  7  8  1  0  0  0  0
  8  9  1  0  0  0  0
  9 10  1  0  0  0  0
  9 12  1  0  0  0  0
 10 11  1  0  0  0  0
 12 13  1  0  0  0  0
 13 14  1  0  0  0  0
 14 15  1  0  0  0  0
 15 16  4  0  0  0  0
 15 20  4  0  0  0  0
 16 17  4  0  0  0  0
 17 18  4  0  0  0  0
 18 19  4  0  0  0  0
 19 20  4  0  0  0  0
 20 21  1  0  0  0  0
 21 22  1  0  0  0  0
 22 23  1  0  0  0  0
 23 24  4  0  0  0  0
 23 30  4  0  0  0  0
 24 25  4  0  0  0  0
 25 26  1  0  0  0  0
 25 28  4  0  0  0  0
 26 27  1  0  0  0  0
 28 29  4  0  0  0  0
 29 30  4  0  0  0  0
 31 32  4  0  0  0  0
M  END
>  <Name_Molregno>
515753

>  <5-HT1A>
4.05

>  <DOPAMINE D2>
4

$$$$
515754
  Marvin  02231216192D 0   1.00000     0.00000     0

 33 36  0  0  0  0  0  0  0  0999 V2000
    6.3322   10.0602    0.0000 F   0  0  0  0  0  0  0  0  0
    6.3322    9.2352    0.0000 C   0  0  0  0  0  0  0  0  0
    7.0467    8.8227    0.0000 C   0  0  0  0  0  0  0  0  0
    7.0467    7.9977    0.0000 C   0  0  0  0  0  0  0  0  0
    6.3322    7.5852    0.0000 C   0  0  0  0  0  0  0  0  0
    6.3322    6.7602    0.0000 N   0  0  0  0  0  0  0  0  0
    7.0467    6.3477    0.0000 C   0  0  0  0  0  0  0  0  0
    7.0467    5.5227    0.0000 C   0  0  0  0  0  0  0  0  0
    6.3322    5.1102    0.0000 N   0  0  0  0  0  0  0  0  0
    5.6177    5.5227    0.0000 C   0  0  0  0  0  0  0  0  0
    5.6177    6.3477    0.0000 C   0  0  0  0  0  0  0  0  0
    6.3322    4.2852    0.0000 C   0  0  0  0  0  0  0  0  0
    5.6177    3.8727    0.0000 C   0  0  0  0  0  0  0  0  0
    5.6177    3.0477    0.0000 C   0  0  0  0  0  0  0  0  0
    4.9033    2.6352    0.0000 O   0  0  0  0  0  0  0  0  0
    4.9033    1.8102    0.0000 C   0  0  0  0  0  0  0  0  0
    5.6177    1.3977    0.0000 C   0  0  0  0  0  0  0  0  0
    5.6177    0.5727    0.0000 C   0  0  0  0  0  0  0  0  0
    4.9033    0.1602    0.0000 C   0  0  0  0  0  0  0  0  0
    4.1888    0.5727    0.0000 C   0  0  0  0  0  0  0  0  0
    4.1888    1.3977    0.0000 C   0  0  0  0  0  0  0  0  0
    3.4743    1.8102    0.0000 C   0  0  0  0  0  0  0  0  0
    2.7598    1.3977    0.0000 C   0  0  0  0  0  0  0  0  0
    2.0454    1.8102    0.0000 C   0  0  0  0  0  0  0  0  0
    1.3309    1.3977    0.0000 C   0  0  0  0  0  0  0  0  0
    0.6164    1.8102    0.0000 C   0  0  0  0  0  0  0  0  0
   -0.0980    1.3977    0.0000 O   0  0  0  0  0  0  0  0  0
   -0.8125    1.8102    0.0000 C   0  0  0  0  0  0  0  0  0
    0.6164    2.6352    0.0000 C   0  0  0  0  0  0  0  0  0
    1.3309    3.0477    0.0000 C   0  0  0  0  0  0  0  0  0
    2.0454    2.6352    0.0000 C   0  0  0  0  0  0  0  0  0
    5.6177    7.9977    0.0000 C   0  0  0  0  0  0  0  0  0
    5.6177    8.8227    0.0000 C   0  0  0  0  0  0  0  0  0
  1  2  1  0  0  0  0
  2  3  4  0  0  0  0
  2 33  4  0  0  0  0
  3  4  4  0  0  0  0
  4  5  4  0  0  0  0
  5  6  1  0  0  0  0
  5 32  4  0  0  0  0
  6  7  1  0  0  0  0
  6 11  1  0  0  0  0
  7  8  1  0  0  0  0
  8  9  1  0  0  0  0
  9 10  1  0  0  0  0
  9 12  1  0  0  0  0
 10 11  1  0  0  0  0
 12 13  1  0  0  0  0
 13 14  1  0  0  0  0
 14 15  1  0  0  0  0
 15 16  1  0  0  0  0
 16 17  4  0  0  0  0
 16 21  4  0  0  0  0
 17 18  4  0  0  0  0
 18 19  4  0  0  0  0
 19 20  4  0  0  0  0
 20 21  4  0  0  0  0
 21 22  1  0  0  0  0
 22 23  1  0  0  0  0
 23 24  1  0  0  0  0
 24 25  4  0  0  0  0
 24 31  4  0  0  0  0
 25 26  4  0  0  0  0
 26 27  1  0  0  0  0
 26 29  4  0  0  0  0
 27 28  1  0  0  0  0
 29 30  4  0  0  0  0
 30 31  4  0  0  0  0
 32 33  4  0  0  0  0
M  END
>  <Name_Molregno>
515754

>  <5-HT1A>
4.05

>  <DOPAMINE D2>
4.09

$$$$
515819
  Marvin  02231216192D 0   1.00000     0.00000     0

 34 37  0  0  0  0  0  0  0  0999 V2000
    0.3928    2.1906    0.0000 F   0  0  0  0  0  0  0  0  0
    1.1073    1.7781    0.0000 C   0  0  0  0  0  0  0  0  0
    1.8217    2.1906    0.0000 C   0  0  0  0  0  0  0  0  0
    2.5362    1.7781    0.0000 C   0  0  0  0  0  0  0  0  0
    2.5362    0.9531    0.0000 C   0  0  0  0  0  0  0  0  0
    3.2507    0.5406    0.0000 N   0  0  0  0  0  0  0  0  0
    3.9651    0.9531    0.0000 C   0  0  0  0  0  0  0  0  0
    4.6796    0.5406    0.0000 C   0  0  0  0  0  0  0  0  0
    4.6796   -0.2844    0.0000 N   0  0  0  0  0  0  0  0  0
    3.9651   -0.6969    0.0000 C   0  0  0  0  0  0  0  0  0
    3.2507   -0.2844    0.0000 C   0  0  0  0  0  0  0  0  0
    5.3941   -0.6969    0.0000 C   0  0  0  0  0  0  0  0  0
    6.1086   -0.2844    0.0000 C   0  0  0  0  0  0  0  0  0
    6.8230   -0.6969    0.0000 C   0  0  0  0  0  0  0  0  0
    7.5375   -0.2844    0.0000 C   0  0  0  0  0  0  0  0  0
    8.2520   -0.6969    0.0000 O   0  0  0  0  0  0  0  0  0
    8.9664   -0.2844    0.0000 C   0  0  0  0  0  0  0  0  0
    8.9664    0.5406    0.0000 C   0  0  0  0  0  0  0  0  0
    9.6809    0.9531    0.0000 C   0  0  0  0  0  0  0  0  0
   10.3954    0.5406    0.0000 C   0  0  0  0  0  0  0  0  0
   10.3954   -0.2844    0.0000 C   0  0  0  0  0  0  0  0  0
    9.6809   -0.6969    0.0000 C   0  0  0  0  0  0  0  0  0
    9.6809   -1.5219    0.0000 C   0  0  0  0  0  0  0  0  0
   10.3954   -1.9344    0.0000 C   0  0  0  0  0  0  0  0  0
   10.3954   -2.7594    0.0000 C   0  0  0  0  0  0  0  0  0
   11.1099   -3.1719    0.0000 C   0  0  0  0  0  0  0  0  0
   11.1099   -3.9969    0.0000 C   0  0  0  0  0  0  0  0  0
   11.8243   -4.4094    0.0000 O   0  0  0  0  0  0  0  0  0
   12.5388   -3.9969    0.0000 C   0  0  0  0  0  0  0  0  0
   10.3954   -4.4094    0.0000 C   0  0  0  0  0  0  0  0  0
    9.6809   -3.9969    0.0000 C   0  0  0  0  0  0  0  0  0
    9.6809   -3.1719    0.0000 C   0  0  0  0  0  0  0  0  0
    1.8217    0.5406    0.0000 C   0  0  0  0  0  0  0  0  0
    1.1073    0.9531    0.0000 C   0  0  0  0  0  0  0  0  0
  1  2  1  0  0  0  0
  2  3  4  0  0  0  0
  2 34  4  0  0  0  0
  3  4  4  0  0  0  0
  4  5  4  0  0  0  0
  5  6  1  0  0  0  0
  5 33  4  0  0  0  0
  6  7  1  0  0  0  0
  6 11  1  0  0  0  0
  7  8  1  0  0  0  0
  8  9  1  0  0  0  0
  9 10  1  0  0  0  0
  9 12  1  0  0  0  0
 10 11  1  0  0  0  0
 12 13  1  0  0  0  0
 13 14  1  0  0  0  0
 14 15  1  0  0  0  0
 15 16  1  0  0  0  0
 16 17  1  0  0  0  0
 17 18  4  0  0  0  0
 17 22  4  0  0  0  0
 18 19  4  0  0  0  0
 19 20  4  0  0  0  0
 20 21  4  0  0  0  0
 21 22  4  0  0  0  0
 22 23  1  0  0  0  0
 23 24  1  0  0  0  0
 24 25  1  0  0  0  0
 25 26  4  0  0  0  0
 25 32  4  0  0  0  0
 26 27  4  0  0  0  0
 27 28  1  0  0  0  0
 27 30  4  0  0  0  0
 28 29  1  0  0  0  0
 30 31  4  0  0  0  0
 31 32  4  0  0  0  0
 33 34  4  0  0  0  0
M  END
>  <Name_Molregno>
515819

>  <5-HT1A>
3.65

>  <DOPAMINE D2>
3.94

$$$$
515820
  Marvin  02231216192D 0   1.00000     0.00000     0

 35 38  0  0  0  0  0  0  0  0999 V2000
   -1.7763   -5.9943    0.0000 F   0  0  0  0  0  0  0  0  0
   -1.0618   -5.5818    0.0000 C   0  0  0  0  0  0  0  0  0
   -1.0618   -4.7568    0.0000 C   0  0  0  0  0  0  0  0  0
   -0.3474   -4.3443    0.0000 C   0  0  0  0  0  0  0  0  0
    0.3671   -4.7568    0.0000 C   0  0  0  0  0  0  0  0  0
    1.0816   -4.3443    0.0000 N   0  0  0  0  0  0  0  0  0
    1.0816   -3.5193    0.0000 C   0  0  0  0  0  0  0  0  0
    1.7961   -3.1068    0.0000 C   0  0  0  0  0  0  0  0  0
    2.5105   -3.5193    0.0000 N   0  0  0  0  0  0  0  0  0
    2.5105   -4.3443    0.0000 C   0  0  0  0  0  0  0  0  0
    1.7961   -4.7568    0.0000 C   0  0  0  0  0  0  0  0  0
    3.2250   -3.1068    0.0000 C   0  0  0  0  0  0  0  0  0
    3.9395   -3.5193    0.0000 C   0  0  0  0  0  0  0  0  0
    4.6539   -3.1068    0.0000 C   0  0  0  0  0  0  0  0  0
    5.3684   -3.5193    0.0000 C   0  0  0  0  0  0  0  0  0
    6.0829   -3.1068    0.0000 C   0  0  0  0  0  0  0  0  0
    6.7974   -3.5193    0.0000 O   0  0  0  0  0  0  0  0  0
    7.5118   -3.1068    0.0000 C   0  0  0  0  0  0  0  0  0
    7.5118   -2.2818    0.0000 C   0  0  0  0  0  0  0  0  0
    8.2263   -1.8693    0.0000 C   0  0  0  0  0  0  0  0  0
    8.9408   -2.2818    0.0000 C   0  0  0  0  0  0  0  0  0
    8.9408   -3.1068    0.0000 C   0  0  0  0  0  0  0  0  0
    8.2263   -3.5193    0.0000 C   0  0  0  0  0  0  0  0  0
    8.2263   -4.3443    0.0000 C   0  0  0  0  0  0  0  0  0
    8.9408   -4.7568    0.0000 C   0  0  0  0  0  0  0  0  0
    8.9408   -5.5818    0.0000 C   0  0  0  0  0  0  0  0  0
    9.6552   -5.9943    0.0000 C   0  0  0  0  0  0  0  0  0
    9.6552   -6.8193    0.0000 C   0  0  0  0  0  0  0  0  0
   10.3697   -7.2318    0.0000 O   0  0  0  0  0  0  0  0  0
   10.3697   -8.0568    0.0000 C   0  0  0  0  0  0  0  0  0
    8.9408   -7.2318    0.0000 C   0  0  0  0  0  0  0  0  0
    8.2263   -6.8193    0.0000 C   0  0  0  0  0  0  0  0  0
    8.2263   -5.9943    0.0000 C   0  0  0  0  0  0  0  0  0
    0.3671   -5.5818    0.0000 C   0  0  0  0  0  0  0  0  0
   -0.3474   -5.9943    0.0000 C   0  0  0  0  0  0  0  0  0
  1  2  1  0  0  0  0
  2  3  4  0  0  0  0
  2 35  4  0  0  0  0
  3  4  4  0  0  0  0
  4  5  4  0  0  0  0
  5  6  1  0  0  0  0
  5 34  4  0  0  0  0
  6  7  1  0  0  0  0
  6 11  1  0  0  0  0
  7  8  1  0  0  0  0
  8  9  1  0  0  0  0
  9 10  1  0  0  0  0
  9 12  1  0  0  0  0
 10 11  1  0  0  0  0
 12 13  1  0  0  0  0
 13 14  1  0  0  0  0
 14 15  1  0  0  0  0
 15 16  1  0  0  0  0
 16 17  1  0  0  0  0
 17 18  1  0  0  0  0
 18 19  4  0  0  0  0
 18 23  4  0  0  0  0
 19 20  4  0  0  0  0
 20 21  4  0  0  0  0
 21 22  4  0  0  0  0
 22 23  4  0  0  0  0
 23 24  1  0  0  0  0
 24 25  1  0  0  0  0
 25 26  1  0  0  0  0
 26 27  4  0  0  0  0
 26 33  4  0  0  0  0
 27 28  4  0  0  0  0
 28 29  1  0  0  0  0
 28 31  4  0  0  0  0
 29 30  1  0  0  0  0
 31 32  4  0  0  0  0
 32 33  4  0  0  0  0
 34 35  4  0  0  0  0
M  END
>  <Name_Molregno>
515820

>  <5-HT1A>
3.65

>  <DOPAMINE D2>
4.03

$$$$
515821
  Marvin  02231216192D 0   1.00000     0.00000     0

 31 34  0  0  0  0  0  0  0  0999 V2000
    0.0232   -0.0019    0.0000 O   0  0  0  0  0  0  0  0  0
    0.0232   -0.8269    0.0000 C   0  0  0  0  0  0  0  0  0
    0.7376   -1.2394    0.0000 C   0  0  0  0  0  0  0  0  0
    0.7376   -2.0644    0.0000 N   0  0  0  0  0  0  0  0  0
    1.4521   -2.4769    0.0000 C   0  0  0  0  0  0  0  0  0
    1.4521   -3.3019    0.0000 C   0  0  0  0  0  0  0  0  0
    0.7376   -3.7144    0.0000 N   0  0  0  0  0  0  0  0  0
    0.0232   -3.3019    0.0000 C   0  0  0  0  0  0  0  0  0
    0.0232   -2.4769    0.0000 C   0  0  0  0  0  0  0  0  0
    0.7376   -4.5394    0.0000 C   0  0  0  0  0  0  0  0  0
    1.4521   -4.9519    0.0000 N   0  0  0  0  0  0  0  0  0
    1.4521   -5.7769    0.0000 C   0  0  0  0  0  0  0  0  0
    0.7376   -6.1894    0.0000 C   0  0  0  0  0  0  0  0  0
    0.0232   -5.7769    0.0000 C   0  0  0  0  0  0  0  0  0
    0.0232   -4.9519    0.0000 N   0  0  0  0  0  0  0  0  0
   -0.6913    0.4106    0.0000 C   0  0  0  0  0  0  0  0  0
   -1.4058   -0.0019    0.0000 C   0  0  0  0  0  0  0  0  0
   -2.1202    0.4106    0.0000 C   0  0  0  0  0  0  0  0  0
   -2.1202    1.2356    0.0000 C   0  0  0  0  0  0  0  0  0
   -1.4058    1.6481    0.0000 C   0  0  0  0  0  0  0  0  0
   -0.6913    1.2356    0.0000 C   0  0  0  0  0  0  0  0  0
    0.0232    1.6481    0.0000 C   0  0  0  0  0  0  0  0  0
    0.0232    2.4731    0.0000 C   0  0  0  0  0  0  0  0  0
    0.7376    2.8856    0.0000 C   0  0  0  0  0  0  0  0  0
    0.7376    3.7106    0.0000 C   0  0  0  0  0  0  0  0  0
    1.4521    4.1231    0.0000 C   0  0  0  0  0  0  0  0  0
    1.4521    4.9481    0.0000 O   0  0  0  0  0  0  0  0  0
    0.7376    5.3606    0.0000 C   0  0  0  0  0  0  0  0  0
    2.1666    3.7106    0.0000 C   0  0  0  0  0  0  0  0  0
    2.1666    2.8856    0.0000 C   0  0  0  0  0  0  0  0  0
    1.4521    2.4731    0.0000 C   0  0  0  0  0  0  0  0  0
  1  2  1  0  0  0  0
  1 16  1  0  0  0  0
  2  3  1  0  0  0  0
  3  4  1  0  0  0  0
  4  5  1  0  0  0  0
  4  9  1  0  0  0  0
  5  6  1  0  0  0  0
  6  7  1  0  0  0  0
  7  8  1  0  0  0  0
  7 10  1  0  0  0  0
  8  9  1  0  0  0  0
 10 11  4  0  0  0  0
 10 15  4  0  0  0  0
 11 12  4  0  0  0  0
 12 13  4  0  0  0  0
 13 14  4  0  0  0  0
 14 15  4  0  0  0  0
 16 17  4  0  0  0  0
 16 21  4  0  0  0  0
 17 18  4  0  0  0  0
 18 19  4  0  0  0  0
 19 20  4  0  0  0  0
 20 21  4  0  0  0  0
 21 22  1  0  0  0  0
 22 23  1  0  0  0  0
 23 24  1  0  0  0  0
 24 25  4  0  0  0  0
 24 31  4  0  0  0  0
 25 26  4  0  0  0  0
 26 27  1  0  0  0  0
 26 29  4  0  0  0  0
 27 28  1  0  0  0  0
 29 30  4  0  0  0  0
 30 31  4  0  0  0  0
M  END
>  <Name_Molregno>
515821

>  <5-HT1A>
4.09

>  <DOPAMINE D2>
4.1

$$$$
515822
  Marvin  02231216192D 0   1.00000     0.00000     0

 32 35  0  0  0  0  0  0  0  0999 V2000
    0.3501    0.2414    0.0000 O   0  0  0  0  0  0  0  0  0
   -0.3643   -0.1711    0.0000 C   0  0  0  0  0  0  0  0  0
   -0.3643   -0.9961    0.0000 C   0  0  0  0  0  0  0  0  0
   -1.0788   -1.4086    0.0000 C   0  0  0  0  0  0  0  0  0
   -1.0788   -2.2336    0.0000 N   0  0  0  0  0  0  0  0  0
   -0.3643   -2.6461    0.0000 C   0  0  0  0  0  0  0  0  0
   -0.3643   -3.4711    0.0000 C   0  0  0  0  0  0  0  0  0
   -1.0788   -3.8836    0.0000 N   0  0  0  0  0  0  0  0  0
   -1.7933   -3.4711    0.0000 C   0  0  0  0  0  0  0  0  0
   -1.7933   -2.6461    0.0000 C   0  0  0  0  0  0  0  0  0
   -1.0788   -4.7086    0.0000 C   0  0  0  0  0  0  0  0  0
   -0.3643   -5.1211    0.0000 N   0  0  0  0  0  0  0  0  0
   -0.3643   -5.9461    0.0000 C   0  0  0  0  0  0  0  0  0
   -1.0788   -6.3586    0.0000 C   0  0  0  0  0  0  0  0  0
   -1.7933   -5.9461    0.0000 C   0  0  0  0  0  0  0  0  0
   -1.7933   -5.1211    0.0000 N   0  0  0  0  0  0  0  0  0
    0.3501    1.0664    0.0000 C   0  0  0  0  0  0  0  0  0
   -0.3643    1.4789    0.0000 C   0  0  0  0  0  0  0  0  0
   -0.3643    2.3039    0.0000 C   0  0  0  0  0  0  0  0  0
    0.3501    2.7164    0.0000 C   0  0  0  0  0  0  0  0  0
    1.0646    2.3039    0.0000 C   0  0  0  0  0  0  0  0  0
    1.0646    1.4789    0.0000 C   0  0  0  0  0  0  0  0  0
    1.7791    1.0664    0.0000 C   0  0  0  0  0  0  0  0  0
    2.4936    1.4789    0.0000 C   0  0  0  0  0  0  0  0  0
    3.2080    1.0664    0.0000 C   0  0  0  0  0  0  0  0  0
    3.9225    1.4789    0.0000 C   0  0  0  0  0  0  0  0  0
    4.6370    1.0664    0.0000 C   0  0  0  0  0  0  0  0  0
    5.3514    1.4789    0.0000 O   0  0  0  0  0  0  0  0  0
    6.0659    1.0664    0.0000 C   0  0  0  0  0  0  0  0  0
    4.6370    0.2414    0.0000 C   0  0  0  0  0  0  0  0  0
    3.9225   -0.1711    0.0000 C   0  0  0  0  0  0  0  0  0
    3.2080    0.2414    0.0000 C   0  0  0  0  0  0  0  0  0
  1  2  1  0  0  0  0
  1 17  1  0  0  0  0
  2  3  1  0  0  0  0
  3  4  1  0  0  0  0
  4  5  1  0  0  0  0
  5  6  1  0  0  0  0
  5 10  1  0  0  0  0
  6  7  1  0  0  0  0
  7  8  1  0  0  0  0
  8  9  1  0  0  0  0
  8 11  1  0  0  0  0
  9 10  1  0  0  0  0
 11 12  4  0  0  0  0
 11 16  4  0  0  0  0
 12 13  4  0  0  0  0
 13 14  4  0  0  0  0
 14 15  4  0  0  0  0
 15 16  4  0  0  0  0
 17 18  4  0  0  0  0
 17 22  4  0  0  0  0
 18 19  4  0  0  0  0
 19 20  4  0  0  0  0
 20 21  4  0  0  0  0
 21 22  4  0  0  0  0
 22 23  1  0  0  0  0
 23 24  1  0  0  0  0
 24 25  1  0  0  0  0
 25 26  4  0  0  0  0
 25 32  4  0  0  0  0
 26 27  4  0  0  0  0
 27 28  1  0  0  0  0
 27 30  4  0  0  0  0
 28 29  1  0  0  0  0
 30 31  4  0  0  0  0
 31 32  4  0  0  0  0
M  END
>  <Name_Molregno>
515822

>  <5-HT1A>
4.24

>  <DOPAMINE D2>
4.85

$$$$
515852
  Marvin  02231216192D 0   1.00000     0.00000     0

 24 28  0  0  1  0  0  0  0  0999 V2000
    3.5696   -0.3324    0.0000 O   0  0  0  0  0  0  0  0  0
    3.9434   -1.0678    0.0000 C   0  0  0  0  0  0  0  0  0
    3.3594   -1.6506    0.0000 C   0  0  0  0  0  0  0  0  0
    2.6247   -1.2753    0.0000 C   0  0  0  0  0  0  0  0  0
    2.7546   -0.4606    0.0000 C   0  0  0  0  0  0  0  0  0
    2.1140    0.0593    0.0000 C   0  0  0  0  0  0  0  0  0
    1.3435   -0.2355    0.0000 C   0  0  0  0  0  0  0  0  0
    1.2136   -1.0502    0.0000 C   0  0  0  0  0  0  0  0  0
    1.8542   -1.5701    0.0000 C   0  0  0  0  0  0  0  0  0
    1.7243   -2.3848    0.0000 N   0  0  0  0  0  0  0  0  0
    0.9537   -2.6797    0.0000 C   0  0  0  0  0  0  0  0  0
    0.3131   -2.1598    0.0000 N   0  0  0  0  0  0  0  0  0
    0.4431   -1.3451    0.0000 C   0  0  0  0  0  0  0  0  0
   -0.1975   -0.8252    0.0000 N   0  0  0  0  0  0  0  0  0
   -0.9680   -1.1201    0.0000 C   0  0  0  0  0  0  0  0  0
   -1.6086   -0.6002    0.0000 C   0  0  0  0  0  0  0  0  0
   -1.4787    0.2145    0.0000 N   0  0  0  0  0  0  0  0  0
   -0.7082    0.5094    0.0000 C   0  0  0  0  0  0  0  0  0
   -0.0676   -0.0105    0.0000 C   0  0  0  0  0  0  0  0  0
    0.8238   -3.4944    0.0000 N   0  0  0  0  0  0  0  0  0
    3.5721   -2.4477    0.0000 C   0  0  0  0  0  0  0  0  0
    4.3687   -2.6621    0.0000 C   0  0  0  0  0  0  0  0  0
    4.9527   -2.0793    0.0000 C   0  0  0  0  0  0  0  0  0
    4.7400   -1.2822    0.0000 C   0  0  0  0  0  0  0  0  0
  1  2  1  0  0  0  0
  1  5  1  0  0  0  0
  2  3  1  0  0  0  0
  2 24  1  0  0  0  0
  3  4  1  0  0  0  0
  3 21  1  0  0  0  0
  4  5  2  0  0  0  0
  4  9  1  0  0  0  0
  5  6  1  0  0  0  0
  6  7  1  0  0  0  0
  7  8  1  0  0  0  0
  8  9  4  0  0  0  0
  8 13  4  0  0  0  0
  9 10  4  0  0  0  0
 10 11  4  0  0  0  0
 11 12  4  0  0  0  0
 11 20  1  0  0  0  0
 12 13  4  0  0  0  0
 13 14  1  0  0  0  0
 14 15  1  0  0  0  0
 14 19  1  0  0  0  0
 15 16  1  0  0  0  0
 16 17  1  0  0  0  0
 17 18  1  0  0  0  0
 18 19  1  0  0  0  0
 21 22  1  0  0  0  0
 22 23  1  0  0  0  0
 23 24  1  0  0  0  0
M  END
>  <Name_Molregno>
515852

>  <5-HT1A>
9.18

>  <5-HT1B>
7.74

>  <5-HT2A>
8.89

>  <5-HT2C>
8.41

>  <5-HT3>
8.18

>  <5-HT5>
6.96

>  <5-HT6>
7.03

>  <5-HT7>
9.66

>  <Beta-1>
6.37

>  <Beta-2>
9.3

>  <DOPAMINE D1>
9.42

>  <DOPAMINE D2>
8.54

>  <DOPAMINE D3>
8.85

>  <DOPAMINE D5>
9.32

>  <Dopamine transporter>
8.05

>  <HISTAMINE H1>
7.05

>  <HISTAMINE H2>
5.91

>  <HISTAMINE H3>
6.03

>  <HISTAMINE H4>
8.24

>  <Muscarinic acetylcholine receptor M1>
7.6

>  <Muscarinic acetylcholine receptor M2>
7.44

>  <Muscarinic acetylcholine receptor M3>
9.38

>  <Muscarinic acetylcholine receptor M4>
9.18

>  <Muscarinic acetylcholine receptor M5>
9.38

>  <Norepinephrine transporter>
8.17

>  <Serotonin transporter>
8.49

$$$$
515883
  Marvin  02231216192D 0   1.00000     0.00000     0

 33 36  0  0  0  0  0  0  0  0999 V2000
   -0.0102   -0.2417    0.0000 O   0  0  0  0  0  0  0  0  0
    0.7043   -0.6542    0.0000 C   0  0  0  0  0  0  0  0  0
    1.4187   -0.2417    0.0000 C   0  0  0  0  0  0  0  0  0
    2.1332   -0.6542    0.0000 C   0  0  0  0  0  0  0  0  0
    2.8477   -0.2417    0.0000 C   0  0  0  0  0  0  0  0  0
    3.5621   -0.6542    0.0000 N   0  0  0  0  0  0  0  0  0
    4.2766   -0.2417    0.0000 C   0  0  0  0  0  0  0  0  0
    4.9911   -0.6542    0.0000 C   0  0  0  0  0  0  0  0  0
    4.9911   -1.4792    0.0000 N   0  0  0  0  0  0  0  0  0
    4.2766   -1.8917    0.0000 C   0  0  0  0  0  0  0  0  0
    3.5621   -1.4792    0.0000 C   0  0  0  0  0  0  0  0  0
    5.7056   -1.8917    0.0000 C   0  0  0  0  0  0  0  0  0
    6.4200   -1.4792    0.0000 N   0  0  0  0  0  0  0  0  0
    7.1345   -1.8917    0.0000 C   0  0  0  0  0  0  0  0  0
    7.1345   -2.7167    0.0000 C   0  0  0  0  0  0  0  0  0
    6.4200   -3.1292    0.0000 C   0  0  0  0  0  0  0  0  0
    5.7056   -2.7167    0.0000 N   0  0  0  0  0  0  0  0  0
   -0.7247   -0.6542    0.0000 C   0  0  0  0  0  0  0  0  0
   -0.7247   -1.4792    0.0000 C   0  0  0  0  0  0  0  0  0
   -1.4391   -1.8917    0.0000 C   0  0  0  0  0  0  0  0  0
   -2.1536   -1.4792    0.0000 C   0  0  0  0  0  0  0  0  0
   -2.1536   -0.6542    0.0000 C   0  0  0  0  0  0  0  0  0
   -1.4391   -0.2417    0.0000 C   0  0  0  0  0  0  0  0  0
   -1.4391    0.5833    0.0000 C   0  0  0  0  0  0  0  0  0
   -2.1536    0.9958    0.0000 C   0  0  0  0  0  0  0  0  0
   -2.1536    1.8208    0.0000 C   0  0  0  0  0  0  0  0  0
   -2.8681    2.2333    0.0000 C   0  0  0  0  0  0  0  0  0
   -2.8681    3.0583    0.0000 C   0  0  0  0  0  0  0  0  0
   -3.5826    3.4708    0.0000 O   0  0  0  0  0  0  0  0  0
   -4.2970    3.0583    0.0000 C   0  0  0  0  0  0  0  0  0
   -2.1536    3.4708    0.0000 C   0  0  0  0  0  0  0  0  0
   -1.4391    3.0583    0.0000 C   0  0  0  0  0  0  0  0  0
   -1.4391    2.2333    0.0000 C   0  0  0  0  0  0  0  0  0
  1  2  1  0  0  0  0
  1 18  1  0  0  0  0
  2  3  1  0  0  0  0
  3  4  1  0  0  0  0
  4  5  1  0  0  0  0
  5  6  1  0  0  0  0
  6  7  1  0  0  0  0
  6 11  1  0  0  0  0
  7  8  1  0  0  0  0
  8  9  1  0  0  0  0
  9 10  1  0  0  0  0
  9 12  1  0  0  0  0
 10 11  1  0  0  0  0
 12 13  4  0  0  0  0
 12 17  4  0  0  0  0
 13 14  4  0  0  0  0
 14 15  4  0  0  0  0
 15 16  4  0  0  0  0
 16 17  4  0  0  0  0
 18 19  4  0  0  0  0
 18 23  4  0  0  0  0
 19 20  4  0  0  0  0
 20 21  4  0  0  0  0
 21 22  4  0  0  0  0
 22 23  4  0  0  0  0
 23 24  1  0  0  0  0
 24 25  1  0  0  0  0
 25 26  1  0  0  0  0
 26 27  4  0  0  0  0
 26 33  4  0  0  0  0
 27 28  4  0  0  0  0
 28 29  1  0  0  0  0
 28 31  4  0  0  0  0
 29 30  1  0  0  0  0
 31 32  4  0  0  0  0
 32 33  4  0  0  0  0
M  END
>  <Name_Molregno>
515883

>  <5-HT1A>
4.13

>  <DOPAMINE D2>
4.03

$$$$
515884
  Marvin  02231216192D 0   1.00000     0.00000     0

 34 37  0  0  0  0  0  0  0  0999 V2000
   -0.0358   -1.9585    0.0000 O   0  0  0  0  0  0  0  0  0
    0.6786   -2.3710    0.0000 C   0  0  0  0  0  0  0  0  0
    1.3931   -1.9585    0.0000 C   0  0  0  0  0  0  0  0  0
    2.1076   -2.3710    0.0000 C   0  0  0  0  0  0  0  0  0
    2.8220   -1.9585    0.0000 C   0  0  0  0  0  0  0  0  0
    3.5365   -2.3710    0.0000 C   0  0  0  0  0  0  0  0  0
    4.2510   -1.9585    0.0000 N   0  0  0  0  0  0  0  0  0
    4.2510   -1.1335    0.0000 C   0  0  0  0  0  0  0  0  0
    4.9655   -0.7210    0.0000 C   0  0  0  0  0  0  0  0  0
    5.6799   -1.1335    0.0000 N   0  0  0  0  0  0  0  0  0
    5.6799   -1.9585    0.0000 C   0  0  0  0  0  0  0  0  0
    4.9655   -2.3710    0.0000 C   0  0  0  0  0  0  0  0  0
    6.3944   -0.7210    0.0000 C   0  0  0  0  0  0  0  0  0
    6.3944    0.1040    0.0000 N   0  0  0  0  0  0  0  0  0
    7.1089    0.5165    0.0000 C   0  0  0  0  0  0  0  0  0
    7.8233    0.1040    0.0000 C   0  0  0  0  0  0  0  0  0
    7.8233   -0.7210    0.0000 C   0  0  0  0  0  0  0  0  0
    7.1089   -1.1335    0.0000 N   0  0  0  0  0  0  0  0  0
   -0.7503   -2.3710    0.0000 C   0  0  0  0  0  0  0  0  0
   -0.7503   -3.1960    0.0000 C   0  0  0  0  0  0  0  0  0
   -1.4648   -3.6085    0.0000 C   0  0  0  0  0  0  0  0  0
   -2.1793   -3.1960    0.0000 C   0  0  0  0  0  0  0  0  0
   -2.1793   -2.3710    0.0000 C   0  0  0  0  0  0  0  0  0
   -1.4648   -1.9585    0.0000 C   0  0  0  0  0  0  0  0  0
   -1.4648   -1.1335    0.0000 C   0  0  0  0  0  0  0  0  0
   -2.1793   -0.7210    0.0000 C   0  0  0  0  0  0  0  0  0
   -2.1793    0.1040    0.0000 C   0  0  0  0  0  0  0  0  0
   -2.8937    0.5165    0.0000 C   0  0  0  0  0  0  0  0  0
   -2.8937    1.3415    0.0000 C   0  0  0  0  0  0  0  0  0
   -3.6082    1.7540    0.0000 O   0  0  0  0  0  0  0  0  0
   -3.6082    2.5790    0.0000 C   0  0  0  0  0  0  0  0  0
   -2.1793    1.7540    0.0000 C   0  0  0  0  0  0  0  0  0
   -1.4648    1.3415    0.0000 C   0  0  0  0  0  0  0  0  0
   -1.4648    0.5165    0.0000 C   0  0  0  0  0  0  0  0  0
  1  2  1  0  0  0  0
  1 19  1  0  0  0  0
  2  3  1  0  0  0  0
  3  4  1  0  0  0  0
  4  5  1  0  0  0  0
  5  6  1  0  0  0  0
  6  7  1  0  0  0  0
  7  8  1  0  0  0  0
  7 12  1  0  0  0  0
  8  9  1  0  0  0  0
  9 10  1  0  0  0  0
 10 11  1  0  0  0  0
 10 13  1  0  0  0  0
 11 12  1  0  0  0  0
 13 14  4  0  0  0  0
 13 18  4  0  0  0  0
 14 15  4  0  0  0  0
 15 16  4  0  0  0  0
 16 17  4  0  0  0  0
 17 18  4  0  0  0  0
 19 20  4  0  0  0  0
 19 24  4  0  0  0  0
 20 21  4  0  0  0  0
 21 22  4  0  0  0  0
 22 23  4  0  0  0  0
 23 24  4  0  0  0  0
 24 25  1  0  0  0  0
 25 26  1  0  0  0  0
 26 27  1  0  0  0  0
 27 28  4  0  0  0  0
 27 34  4  0  0  0  0
 28 29  4  0  0  0  0
 29 30  1  0  0  0  0
 29 32  4  0  0  0  0
 30 31  1  0  0  0  0
 32 33  4  0  0  0  0
 33 34  4  0  0  0  0
M  END
>  <Name_Molregno>
515884

>  <5-HT1A>
3.65

>  <DOPAMINE D2>
4

$$$$
515885
  Marvin  02231216192D 0   1.00000     0.00000     0

 26 28  0  0  0  0  0  0  0  0999 V2000
   -0.8749   -0.9334    0.0000 O   0  0  0  0  0  0  0  0  0
   -0.8749   -1.7584    0.0000 C   0  0  0  0  0  0  0  0  0
   -0.1605   -2.1709    0.0000 C   0  0  0  0  0  0  0  0  0
   -0.1605   -2.9959    0.0000 N   0  0  0  0  0  0  0  0  0
    0.5540   -3.4084    0.0000 C   0  0  0  0  0  0  0  0  0
    0.5540   -4.2334    0.0000 C   0  0  0  0  0  0  0  0  0
   -0.1605   -4.6459    0.0000 N   0  0  0  0  0  0  0  0  0
   -0.8749   -4.2334    0.0000 C   0  0  0  0  0  0  0  0  0
   -0.8749   -3.4084    0.0000 C   0  0  0  0  0  0  0  0  0
   -0.1605   -5.4709    0.0000 C   0  0  0  0  0  0  0  0  0
   -1.5894   -0.5209    0.0000 C   0  0  0  0  0  0  0  0  0
   -2.3039   -0.9334    0.0000 C   0  0  0  0  0  0  0  0  0
   -3.0183   -0.5209    0.0000 C   0  0  0  0  0  0  0  0  0
   -3.0183    0.3041    0.0000 C   0  0  0  0  0  0  0  0  0
   -2.3039    0.7166    0.0000 C   0  0  0  0  0  0  0  0  0
   -1.5894    0.3041    0.0000 C   0  0  0  0  0  0  0  0  0
   -0.8749    0.7166    0.0000 C   0  0  0  0  0  0  0  0  0
   -0.8749    1.5416    0.0000 C   0  0  0  0  0  0  0  0  0
   -0.1605    1.9541    0.0000 C   0  0  0  0  0  0  0  0  0
   -0.1605    2.7791    0.0000 C   0  0  0  0  0  0  0  0  0
    0.5540    3.1916    0.0000 C   0  0  0  0  0  0  0  0  0
    0.5540    4.0166    0.0000 O   0  0  0  0  0  0  0  0  0
   -0.1605    4.4291    0.0000 C   0  0  0  0  0  0  0  0  0
    1.2685    2.7791    0.0000 C   0  0  0  0  0  0  0  0  0
    1.2685    1.9541    0.0000 C   0  0  0  0  0  0  0  0  0
    0.5540    1.5416    0.0000 C   0  0  0  0  0  0  0  0  0
  1  2  1  0  0  0  0
  1 11  1  0  0  0  0
  2  3  1  0  0  0  0
  3  4  1  0  0  0  0
  4  5  1  0  0  0  0
  4  9  1  0  0  0  0
  5  6  1  0  0  0  0
  6  7  1  0  0  0  0
  7  8  1  0  0  0  0
  7 10  1  0  0  0  0
  8  9  1  0  0  0  0
 11 12  4  0  0  0  0
 11 16  4  0  0  0  0
 12 13  4  0  0  0  0
 13 14  4  0  0  0  0
 14 15  4  0  0  0  0
 15 16  4  0  0  0  0
 16 17  1  0  0  0  0
 17 18  1  0  0  0  0
 18 19  1  0  0  0  0
 19 20  4  0  0  0  0
 19 26  4  0  0  0  0
 20 21  4  0  0  0  0
 21 22  1  0  0  0  0
 21 24  4  0  0  0  0
 22 23  1  0  0  0  0
 24 25  4  0  0  0  0
 25 26  4  0  0  0  0
M  END
>  <Name_Molregno>
515885

>  <5-HT1A>
3.65

>  <DOPAMINE D2>
4.38

$$$$
515886
  Marvin  02231216192D 0   1.00000     0.00000     0

 27 29  0  0  0  0  0  0  0  0999 V2000
   -0.0057   -0.0250    0.0000 O   0  0  0  0  0  0  0  0  0
    0.7087   -0.4375    0.0000 C   0  0  0  0  0  0  0  0  0
    1.4232   -0.0250    0.0000 C   0  0  0  0  0  0  0  0  0
    2.1377   -0.4375    0.0000 C   0  0  0  0  0  0  0  0  0
    2.8522   -0.0250    0.0000 N   0  0  0  0  0  0  0  0  0
    2.8522    0.8000    0.0000 C   0  0  0  0  0  0  0  0  0
    3.5666    1.2125    0.0000 C   0  0  0  0  0  0  0  0  0
    4.2811    0.8000    0.0000 N   0  0  0  0  0  0  0  0  0
    4.2811   -0.0250    0.0000 C   0  0  0  0  0  0  0  0  0
    3.5666   -0.4375    0.0000 C   0  0  0  0  0  0  0  0  0
    4.9956    1.2125    0.0000 C   0  0  0  0  0  0  0  0  0
   -0.7202   -0.4375    0.0000 C   0  0  0  0  0  0  0  0  0
   -0.7202   -1.2625    0.0000 C   0  0  0  0  0  0  0  0  0
   -1.4347   -1.6750    0.0000 C   0  0  0  0  0  0  0  0  0
   -2.1491   -1.2625    0.0000 C   0  0  0  0  0  0  0  0  0
   -2.1491   -0.4375    0.0000 C   0  0  0  0  0  0  0  0  0
   -1.4347   -0.0250    0.0000 C   0  0  0  0  0  0  0  0  0
   -1.4347    0.8000    0.0000 C   0  0  0  0  0  0  0  0  0
   -2.1491    1.2125    0.0000 C   0  0  0  0  0  0  0  0  0
   -2.1491    2.0375    0.0000 C   0  0  0  0  0  0  0  0  0
   -2.8636    2.4500    0.0000 C   0  0  0  0  0  0  0  0  0
   -2.8636    3.2750    0.0000 C   0  0  0  0  0  0  0  0  0
   -3.5781    3.6875    0.0000 O   0  0  0  0  0  0  0  0  0
   -3.5781    4.5125    0.0000 C   0  0  0  0  0  0  0  0  0
   -2.1491    3.6875    0.0000 C   0  0  0  0  0  0  0  0  0
   -1.4347    3.2750    0.0000 C   0  0  0  0  0  0  0  0  0
   -1.4347    2.4500    0.0000 C   0  0  0  0  0  0  0  0  0
  1  2  1  0  0  0  0
  1 12  1  0  0  0  0
  2  3  1  0  0  0  0
  3  4  1  0  0  0  0
  4  5  1  0  0  0  0
  5  6  1  0  0  0  0
  5 10  1  0  0  0  0
  6  7  1  0  0  0  0
  7  8  1  0  0  0  0
  8  9  1  0  0  0  0
  8 11  1  0  0  0  0
  9 10  1  0  0  0  0
 12 13  4  0  0  0  0
 12 17  4  0  0  0  0
 13 14  4  0  0  0  0
 14 15  4  0  0  0  0
 15 16  4  0  0  0  0
 16 17  4  0  0  0  0
 17 18  1  0  0  0  0
 18 19  1  0  0  0  0
 19 20  1  0  0  0  0
 20 21  4  0  0  0  0
 20 27  4  0  0  0  0
 21 22  4  0  0  0  0
 22 23  1  0  0  0  0
 22 25  4  0  0  0  0
 23 24  1  0  0  0  0
 25 26  4  0  0  0  0
 26 27  4  0  0  0  0
M  END
>  <Name_Molregno>
515886

>  <5-HT1A>
3.65

>  <DOPAMINE D2>
4.13

$$$$
515962
  Marvin  02231216192D 0   1.00000     0.00000     0

 28 30  0  0  0  0  0  0  0  0999 V2000
    0.0158    0.0316    0.0000 O   0  0  0  0  0  0  0  0  0
    0.7303   -0.3809    0.0000 C   0  0  0  0  0  0  0  0  0
    1.4447    0.0316    0.0000 C   0  0  0  0  0  0  0  0  0
    2.1592   -0.3809    0.0000 C   0  0  0  0  0  0  0  0  0
    2.8737    0.0316    0.0000 C   0  0  0  0  0  0  0  0  0
    3.5882   -0.3809    0.0000 N   0  0  0  0  0  0  0  0  0
    4.3026    0.0316    0.0000 C   0  0  0  0  0  0  0  0  0
    5.0171   -0.3809    0.0000 C   0  0  0  0  0  0  0  0  0
    5.0171   -1.2059    0.0000 N   0  0  0  0  0  0  0  0  0
    4.3026   -1.6184    0.0000 C   0  0  0  0  0  0  0  0  0
    3.5882   -1.2059    0.0000 C   0  0  0  0  0  0  0  0  0
    5.7316   -1.6184    0.0000 C   0  0  0  0  0  0  0  0  0
   -0.6987   -0.3809    0.0000 C   0  0  0  0  0  0  0  0  0
   -0.6987   -1.2059    0.0000 C   0  0  0  0  0  0  0  0  0
   -1.4131   -1.6184    0.0000 C   0  0  0  0  0  0  0  0  0
   -2.1276   -1.2059    0.0000 C   0  0  0  0  0  0  0  0  0
   -2.1276   -0.3809    0.0000 C   0  0  0  0  0  0  0  0  0
   -1.4131    0.0316    0.0000 C   0  0  0  0  0  0  0  0  0
   -1.4131    0.8566    0.0000 C   0  0  0  0  0  0  0  0  0
   -2.1276    1.2691    0.0000 C   0  0  0  0  0  0  0  0  0
   -2.1276    2.0941    0.0000 C   0  0  0  0  0  0  0  0  0
   -2.8421    2.5066    0.0000 C   0  0  0  0  0  0  0  0  0
   -2.8421    3.3316    0.0000 C   0  0  0  0  0  0  0  0  0
   -3.5566    3.7441    0.0000 O   0  0  0  0  0  0  0  0  0
   -4.2710    3.3316    0.0000 C   0  0  0  0  0  0  0  0  0
   -2.1276    3.7441    0.0000 C   0  0  0  0  0  0  0  0  0
   -1.4131    3.3316    0.0000 C   0  0  0  0  0  0  0  0  0
   -1.4131    2.5066    0.0000 C   0  0  0  0  0  0  0  0  0
  1  2  1  0  0  0  0
  1 13  1  0  0  0  0
  2  3  1  0  0  0  0
  3  4  1  0  0  0  0
  4  5  1  0  0  0  0
  5  6  1  0  0  0  0
  6  7  1  0  0  0  0
  6 11  1  0  0  0  0
  7  8  1  0  0  0  0
  8  9  1  0  0  0  0
  9 10  1  0  0  0  0
  9 12  1  0  0  0  0
 10 11  1  0  0  0  0
 13 14  4  0  0  0  0
 13 18  4  0  0  0  0
 14 15  4  0  0  0  0
 15 16  4  0  0  0  0
 16 17  4  0  0  0  0
 17 18  4  0  0  0  0
 18 19  1  0  0  0  0
 19 20  1  0  0  0  0
 20 21  1  0  0  0  0
 21 22  4  0  0  0  0
 21 28  4  0  0  0  0
 22 23  4  0  0  0  0
 23 24  1  0  0  0  0
 23 26  4  0  0  0  0
 24 25  1  0  0  0  0
 26 27  4  0  0  0  0
 27 28  4  0  0  0  0
M  END
>  <Name_Molregno>
515962

>  <5-HT1A>
3.65

>  <DOPAMINE D2>
4

$$$$
515963
  Marvin  02231216192D 0   1.00000     0.00000     0

 29 31  0  0  0  0  0  0  0  0999 V2000
   -0.0061   -0.0270    0.0000 O   0  0  0  0  0  0  0  0  0
    0.7083   -0.4395    0.0000 C   0  0  0  0  0  0  0  0  0
    1.4228   -0.0270    0.0000 C   0  0  0  0  0  0  0  0  0
    2.1373   -0.4395    0.0000 C   0  0  0  0  0  0  0  0  0
    2.8517   -0.0270    0.0000 C   0  0  0  0  0  0  0  0  0
    3.5662   -0.4395    0.0000 C   0  0  0  0  0  0  0  0  0
    4.2807   -0.0270    0.0000 N   0  0  0  0  0  0  0  0  0
    4.2807    0.7980    0.0000 C   0  0  0  0  0  0  0  0  0
    4.9952    1.2105    0.0000 C   0  0  0  0  0  0  0  0  0
    5.7096    0.7980    0.0000 N   0  0  0  0  0  0  0  0  0
    5.7096   -0.0270    0.0000 C   0  0  0  0  0  0  0  0  0
    4.9952   -0.4395    0.0000 C   0  0  0  0  0  0  0  0  0
    6.4241    1.2105    0.0000 C   0  0  0  0  0  0  0  0  0
   -0.7206   -0.4395    0.0000 C   0  0  0  0  0  0  0  0  0
   -0.7206   -1.2645    0.0000 C   0  0  0  0  0  0  0  0  0
   -1.4351   -1.6770    0.0000 C   0  0  0  0  0  0  0  0  0
   -2.1496   -1.2645    0.0000 C   0  0  0  0  0  0  0  0  0
   -2.1496   -0.4395    0.0000 C   0  0  0  0  0  0  0  0  0
   -1.4351   -0.0270    0.0000 C   0  0  0  0  0  0  0  0  0
   -1.4351    0.7980    0.0000 C   0  0  0  0  0  0  0  0  0
   -2.1496    1.2105    0.0000 C   0  0  0  0  0  0  0  0  0
   -2.1496    2.0355    0.0000 C   0  0  0  0  0  0  0  0  0
   -2.8640    2.4480    0.0000 C   0  0  0  0  0  0  0  0  0
   -2.8640    3.2730    0.0000 C   0  0  0  0  0  0  0  0  0
   -3.5785    3.6855    0.0000 O   0  0  0  0  0  0  0  0  0
   -3.5785    4.5105    0.0000 C   0  0  0  0  0  0  0  0  0
   -2.1496    3.6855    0.0000 C   0  0  0  0  0  0  0  0  0
   -1.4351    3.2730    0.0000 C   0  0  0  0  0  0  0  0  0
   -1.4351    2.4480    0.0000 C   0  0  0  0  0  0  0  0  0
  1  2  1  0  0  0  0
  1 14  1  0  0  0  0
  2  3  1  0  0  0  0
  3  4  1  0  0  0  0
  4  5  1  0  0  0  0
  5  6  1  0  0  0  0
  6  7  1  0  0  0  0
  7  8  1  0  0  0  0
  7 12  1  0  0  0  0
  8  9  1  0  0  0  0
  9 10  1  0  0  0  0
 10 11  1  0  0  0  0
 10 13  1  0  0  0  0
 11 12  1  0  0  0  0
 14 15  4  0  0  0  0
 14 19  4  0  0  0  0
 15 16  4  0  0  0  0
 16 17  4  0  0  0  0
 17 18  4  0  0  0  0
 18 19  4  0  0  0  0
 19 20  1  0  0  0  0
 20 21  1  0  0  0  0
 21 22  1  0  0  0  0
 22 23  4  0  0  0  0
 22 29  4  0  0  0  0
 23 24  4  0  0  0  0
 24 25  1  0  0  0  0
 24 27  4  0  0  0  0
 25 26  1  0  0  0  0
 27 28  4  0  0  0  0
 28 29  4  0  0  0  0
M  END
>  <Name_Molregno>
515963

>  <5-HT1A>
3.65

>  <DOPAMINE D2>
4

$$$$
515964
  Marvin  02231216192D 0   1.00000     0.00000     0

 29 32  0  0  0  0  0  0  0  0999 V2000
   -0.2448   -0.9445    0.0000 O   0  0  0  0  0  0  0  0  0
    0.4696   -1.3570    0.0000 C   0  0  0  0  0  0  0  0  0
    1.1841   -0.9445    0.0000 C   0  0  0  0  0  0  0  0  0
    1.8986   -1.3570    0.0000 N   0  0  0  0  0  0  0  0  0
    1.8986   -2.1820    0.0000 C   0  0  0  0  0  0  0  0  0
    2.6130   -2.5945    0.0000 C   0  0  0  0  0  0  0  0  0
    3.3275   -2.1820    0.0000 C   0  0  0  0  0  0  0  0  0
    3.3275   -1.3570    0.0000 C   0  0  0  0  0  0  0  0  0
    2.6130   -0.9445    0.0000 C   0  0  0  0  0  0  0  0  0
    4.0420   -0.9445    0.0000 C   0  0  0  0  0  0  0  0  0
    4.7565   -1.3570    0.0000 C   0  0  0  0  0  0  0  0  0
    4.7565   -2.1820    0.0000 C   0  0  0  0  0  0  0  0  0
    4.0420   -2.5945    0.0000 C   0  0  0  0  0  0  0  0  0
   -0.9593   -1.3570    0.0000 C   0  0  0  0  0  0  0  0  0
   -0.9593   -2.1820    0.0000 C   0  0  0  0  0  0  0  0  0
   -1.6738   -2.5945    0.0000 C   0  0  0  0  0  0  0  0  0
   -2.3882   -2.1820    0.0000 C   0  0  0  0  0  0  0  0  0
   -2.3882   -1.3570    0.0000 C   0  0  0  0  0  0  0  0  0
   -1.6738   -0.9445    0.0000 C   0  0  0  0  0  0  0  0  0
   -1.6738   -0.1195    0.0000 C   0  0  0  0  0  0  0  0  0
   -2.3882    0.2930    0.0000 C   0  0  0  0  0  0  0  0  0
   -2.3882    1.1180    0.0000 C   0  0  0  0  0  0  0  0  0
   -3.1027    1.5305    0.0000 C   0  0  0  0  0  0  0  0  0
   -3.1027    2.3555    0.0000 C   0  0  0  0  0  0  0  0  0
   -3.8172    2.7680    0.0000 O   0  0  0  0  0  0  0  0  0
   -4.5317    2.3555    0.0000 C   0  0  0  0  0  0  0  0  0
   -2.3882    2.7680    0.0000 C   0  0  0  0  0  0  0  0  0
   -1.6738    2.3555    0.0000 C   0  0  0  0  0  0  0  0  0
   -1.6738    1.5305    0.0000 C   0  0  0  0  0  0  0  0  0
  1  2  1  0  0  0  0
  1 14  1  0  0  0  0
  2  3  1  0  0  0  0
  3  4  1  0  0  0  0
  4  5  1  0  0  0  0
  4  9  1  0  0  0  0
  5  6  1  0  0  0  0
  6  7  1  0  0  0  0
  7  8  4  0  0  0  0
  7 13  4  0  0  0  0
  8  9  1  0  0  0  0
  8 10  4  0  0  0  0
 10 11  4  0  0  0  0
 11 12  4  0  0  0  0
 12 13  4  0  0  0  0
 14 15  4  0  0  0  0
 14 19  4  0  0  0  0
 15 16  4  0  0  0  0
 16 17  4  0  0  0  0
 17 18  4  0  0  0  0
 18 19  4  0  0  0  0
 19 20  1  0  0  0  0
 20 21  1  0  0  0  0
 21 22  1  0  0  0  0
 22 23  4  0  0  0  0
 22 29  4  0  0  0  0
 23 24  4  0  0  0  0
 24 25  1  0  0  0  0
 24 27  4  0  0  0  0
 25 26  1  0  0  0  0
 27 28  4  0  0  0  0
 28 29  4  0  0  0  0
M  END
>  <Name_Molregno>
515964

>  <5-HT1A>
3.94

>  <DOPAMINE D2>
4

$$$$
515965
  Marvin  02231216192D 0   1.00000     0.00000     0

 30 33  0  0  0  0  0  0  0  0999 V2000
   -0.6322    0.6375    0.0000 O   0  0  0  0  0  0  0  0  0
   -0.6322   -0.1875    0.0000 C   0  0  0  0  0  0  0  0  0
    0.0823   -0.6000    0.0000 C   0  0  0  0  0  0  0  0  0
    0.0823   -1.4250    0.0000 C   0  0  0  0  0  0  0  0  0
    0.7967   -1.8375    0.0000 N   0  0  0  0  0  0  0  0  0
    0.7967   -2.6625    0.0000 C   0  0  0  0  0  0  0  0  0
    1.5112   -3.0750    0.0000 C   0  0  0  0  0  0  0  0  0
    2.2257   -2.6625    0.0000 C   0  0  0  0  0  0  0  0  0
    2.2257   -1.8375    0.0000 C   0  0  0  0  0  0  0  0  0
    1.5112   -1.4250    0.0000 C   0  0  0  0  0  0  0  0  0
    2.9401   -1.4250    0.0000 C   0  0  0  0  0  0  0  0  0
    3.6546   -1.8375    0.0000 C   0  0  0  0  0  0  0  0  0
    3.6546   -2.6625    0.0000 C   0  0  0  0  0  0  0  0  0
    2.9401   -3.0750    0.0000 C   0  0  0  0  0  0  0  0  0
   -1.3467    1.0500    0.0000 C   0  0  0  0  0  0  0  0  0
   -2.0612    0.6375    0.0000 C   0  0  0  0  0  0  0  0  0
   -2.7756    1.0500    0.0000 C   0  0  0  0  0  0  0  0  0
   -2.7756    1.8750    0.0000 C   0  0  0  0  0  0  0  0  0
   -2.0612    2.2875    0.0000 C   0  0  0  0  0  0  0  0  0
   -1.3467    1.8750    0.0000 C   0  0  0  0  0  0  0  0  0
   -0.6322    2.2875    0.0000 C   0  0  0  0  0  0  0  0  0
   -0.6322    3.1125    0.0000 C   0  0  0  0  0  0  0  0  0
    0.0823    3.5250    0.0000 C   0  0  0  0  0  0  0  0  0
    0.0823    4.3500    0.0000 C   0  0  0  0  0  0  0  0  0
    0.7967    4.7625    0.0000 C   0  0  0  0  0  0  0  0  0
    0.7967    5.5875    0.0000 O   0  0  0  0  0  0  0  0  0
    1.5112    6.0000    0.0000 C   0  0  0  0  0  0  0  0  0
    1.5112    4.3500    0.0000 C   0  0  0  0  0  0  0  0  0
    1.5112    3.5250    0.0000 C   0  0  0  0  0  0  0  0  0
    0.7967    3.1125    0.0000 C   0  0  0  0  0  0  0  0  0
  1  2  1  0  0  0  0
  1 15  1  0  0  0  0
  2  3  1  0  0  0  0
  3  4  1  0  0  0  0
  4  5  1  0  0  0  0
  5  6  1  0  0  0  0
  5 10  1  0  0  0  0
  6  7  1  0  0  0  0
  7  8  1  0  0  0  0
  8  9  4  0  0  0  0
  8 14  4  0  0  0  0
  9 10  1  0  0  0  0
  9 11  4  0  0  0  0
 11 12  4  0  0  0  0
 12 13  4  0  0  0  0
 13 14  4  0  0  0  0
 15 16  4  0  0  0  0
 15 20  4  0  0  0  0
 16 17  4  0  0  0  0
 17 18  4  0  0  0  0
 18 19  4  0  0  0  0
 19 20  4  0  0  0  0
 20 21  1  0  0  0  0
 21 22  1  0  0  0  0
 22 23  1  0  0  0  0
 23 24  4  0  0  0  0
 23 30  4  0  0  0  0
 24 25  4  0  0  0  0
 25 26  1  0  0  0  0
 25 28  4  0  0  0  0
 26 27  1  0  0  0  0
 28 29  4  0  0  0  0
 29 30  4  0  0  0  0
M  END
>  <Name_Molregno>
515965

>  <5-HT1A>
3.98

>  <DOPAMINE D2>
4.47

$$$$
515966
  Marvin  02231216192D 0   1.00000     0.00000     0

 31 34  0  0  0  0  0  0  0  0999 V2000
    0.0050    0.0231    0.0000 O   0  0  0  0  0  0  0  0  0
    0.7195   -0.3894    0.0000 C   0  0  0  0  0  0  0  0  0
    1.4340    0.0231    0.0000 C   0  0  0  0  0  0  0  0  0
    2.1484   -0.3894    0.0000 C   0  0  0  0  0  0  0  0  0
    2.8629    0.0231    0.0000 C   0  0  0  0  0  0  0  0  0
    3.5774   -0.3894    0.0000 N   0  0  0  0  0  0  0  0  0
    3.5774   -1.2144    0.0000 C   0  0  0  0  0  0  0  0  0
    4.2918   -1.6269    0.0000 C   0  0  0  0  0  0  0  0  0
    5.0063   -1.2144    0.0000 C   0  0  0  0  0  0  0  0  0
    5.0063   -0.3894    0.0000 C   0  0  0  0  0  0  0  0  0
    4.2918    0.0231    0.0000 C   0  0  0  0  0  0  0  0  0
    5.7208    0.0231    0.0000 C   0  0  0  0  0  0  0  0  0
    6.4352   -0.3894    0.0000 C   0  0  0  0  0  0  0  0  0
    6.4352   -1.2144    0.0000 C   0  0  0  0  0  0  0  0  0
    5.7208   -1.6269    0.0000 C   0  0  0  0  0  0  0  0  0
   -0.7095   -0.3894    0.0000 C   0  0  0  0  0  0  0  0  0
   -0.7095   -1.2144    0.0000 C   0  0  0  0  0  0  0  0  0
   -1.4239   -1.6269    0.0000 C   0  0  0  0  0  0  0  0  0
   -2.1384   -1.2144    0.0000 C   0  0  0  0  0  0  0  0  0
   -2.1384   -0.3894    0.0000 C   0  0  0  0  0  0  0  0  0
   -1.4239    0.0231    0.0000 C   0  0  0  0  0  0  0  0  0
   -1.4239    0.8481    0.0000 C   0  0  0  0  0  0  0  0  0
   -2.1384    1.2606    0.0000 C   0  0  0  0  0  0  0  0  0
   -2.1384    2.0856    0.0000 C   0  0  0  0  0  0  0  0  0
   -2.8529    2.4981    0.0000 C   0  0  0  0  0  0  0  0  0
   -2.8529    3.3231    0.0000 C   0  0  0  0  0  0  0  0  0
   -3.5673    3.7356    0.0000 O   0  0  0  0  0  0  0  0  0
   -4.2818    3.3231    0.0000 C   0  0  0  0  0  0  0  0  0
   -2.1384    3.7356    0.0000 C   0  0  0  0  0  0  0  0  0
   -1.4239    3.3231    0.0000 C   0  0  0  0  0  0  0  0  0
   -1.4239    2.4981    0.0000 C   0  0  0  0  0  0  0  0  0
  1  2  1  0  0  0  0
  1 16  1  0  0  0  0
  2  3  1  0  0  0  0
  3  4  1  0  0  0  0
  4  5  1  0  0  0  0
  5  6  1  0  0  0  0
  6  7  1  0  0  0  0
  6 11  1  0  0  0  0
  7  8  1  0  0  0  0
  8  9  1  0  0  0  0
  9 10  4  0  0  0  0
  9 15  4  0  0  0  0
 10 11  1  0  0  0  0
 10 12  4  0  0  0  0
 12 13  4  0  0  0  0
 13 14  4  0  0  0  0
 14 15  4  0  0  0  0
 16 17  4  0  0  0  0
 16 21  4  0  0  0  0
 17 18  4  0  0  0  0
 18 19  4  0  0  0  0
 19 20  4  0  0  0  0
 20 21  4  0  0  0  0
 21 22  1  0  0  0  0
 22 23  1  0  0  0  0
 23 24  1  0  0  0  0
 24 25  4  0  0  0  0
 24 31  4  0  0  0  0
 25 26  4  0  0  0  0
 26 27  1  0  0  0  0
 26 29  4  0  0  0  0
 27 28  1  0  0  0  0
 29 30  4  0  0  0  0
 30 31  4  0  0  0  0
M  END
>  <Name_Molregno>
515966

>  <5-HT1A>
3.94

>  <DOPAMINE D2>
4

$$$$
516052
  Marvin  02231216192D 0   1.00000     0.00000     0

 32 35  0  0  0  0  0  0  0  0999 V2000
    0.0835   -0.2154    0.0000 O   0  0  0  0  0  0  0  0  0
    0.7979   -0.6279    0.0000 C   0  0  0  0  0  0  0  0  0
    1.5124   -0.2154    0.0000 C   0  0  0  0  0  0  0  0  0
    2.2269   -0.6279    0.0000 C   0  0  0  0  0  0  0  0  0
    2.9414   -0.2154    0.0000 C   0  0  0  0  0  0  0  0  0
    3.6558   -0.6279    0.0000 C   0  0  0  0  0  0  0  0  0
    4.3703   -0.2154    0.0000 N   0  0  0  0  0  0  0  0  0
    5.0848   -0.6279    0.0000 C   0  0  0  0  0  0  0  0  0
    5.7992   -0.2154    0.0000 C   0  0  0  0  0  0  0  0  0
    5.7992    0.6096    0.0000 C   0  0  0  0  0  0  0  0  0
    5.0848    1.0221    0.0000 C   0  0  0  0  0  0  0  0  0
    4.3703    0.6096    0.0000 C   0  0  0  0  0  0  0  0  0
    5.0848    1.8471    0.0000 C   0  0  0  0  0  0  0  0  0
    5.7992    2.2596    0.0000 C   0  0  0  0  0  0  0  0  0
    6.5137    1.8471    0.0000 C   0  0  0  0  0  0  0  0  0
    6.5137    1.0221    0.0000 C   0  0  0  0  0  0  0  0  0
   -0.6310   -0.6279    0.0000 C   0  0  0  0  0  0  0  0  0
   -0.6310   -1.4529    0.0000 C   0  0  0  0  0  0  0  0  0
   -1.3455   -1.8654    0.0000 C   0  0  0  0  0  0  0  0  0
   -2.0599   -1.4529    0.0000 C   0  0  0  0  0  0  0  0  0
   -2.0599   -0.6279    0.0000 C   0  0  0  0  0  0  0  0  0
   -1.3455   -0.2154    0.0000 C   0  0  0  0  0  0  0  0  0
   -1.3455    0.6096    0.0000 C   0  0  0  0  0  0  0  0  0
   -2.0599    1.0221    0.0000 C   0  0  0  0  0  0  0  0  0
   -2.0599    1.8471    0.0000 C   0  0  0  0  0  0  0  0  0
   -2.7744    2.2596    0.0000 C   0  0  0  0  0  0  0  0  0
   -2.7744    3.0846    0.0000 C   0  0  0  0  0  0  0  0  0
   -3.4889    3.4971    0.0000 O   0  0  0  0  0  0  0  0  0
   -3.4889    4.3221    0.0000 C   0  0  0  0  0  0  0  0  0
   -2.0599    3.4971    0.0000 C   0  0  0  0  0  0  0  0  0
   -1.3455    3.0846    0.0000 C   0  0  0  0  0  0  0  0  0
   -1.3455    2.2596    0.0000 C   0  0  0  0  0  0  0  0  0
  1  2  1  0  0  0  0
  1 17  1  0  0  0  0
  2  3  1  0  0  0  0
  3  4  1  0  0  0  0
  4  5  1  0  0  0  0
  5  6  1  0  0  0  0
  6  7  1  0  0  0  0
  7  8  1  0  0  0  0
  7 12  1  0  0  0  0
  8  9  1  0  0  0  0
  9 10  1  0  0  0  0
 10 11  4  0  0  0  0
 10 16  4  0  0  0  0
 11 12  1  0  0  0  0
 11 13  4  0  0  0  0
 13 14  4  0  0  0  0
 14 15  4  0  0  0  0
 15 16  4  0  0  0  0
 17 18  4  0  0  0  0
 17 22  4  0  0  0  0
 18 19  4  0  0  0  0
 19 20  4  0  0  0  0
 20 21  4  0  0  0  0
 21 22  4  0  0  0  0
 22 23  1  0  0  0  0
 23 24  1  0  0  0  0
 24 25  1  0  0  0  0
 25 26  4  0  0  0  0
 25 32  4  0  0  0  0
 26 27  4  0  0  0  0
 27 28  1  0  0  0  0
 27 30  4  0  0  0  0
 28 29  1  0  0  0  0
 30 31  4  0  0  0  0
 31 32  4  0  0  0  0
M  END
>  <Name_Molregno>
516052

>  <5-HT1A>
3.65

>  <DOPAMINE D2>
4

$$$$
516053
  Marvin  02231216192D 0   1.00000     0.00000     0

 33 36  0  0  0  0  0  0  0  0999 V2000
    0.3699   -0.6592    0.0000 O   0  0  0  0  0  0  0  0  0
    1.0844   -0.2467    0.0000 C   0  0  0  0  0  0  0  0  0
    1.0844    0.5783    0.0000 C   0  0  0  0  0  0  0  0  0
    1.7988    0.9908    0.0000 N   0  0  0  0  0  0  0  0  0
    1.7988    1.8158    0.0000 C   0  0  0  0  0  0  0  0  0
    2.5133    2.2283    0.0000 C   0  0  0  0  0  0  0  0  0
    3.2278    1.8158    0.0000 C   0  0  0  0  0  0  0  0  0
    3.9423    2.2283    0.0000 C   0  0  0  0  0  0  0  0  0
    4.6567    1.8158    0.0000 C   0  0  0  0  0  0  0  0  0
    5.3712    2.2283    0.0000 O   0  0  0  0  0  0  0  0  0
    6.0857    1.8158    0.0000 C   0  0  0  0  0  0  0  0  0
    4.6567    0.9908    0.0000 C   0  0  0  0  0  0  0  0  0
    5.3712    0.5783    0.0000 O   0  0  0  0  0  0  0  0  0
    5.3712   -0.2467    0.0000 C   0  0  0  0  0  0  0  0  0
    3.9423    0.5783    0.0000 C   0  0  0  0  0  0  0  0  0
    3.2278    0.9908    0.0000 C   0  0  0  0  0  0  0  0  0
    2.5133    0.5783    0.0000 C   0  0  0  0  0  0  0  0  0
    0.3699   -1.4842    0.0000 C   0  0  0  0  0  0  0  0  0
    1.0844   -1.8967    0.0000 C   0  0  0  0  0  0  0  0  0
    1.0844   -2.7217    0.0000 C   0  0  0  0  0  0  0  0  0
    0.3699   -3.1342    0.0000 C   0  0  0  0  0  0  0  0  0
   -0.3446   -2.7217    0.0000 C   0  0  0  0  0  0  0  0  0
   -0.3446   -1.8967    0.0000 C   0  0  0  0  0  0  0  0  0
   -1.0590   -1.4842    0.0000 C   0  0  0  0  0  0  0  0  0
   -1.7735   -1.8967    0.0000 C   0  0  0  0  0  0  0  0  0
   -2.4880   -1.4842    0.0000 C   0  0  0  0  0  0  0  0  0
   -3.2025   -1.8967    0.0000 C   0  0  0  0  0  0  0  0  0
   -3.9169   -1.4842    0.0000 C   0  0  0  0  0  0  0  0  0
   -4.6314   -1.8967    0.0000 O   0  0  0  0  0  0  0  0  0
   -4.6314   -2.7217    0.0000 C   0  0  0  0  0  0  0  0  0
   -3.9169   -0.6592    0.0000 C   0  0  0  0  0  0  0  0  0
   -3.2025   -0.2467    0.0000 C   0  0  0  0  0  0  0  0  0
   -2.4880   -0.6592    0.0000 C   0  0  0  0  0  0  0  0  0
  1  2  1  0  0  0  0
  1 18  1  0  0  0  0
  2  3  1  0  0  0  0
  3  4  1  0  0  0  0
  4  5  1  0  0  0  0
  4 17  1  0  0  0  0
  5  6  1  0  0  0  0
  6  7  1  0  0  0  0
  7  8  4  0  0  0  0
  7 16  4  0  0  0  0
  8  9  4  0  0  0  0
  9 10  1  0  0  0  0
  9 12  4  0  0  0  0
 10 11  1  0  0  0  0
 12 13  1  0  0  0  0
 12 15  4  0  0  0  0
 13 14  1  0  0  0  0
 15 16  4  0  0  0  0
 16 17  1  0  0  0  0
 18 19  4  0  0  0  0
 18 23  4  0  0  0  0
 19 20  4  0  0  0  0
 20 21  4  0  0  0  0
 21 22  4  0  0  0  0
 22 23  4  0  0  0  0
 23 24  1  0  0  0  0
 24 25  1  0  0  0  0
 25 26  1  0  0  0  0
 26 27  4  0  0  0  0
 26 33  4  0  0  0  0
 27 28  4  0  0  0  0
 28 29  1  0  0  0  0
 28 31  4  0  0  0  0
 29 30  1  0  0  0  0
 31 32  4  0  0  0  0
 32 33  4  0  0  0  0
M  END
>  <Name_Molregno>
516053

>  <5-HT1A>
3.65

>  <DOPAMINE D2>
4

$$$$
516054
  Marvin  02231216192D 0   1.00000     0.00000     0

 34 37  0  0  0  0  0  0  0  0999 V2000
   -0.0537   -1.5705    0.0000 O   0  0  0  0  0  0  0  0  0
    0.6607   -1.9830    0.0000 C   0  0  0  0  0  0  0  0  0
    1.3752   -1.5705    0.0000 C   0  0  0  0  0  0  0  0  0
    2.0897   -1.9830    0.0000 C   0  0  0  0  0  0  0  0  0
    2.8041   -1.5705    0.0000 N   0  0  0  0  0  0  0  0  0
    2.8041   -0.7455    0.0000 C   0  0  0  0  0  0  0  0  0
    3.5186   -0.3330    0.0000 C   0  0  0  0  0  0  0  0  0
    4.2331   -0.7455    0.0000 C   0  0  0  0  0  0  0  0  0
    4.9476   -0.3330    0.0000 C   0  0  0  0  0  0  0  0  0
    5.6620   -0.7455    0.0000 C   0  0  0  0  0  0  0  0  0
    6.3765   -0.3330    0.0000 O   0  0  0  0  0  0  0  0  0
    7.0910   -0.7455    0.0000 C   0  0  0  0  0  0  0  0  0
    5.6620   -1.5705    0.0000 C   0  0  0  0  0  0  0  0  0
    6.3765   -1.9830    0.0000 O   0  0  0  0  0  0  0  0  0
    6.3765   -2.8080    0.0000 C   0  0  0  0  0  0  0  0  0
    4.9476   -1.9830    0.0000 C   0  0  0  0  0  0  0  0  0
    4.2331   -1.5705    0.0000 C   0  0  0  0  0  0  0  0  0
    3.5186   -1.9830    0.0000 C   0  0  0  0  0  0  0  0  0
   -0.7682   -1.9830    0.0000 C   0  0  0  0  0  0  0  0  0
   -0.7682   -2.8080    0.0000 C   0  0  0  0  0  0  0  0  0
   -1.4827   -3.2205    0.0000 C   0  0  0  0  0  0  0  0  0
   -2.1971   -2.8080    0.0000 C   0  0  0  0  0  0  0  0  0
   -2.1971   -1.9830    0.0000 C   0  0  0  0  0  0  0  0  0
   -1.4827   -1.5705    0.0000 C   0  0  0  0  0  0  0  0  0
   -1.4827   -0.7455    0.0000 C   0  0  0  0  0  0  0  0  0
   -2.1971   -0.3330    0.0000 C   0  0  0  0  0  0  0  0  0
   -2.1971    0.4920    0.0000 C   0  0  0  0  0  0  0  0  0
   -2.9116    0.9045    0.0000 C   0  0  0  0  0  0  0  0  0
   -2.9116    1.7295    0.0000 C   0  0  0  0  0  0  0  0  0
   -3.6261    2.1420    0.0000 O   0  0  0  0  0  0  0  0  0
   -3.6261    2.9670    0.0000 C   0  0  0  0  0  0  0  0  0
   -2.1971    2.1420    0.0000 C   0  0  0  0  0  0  0  0  0
   -1.4827    1.7295    0.0000 C   0  0  0  0  0  0  0  0  0
   -1.4827    0.9045    0.0000 C   0  0  0  0  0  0  0  0  0
  1  2  1  0  0  0  0
  1 19  1  0  0  0  0
  2  3  1  0  0  0  0
  3  4  1  0  0  0  0
  4  5  1  0  0  0  0
  5  6  1  0  0  0  0
  5 18  1  0  0  0  0
  6  7  1  0  0  0  0
  7  8  1  0  0  0  0
  8  9  4  0  0  0  0
  8 17  4  0  0  0  0
  9 10  4  0  0  0  0
 10 11  1  0  0  0  0
 10 13  4  0  0  0  0
 11 12  1  0  0  0  0
 13 14  1  0  0  0  0
 13 16  4  0  0  0  0
 14 15  1  0  0  0  0
 16 17  4  0  0  0  0
 17 18  1  0  0  0  0
 19 20  4  0  0  0  0
 19 24  4  0  0  0  0
 20 21  4  0  0  0  0
 21 22  4  0  0  0  0
 22 23  4  0  0  0  0
 23 24  4  0  0  0  0
 24 25  1  0  0  0  0
 25 26  1  0  0  0  0
 26 27  1  0  0  0  0
 27 28  4  0  0  0  0
 27 34  4  0  0  0  0
 28 29  4  0  0  0  0
 29 30  1  0  0  0  0
 29 32  4  0  0  0  0
 30 31  1  0  0  0  0
 32 33  4  0  0  0  0
 33 34  4  0  0  0  0
M  END
>  <Name_Molregno>
516054

>  <5-HT1A>
3.65

>  <DOPAMINE D2>
4

$$$$
516055
  Marvin  02231216192D 0   1.00000     0.00000     0

 35 38  0  0  0  0  0  0  0  0999 V2000
    0.2645   -0.0611    0.0000 O   0  0  0  0  0  0  0  0  0
    0.9790   -0.4736    0.0000 C   0  0  0  0  0  0  0  0  0
    1.6935   -0.0611    0.0000 C   0  0  0  0  0  0  0  0  0
    2.4079   -0.4736    0.0000 C   0  0  0  0  0  0  0  0  0
    3.1224   -0.0611    0.0000 C   0  0  0  0  0  0  0  0  0
    3.8369   -0.4736    0.0000 N   0  0  0  0  0  0  0  0  0
    4.5514   -0.0611    0.0000 C   0  0  0  0  0  0  0  0  0
    5.2658   -0.4736    0.0000 C   0  0  0  0  0  0  0  0  0
    5.2658   -1.2986    0.0000 C   0  0  0  0  0  0  0  0  0
    5.9803   -1.7111    0.0000 C   0  0  0  0  0  0  0  0  0
    5.9803   -2.5361    0.0000 C   0  0  0  0  0  0  0  0  0
    6.6948   -2.9486    0.0000 O   0  0  0  0  0  0  0  0  0
    6.6948   -3.7736    0.0000 C   0  0  0  0  0  0  0  0  0
    5.2658   -2.9486    0.0000 C   0  0  0  0  0  0  0  0  0
    5.2658   -3.7736    0.0000 O   0  0  0  0  0  0  0  0  0
    4.5514   -4.1861    0.0000 C   0  0  0  0  0  0  0  0  0
    4.5514   -2.5361    0.0000 C   0  0  0  0  0  0  0  0  0
    4.5514   -1.7111    0.0000 C   0  0  0  0  0  0  0  0  0
    3.8369   -1.2986    0.0000 C   0  0  0  0  0  0  0  0  0
   -0.4499   -0.4736    0.0000 C   0  0  0  0  0  0  0  0  0
   -0.4499   -1.2986    0.0000 C   0  0  0  0  0  0  0  0  0
   -1.1644   -1.7111    0.0000 C   0  0  0  0  0  0  0  0  0
   -1.8789   -1.2986    0.0000 C   0  0  0  0  0  0  0  0  0
   -1.8789   -0.4736    0.0000 C   0  0  0  0  0  0  0  0  0
   -1.1644   -0.0611    0.0000 C   0  0  0  0  0  0  0  0  0
   -1.1644    0.7639    0.0000 C   0  0  0  0  0  0  0  0  0
   -1.8789    1.1764    0.0000 C   0  0  0  0  0  0  0  0  0
   -1.8789    2.0014    0.0000 C   0  0  0  0  0  0  0  0  0
   -2.5934    2.4139    0.0000 C   0  0  0  0  0  0  0  0  0
   -2.5934    3.2389    0.0000 C   0  0  0  0  0  0  0  0  0
   -3.3078    3.6514    0.0000 O   0  0  0  0  0  0  0  0  0
   -4.0223    3.2389    0.0000 C   0  0  0  0  0  0  0  0  0
   -1.8789    3.6514    0.0000 C   0  0  0  0  0  0  0  0  0
   -1.1644    3.2389    0.0000 C   0  0  0  0  0  0  0  0  0
   -1.1644    2.4139    0.0000 C   0  0  0  0  0  0  0  0  0
  1  2  1  0  0  0  0
  1 20  1  0  0  0  0
  2  3  1  0  0  0  0
  3  4  1  0  0  0  0
  4  5  1  0  0  0  0
  5  6  1  0  0  0  0
  6  7  1  0  0  0  0
  6 19  1  0  0  0  0
  7  8  1  0  0  0  0
  8  9  1  0  0  0  0
  9 10  4  0  0  0  0
  9 18  4  0  0  0  0
 10 11  4  0  0  0  0
 11 12  1  0  0  0  0
 11 14  4  0  0  0  0
 12 13  1  0  0  0  0
 14 15  1  0  0  0  0
 14 17  4  0  0  0  0
 15 16  1  0  0  0  0
 17 18  4  0  0  0  0
 18 19  1  0  0  0  0
 20 21  4  0  0  0  0
 20 25  4  0  0  0  0
 21 22  4  0  0  0  0
 22 23  4  0  0  0  0
 23 24  4  0  0  0  0
 24 25  4  0  0  0  0
 25 26  1  0  0  0  0
 26 27  1  0  0  0  0
 27 28  1  0  0  0  0
 28 29  4  0  0  0  0
 28 35  4  0  0  0  0
 29 30  4  0  0  0  0
 30 31  1  0  0  0  0
 30 33  4  0  0  0  0
 31 32  1  0  0  0  0
 33 34  4  0  0  0  0
 34 35  4  0  0  0  0
M  END
>  <Name_Molregno>
516055

>  <5-HT1A>
3.65

>  <DOPAMINE D2>
4

$$$$
516128
  Marvin  02231216192D 0   1.00000     0.00000     0

 36 39  0  0  0  0  0  0  0  0999 V2000
   -0.3187   -1.8924    0.0000 O   0  0  0  0  0  0  0  0  0
    0.3958   -2.3049    0.0000 C   0  0  0  0  0  0  0  0  0
    1.1103   -1.8924    0.0000 C   0  0  0  0  0  0  0  0  0
    1.8247   -2.3049    0.0000 C   0  0  0  0  0  0  0  0  0
    2.5392   -1.8924    0.0000 C   0  0  0  0  0  0  0  0  0
    3.2537   -2.3049    0.0000 C   0  0  0  0  0  0  0  0  0
    3.9682   -1.8924    0.0000 N   0  0  0  0  0  0  0  0  0
    3.9682   -1.0674    0.0000 C   0  0  0  0  0  0  0  0  0
    4.6826   -0.6549    0.0000 C   0  0  0  0  0  0  0  0  0
    5.3971   -1.0674    0.0000 C   0  0  0  0  0  0  0  0  0
    6.1116   -0.6549    0.0000 C   0  0  0  0  0  0  0  0  0
    6.8260   -1.0674    0.0000 C   0  0  0  0  0  0  0  0  0
    7.5405   -0.6549    0.0000 O   0  0  0  0  0  0  0  0  0
    8.2550   -1.0674    0.0000 C   0  0  0  0  0  0  0  0  0
    6.8260   -1.8924    0.0000 C   0  0  0  0  0  0  0  0  0
    7.5405   -2.3049    0.0000 O   0  0  0  0  0  0  0  0  0
    7.5405   -3.1299    0.0000 C   0  0  0  0  0  0  0  0  0
    6.1116   -2.3049    0.0000 C   0  0  0  0  0  0  0  0  0
    5.3971   -1.8924    0.0000 C   0  0  0  0  0  0  0  0  0
    4.6826   -2.3049    0.0000 C   0  0  0  0  0  0  0  0  0
   -1.0331   -2.3049    0.0000 C   0  0  0  0  0  0  0  0  0
   -1.0331   -3.1299    0.0000 C   0  0  0  0  0  0  0  0  0
   -1.7476   -3.5424    0.0000 C   0  0  0  0  0  0  0  0  0
   -2.4621   -3.1299    0.0000 C   0  0  0  0  0  0  0  0  0
   -2.4621   -2.3049    0.0000 C   0  0  0  0  0  0  0  0  0
   -1.7476   -1.8924    0.0000 C   0  0  0  0  0  0  0  0  0
   -1.7476   -1.0674    0.0000 C   0  0  0  0  0  0  0  0  0
   -2.4621   -0.6549    0.0000 C   0  0  0  0  0  0  0  0  0
   -2.4621    0.1701    0.0000 C   0  0  0  0  0  0  0  0  0
   -3.1766    0.5826    0.0000 C   0  0  0  0  0  0  0  0  0
   -3.1766    1.4076    0.0000 C   0  0  0  0  0  0  0  0  0
   -3.8910    1.8201    0.0000 O   0  0  0  0  0  0  0  0  0
   -3.8910    2.6451    0.0000 C   0  0  0  0  0  0  0  0  0
   -2.4621    1.8201    0.0000 C   0  0  0  0  0  0  0  0  0
   -1.7476    1.4076    0.0000 C   0  0  0  0  0  0  0  0  0
   -1.7476    0.5826    0.0000 C   0  0  0  0  0  0  0  0  0
  1  2  1  0  0  0  0
  1 21  1  0  0  0  0
  2  3  1  0  0  0  0
  3  4  1  0  0  0  0
  4  5  1  0  0  0  0
  5  6  1  0  0  0  0
  6  7  1  0  0  0  0
  7  8  1  0  0  0  0
  7 20  1  0  0  0  0
  8  9  1  0  0  0  0
  9 10  1  0  0  0  0
 10 11  4  0  0  0  0
 10 19  4  0  0  0  0
 11 12  4  0  0  0  0
 12 13  1  0  0  0  0
 12 15  4  0  0  0  0
 13 14  1  0  0  0  0
 15 16  1  0  0  0  0
 15 18  4  0  0  0  0
 16 17  1  0  0  0  0
 18 19  4  0  0  0  0
 19 20  1  0  0  0  0
 21 22  4  0  0  0  0
 21 26  4  0  0  0  0
 22 23  4  0  0  0  0
 23 24  4  0  0  0  0
 24 25  4  0  0  0  0
 25 26  4  0  0  0  0
 26 27  1  0  0  0  0
 27 28  1  0  0  0  0
 28 29  1  0  0  0  0
 29 30  4  0  0  0  0
 29 36  4  0  0  0  0
 30 31  4  0  0  0  0
 31 32  1  0  0  0  0
 31 34  4  0  0  0  0
 32 33  1  0  0  0  0
 34 35  4  0  0  0  0
 35 36  4  0  0  0  0
M  END
>  <Name_Molregno>
516128

>  <5-HT1A>
3.65

>  <DOPAMINE D2>
4

$$$$
519329
  Marvin  02231216192D 0   1.00000     0.00000     0

 27 31  0  0  1  0  0  0  0  0999 V2000
    2.2181    2.6894    0.0000 N   0  0  0  0  0  0  0  0  0
    1.7331    2.0219    0.0000 C   0  0  0  0  0  0  0  0  0
    2.2181    1.3545    0.0000 C   0  0  0  0  0  0  0  0  0
    3.0027    1.6094    0.0000 C   0  0  0  0  0  0  0  0  0
    3.0027    2.4344    0.0000 C   0  0  0  0  0  0  0  0  0
    3.7171    2.8469    0.0000 C   0  0  0  0  0  0  0  0  0
    4.4316    2.4344    0.0000 C   0  0  0  0  0  0  0  0  0
    4.4316    1.6094    0.0000 C   0  0  0  0  0  0  0  0  0
    3.7171    1.1969    0.0000 C   0  0  0  0  0  0  0  0  0
    1.9631    0.5699    0.0000 C   0  0  0  0  0  0  0  0  0
    2.5151   -0.0432    0.0000 C   0  0  0  0  0  0  0  0  0
    2.2602   -0.8278    0.0000 N   0  0  0  0  0  0  0  0  0
    2.8122   -1.4409    0.0000 C   0  0  0  0  0  0  0  0  0
    2.5573   -2.2255    0.0000 C   0  0  0  0  0  0  0  0  0
    1.7503   -2.3971    0.0000 C   0  0  0  0  0  0  0  0  0
    1.1983   -1.7840    0.0000 C   0  0  0  0  0  0  0  0  0
    1.4532   -0.9994    0.0000 C   0  0  0  0  0  0  0  0  0
    3.1093   -2.8386    0.0000 C   0  0  0  0  0  0  0  0  0
    3.9163   -2.6671    0.0000 N   0  0  0  0  0  0  0  0  0
    4.4683   -3.2802    0.0000 C   0  0  0  0  0  0  0  0  0
    4.2134   -4.0648    0.0000 N   0  0  0  0  0  0  0  0  0
    3.4064   -4.2364    0.0000 C   0  0  0  0  0  0  0  0  0
    2.8544   -3.6233    0.0000 C   0  0  0  0  0  0  0  0  0
    5.2753   -3.1087    0.0000 N   0  0  0  0  0  0  0  0  0
    5.8273   -3.7218    0.0000 C   0  0  0  0  0  0  0  0  0
    6.6120   -3.9767    0.0000 C   0  0  0  0  0  0  0  0  0
    5.9989   -4.5287    0.0000 C   0  0  0  0  0  0  0  0  0
  1  2  4  0  0  0  0
  1  5  4  0  0  0  0
  2  3  4  0  0  0  0
  3  4  4  0  0  0  0
  3 10  1  0  0  0  0
  4  5  4  0  0  0  0
  4  9  4  0  0  0  0
  5  6  4  0  0  0  0
  6  7  4  0  0  0  0
  7  8  4  0  0  0  0
  8  9  4  0  0  0  0
 10 11  1  0  0  0  0
 11 12  1  0  0  0  0
 12 13  1  0  0  0  0
 12 17  1  0  0  0  0
 13 14  1  0  0  0  0
 14 15  1  0  0  0  0
 14 18  1  0  0  0  0
 15 16  1  0  0  0  0
 16 17  1  0  0  0  0
 18 19  4  0  0  0  0
 18 23  4  0  0  0  0
 19 20  4  0  0  0  0
 20 21  4  0  0  0  0
 20 24  1  0  0  0  0
 21 22  4  0  0  0  0
 22 23  4  0  0  0  0
 24 25  1  0  0  0  0
 25 26  1  0  0  0  0
 25 27  1  0  0  0  0
 26 27  1  0  0  0  0
M  STY  1   1 DAT
M  SAL   1  1   1
M  SDT   1 MRV_IMPLICIT_H                                        
M  SDD   1     0.0000    0.0000    DR    ALL  0       0  
M  SED   1 IMPL_H1
M  END
>  <Name_Molregno>
519329

>  <5-HT1A>
7.12

$$$$
519330
  Marvin  02231216192D 0   1.00000     0.00000     0

 28 32  0  0  1  0  0  0  0  0999 V2000
    2.4136    2.8893    0.0000 N   0  0  0  0  0  0  0  0  0
    1.9287    2.2219    0.0000 C   0  0  0  0  0  0  0  0  0
    2.4136    1.5544    0.0000 C   0  0  0  0  0  0  0  0  0
    3.1982    1.8094    0.0000 C   0  0  0  0  0  0  0  0  0
    3.1982    2.6344    0.0000 C   0  0  0  0  0  0  0  0  0
    3.9127    3.0469    0.0000 C   0  0  0  0  0  0  0  0  0
    4.6271    2.6344    0.0000 C   0  0  0  0  0  0  0  0  0
    4.6271    1.8094    0.0000 C   0  0  0  0  0  0  0  0  0
    3.9127    1.3969    0.0000 C   0  0  0  0  0  0  0  0  0
    2.1586    0.7698    0.0000 C   0  0  0  0  0  0  0  0  0
    2.7107    0.1567    0.0000 C   0  0  0  0  0  0  0  0  0
    2.4557   -0.6279    0.0000 N   0  0  0  0  0  0  0  0  0
    3.0078   -1.2410    0.0000 C   0  0  0  0  0  0  0  0  0
    2.7528   -2.0256    0.0000 C   0  0  0  0  0  0  0  0  0
    1.9459   -2.1972    0.0000 C   0  0  0  0  0  0  0  0  0
    1.3938   -1.5841    0.0000 C   0  0  0  0  0  0  0  0  0
    1.6488   -0.7994    0.0000 C   0  0  0  0  0  0  0  0  0
    3.3049   -2.6387    0.0000 C   0  0  0  0  0  0  0  0  0
    4.1118   -2.4672    0.0000 N   0  0  0  0  0  0  0  0  0
    4.6639   -3.0803    0.0000 C   0  0  0  0  0  0  0  0  0
    4.4089   -3.8649    0.0000 N   0  0  0  0  0  0  0  0  0
    3.6020   -4.0364    0.0000 C   0  0  0  0  0  0  0  0  0
    3.0499   -3.4233    0.0000 C   0  0  0  0  0  0  0  0  0
    5.4708   -2.9088    0.0000 N   0  0  0  0  0  0  0  0  0
    5.7258   -2.1241    0.0000 C   0  0  0  0  0  0  0  0  0
    6.5327   -1.9526    0.0000 C   0  0  0  0  0  0  0  0  0
    7.1458   -1.4006    0.0000 C   0  0  0  0  0  0  0  0  0
    7.3174   -2.2076    0.0000 C   0  0  0  0  0  0  0  0  0
  1  2  4  0  0  0  0
  1  5  4  0  0  0  0
  2  3  4  0  0  0  0
  3  4  4  0  0  0  0
  3 10  1  0  0  0  0
  4  5  4  0  0  0  0
  4  9  4  0  0  0  0
  5  6  4  0  0  0  0
  6  7  4  0  0  0  0
  7  8  4  0  0  0  0
  8  9  4  0  0  0  0
 10 11  1  0  0  0  0
 11 12  1  0  0  0  0
 12 13  1  0  0  0  0
 12 17  1  0  0  0  0
 13 14  1  0  0  0  0
 14 15  1  0  0  0  0
 14 18  1  0  0  0  0
 15 16  1  0  0  0  0
 16 17  1  0  0  0  0
 18 19  4  0  0  0  0
 18 23  4  0  0  0  0
 19 20  4  0  0  0  0
 20 21  4  0  0  0  0
 20 24  1  0  0  0  0
 21 22  4  0  0  0  0
 22 23  4  0  0  0  0
 24 25  1  0  0  0  0
 25 26  1  0  0  0  0
 26 27  1  0  0  0  0
 26 28  1  0  0  0  0
 27 28  1  0  0  0  0
M  STY  1   1 DAT
M  SAL   1  1   1
M  SDT   1 MRV_IMPLICIT_H                                        
M  SDD   1     0.0000    0.0000    DR    ALL  0       0  
M  SED   1 IMPL_H1
M  END
>  <Name_Molregno>
519330

>  <5-HT1A>
7.67

$$$$
519331
  Marvin  02231216192D 0   1.00000     0.00000     0

 29 33  0  0  1  0  0  0  0  0999 V2000
    2.5218    3.1241    0.0000 N   0  0  0  0  0  0  0  0  0
    2.0369    2.4566    0.0000 C   0  0  0  0  0  0  0  0  0
    2.5218    1.7892    0.0000 C   0  0  0  0  0  0  0  0  0
    3.3064    2.0441    0.0000 C   0  0  0  0  0  0  0  0  0
    3.3064    2.8691    0.0000 C   0  0  0  0  0  0  0  0  0
    4.0209    3.2816    0.0000 C   0  0  0  0  0  0  0  0  0
    4.7354    2.8691    0.0000 C   0  0  0  0  0  0  0  0  0
    4.7354    2.0441    0.0000 C   0  0  0  0  0  0  0  0  0
    4.0209    1.6316    0.0000 C   0  0  0  0  0  0  0  0  0
    2.2669    1.0046    0.0000 C   0  0  0  0  0  0  0  0  0
    2.8189    0.3915    0.0000 C   0  0  0  0  0  0  0  0  0
    2.5640   -0.3931    0.0000 N   0  0  0  0  0  0  0  0  0
    3.1160   -1.0062    0.0000 C   0  0  0  0  0  0  0  0  0
    2.8611   -1.7908    0.0000 C   0  0  0  0  0  0  0  0  0
    2.0541   -1.9624    0.0000 C   0  0  0  0  0  0  0  0  0
    1.5021   -1.3493    0.0000 C   0  0  0  0  0  0  0  0  0
    1.7570   -0.5647    0.0000 C   0  0  0  0  0  0  0  0  0
    3.4131   -2.4039    0.0000 C   0  0  0  0  0  0  0  0  0
    4.2201   -2.2324    0.0000 N   0  0  0  0  0  0  0  0  0
    4.7721   -2.8455    0.0000 C   0  0  0  0  0  0  0  0  0
    4.5172   -3.6301    0.0000 N   0  0  0  0  0  0  0  0  0
    3.7102   -3.8017    0.0000 C   0  0  0  0  0  0  0  0  0
    3.1582   -3.1886    0.0000 C   0  0  0  0  0  0  0  0  0
    5.5791   -2.6740    0.0000 N   0  0  0  0  0  0  0  0  0
    5.8340   -1.8894    0.0000 C   0  0  0  0  0  0  0  0  0
    5.2820   -1.2763    0.0000 C   0  0  0  0  0  0  0  0  0
    6.6410   -1.7178    0.0000 C   0  0  0  0  0  0  0  0  0
    7.2541   -1.1658    0.0000 C   0  0  0  0  0  0  0  0  0
    7.4256   -1.9728    0.0000 C   0  0  0  0  0  0  0  0  0
  1  2  4  0  0  0  0
  1  5  4  0  0  0  0
  2  3  4  0  0  0  0
  3  4  4  0  0  0  0
  3 10  1  0  0  0  0
  4  5  4  0  0  0  0
  4  9  4  0  0  0  0
  5  6  4  0  0  0  0
  6  7  4  0  0  0  0
  7  8  4  0  0  0  0
  8  9  4  0  0  0  0
 10 11  1  0  0  0  0
 11 12  1  0  0  0  0
 12 13  1  0  0  0  0
 12 17  1  0  0  0  0
 13 14  1  0  0  0  0
 14 15  1  0  0  0  0
 14 18  1  0  0  0  0
 15 16  1  0  0  0  0
 16 17  1  0  0  0  0
 18 19  4  0  0  0  0
 18 23  4  0  0  0  0
 19 20  4  0  0  0  0
 20 21  4  0  0  0  0
 20 24  1  0  0  0  0
 21 22  4  0  0  0  0
 22 23  4  0  0  0  0
 24 25  1  0  0  0  0
 25 26  1  0  0  0  0
 25 27  1  0  0  0  0
 27 28  1  0  0  0  0
 27 29  1  0  0  0  0
 28 29  1  0  0  0  0
M  STY  1   1 DAT
M  SAL   1  1   1
M  SDT   1 MRV_IMPLICIT_H                                        
M  SDD   1     0.0000    0.0000    DR    ALL  0       0  
M  SED   1 IMPL_H1
M  END
>  <Name_Molregno>
519331

>  <5-HT1A>
8.13

$$$$
519371
  Marvin  02231216192D 0   1.00000     0.00000     0

 28 32  0  0  1  0  0  0  0  0999 V2000
   -4.7900    3.0972    0.0000 N   0  0  0  0  0  0  0  0  0
   -5.2749    2.4298    0.0000 C   0  0  0  0  0  0  0  0  0
   -4.7900    1.7624    0.0000 C   0  0  0  0  0  0  0  0  0
   -4.0054    2.0173    0.0000 C   0  0  0  0  0  0  0  0  0
   -4.0054    2.8423    0.0000 C   0  0  0  0  0  0  0  0  0
   -3.2909    3.2548    0.0000 C   0  0  0  0  0  0  0  0  0
   -2.5764    2.8423    0.0000 C   0  0  0  0  0  0  0  0  0
   -2.5764    2.0173    0.0000 C   0  0  0  0  0  0  0  0  0
   -3.2909    1.6048    0.0000 C   0  0  0  0  0  0  0  0  0
   -5.0449    0.9777    0.0000 C   0  0  0  0  0  0  0  0  0
   -4.4929    0.3646    0.0000 C   0  0  0  0  0  0  0  0  0
   -4.7478   -0.4200    0.0000 N   0  0  0  0  0  0  0  0  0
   -4.1958   -1.0331    0.0000 C   0  0  0  0  0  0  0  0  0
   -4.4507   -1.8177    0.0000 C   0  0  0  0  0  0  0  0  0
   -5.2577   -1.9892    0.0000 C   0  0  0  0  0  0  0  0  0
   -5.8097   -1.3761    0.0000 C   0  0  0  0  0  0  0  0  0
   -5.5548   -0.5915    0.0000 C   0  0  0  0  0  0  0  0  0
   -3.8987   -2.4308    0.0000 C   0  0  0  0  0  0  0  0  0
   -3.0917   -2.2593    0.0000 N   0  0  0  0  0  0  0  0  0
   -2.5397   -2.8724    0.0000 C   0  0  0  0  0  0  0  0  0
   -2.7946   -3.6570    0.0000 N   0  0  0  0  0  0  0  0  0
   -3.6016   -3.8285    0.0000 C   0  0  0  0  0  0  0  0  0
   -4.1536   -3.2154    0.0000 C   0  0  0  0  0  0  0  0  0
   -1.7327   -2.7008    0.0000 N   0  0  0  0  0  0  0  0  0
   -1.4778   -1.9162    0.0000 C   0  0  0  0  0  0  0  0  0
   -0.9699   -1.2661    0.0000 C   0  0  0  0  0  0  0  0  0
   -0.6608   -2.0310    0.0000 C   0  0  0  0  0  0  0  0  0
   -2.2062   -1.5289    0.0000 C   0  0  0  0  0  0  0  0  0
  1  2  4  0  0  0  0
  1  5  4  0  0  0  0
  2  3  4  0  0  0  0
  3  4  4  0  0  0  0
  3 10  1  0  0  0  0
  4  5  4  0  0  0  0
  4  9  4  0  0  0  0
  5  6  4  0  0  0  0
  6  7  4  0  0  0  0
  7  8  4  0  0  0  0
  8  9  4  0  0  0  0
 10 11  1  0  0  0  0
 11 12  1  0  0  0  0
 12 13  1  0  0  0  0
 12 17  1  0  0  0  0
 13 14  1  0  0  0  0
 14 15  1  0  0  0  0
 14 18  1  0  0  0  0
 15 16  1  0  0  0  0
 16 17  1  0  0  0  0
 18 19  4  0  0  0  0
 18 23  4  0  0  0  0
 19 20  4  0  0  0  0
 20 21  4  0  0  0  0
 20 24  1  0  0  0  0
 21 22  4  0  0  0  0
 22 23  4  0  0  0  0
 24 25  1  0  0  0  0
 25 26  1  0  0  0  0
 25 27  1  0  0  0  0
 25 28  1  0  0  0  0
 26 27  1  0  0  0  0
M  STY  1   1 DAT
M  SAL   1  1   1
M  SDT   1 MRV_IMPLICIT_H                                        
M  SDD   1     0.0000    0.0000    DR    ALL  0       0  
M  SED   1 IMPL_H1
M  END
>  <Name_Molregno>
519371

>  <5-HT1A>
7.49

$$$$
519372
  Marvin  02231216192D 0   1.00000     0.00000     0

 28 31  0  0  1  0  0  0  0  0999 V2000
    2.4572    3.1100    0.0000 N   0  0  0  0  0  0  0  0  0
    1.9723    2.4426    0.0000 C   0  0  0  0  0  0  0  0  0
    2.4572    1.7752    0.0000 C   0  0  0  0  0  0  0  0  0
    3.2418    2.0301    0.0000 C   0  0  0  0  0  0  0  0  0
    3.2418    2.8551    0.0000 C   0  0  0  0  0  0  0  0  0
    3.9563    3.2676    0.0000 C   0  0  0  0  0  0  0  0  0
    4.6707    2.8551    0.0000 C   0  0  0  0  0  0  0  0  0
    4.6707    2.0301    0.0000 C   0  0  0  0  0  0  0  0  0
    3.9563    1.6176    0.0000 C   0  0  0  0  0  0  0  0  0
    2.2022    0.9905    0.0000 C   0  0  0  0  0  0  0  0  0
    2.7543    0.3774    0.0000 C   0  0  0  0  0  0  0  0  0
    2.4993   -0.4072    0.0000 N   0  0  0  0  0  0  0  0  0
    3.0514   -1.0203    0.0000 C   0  0  0  0  0  0  0  0  0
    2.7964   -1.8049    0.0000 C   0  0  0  0  0  0  0  0  0
    1.9895   -1.9764    0.0000 C   0  0  0  0  0  0  0  0  0
    1.4374   -1.3633    0.0000 C   0  0  0  0  0  0  0  0  0
    1.6924   -0.5787    0.0000 C   0  0  0  0  0  0  0  0  0
    3.3485   -2.4180    0.0000 C   0  0  0  0  0  0  0  0  0
    4.1554   -2.2465    0.0000 N   0  0  0  0  0  0  0  0  0
    4.7075   -2.8596    0.0000 C   0  0  0  0  0  0  0  0  0
    4.4525   -3.6442    0.0000 N   0  0  0  0  0  0  0  0  0
    3.6456   -3.8157    0.0000 C   0  0  0  0  0  0  0  0  0
    3.0935   -3.2026    0.0000 C   0  0  0  0  0  0  0  0  0
    5.5144   -2.6880    0.0000 N   0  0  0  0  0  0  0  0  0
    5.7694   -1.9034    0.0000 C   0  0  0  0  0  0  0  0  0
    6.0243   -1.1188    0.0000 C   0  0  0  0  0  0  0  0  0
    6.5540   -2.1583    0.0000 C   0  0  0  0  0  0  0  0  0
    4.9848   -1.6485    0.0000 C   0  0  0  0  0  0  0  0  0
  1  2  4  0  0  0  0
  1  5  4  0  0  0  0
  2  3  4  0  0  0  0
  3  4  4  0  0  0  0
  3 10  1  0  0  0  0
  4  5  4  0  0  0  0
  4  9  4  0  0  0  0
  5  6  4  0  0  0  0
  6  7  4  0  0  0  0
  7  8  4  0  0  0  0
  8  9  4  0  0  0  0
 10 11  1  0  0  0  0
 11 12  1  0  0  0  0
 12 13  1  0  0  0  0
 12 17  1  0  0  0  0
 13 14  1  0  0  0  0
 14 15  1  0  0  0  0
 14 18  1  0  0  0  0
 15 16  1  0  0  0  0
 16 17  1  0  0  0  0
 18 19  4  0  0  0  0
 18 23  4  0  0  0  0
 19 20  4  0  0  0  0
 20 21  4  0  0  0  0
 20 24  1  0  0  0  0
 21 22  4  0  0  0  0
 22 23  4  0  0  0  0
 24 25  1  0  0  0  0
 25 26  1  0  0  0  0
 25 27  1  0  0  0  0
 25 28  1  0  0  0  0
M  STY  1   1 DAT
M  SAL   1  1   1
M  SDT   1 MRV_IMPLICIT_H                                        
M  SDD   1     0.0000    0.0000    DR    ALL  0       0  
M  SED   1 IMPL_H1
M  END
>  <Name_Molregno>
519372

>  <5-HT1A>
8.28

$$$$
519373
  Marvin  02231216192D 0   1.00000     0.00000     0

 27 30  0  0  1  0  0  0  0  0999 V2000
   -4.6674    3.0307    0.0000 N   0  0  0  0  0  0  0  0  0
   -5.1523    2.3632    0.0000 C   0  0  0  0  0  0  0  0  0
   -4.6674    1.6958    0.0000 C   0  0  0  0  0  0  0  0  0
   -3.8828    1.9507    0.0000 C   0  0  0  0  0  0  0  0  0
   -3.8828    2.7757    0.0000 C   0  0  0  0  0  0  0  0  0
   -3.1683    3.1882    0.0000 C   0  0  0  0  0  0  0  0  0
   -2.4538    2.7757    0.0000 C   0  0  0  0  0  0  0  0  0
   -2.4538    1.9507    0.0000 C   0  0  0  0  0  0  0  0  0
   -3.1683    1.5382    0.0000 C   0  0  0  0  0  0  0  0  0
   -4.9223    0.9112    0.0000 C   0  0  0  0  0  0  0  0  0
   -4.3703    0.2981    0.0000 C   0  0  0  0  0  0  0  0  0
   -4.6252   -0.4865    0.0000 N   0  0  0  0  0  0  0  0  0
   -4.0732   -1.0996    0.0000 C   0  0  0  0  0  0  0  0  0
   -4.3281   -1.8843    0.0000 C   0  0  0  0  0  0  0  0  0
   -5.1351   -2.0558    0.0000 C   0  0  0  0  0  0  0  0  0
   -5.6871   -1.4427    0.0000 C   0  0  0  0  0  0  0  0  0
   -5.4322   -0.6581    0.0000 C   0  0  0  0  0  0  0  0  0
   -3.7761   -2.4974    0.0000 C   0  0  0  0  0  0  0  0  0
   -2.9691   -2.3258    0.0000 N   0  0  0  0  0  0  0  0  0
   -2.4171   -2.9389    0.0000 C   0  0  0  0  0  0  0  0  0
   -2.6720   -3.7235    0.0000 N   0  0  0  0  0  0  0  0  0
   -3.4790   -3.8951    0.0000 C   0  0  0  0  0  0  0  0  0
   -4.0310   -3.2820    0.0000 C   0  0  0  0  0  0  0  0  0
   -1.6101   -2.7674    0.0000 N   0  0  0  0  0  0  0  0  0
   -1.3552   -1.9828    0.0000 C   0  0  0  0  0  0  0  0  0
   -0.5482   -1.8112    0.0000 C   0  0  0  0  0  0  0  0  0
    0.0038   -2.4243    0.0000 C   0  0  0  0  0  0  0  0  0
  1  2  4  0  0  0  0
  1  5  4  0  0  0  0
  2  3  4  0  0  0  0
  3  4  4  0  0  0  0
  3 10  1  0  0  0  0
  4  5  4  0  0  0  0
  4  9  4  0  0  0  0
  5  6  4  0  0  0  0
  6  7  4  0  0  0  0
  7  8  4  0  0  0  0
  8  9  4  0  0  0  0
 10 11  1  0  0  0  0
 11 12  1  0  0  0  0
 12 13  1  0  0  0  0
 12 17  1  0  0  0  0
 13 14  1  0  0  0  0
 14 15  1  0  0  0  0
 14 18  1  0  0  0  0
 15 16  1  0  0  0  0
 16 17  1  0  0  0  0
 18 19  4  0  0  0  0
 18 23  4  0  0  0  0
 19 20  4  0  0  0  0
 20 21  4  0  0  0  0
 20 24  1  0  0  0  0
 21 22  4  0  0  0  0
 22 23  4  0  0  0  0
 24 25  1  0  0  0  0
 25 26  1  0  0  0  0
 26 27  1  0  0  0  0
M  STY  1   1 DAT
M  SAL   1  1   1
M  SDT   1 MRV_IMPLICIT_H                                        
M  SDD   1     0.0000    0.0000    DR    ALL  0       0  
M  SED   1 IMPL_H1
M  END
>  <Name_Molregno>
519373

>  <5-HT1A>
7.87

$$$$
519375
  Marvin  02231216192D 0   1.00000     0.00000     0

 28 32  0  0  1  0  0  0  0  0999 V2000
    6.3174    1.2230    0.0000 F   0  0  0  0  0  0  0  0  0
    5.6029    1.6355    0.0000 C   0  0  0  0  0  0  0  0  0
    4.8884    1.2230    0.0000 C   0  0  0  0  0  0  0  0  0
    4.1740    1.6355    0.0000 C   0  0  0  0  0  0  0  0  0
    4.1740    2.4605    0.0000 C   0  0  0  0  0  0  0  0  0
    3.3893    2.7155    0.0000 N   0  0  0  0  0  0  0  0  0
    2.9044    2.0480    0.0000 C   0  0  0  0  0  0  0  0  0
    3.3893    1.3806    0.0000 C   0  0  0  0  0  0  0  0  0
    3.1344    0.5960    0.0000 C   0  0  0  0  0  0  0  0  0
    3.6864   -0.0171    0.0000 C   0  0  0  0  0  0  0  0  0
    3.4315   -0.8017    0.0000 N   0  0  0  0  0  0  0  0  0
    3.9835   -1.4148    0.0000 C   0  0  0  0  0  0  0  0  0
    3.7286   -2.1995    0.0000 C   0  0  0  0  0  0  0  0  0
    2.9216   -2.3710    0.0000 C   0  0  0  0  0  0  0  0  0
    2.3696   -1.7579    0.0000 C   0  0  0  0  0  0  0  0  0
    2.6245   -0.9733    0.0000 C   0  0  0  0  0  0  0  0  0
    4.2806   -2.8125    0.0000 C   0  0  0  0  0  0  0  0  0
    5.0876   -2.6410    0.0000 N   0  0  0  0  0  0  0  0  0
    5.6396   -3.2541    0.0000 C   0  0  0  0  0  0  0  0  0
    5.3847   -4.0387    0.0000 N   0  0  0  0  0  0  0  0  0
    4.5777   -4.2103    0.0000 C   0  0  0  0  0  0  0  0  0
    4.0257   -3.5972    0.0000 C   0  0  0  0  0  0  0  0  0
    6.4466   -3.0826    0.0000 N   0  0  0  0  0  0  0  0  0
    6.9986   -3.6957    0.0000 C   0  0  0  0  0  0  0  0  0
    7.7832   -3.9506    0.0000 C   0  0  0  0  0  0  0  0  0
    7.1702   -4.5027    0.0000 C   0  0  0  0  0  0  0  0  0
    4.8884    2.8730    0.0000 C   0  0  0  0  0  0  0  0  0
    5.6029    2.4605    0.0000 C   0  0  0  0  0  0  0  0  0
  1  2  1  0  0  0  0
  2  3  4  0  0  0  0
  2 28  4  0  0  0  0
  3  4  4  0  0  0  0
  4  5  4  0  0  0  0
  4  8  4  0  0  0  0
  5  6  4  0  0  0  0
  5 27  4  0  0  0  0
  6  7  4  0  0  0  0
  7  8  4  0  0  0  0
  8  9  1  0  0  0  0
  9 10  1  0  0  0  0
 10 11  1  0  0  0  0
 11 12  1  0  0  0  0
 11 16  1  0  0  0  0
 12 13  1  0  0  0  0
 13 14  1  0  0  0  0
 13 17  1  0  0  0  0
 14 15  1  0  0  0  0
 15 16  1  0  0  0  0
 17 18  4  0  0  0  0
 17 22  4  0  0  0  0
 18 19  4  0  0  0  0
 19 20  4  0  0  0  0
 19 23  1  0  0  0  0
 20 21  4  0  0  0  0
 21 22  4  0  0  0  0
 23 24  1  0  0  0  0
 24 25  1  0  0  0  0
 24 26  1  0  0  0  0
 25 26  1  0  0  0  0
 27 28  4  0  0  0  0
M  STY  1   1 DAT
M  SAL   1  1   6
M  SDT   1 MRV_IMPLICIT_H                                        
M  SDD   1     0.0000    0.0000    DR    ALL  0       0  
M  SED   1 IMPL_H1
M  END
>  <Name_Molregno>
519375

>  <5-HT1A>
7.63

$$$$
519424
  Marvin  02231216192D 0   1.00000     0.00000     0

 28 32  0  0  1  0  0  0  0  0999 V2000
    6.3174    1.2230    0.0000 Cl  0  0  0  0  0  0  0  0  0
    5.6029    1.6355    0.0000 C   0  0  0  0  0  0  0  0  0
    4.8884    1.2230    0.0000 C   0  0  0  0  0  0  0  0  0
    4.1740    1.6355    0.0000 C   0  0  0  0  0  0  0  0  0
    4.1740    2.4605    0.0000 C   0  0  0  0  0  0  0  0  0
    3.3893    2.7155    0.0000 N   0  0  0  0  0  0  0  0  0
    2.9044    2.0480    0.0000 C   0  0  0  0  0  0  0  0  0
    3.3893    1.3806    0.0000 C   0  0  0  0  0  0  0  0  0
    3.1344    0.5960    0.0000 C   0  0  0  0  0  0  0  0  0
    3.6864   -0.0171    0.0000 C   0  0  0  0  0  0  0  0  0
    3.4315   -0.8017    0.0000 N   0  0  0  0  0  0  0  0  0
    3.9835   -1.4148    0.0000 C   0  0  0  0  0  0  0  0  0
    3.7286   -2.1995    0.0000 C   0  0  0  0  0  0  0  0  0
    2.9216   -2.3710    0.0000 C   0  0  0  0  0  0  0  0  0
    2.3696   -1.7579    0.0000 C   0  0  0  0  0  0  0  0  0
    2.6245   -0.9733    0.0000 C   0  0  0  0  0  0  0  0  0
    4.2806   -2.8125    0.0000 C   0  0  0  0  0  0  0  0  0
    5.0876   -2.6410    0.0000 N   0  0  0  0  0  0  0  0  0
    5.6396   -3.2541    0.0000 C   0  0  0  0  0  0  0  0  0
    5.3847   -4.0387    0.0000 N   0  0  0  0  0  0  0  0  0
    4.5777   -4.2103    0.0000 C   0  0  0  0  0  0  0  0  0
    4.0257   -3.5972    0.0000 C   0  0  0  0  0  0  0  0  0
    6.4466   -3.0826    0.0000 N   0  0  0  0  0  0  0  0  0
    6.9986   -3.6957    0.0000 C   0  0  0  0  0  0  0  0  0
    7.7832   -3.9506    0.0000 C   0  0  0  0  0  0  0  0  0
    7.1702   -4.5027    0.0000 C   0  0  0  0  0  0  0  0  0
    4.8884    2.8730    0.0000 C   0  0  0  0  0  0  0  0  0
    5.6029    2.4605    0.0000 C   0  0  0  0  0  0  0  0  0
  1  2  1  0  0  0  0
  2  3  4  0  0  0  0
  2 28  4  0  0  0  0
  3  4  4  0  0  0  0
  4  5  4  0  0  0  0
  4  8  4  0  0  0  0
  5  6  4  0  0  0  0
  5 27  4  0  0  0  0
  6  7  4  0  0  0  0
  7  8  4  0  0  0  0
  8  9  1  0  0  0  0
  9 10  1  0  0  0  0
 10 11  1  0  0  0  0
 11 12  1  0  0  0  0
 11 16  1  0  0  0  0
 12 13  1  0  0  0  0
 13 14  1  0  0  0  0
 13 17  1  0  0  0  0
 14 15  1  0  0  0  0
 15 16  1  0  0  0  0
 17 18  4  0  0  0  0
 17 22  4  0  0  0  0
 18 19  4  0  0  0  0
 19 20  4  0  0  0  0
 19 23  1  0  0  0  0
 20 21  4  0  0  0  0
 21 22  4  0  0  0  0
 23 24  1  0  0  0  0
 24 25  1  0  0  0  0
 24 26  1  0  0  0  0
 25 26  1  0  0  0  0
 27 28  4  0  0  0  0
M  STY  1   1 DAT
M  SAL   1  1   6
M  SDT   1 MRV_IMPLICIT_H                                        
M  SDD   1     0.0000    0.0000    DR    ALL  0       0  
M  SED   1 IMPL_H1
M  END
>  <Name_Molregno>
519424

>  <5-HT1A>
7.98

$$$$
519425
  Marvin  02231216192D 0   1.00000     0.00000     0

 29 33  0  0  1  0  0  0  0  0999 V2000
   -2.7226    1.0095    0.0000 Cl  0  0  0  0  0  0  0  0  0
   -3.4370    1.4220    0.0000 C   0  0  0  0  0  0  0  0  0
   -4.1515    1.0095    0.0000 C   0  0  0  0  0  0  0  0  0
   -4.8660    1.4220    0.0000 C   0  0  0  0  0  0  0  0  0
   -4.8660    2.2470    0.0000 C   0  0  0  0  0  0  0  0  0
   -5.6506    2.5019    0.0000 N   0  0  0  0  0  0  0  0  0
   -6.1355    1.8345    0.0000 C   0  0  0  0  0  0  0  0  0
   -6.9605    1.8345    0.0000 C   0  0  0  0  0  0  0  0  0
   -5.6506    1.1670    0.0000 C   0  0  0  0  0  0  0  0  0
   -5.9056    0.3824    0.0000 C   0  0  0  0  0  0  0  0  0
   -5.3535   -0.2307    0.0000 C   0  0  0  0  0  0  0  0  0
   -5.6085   -1.0153    0.0000 N   0  0  0  0  0  0  0  0  0
   -5.0564   -1.6284    0.0000 C   0  0  0  0  0  0  0  0  0
   -5.3114   -2.4130    0.0000 C   0  0  0  0  0  0  0  0  0
   -6.1183   -2.5845    0.0000 C   0  0  0  0  0  0  0  0  0
   -6.6704   -1.9715    0.0000 C   0  0  0  0  0  0  0  0  0
   -6.4154   -1.1868    0.0000 C   0  0  0  0  0  0  0  0  0
   -4.7593   -3.0261    0.0000 C   0  0  0  0  0  0  0  0  0
   -3.9524   -2.8546    0.0000 N   0  0  0  0  0  0  0  0  0
   -3.4003   -3.4677    0.0000 C   0  0  0  0  0  0  0  0  0
   -3.6553   -4.2523    0.0000 N   0  0  0  0  0  0  0  0  0
   -4.4622   -4.4238    0.0000 C   0  0  0  0  0  0  0  0  0
   -5.0143   -3.8107    0.0000 C   0  0  0  0  0  0  0  0  0
   -2.5934   -3.2962    0.0000 N   0  0  0  0  0  0  0  0  0
   -2.0413   -3.9092    0.0000 C   0  0  0  0  0  0  0  0  0
   -1.2567   -4.1642    0.0000 C   0  0  0  0  0  0  0  0  0
   -1.8698   -4.7162    0.0000 C   0  0  0  0  0  0  0  0  0
   -4.1515    2.6595    0.0000 C   0  0  0  0  0  0  0  0  0
   -3.4370    2.2470    0.0000 C   0  0  0  0  0  0  0  0  0
  1  2  1  0  0  0  0
  2  3  4  0  0  0  0
  2 29  4  0  0  0  0
  3  4  4  0  0  0  0
  4  5  4  0  0  0  0
  4  9  4  0  0  0  0
  5  6  4  0  0  0  0
  5 28  4  0  0  0  0
  6  7  4  0  0  0  0
  7  8  1  0  0  0  0
  7  9  4  0  0  0  0
  9 10  1  0  0  0  0
 10 11  1  0  0  0  0
 11 12  1  0  0  0  0
 12 13  1  0  0  0  0
 12 17  1  0  0  0  0
 13 14  1  0  0  0  0
 14 15  1  0  0  0  0
 14 18  1  0  0  0  0
 15 16  1  0  0  0  0
 16 17  1  0  0  0  0
 18 19  4  0  0  0  0
 18 23  4  0  0  0  0
 19 20  4  0  0  0  0
 20 21  4  0  0  0  0
 20 24  1  0  0  0  0
 21 22  4  0  0  0  0
 22 23  4  0  0  0  0
 24 25  1  0  0  0  0
 25 26  1  0  0  0  0
 25 27  1  0  0  0  0
 26 27  1  0  0  0  0
 28 29  4  0  0  0  0
M  STY  1   1 DAT
M  SAL   1  1   6
M  SDT   1 MRV_IMPLICIT_H                                        
M  SDD   1     0.0000    0.0000    DR    ALL  0       0  
M  SED   1 IMPL_H1
M  END
>  <Name_Molregno>
519425

>  <5-HT1A>
7.58

$$$$
519426
  Marvin  02231216192D 0   1.00000     0.00000     0

 28 32  0  0  1  0  0  0  0  0999 V2000
   -1.6868   -3.7745    0.0000 F   0  0  0  0  0  0  0  0  0
   -1.6868   -2.9495    0.0000 C   0  0  0  0  0  0  0  0  0
   -2.4012   -2.5370    0.0000 C   0  0  0  0  0  0  0  0  0
   -3.1858   -2.7920    0.0000 N   0  0  0  0  0  0  0  0  0
   -3.6708   -2.1245    0.0000 C   0  0  0  0  0  0  0  0  0
   -3.1858   -1.4571    0.0000 C   0  0  0  0  0  0  0  0  0
   -2.4012   -1.7120    0.0000 C   0  0  0  0  0  0  0  0  0
   -1.6868   -1.2995    0.0000 C   0  0  0  0  0  0  0  0  0
   -0.9723   -1.7120    0.0000 C   0  0  0  0  0  0  0  0  0
   -0.9723   -2.5370    0.0000 C   0  0  0  0  0  0  0  0  0
   -3.4408   -0.6725    0.0000 C   0  0  0  0  0  0  0  0  0
   -4.2478   -0.5010    0.0000 C   0  0  0  0  0  0  0  0  0
   -4.5027    0.2837    0.0000 N   0  0  0  0  0  0  0  0  0
   -5.3097    0.4552    0.0000 C   0  0  0  0  0  0  0  0  0
   -5.5646    1.2398    0.0000 C   0  0  0  0  0  0  0  0  0
   -5.0126    1.8529    0.0000 C   0  0  0  0  0  0  0  0  0
   -4.2056    1.6814    0.0000 C   0  0  0  0  0  0  0  0  0
   -3.9507    0.8968    0.0000 C   0  0  0  0  0  0  0  0  0
   -6.3716    1.4113    0.0000 C   0  0  0  0  0  0  0  0  0
   -6.9236    0.7983    0.0000 N   0  0  0  0  0  0  0  0  0
   -7.7306    0.9698    0.0000 C   0  0  0  0  0  0  0  0  0
   -7.9855    1.7544    0.0000 N   0  0  0  0  0  0  0  0  0
   -7.4335    2.3675    0.0000 C   0  0  0  0  0  0  0  0  0
   -6.6265    2.1960    0.0000 C   0  0  0  0  0  0  0  0  0
   -8.2826    0.3567    0.0000 N   0  0  0  0  0  0  0  0  0
   -9.0896    0.5282    0.0000 C   0  0  0  0  0  0  0  0  0
   -9.8742    0.2733    0.0000 C   0  0  0  0  0  0  0  0  0
   -9.7027    1.0802    0.0000 C   0  0  0  0  0  0  0  0  0
  1  2  1  0  0  0  0
  2  3  4  0  0  0  0
  2 10  4  0  0  0  0
  3  4  4  0  0  0  0
  3  7  4  0  0  0  0
  4  5  4  0  0  0  0
  5  6  4  0  0  0  0
  6  7  4  0  0  0  0
  6 11  1  0  0  0  0
  7  8  4  0  0  0  0
  8  9  4  0  0  0  0
  9 10  4  0  0  0  0
 11 12  1  0  0  0  0
 12 13  1  0  0  0  0
 13 14  1  0  0  0  0
 13 18  1  0  0  0  0
 14 15  1  0  0  0  0
 15 16  1  0  0  0  0
 15 19  1  0  0  0  0
 16 17  1  0  0  0  0
 17 18  1  0  0  0  0
 19 20  4  0  0  0  0
 19 24  4  0  0  0  0
 20 21  4  0  0  0  0
 21 22  4  0  0  0  0
 21 25  1  0  0  0  0
 22 23  4  0  0  0  0
 23 24  4  0  0  0  0
 25 26  1  0  0  0  0
 26 27  1  0  0  0  0
 26 28  1  0  0  0  0
 27 28  1  0  0  0  0
M  STY  1   1 DAT
M  SAL   1  1   4
M  SDT   1 MRV_IMPLICIT_H                                        
M  SDD   1     0.0000    0.0000    DR    ALL  0       0  
M  SED   1 IMPL_H1
M  END
>  <Name_Molregno>
519426

>  <5-HT1A>
7.45

$$$$
519427
  Marvin  02231216192D 0   1.00000     0.00000     0

 28 32  0  0  1  0  0  0  0  0999 V2000
   10.0090   -2.9973    0.0000 F   0  0  0  0  0  0  0  0  0
    9.2945   -2.5848    0.0000 C   0  0  0  0  0  0  0  0  0
    8.5801   -2.9973    0.0000 C   0  0  0  0  0  0  0  0  0
    7.8656   -2.5848    0.0000 C   0  0  0  0  0  0  0  0  0
    7.0810   -2.8397    0.0000 N   0  0  0  0  0  0  0  0  0
    6.5960   -2.1723    0.0000 C   0  0  0  0  0  0  0  0  0
    7.0810   -1.5048    0.0000 C   0  0  0  0  0  0  0  0  0
    7.8656   -1.7598    0.0000 C   0  0  0  0  0  0  0  0  0
    8.5801   -1.3473    0.0000 C   0  0  0  0  0  0  0  0  0
    9.2945   -1.7598    0.0000 C   0  0  0  0  0  0  0  0  0
    6.8260   -0.7202    0.0000 C   0  0  0  0  0  0  0  0  0
    6.0190   -0.5487    0.0000 C   0  0  0  0  0  0  0  0  0
    5.7641    0.2359    0.0000 N   0  0  0  0  0  0  0  0  0
    4.9571    0.4075    0.0000 C   0  0  0  0  0  0  0  0  0
    4.7022    1.1921    0.0000 C   0  0  0  0  0  0  0  0  0
    5.2542    1.8052    0.0000 C   0  0  0  0  0  0  0  0  0
    6.0612    1.6337    0.0000 C   0  0  0  0  0  0  0  0  0
    6.3161    0.8490    0.0000 C   0  0  0  0  0  0  0  0  0
    3.8952    1.3636    0.0000 C   0  0  0  0  0  0  0  0  0
    3.3432    0.7505    0.0000 N   0  0  0  0  0  0  0  0  0
    2.5362    0.9220    0.0000 C   0  0  0  0  0  0  0  0  0
    2.2813    1.7067    0.0000 N   0  0  0  0  0  0  0  0  0
    2.8333    2.3198    0.0000 C   0  0  0  0  0  0  0  0  0
    3.6403    2.1482    0.0000 C   0  0  0  0  0  0  0  0  0
    1.9842    0.3089    0.0000 N   0  0  0  0  0  0  0  0  0
    1.1772    0.4805    0.0000 C   0  0  0  0  0  0  0  0  0
    0.3926    0.2255    0.0000 C   0  0  0  0  0  0  0  0  0
    0.5641    1.0325    0.0000 C   0  0  0  0  0  0  0  0  0
  1  2  1  0  0  0  0
  2  3  4  0  0  0  0
  2 10  4  0  0  0  0
  3  4  4  0  0  0  0
  4  5  4  0  0  0  0
  4  8  4  0  0  0  0
  5  6  4  0  0  0  0
  6  7  4  0  0  0  0
  7  8  4  0  0  0  0
  7 11  1  0  0  0  0
  8  9  4  0  0  0  0
  9 10  4  0  0  0  0
 11 12  1  0  0  0  0
 12 13  1  0  0  0  0
 13 14  1  0  0  0  0
 13 18  1  0  0  0  0
 14 15  1  0  0  0  0
 15 16  1  0  0  0  0
 15 19  1  0  0  0  0
 16 17  1  0  0  0  0
 17 18  1  0  0  0  0
 19 20  4  0  0  0  0
 19 24  4  0  0  0  0
 20 21  4  0  0  0  0
 21 22  4  0  0  0  0
 21 25  1  0  0  0  0
 22 23  4  0  0  0  0
 23 24  4  0  0  0  0
 25 26  1  0  0  0  0
 26 27  1  0  0  0  0
 26 28  1  0  0  0  0
 27 28  1  0  0  0  0
M  STY  1   1 DAT
M  SAL   1  1   5
M  SDT   1 MRV_IMPLICIT_H                                        
M  SDD   1     0.0000    0.0000    DR    ALL  0       0  
M  SED   1 IMPL_H1
M  END
>  <Name_Molregno>
519427

>  <5-HT1A>
7.19

$$$$
519428
  Marvin  02231216192D 0   1.00000     0.00000     0

 28 32  0  0  1  0  0  0  0  0999 V2000
   -1.2185    1.5097    0.0000 O   0  0  0  0  0  0  0  0  0
   -0.5040    1.9222    0.0000 C   0  0  0  0  0  0  0  0  0
   -0.5040    2.7472    0.0000 C   0  0  0  0  0  0  0  0  0
   -1.2185    3.1597    0.0000 O   0  0  0  0  0  0  0  0  0
   -1.9330    2.7472    0.0000 C   0  0  0  0  0  0  0  0  0
   -1.9330    1.9222    0.0000 C   0  0  0  0  0  0  0  0  0
   -2.6475    1.5097    0.0000 C   0  0  0  0  0  0  0  0  0
   -3.3619    1.9222    0.0000 C   0  0  0  0  0  0  0  0  0
   -4.0764    1.5097    0.0000 N   0  0  0  0  0  0  0  0  0
   -4.0764    0.6847    0.0000 C   0  0  0  0  0  0  0  0  0
   -4.7909    0.2722    0.0000 C   0  0  0  0  0  0  0  0  0
   -5.5053    0.6847    0.0000 C   0  0  0  0  0  0  0  0  0
   -5.5053    1.5097    0.0000 C   0  0  0  0  0  0  0  0  0
   -4.7909    1.9222    0.0000 C   0  0  0  0  0  0  0  0  0
   -4.7909   -0.5528    0.0000 C   0  0  0  0  0  0  0  0  0
   -4.0764   -0.9653    0.0000 N   0  0  0  0  0  0  0  0  0
   -4.0764   -1.7903    0.0000 C   0  0  0  0  0  0  0  0  0
   -4.7909   -2.2028    0.0000 N   0  0  0  0  0  0  0  0  0
   -5.5053   -1.7903    0.0000 C   0  0  0  0  0  0  0  0  0
   -5.5053   -0.9653    0.0000 C   0  0  0  0  0  0  0  0  0
   -3.3619   -2.2028    0.0000 N   0  0  0  0  0  0  0  0  0
   -3.3619   -3.0278    0.0000 C   0  0  0  0  0  0  0  0  0
   -2.9494   -3.7423    0.0000 C   0  0  0  0  0  0  0  0  0
   -3.7744   -3.7423    0.0000 C   0  0  0  0  0  0  0  0  0
    0.2104    3.1597    0.0000 C   0  0  0  0  0  0  0  0  0
    0.9249    2.7472    0.0000 C   0  0  0  0  0  0  0  0  0
    0.9249    1.9222    0.0000 C   0  0  0  0  0  0  0  0  0
    0.2104    1.5097    0.0000 C   0  0  0  0  0  0  0  0  0
  1  2  1  0  0  0  0
  1  6  1  0  0  0  0
  2  3  4  0  0  0  0
  2 28  4  0  0  0  0
  3  4  1  0  0  0  0
  3 25  4  0  0  0  0
  4  5  1  0  0  0  0
  5  6  1  0  0  0  0
  6  7  1  0  0  0  0
  7  8  1  0  0  0  0
  8  9  1  0  0  0  0
  9 10  1  0  0  0  0
  9 14  1  0  0  0  0
 10 11  1  0  0  0  0
 11 12  1  0  0  0  0
 11 15  1  0  0  0  0
 12 13  1  0  0  0  0
 13 14  1  0  0  0  0
 15 16  4  0  0  0  0
 15 20  4  0  0  0  0
 16 17  4  0  0  0  0
 17 18  4  0  0  0  0
 17 21  1  0  0  0  0
 18 19  4  0  0  0  0
 19 20  4  0  0  0  0
 21 22  1  0  0  0  0
 22 23  1  0  0  0  0
 22 24  1  0  0  0  0
 23 24  1  0  0  0  0
 25 26  4  0  0  0  0
 26 27  4  0  0  0  0
 27 28  4  0  0  0  0
M  END
>  <Name_Molregno>
519428

>  <5-HT1A>
7.42

$$$$
519466
  Marvin  02231216192D 0   1.00000     0.00000     0

 27 31  0  0  1  0  0  0  0  0999 V2000
    2.2181    2.6894    0.0000 S   0  0  0  0  0  0  0  0  0
    1.7331    2.0219    0.0000 C   0  0  0  0  0  0  0  0  0
    2.2181    1.3545    0.0000 C   0  0  0  0  0  0  0  0  0
    3.0027    1.6094    0.0000 C   0  0  0  0  0  0  0  0  0
    3.0027    2.4344    0.0000 C   0  0  0  0  0  0  0  0  0
    3.7171    2.8469    0.0000 C   0  0  0  0  0  0  0  0  0
    4.4316    2.4344    0.0000 C   0  0  0  0  0  0  0  0  0
    4.4316    1.6094    0.0000 C   0  0  0  0  0  0  0  0  0
    3.7171    1.1969    0.0000 C   0  0  0  0  0  0  0  0  0
    1.9631    0.5699    0.0000 C   0  0  0  0  0  0  0  0  0
    2.5151   -0.0432    0.0000 C   0  0  0  0  0  0  0  0  0
    2.2602   -0.8278    0.0000 N   0  0  0  0  0  0  0  0  0
    2.8122   -1.4409    0.0000 C   0  0  0  0  0  0  0  0  0
    2.5573   -2.2255    0.0000 C   0  0  0  0  0  0  0  0  0
    1.7503   -2.3971    0.0000 C   0  0  0  0  0  0  0  0  0
    1.1983   -1.7840    0.0000 C   0  0  0  0  0  0  0  0  0
    1.4532   -0.9994    0.0000 C   0  0  0  0  0  0  0  0  0
    3.1093   -2.8386    0.0000 C   0  0  0  0  0  0  0  0  0
    3.9163   -2.6671    0.0000 N   0  0  0  0  0  0  0  0  0
    4.4683   -3.2802    0.0000 C   0  0  0  0  0  0  0  0  0
    4.2134   -4.0648    0.0000 N   0  0  0  0  0  0  0  0  0
    3.4064   -4.2364    0.0000 C   0  0  0  0  0  0  0  0  0
    2.8544   -3.6233    0.0000 C   0  0  0  0  0  0  0  0  0
    5.2753   -3.1087    0.0000 N   0  0  0  0  0  0  0  0  0
    5.8273   -3.7218    0.0000 C   0  0  0  0  0  0  0  0  0
    6.6120   -3.9767    0.0000 C   0  0  0  0  0  0  0  0  0
    5.9989   -4.5287    0.0000 C   0  0  0  0  0  0  0  0  0
  1  2  4  0  0  0  0
  1  5  4  0  0  0  0
  2  3  4  0  0  0  0
  3  4  4  0  0  0  0
  3 10  1  0  0  0  0
  4  5  4  0  0  0  0
  4  9  4  0  0  0  0
  5  6  4  0  0  0  0
  6  7  4  0  0  0  0
  7  8  4  0  0  0  0
  8  9  4  0  0  0  0
 10 11  1  0  0  0  0
 11 12  1  0  0  0  0
 12 13  1  0  0  0  0
 12 17  1  0  0  0  0
 13 14  1  0  0  0  0
 14 15  1  0  0  0  0
 14 18  1  0  0  0  0
 15 16  1  0  0  0  0
 16 17  1  0  0  0  0
 18 19  4  0  0  0  0
 18 23  4  0  0  0  0
 19 20  4  0  0  0  0
 20 21  4  0  0  0  0
 20 24  1  0  0  0  0
 21 22  4  0  0  0  0
 22 23  4  0  0  0  0
 24 25  1  0  0  0  0
 25 26  1  0  0  0  0
 25 27  1  0  0  0  0
 26 27  1  0  0  0  0
M  END
>  <Name_Molregno>
519466

>  <5-HT1A>
7.41

$$$$
519467
  Marvin  02231216192D 0   1.00000     0.00000     0

 27 31  0  0  1  0  0  0  0  0999 V2000
   -4.8994   -0.2446    0.0000 N   0  0  0  0  0  0  0  0  0
   -4.0744   -0.2446    0.0000 C   0  0  0  0  0  0  0  0  0
   -3.6619   -0.9591    0.0000 C   0  0  0  0  0  0  0  0  0
   -4.0744   -1.6735    0.0000 C   0  0  0  0  0  0  0  0  0
   -4.8994   -1.6735    0.0000 N   0  0  0  0  0  0  0  0  0
   -5.3119   -0.9591    0.0000 C   0  0  0  0  0  0  0  0  0
   -6.1369   -0.9591    0.0000 N   0  0  0  0  0  0  0  0  0
   -6.5494   -1.6735    0.0000 C   0  0  0  0  0  0  0  0  0
   -6.5494   -2.4985    0.0000 C   0  0  0  0  0  0  0  0  0
   -7.2638   -2.0860    0.0000 C   0  0  0  0  0  0  0  0  0
   -3.6619    0.4699    0.0000 C   0  0  0  0  0  0  0  0  0
   -4.0744    1.1843    0.0000 C   0  0  0  0  0  0  0  0  0
   -3.6619    1.8988    0.0000 C   0  0  0  0  0  0  0  0  0
   -2.8369    1.8988    0.0000 C   0  0  0  0  0  0  0  0  0
   -2.4244    1.1843    0.0000 N   0  0  0  0  0  0  0  0  0
   -2.8369    0.4699    0.0000 C   0  0  0  0  0  0  0  0  0
   -1.5994    1.1843    0.0000 C   0  0  0  0  0  0  0  0  0
   -1.1869    1.8988    0.0000 C   0  0  0  0  0  0  0  0  0
   -0.3619    1.8988    0.0000 C   0  0  0  0  0  0  0  0  0
    0.1230    1.2314    0.0000 C   0  0  0  0  0  0  0  0  0
    0.9077    1.4863    0.0000 C   0  0  0  0  0  0  0  0  0
    0.9077    2.3113    0.0000 C   0  0  0  0  0  0  0  0  0
    0.1230    2.5662    0.0000 C   0  0  0  0  0  0  0  0  0
    1.6221    2.7238    0.0000 C   0  0  0  0  0  0  0  0  0
    2.3366    2.3113    0.0000 C   0  0  0  0  0  0  0  0  0
    2.3366    1.4863    0.0000 C   0  0  0  0  0  0  0  0  0
    1.6221    1.0738    0.0000 C   0  0  0  0  0  0  0  0  0
  1  2  4  0  0  0  0
  1  6  4  0  0  0  0
  2  3  4  0  0  0  0
  2 11  1  0  0  0  0
  3  4  4  0  0  0  0
  4  5  4  0  0  0  0
  5  6  4  0  0  0  0
  6  7  1  0  0  0  0
  7  8  1  0  0  0  0
  8  9  1  0  0  0  0
  8 10  1  0  0  0  0
  9 10  1  0  0  0  0
 11 12  1  0  0  0  0
 11 16  1  0  0  0  0
 12 13  1  0  0  0  0
 13 14  1  0  0  0  0
 14 15  1  0  0  0  0
 15 16  1  0  0  0  0
 15 17  1  0  0  0  0
 17 18  1  0  0  0  0
 18 19  1  0  0  0  0
 19 20  1  0  0  0  0
 19 23  1  0  0  0  0
 20 21  1  0  0  0  0
 21 22  4  0  0  0  0
 21 27  4  0  0  0  0
 22 23  1  0  0  0  0
 22 24  4  0  0  0  0
 24 25  4  0  0  0  0
 25 26  4  0  0  0  0
 26 27  4  0  0  0  0
M  END
>  <Name_Molregno>
519467

>  <5-HT1A>
7.37

$$$$
519468
  Marvin  02231216192D 0   1.00000     0.00000     0

 28 32  0  0  1  0  0  0  0  0999 V2000
    2.2926    3.2265    0.0000 N   0  0  0  0  0  0  0  0  0
    1.8076    2.5591    0.0000 C   0  0  0  0  0  0  0  0  0
    2.2926    1.8917    0.0000 C   0  0  0  0  0  0  0  0  0
    3.0772    2.1466    0.0000 C   0  0  0  0  0  0  0  0  0
    3.0772    2.9716    0.0000 C   0  0  0  0  0  0  0  0  0
    3.7916    3.3841    0.0000 C   0  0  0  0  0  0  0  0  0
    4.5061    2.9716    0.0000 C   0  0  0  0  0  0  0  0  0
    4.5061    2.1466    0.0000 C   0  0  0  0  0  0  0  0  0
    3.7916    1.7341    0.0000 C   0  0  0  0  0  0  0  0  0
    2.0376    1.1070    0.0000 C   0  0  0  0  0  0  0  0  0
    2.5896    0.4940    0.0000 C   0  0  0  0  0  0  0  0  0
    2.3347   -0.2907    0.0000 N   0  0  0  0  0  0  0  0  0
    2.8867   -0.9038    0.0000 C   0  0  0  0  0  0  0  0  0
    2.6318   -1.6884    0.0000 C   0  0  0  0  0  0  0  0  0
    1.8248   -1.8599    0.0000 C   0  0  0  0  0  0  0  0  0
    1.2728   -1.2468    0.0000 C   0  0  0  0  0  0  0  0  0
    1.5277   -0.4622    0.0000 C   0  0  0  0  0  0  0  0  0
    3.1838   -2.3015    0.0000 C   0  0  0  0  0  0  0  0  0
    3.9908   -2.1300    0.0000 N   0  0  0  0  0  0  0  0  0
    4.5428   -2.7430    0.0000 C   0  0  0  0  0  0  0  0  0
    4.2879   -3.5277    0.0000 N   0  0  0  0  0  0  0  0  0
    3.4809   -3.6992    0.0000 C   0  0  0  0  0  0  0  0  0
    2.9289   -3.0861    0.0000 C   0  0  0  0  0  0  0  0  0
    5.3498   -2.5715    0.0000 N   0  0  0  0  0  0  0  0  0
    5.9018   -3.1846    0.0000 C   0  0  0  0  0  0  0  0  0
    6.6865   -3.4396    0.0000 C   0  0  0  0  0  0  0  0  0
    6.0734   -3.9916    0.0000 C   0  0  0  0  0  0  0  0  0
    3.3966    0.6655    0.0000 C   0  0  0  0  0  0  0  0  0
  1  2  4  0  0  0  0
  1  5  4  0  0  0  0
  2  3  4  0  0  0  0
  3  4  4  0  0  0  0
  3 10  1  0  0  0  0
  4  5  4  0  0  0  0
  4  9  4  0  0  0  0
  5  6  4  0  0  0  0
  6  7  4  0  0  0  0
  7  8  4  0  0  0  0
  8  9  4  0  0  0  0
 10 11  1  0  0  0  0
 11 12  1  0  0  0  0
 11 28  1  0  0  0  0
 12 13  1  0  0  0  0
 12 17  1  0  0  0  0
 13 14  1  0  0  0  0
 14 15  1  0  0  0  0
 14 18  1  0  0  0  0
 15 16  1  0  0  0  0
 16 17  1  0  0  0  0
 18 19  4  0  0  0  0
 18 23  4  0  0  0  0
 19 20  4  0  0  0  0
 20 21  4  0  0  0  0
 20 24  1  0  0  0  0
 21 22  4  0  0  0  0
 22 23  4  0  0  0  0
 24 25  1  0  0  0  0
 25 26  1  0  0  0  0
 25 27  1  0  0  0  0
 26 27  1  0  0  0  0
M  STY  1   1 DAT
M  SAL   1  1   1
M  SDT   1 MRV_IMPLICIT_H                                        
M  SDD   1     0.0000    0.0000    DR    ALL  0       0  
M  SED   1 IMPL_H1
M  END
>  <Name_Molregno>
519468

>  <5-HT1A>
7.4

$$$$
519469
  Marvin  02231216192D 0   1.00000     0.00000     0

 28 32  0  0  1  0  0  0  0  0999 V2000
    1.9960    0.5978    0.0000 O   0  0  0  0  0  0  0  0  0
    1.4440    1.2109    0.0000 C   0  0  0  0  0  0  0  0  0
    0.6370    1.0393    0.0000 C   0  0  0  0  0  0  0  0  0
    0.3821    0.2547    0.0000 N   0  0  0  0  0  0  0  0  0
    0.9341   -0.3584    0.0000 C   0  0  0  0  0  0  0  0  0
    0.6792   -1.1430    0.0000 C   0  0  0  0  0  0  0  0  0
   -0.1278   -1.3145    0.0000 C   0  0  0  0  0  0  0  0  0
   -0.6798   -0.7014    0.0000 C   0  0  0  0  0  0  0  0  0
   -0.4249    0.0832    0.0000 C   0  0  0  0  0  0  0  0  0
    1.2312   -1.7561    0.0000 C   0  0  0  0  0  0  0  0  0
    2.0382   -1.5846    0.0000 N   0  0  0  0  0  0  0  0  0
    2.5902   -2.1977    0.0000 C   0  0  0  0  0  0  0  0  0
    2.3353   -2.9823    0.0000 N   0  0  0  0  0  0  0  0  0
    1.5283   -3.1538    0.0000 C   0  0  0  0  0  0  0  0  0
    0.9763   -2.5407    0.0000 C   0  0  0  0  0  0  0  0  0
    3.3972   -2.0261    0.0000 N   0  0  0  0  0  0  0  0  0
    3.9492   -2.6392    0.0000 C   0  0  0  0  0  0  0  0  0
    4.7339   -2.8942    0.0000 C   0  0  0  0  0  0  0  0  0
    4.1208   -3.4462    0.0000 C   0  0  0  0  0  0  0  0  0
    1.6989    1.9955    0.0000 C   0  0  0  0  0  0  0  0  0
    2.4836    2.2504    0.0000 C   0  0  0  0  0  0  0  0  0
    2.4836    3.0754    0.0000 C   0  0  0  0  0  0  0  0  0
    1.6989    3.3304    0.0000 N   0  0  0  0  0  0  0  0  0
    1.2140    2.6629    0.0000 C   0  0  0  0  0  0  0  0  0
    3.1980    3.4879    0.0000 C   0  0  0  0  0  0  0  0  0
    3.9125    3.0754    0.0000 C   0  0  0  0  0  0  0  0  0
    3.9125    2.2504    0.0000 C   0  0  0  0  0  0  0  0  0
    3.1980    1.8379    0.0000 C   0  0  0  0  0  0  0  0  0
  1  2  2  0  0  0  0
  2  3  1  0  0  0  0
  2 20  1  0  0  0  0
  3  4  1  0  0  0  0
  4  5  1  0  0  0  0
  4  9  1  0  0  0  0
  5  6  1  0  0  0  0
  6  7  1  0  0  0  0
  6 10  1  0  0  0  0
  7  8  1  0  0  0  0
  8  9  1  0  0  0  0
 10 11  4  0  0  0  0
 10 15  4  0  0  0  0
 11 12  4  0  0  0  0
 12 13  4  0  0  0  0
 12 16  1  0  0  0  0
 13 14  4  0  0  0  0
 14 15  4  0  0  0  0
 16 17  1  0  0  0  0
 17 18  1  0  0  0  0
 17 19  1  0  0  0  0
 18 19  1  0  0  0  0
 20 21  4  0  0  0  0
 20 24  4  0  0  0  0
 21 22  4  0  0  0  0
 21 28  4  0  0  0  0
 22 23  4  0  0  0  0
 22 25  4  0  0  0  0
 23 24  4  0  0  0  0
 25 26  4  0  0  0  0
 26 27  4  0  0  0  0
 27 28  4  0  0  0  0
M  STY  1   1 DAT
M  SAL   1  1  23
M  SDT   1 MRV_IMPLICIT_H                                        
M  SDD   1     0.0000    0.0000    DR    ALL  0       0  
M  SED   1 IMPL_H1
M  END
>  <Name_Molregno>
519469

>  <5-HT1A>
5.47

$$$$
519470
  Marvin  02231216192D 0   1.00000     0.00000     0

 23 26  0  0  1  0  0  0  0  0999 V2000
   -1.9933    3.2327    0.0000 S   0  0  0  0  0  0  0  0  0
   -2.5454    2.6196    0.0000 C   0  0  0  0  0  0  0  0  0
   -3.2990    2.9552    0.0000 C   0  0  0  0  0  0  0  0  0
   -3.2128    3.7757    0.0000 N   0  0  0  0  0  0  0  0  0
   -2.4058    3.9472    0.0000 C   0  0  0  0  0  0  0  0  0
   -4.0135    2.5427    0.0000 C   0  0  0  0  0  0  0  0  0
   -4.0135    1.7177    0.0000 C   0  0  0  0  0  0  0  0  0
   -4.7280    1.3052    0.0000 N   0  0  0  0  0  0  0  0  0
   -4.7280    0.4802    0.0000 C   0  0  0  0  0  0  0  0  0
   -5.4425    0.0677    0.0000 C   0  0  0  0  0  0  0  0  0
   -6.1569    0.4802    0.0000 C   0  0  0  0  0  0  0  0  0
   -6.1569    1.3052    0.0000 C   0  0  0  0  0  0  0  0  0
   -5.4425    1.7177    0.0000 C   0  0  0  0  0  0  0  0  0
   -5.4425   -0.7573    0.0000 C   0  0  0  0  0  0  0  0  0
   -4.7280   -1.1698    0.0000 N   0  0  0  0  0  0  0  0  0
   -4.7280   -1.9948    0.0000 C   0  0  0  0  0  0  0  0  0
   -5.4425   -2.4073    0.0000 N   0  0  0  0  0  0  0  0  0
   -6.1569   -1.9948    0.0000 C   0  0  0  0  0  0  0  0  0
   -6.1569   -1.1698    0.0000 C   0  0  0  0  0  0  0  0  0
   -4.0135   -2.4073    0.0000 N   0  0  0  0  0  0  0  0  0
   -4.0135   -3.2323    0.0000 C   0  0  0  0  0  0  0  0  0
   -3.6010   -3.9468    0.0000 C   0  0  0  0  0  0  0  0  0
   -4.4260   -3.9468    0.0000 C   0  0  0  0  0  0  0  0  0
  1  2  4  0  0  0  0
  1  5  4  0  0  0  0
  2  3  4  0  0  0  0
  3  4  4  0  0  0  0
  3  6  1  0  0  0  0
  4  5  4  0  0  0  0
  6  7  1  0  0  0  0
  7  8  1  0  0  0  0
  8  9  1  0  0  0  0
  8 13  1  0  0  0  0
  9 10  1  0  0  0  0
 10 11  1  0  0  0  0
 10 14  1  0  0  0  0
 11 12  1  0  0  0  0
 12 13  1  0  0  0  0
 14 15  4  0  0  0  0
 14 19  4  0  0  0  0
 15 16  4  0  0  0  0
 16 17  4  0  0  0  0
 16 20  1  0  0  0  0
 17 18  4  0  0  0  0
 18 19  4  0  0  0  0
 20 21  1  0  0  0  0
 21 22  1  0  0  0  0
 21 23  1  0  0  0  0
 22 23  1  0  0  0  0
M  END
>  <Name_Molregno>
519470

>  <5-HT1A>
6.11

$$$$
519521
  Marvin  02231216192D 0   1.00000     0.00000     0

 23 26  0  0  1  0  0  0  0  0999 V2000
   -2.4058    3.6759    0.0000 N   0  0  0  0  0  0  0  0  0
   -1.9933    2.9614    0.0000 N   0  0  0  0  0  0  0  0  0
   -2.5454    2.3483    0.0000 C   0  0  0  0  0  0  0  0  0
   -3.2990    2.6839    0.0000 C   0  0  0  0  0  0  0  0  0
   -3.2128    3.5044    0.0000 C   0  0  0  0  0  0  0  0  0
   -4.0135    2.2714    0.0000 C   0  0  0  0  0  0  0  0  0
   -4.0135    1.4464    0.0000 C   0  0  0  0  0  0  0  0  0
   -4.7280    1.0339    0.0000 N   0  0  0  0  0  0  0  0  0
   -4.7280    0.2089    0.0000 C   0  0  0  0  0  0  0  0  0
   -5.4425   -0.2036    0.0000 C   0  0  0  0  0  0  0  0  0
   -6.1569    0.2089    0.0000 C   0  0  0  0  0  0  0  0  0
   -6.1569    1.0339    0.0000 C   0  0  0  0  0  0  0  0  0
   -5.4425    1.4464    0.0000 C   0  0  0  0  0  0  0  0  0
   -5.4425   -1.0286    0.0000 C   0  0  0  0  0  0  0  0  0
   -4.7280   -1.4411    0.0000 N   0  0  0  0  0  0  0  0  0
   -4.7280   -2.2661    0.0000 C   0  0  0  0  0  0  0  0  0
   -5.4425   -2.6786    0.0000 N   0  0  0  0  0  0  0  0  0
   -6.1569   -2.2661    0.0000 C   0  0  0  0  0  0  0  0  0
   -6.1569   -1.4411    0.0000 C   0  0  0  0  0  0  0  0  0
   -4.0135   -2.6786    0.0000 N   0  0  0  0  0  0  0  0  0
   -4.0135   -3.5036    0.0000 C   0  0  0  0  0  0  0  0  0
   -3.6010   -4.2181    0.0000 C   0  0  0  0  0  0  0  0  0
   -4.4260   -4.2181    0.0000 C   0  0  0  0  0  0  0  0  0
  1  2  4  0  0  0  0
  1  5  4  0  0  0  0
  2  3  4  0  0  0  0
  3  4  4  0  0  0  0
  4  5  4  0  0  0  0
  4  6  1  0  0  0  0
  6  7  1  0  0  0  0
  7  8  1  0  0  0  0
  8  9  1  0  0  0  0
  8 13  1  0  0  0  0
  9 10  1  0  0  0  0
 10 11  1  0  0  0  0
 10 14  1  0  0  0  0
 11 12  1  0  0  0  0
 12 13  1  0  0  0  0
 14 15  4  0  0  0  0
 14 19  4  0  0  0  0
 15 16  4  0  0  0  0
 16 17  4  0  0  0  0
 16 20  1  0  0  0  0
 17 18  4  0  0  0  0
 18 19  4  0  0  0  0
 20 21  1  0  0  0  0
 21 22  1  0  0  0  0
 21 23  1  0  0  0  0
 22 23  1  0  0  0  0
M  STY  1   1 DAT
M  SAL   1  1   1
M  SDT   1 MRV_IMPLICIT_H                                        
M  SDD   1     0.0000    0.0000    DR    ALL  0       0  
M  SED   1 IMPL_H1
M  END
>  <Name_Molregno>
519521

>  <5-HT1A>
5.35

$$$$
519522
  Marvin  02231216192D 0   1.00000     0.00000     0

 28 31  0  0  1  0  0  0  0  0999 V2000
    0.3727    1.7306    0.0000 O   0  0  0  0  0  0  0  0  0
    0.9247    1.1175    0.0000 C   0  0  0  0  0  0  0  0  0
    1.7317    1.2890    0.0000 C   0  0  0  0  0  0  0  0  0
    2.2837    0.6759    0.0000 C   0  0  0  0  0  0  0  0  0
    3.0907    0.8475    0.0000 N   0  0  0  0  0  0  0  0  0
    3.6427    0.2344    0.0000 C   0  0  0  0  0  0  0  0  0
    4.4497    0.4059    0.0000 N   0  0  0  0  0  0  0  0  0
    5.0017   -0.2072    0.0000 C   0  0  0  0  0  0  0  0  0
    4.7468   -0.9918    0.0000 C   0  0  0  0  0  0  0  0  0
    3.9398   -1.1634    0.0000 C   0  0  0  0  0  0  0  0  0
    3.3878   -0.5503    0.0000 N   0  0  0  0  0  0  0  0  0
    5.8087   -0.0357    0.0000 C   0  0  0  0  0  0  0  0  0
    6.0637    0.7489    0.0000 C   0  0  0  0  0  0  0  0  0
    6.8706    0.9205    0.0000 C   0  0  0  0  0  0  0  0  0
    7.4227    0.3074    0.0000 C   0  0  0  0  0  0  0  0  0
    7.1677   -0.4772    0.0000 N   0  0  0  0  0  0  0  0  0
    6.3607   -0.6488    0.0000 C   0  0  0  0  0  0  0  0  0
    7.7197   -1.0903    0.0000 C   0  0  0  0  0  0  0  0  0
    8.5267   -0.9188    0.0000 C   0  0  0  0  0  0  0  0  0
    8.7817   -0.1342    0.0000 C   0  0  0  0  0  0  0  0  0
    9.5663    0.1207    0.0000 C   0  0  0  0  0  0  0  0  0
    9.5663    0.9457    0.0000 C   0  0  0  0  0  0  0  0  0
    8.7817    1.2007    0.0000 N   0  0  0  0  0  0  0  0  0
    8.2967    0.5332    0.0000 C   0  0  0  0  0  0  0  0  0
   10.2808    1.3582    0.0000 C   0  0  0  0  0  0  0  0  0
   10.9952    0.9457    0.0000 C   0  0  0  0  0  0  0  0  0
   10.9952    0.1207    0.0000 C   0  0  0  0  0  0  0  0  0
   10.2808   -0.2918    0.0000 C   0  0  0  0  0  0  0  0  0
  1  2  1  0  0  0  0
  2  3  1  0  0  0  0
  3  4  1  0  0  0  0
  4  5  1  0  0  0  0
  5  6  1  0  0  0  0
  6  7  4  0  0  0  0
  6 11  4  0  0  0  0
  7  8  4  0  0  0  0
  8  9  4  0  0  0  0
  8 12  1  0  0  0  0
  9 10  4  0  0  0  0
 10 11  4  0  0  0  0
 12 13  1  0  0  0  0
 12 17  1  0  0  0  0
 13 14  1  0  0  0  0
 14 15  1  0  0  0  0
 15 16  1  0  0  0  0
 16 17  1  0  0  0  0
 16 18  1  0  0  0  0
 18 19  1  0  0  0  0
 19 20  1  0  0  0  0
 20 21  4  0  0  0  0
 20 24  4  0  0  0  0
 21 22  4  0  0  0  0
 21 28  4  0  0  0  0
 22 23  4  0  0  0  0
 22 25  4  0  0  0  0
 23 24  4  0  0  0  0
 25 26  4  0  0  0  0
 26 27  4  0  0  0  0
 27 28  4  0  0  0  0
M  STY  1   1 DAT
M  SAL   1  1  23
M  SDT   1 MRV_IMPLICIT_H                                        
M  SDD   1     0.0000    0.0000    DR    ALL  0       0  
M  SED   1 IMPL_H1
M  END
>  <Name_Molregno>
519522

>  <5-HT1A>
6.76

$$$$
519523
  Marvin  02231216192D 0   1.00000     0.00000     0

 29 32  0  0  1  0  0  0  0  0999 V2000
    0.0515    0.8584    0.0000 O   0  0  0  0  0  0  0  0  0
    0.7660    0.4459    0.0000 C   0  0  0  0  0  0  0  0  0
    1.4805    0.8584    0.0000 C   0  0  0  0  0  0  0  0  0
    2.1949    0.4459    0.0000 C   0  0  0  0  0  0  0  0  0
    2.9094    0.8584    0.0000 N   0  0  0  0  0  0  0  0  0
    3.6239    0.4459    0.0000 C   0  0  0  0  0  0  0  0  0
    4.3384    0.8584    0.0000 N   0  0  0  0  0  0  0  0  0
    5.0528    0.4459    0.0000 C   0  0  0  0  0  0  0  0  0
    5.0528   -0.3791    0.0000 C   0  0  0  0  0  0  0  0  0
    4.3384   -0.7916    0.0000 C   0  0  0  0  0  0  0  0  0
    3.6239   -0.3791    0.0000 N   0  0  0  0  0  0  0  0  0
    5.7673    0.8584    0.0000 C   0  0  0  0  0  0  0  0  0
    5.7673    1.6834    0.0000 C   0  0  0  0  0  0  0  0  0
    6.4818    2.0959    0.0000 C   0  0  0  0  0  0  0  0  0
    7.1962    1.6834    0.0000 C   0  0  0  0  0  0  0  0  0
    7.1962    0.8584    0.0000 N   0  0  0  0  0  0  0  0  0
    6.4818    0.4459    0.0000 C   0  0  0  0  0  0  0  0  0
    7.9107    0.4459    0.0000 C   0  0  0  0  0  0  0  0  0
    8.6252    0.8584    0.0000 C   0  0  0  0  0  0  0  0  0
    9.3396    0.4459    0.0000 C   0  0  0  0  0  0  0  0  0
    9.4259   -0.3746    0.0000 C   0  0  0  0  0  0  0  0  0
   10.2329   -0.5461    0.0000 C   0  0  0  0  0  0  0  0  0
   10.6454    0.1684    0.0000 N   0  0  0  0  0  0  0  0  0
   10.0933    0.7815    0.0000 C   0  0  0  0  0  0  0  0  0
   10.4878   -1.3307    0.0000 C   0  0  0  0  0  0  0  0  0
    9.9358   -1.9438    0.0000 C   0  0  0  0  0  0  0  0  0
    9.1288   -1.7723    0.0000 C   0  0  0  0  0  0  0  0  0
    8.8739   -0.9877    0.0000 C   0  0  0  0  0  0  0  0  0
   -0.6629    0.4459    0.0000 C   0  0  0  0  0  0  0  0  0
  1  2  1  0  0  0  0
  1 29  1  0  0  0  0
  2  3  1  0  0  0  0
  3  4  1  0  0  0  0
  4  5  1  0  0  0  0
  5  6  1  0  0  0  0
  6  7  4  0  0  0  0
  6 11  4  0  0  0  0
  7  8  4  0  0  0  0
  8  9  4  0  0  0  0
  8 12  1  0  0  0  0
  9 10  4  0  0  0  0
 10 11  4  0  0  0  0
 12 13  1  0  0  0  0
 12 17  1  0  0  0  0
 13 14  1  0  0  0  0
 14 15  1  0  0  0  0
 15 16  1  0  0  0  0
 16 17  1  0  0  0  0
 16 18  1  0  0  0  0
 18 19  1  0  0  0  0
 19 20  1  0  0  0  0
 20 21  4  0  0  0  0
 20 24  4  0  0  0  0
 21 22  4  0  0  0  0
 21 28  4  0  0  0  0
 22 23  4  0  0  0  0
 22 25  4  0  0  0  0
 23 24  4  0  0  0  0
 25 26  4  0  0  0  0
 26 27  4  0  0  0  0
 27 28  4  0  0  0  0
M  STY  1   1 DAT
M  SAL   1  1  23
M  SDT   1 MRV_IMPLICIT_H                                        
M  SDD   1     0.0000    0.0000    DR    ALL  0       0  
M  SED   1 IMPL_H1
M  END
>  <Name_Molregno>
519523

>  <5-HT1A>
7.11

$$$$
519524
  Marvin  02231216192D 0   1.00000     0.00000     0

 28 31  0  0  1  0  0  0  0  0999 V2000
    4.1678   -4.8426    0.0000 O   0  0  0  0  0  0  0  0  0
    4.9748   -4.6710    0.0000 C   0  0  0  0  0  0  0  0  0
    5.2297   -3.8864    0.0000 C   0  0  0  0  0  0  0  0  0
    6.0367   -3.7149    0.0000 N   0  0  0  0  0  0  0  0  0
    6.2917   -2.9303    0.0000 C   0  0  0  0  0  0  0  0  0
    5.7396   -2.3172    0.0000 N   0  0  0  0  0  0  0  0  0
    5.9946   -1.5325    0.0000 C   0  0  0  0  0  0  0  0  0
    6.8015   -1.3610    0.0000 C   0  0  0  0  0  0  0  0  0
    7.3536   -1.9741    0.0000 C   0  0  0  0  0  0  0  0  0
    7.0986   -2.7587    0.0000 N   0  0  0  0  0  0  0  0  0
    5.4425   -0.9195    0.0000 C   0  0  0  0  0  0  0  0  0
    4.6356   -1.0910    0.0000 C   0  0  0  0  0  0  0  0  0
    4.0835   -0.4779    0.0000 C   0  0  0  0  0  0  0  0  0
    4.3385    0.3067    0.0000 C   0  0  0  0  0  0  0  0  0
    5.1454    0.4783    0.0000 N   0  0  0  0  0  0  0  0  0
    5.6975   -0.1348    0.0000 C   0  0  0  0  0  0  0  0  0
    5.4004    1.2629    0.0000 C   0  0  0  0  0  0  0  0  0
    4.8483    1.8760    0.0000 C   0  0  0  0  0  0  0  0  0
    5.1033    2.6606    0.0000 C   0  0  0  0  0  0  0  0  0
    5.8879    2.9155    0.0000 C   0  0  0  0  0  0  0  0  0
    5.8879    3.7405    0.0000 C   0  0  0  0  0  0  0  0  0
    5.1033    3.9955    0.0000 N   0  0  0  0  0  0  0  0  0
    4.6184    3.3280    0.0000 C   0  0  0  0  0  0  0  0  0
    6.6024    4.1530    0.0000 C   0  0  0  0  0  0  0  0  0
    7.3168    3.7405    0.0000 C   0  0  0  0  0  0  0  0  0
    7.3168    2.9155    0.0000 C   0  0  0  0  0  0  0  0  0
    6.6024    2.5030    0.0000 C   0  0  0  0  0  0  0  0  0
    3.9129   -5.6272    0.0000 C   0  0  0  0  0  0  0  0  0
  1  2  1  0  0  0  0
  1 28  1  0  0  0  0
  2  3  1  0  0  0  0
  3  4  1  0  0  0  0
  4  5  1  0  0  0  0
  5  6  4  0  0  0  0
  5 10  4  0  0  0  0
  6  7  4  0  0  0  0
  7  8  4  0  0  0  0
  7 11  1  0  0  0  0
  8  9  4  0  0  0  0
  9 10  4  0  0  0  0
 11 12  1  0  0  0  0
 11 16  1  0  0  0  0
 12 13  1  0  0  0  0
 13 14  1  0  0  0  0
 14 15  1  0  0  0  0
 15 16  1  0  0  0  0
 15 17  1  0  0  0  0
 17 18  1  0  0  0  0
 18 19  1  0  0  0  0
 19 20  4  0  0  0  0
 19 23  4  0  0  0  0
 20 21  4  0  0  0  0
 20 27  4  0  0  0  0
 21 22  4  0  0  0  0
 21 24  4  0  0  0  0
 22 23  4  0  0  0  0
 24 25  4  0  0  0  0
 25 26  4  0  0  0  0
 26 27  4  0  0  0  0
M  STY  1   1 DAT
M  SAL   1  1  22
M  SDT   1 MRV_IMPLICIT_H                                        
M  SDD   1     0.0000    0.0000    DR    ALL  0       0  
M  SED   1 IMPL_H1
M  END
>  <Name_Molregno>
519524

>  <5-HT1A>
7.18

$$$$
521630
  Marvin  02231216192D 0   1.00000     0.00000     0

 30 34  0  0  0  0  0  0  0  0999 V2000
   -3.8517   -2.7637    0.0000 O   0  0  0  0  0  0  0  0  0
   -4.5661   -3.1762    0.0000 C   0  0  0  0  0  0  0  0  0
   -4.5661   -4.0012    0.0000 C   0  0  0  0  0  0  0  0  0
   -5.2806   -4.4137    0.0000 O   0  0  0  0  0  0  0  0  0
   -3.8517   -4.4137    0.0000 N   0  0  0  0  0  0  0  0  0
   -3.1372   -4.0012    0.0000 C   0  0  0  0  0  0  0  0  0
   -3.1372   -3.1763    0.0000 C   0  0  0  0  0  0  0  0  0
   -2.4227   -2.7638    0.0000 C   0  0  0  0  0  0  0  0  0
   -1.7082   -3.1763    0.0000 C   0  0  0  0  0  0  0  0  0
   -1.7082   -4.0013    0.0000 C   0  0  0  0  0  0  0  0  0
   -2.4227   -4.4138    0.0000 C   0  0  0  0  0  0  0  0  0
   -2.4227   -1.9387    0.0000 C   0  0  0  0  0  0  0  0  0
   -3.1372   -1.5262    0.0000 C   0  0  0  0  0  0  0  0  0
   -3.1372   -0.7012    0.0000 N   0  0  0  0  0  0  0  0  0
   -3.8517   -0.2887    0.0000 C   0  0  0  0  0  0  0  0  0
   -3.8517    0.5363    0.0000 C   0  0  0  0  0  0  0  0  0
   -3.1372    0.9488    0.0000 N   0  0  0  0  0  0  0  0  0
   -2.4227    0.5363    0.0000 C   0  0  0  0  0  0  0  0  0
   -2.4227   -0.2887    0.0000 C   0  0  0  0  0  0  0  0  0
   -3.1372    1.7738    0.0000 C   0  0  0  0  0  0  0  0  0
   -2.4227    2.1863    0.0000 C   0  0  0  0  0  0  0  0  0
   -2.4227    3.0113    0.0000 C   0  0  0  0  0  0  0  0  0
   -1.7082    3.4238    0.0000 N   0  0  0  0  0  0  0  0  0
   -0.9938    3.0113    0.0000 C   0  0  0  0  0  0  0  0  0
   -0.9938    2.1863    0.0000 C   0  0  0  0  0  0  0  0  0
   -1.7082    1.7738    0.0000 C   0  0  0  0  0  0  0  0  0
   -0.2793    3.4238    0.0000 C   0  0  0  0  0  0  0  0  0
   -3.1372    3.4238    0.0000 C   0  0  0  0  0  0  0  0  0
   -3.8517    3.0113    0.0000 C   0  0  0  0  0  0  0  0  0
   -3.8517    2.1863    0.0000 C   0  0  0  0  0  0  0  0  0
  1  2  1  0  0  0  0
  1  7  1  0  0  0  0
  2  3  1  0  0  0  0
  3  4  2  0  0  0  0
  3  5  1  0  0  0  0
  5  6  1  0  0  0  0
  6  7  4  0  0  0  0
  6 11  4  0  0  0  0
  7  8  4  0  0  0  0
  8  9  4  0  0  0  0
  8 12  1  0  0  0  0
  9 10  4  0  0  0  0
 10 11  4  0  0  0  0
 12 13  1  0  0  0  0
 13 14  1  0  0  0  0
 14 15  1  0  0  0  0
 14 19  1  0  0  0  0
 15 16  1  0  0  0  0
 16 17  1  0  0  0  0
 17 18  1  0  0  0  0
 17 20  1  0  0  0  0
 18 19  1  0  0  0  0
 20 21  4  0  0  0  0
 20 30  4  0  0  0  0
 21 22  4  0  0  0  0
 21 26  4  0  0  0  0
 22 23  4  0  0  0  0
 22 28  4  0  0  0  0
 23 24  4  0  0  0  0
 24 25  4  0  0  0  0
 24 27  1  0  0  0  0
 25 26  4  0  0  0  0
 28 29  4  0  0  0  0
 29 30  4  0  0  0  0
M  END
>  <Name_Molregno>
521630

>  <5-HT1A>
9.6

>  <5-HT1B>
9

>  <5-HT1D>
10.3

>  <Serotonin transporter>
6.5

$$$$
521709
  Marvin  02231216192D 0   1.00000     0.00000     0

 31 35  0  0  0  0  0  0  0  0999 V2000
   -3.6580   -2.6444    0.0000 O   0  0  0  0  0  0  0  0  0
   -4.3724   -3.0569    0.0000 C   0  0  0  0  0  0  0  0  0
   -4.3724   -3.8819    0.0000 C   0  0  0  0  0  0  0  0  0
   -5.0869   -4.2944    0.0000 O   0  0  0  0  0  0  0  0  0
   -3.6580   -4.2944    0.0000 N   0  0  0  0  0  0  0  0  0
   -2.9435   -3.8819    0.0000 C   0  0  0  0  0  0  0  0  0
   -2.9435   -3.0569    0.0000 C   0  0  0  0  0  0  0  0  0
   -2.2290   -2.6444    0.0000 C   0  0  0  0  0  0  0  0  0
   -1.5145   -3.0569    0.0000 C   0  0  0  0  0  0  0  0  0
   -1.5145   -3.8819    0.0000 C   0  0  0  0  0  0  0  0  0
   -2.2290   -4.2944    0.0000 C   0  0  0  0  0  0  0  0  0
   -2.2290   -1.8194    0.0000 C   0  0  0  0  0  0  0  0  0
   -2.9435   -1.4069    0.0000 C   0  0  0  0  0  0  0  0  0
   -2.9435   -0.5819    0.0000 N   0  0  0  0  0  0  0  0  0
   -3.6580   -0.1694    0.0000 C   0  0  0  0  0  0  0  0  0
   -3.6580    0.6556    0.0000 C   0  0  0  0  0  0  0  0  0
   -2.9435    1.0681    0.0000 N   0  0  0  0  0  0  0  0  0
   -2.2290    0.6556    0.0000 C   0  0  0  0  0  0  0  0  0
   -2.2290   -0.1694    0.0000 C   0  0  0  0  0  0  0  0  0
   -2.9435    1.8931    0.0000 C   0  0  0  0  0  0  0  0  0
   -2.2290    2.3056    0.0000 C   0  0  0  0  0  0  0  0  0
   -2.2290    3.1306    0.0000 C   0  0  0  0  0  0  0  0  0
   -1.5145    3.5431    0.0000 N   0  0  0  0  0  0  0  0  0
   -0.8001    3.1306    0.0000 C   0  0  0  0  0  0  0  0  0
   -0.8001    2.3056    0.0000 C   0  0  0  0  0  0  0  0  0
   -1.5145    1.8931    0.0000 C   0  0  0  0  0  0  0  0  0
   -0.0856    3.5431    0.0000 C   0  0  0  0  0  0  0  0  0
   -2.9435    3.5431    0.0000 C   0  0  0  0  0  0  0  0  0
   -3.6580    3.1306    0.0000 C   0  0  0  0  0  0  0  0  0
   -3.6580    2.3056    0.0000 C   0  0  0  0  0  0  0  0  0
   -3.6580   -5.1194    0.0000 C   0  0  0  0  0  0  0  0  0
  1  2  1  0  0  0  0
  1  7  1  0  0  0  0
  2  3  1  0  0  0  0
  3  4  2  0  0  0  0
  3  5  1  0  0  0  0
  5  6  1  0  0  0  0
  5 31  1  0  0  0  0
  6  7  4  0  0  0  0
  6 11  4  0  0  0  0
  7  8  4  0  0  0  0
  8  9  4  0  0  0  0
  8 12  1  0  0  0  0
  9 10  4  0  0  0  0
 10 11  4  0  0  0  0
 12 13  1  0  0  0  0
 13 14  1  0  0  0  0
 14 15  1  0  0  0  0
 14 19  1  0  0  0  0
 15 16  1  0  0  0  0
 16 17  1  0  0  0  0
 17 18  1  0  0  0  0
 17 20  1  0  0  0  0
 18 19  1  0  0  0  0
 20 21  4  0  0  0  0
 20 30  4  0  0  0  0
 21 22  4  0  0  0  0
 21 26  4  0  0  0  0
 22 23  4  0  0  0  0
 22 28  4  0  0  0  0
 23 24  4  0  0  0  0
 24 25  4  0  0  0  0
 24 27  1  0  0  0  0
 25 26  4  0  0  0  0
 28 29  4  0  0  0  0
 29 30  4  0  0  0  0
M  END
>  <Name_Molregno>
521709

>  <5-HT1A>
9.8

>  <5-HT1B>
8.4

>  <5-HT1D>
9.5

>  <Serotonin transporter>
8

$$$$
521710
  Marvin  02231216192D 0   1.00000     0.00000     0

 30 34  0  0  0  0  0  0  0  0999 V2000
    2.9154   -3.6432    0.0000 O   0  0  0  0  0  0  0  0  0
    2.9154   -4.4683    0.0000 C   0  0  0  0  0  0  0  0  0
    3.6299   -4.8807    0.0000 C   0  0  0  0  0  0  0  0  0
    3.6299   -5.7058    0.0000 O   0  0  0  0  0  0  0  0  0
    4.3444   -4.4683    0.0000 N   0  0  0  0  0  0  0  0  0
    4.3444   -3.6433    0.0000 C   0  0  0  0  0  0  0  0  0
    3.6299   -3.2308    0.0000 C   0  0  0  0  0  0  0  0  0
    3.6299   -2.4057    0.0000 C   0  0  0  0  0  0  0  0  0
    4.3444   -1.9933    0.0000 C   0  0  0  0  0  0  0  0  0
    5.0588   -2.4058    0.0000 C   0  0  0  0  0  0  0  0  0
    5.0588   -3.2308    0.0000 C   0  0  0  0  0  0  0  0  0
    4.3444   -1.1682    0.0000 C   0  0  0  0  0  0  0  0  0
    3.6299   -0.7557    0.0000 C   0  0  0  0  0  0  0  0  0
    3.6299    0.0693    0.0000 N   0  0  0  0  0  0  0  0  0
    2.9154    0.4818    0.0000 C   0  0  0  0  0  0  0  0  0
    2.9154    1.3068    0.0000 C   0  0  0  0  0  0  0  0  0
    3.6299    1.7193    0.0000 N   0  0  0  0  0  0  0  0  0
    4.3444    1.3068    0.0000 C   0  0  0  0  0  0  0  0  0
    4.3444    0.4818    0.0000 C   0  0  0  0  0  0  0  0  0
    3.6299    2.5443    0.0000 C   0  0  0  0  0  0  0  0  0
    4.3444    2.9568    0.0000 C   0  0  0  0  0  0  0  0  0
    4.3444    3.7818    0.0000 C   0  0  0  0  0  0  0  0  0
    5.0588    4.1943    0.0000 N   0  0  0  0  0  0  0  0  0
    5.7733    3.7818    0.0000 C   0  0  0  0  0  0  0  0  0
    5.7733    2.9568    0.0000 C   0  0  0  0  0  0  0  0  0
    5.0588    2.5443    0.0000 C   0  0  0  0  0  0  0  0  0
    6.4878    4.1943    0.0000 C   0  0  0  0  0  0  0  0  0
    3.6299    4.1943    0.0000 C   0  0  0  0  0  0  0  0  0
    2.9154    3.7818    0.0000 C   0  0  0  0  0  0  0  0  0
    2.9154    2.9568    0.0000 C   0  0  0  0  0  0  0  0  0
  1  2  1  0  0  0  0
  1  7  1  0  0  0  0
  2  3  1  0  0  0  0
  3  4  2  0  0  0  0
  3  5  1  0  0  0  0
  5  6  1  0  0  0  0
  6  7  4  0  0  0  0
  6 11  4  0  0  0  0
  7  8  4  0  0  0  0
  8  9  4  0  0  0  0
  9 10  4  0  0  0  0
  9 12  1  0  0  0  0
 10 11  4  0  0  0  0
 12 13  1  0  0  0  0
 13 14  1  0  0  0  0
 14 15  1  0  0  0  0
 14 19  1  0  0  0  0
 15 16  1  0  0  0  0
 16 17  1  0  0  0  0
 17 18  1  0  0  0  0
 17 20  1  0  0  0  0
 18 19  1  0  0  0  0
 20 21  4  0  0  0  0
 20 30  4  0  0  0  0
 21 22  4  0  0  0  0
 21 26  4  0  0  0  0
 22 23  4  0  0  0  0
 22 28  4  0  0  0  0
 23 24  4  0  0  0  0
 24 25  4  0  0  0  0
 24 27  1  0  0  0  0
 25 26  4  0  0  0  0
 28 29  4  0  0  0  0
 29 30  4  0  0  0  0
M  END
>  <Name_Molregno>
521710

>  <5-HT1A>
9.6

>  <5-HT1B>
7.5

>  <5-HT1D>
9.1

>  <Serotonin transporter>
7

$$$$
521711
  Marvin  02231216192D 0   1.00000     0.00000     0

 31 35  0  0  0  0  0  0  0  0999 V2000
    2.7519   -3.5073    0.0000 O   0  0  0  0  0  0  0  0  0
    2.7519   -4.3323    0.0000 C   0  0  0  0  0  0  0  0  0
    3.4664   -4.7448    0.0000 C   0  0  0  0  0  0  0  0  0
    3.4664   -5.5698    0.0000 O   0  0  0  0  0  0  0  0  0
    4.1809   -4.3323    0.0000 N   0  0  0  0  0  0  0  0  0
    4.1809   -3.5073    0.0000 C   0  0  0  0  0  0  0  0  0
    3.4664   -3.0948    0.0000 C   0  0  0  0  0  0  0  0  0
    3.4664   -2.2698    0.0000 C   0  0  0  0  0  0  0  0  0
    4.1809   -1.8573    0.0000 C   0  0  0  0  0  0  0  0  0
    4.8953   -2.2698    0.0000 C   0  0  0  0  0  0  0  0  0
    4.8953   -3.0948    0.0000 C   0  0  0  0  0  0  0  0  0
    4.1809   -1.0323    0.0000 C   0  0  0  0  0  0  0  0  0
    3.4664   -0.6198    0.0000 C   0  0  0  0  0  0  0  0  0
    3.4664    0.2052    0.0000 N   0  0  0  0  0  0  0  0  0
    2.7519    0.6177    0.0000 C   0  0  0  0  0  0  0  0  0
    2.7519    1.4427    0.0000 C   0  0  0  0  0  0  0  0  0
    3.4664    1.8552    0.0000 N   0  0  0  0  0  0  0  0  0
    4.1809    1.4427    0.0000 C   0  0  0  0  0  0  0  0  0
    4.1809    0.6177    0.0000 C   0  0  0  0  0  0  0  0  0
    3.4664    2.6802    0.0000 C   0  0  0  0  0  0  0  0  0
    4.1809    3.0927    0.0000 C   0  0  0  0  0  0  0  0  0
    4.1809    3.9177    0.0000 C   0  0  0  0  0  0  0  0  0
    4.8953    4.3302    0.0000 N   0  0  0  0  0  0  0  0  0
    5.6098    3.9177    0.0000 C   0  0  0  0  0  0  0  0  0
    5.6098    3.0927    0.0000 C   0  0  0  0  0  0  0  0  0
    4.8953    2.6802    0.0000 C   0  0  0  0  0  0  0  0  0
    6.3243    4.3302    0.0000 C   0  0  0  0  0  0  0  0  0
    3.4664    4.3302    0.0000 C   0  0  0  0  0  0  0  0  0
    2.7519    3.9177    0.0000 C   0  0  0  0  0  0  0  0  0
    2.7519    3.0927    0.0000 C   0  0  0  0  0  0  0  0  0
    4.8953   -4.7448    0.0000 C   0  0  0  0  0  0  0  0  0
  1  2  1  0  0  0  0
  1  7  1  0  0  0  0
  2  3  1  0  0  0  0
  3  4  2  0  0  0  0
  3  5  1  0  0  0  0
  5  6  1  0  0  0  0
  5 31  1  0  0  0  0
  6  7  4  0  0  0  0
  6 11  4  0  0  0  0
  7  8  4  0  0  0  0
  8  9  4  0  0  0  0
  9 10  4  0  0  0  0
  9 12  1  0  0  0  0
 10 11  4  0  0  0  0
 12 13  1  0  0  0  0
 13 14  1  0  0  0  0
 14 15  1  0  0  0  0
 14 19  1  0  0  0  0
 15 16  1  0  0  0  0
 16 17  1  0  0  0  0
 17 18  1  0  0  0  0
 17 20  1  0  0  0  0
 18 19  1  0  0  0  0
 20 21  4  0  0  0  0
 20 30  4  0  0  0  0
 21 22  4  0  0  0  0
 21 26  4  0  0  0  0
 22 23  4  0  0  0  0
 22 28  4  0  0  0  0
 23 24  4  0  0  0  0
 24 25  4  0  0  0  0
 24 27  1  0  0  0  0
 25 26  4  0  0  0  0
 28 29  4  0  0  0  0
 29 30  4  0  0  0  0
M  END
>  <Name_Molregno>
521711

>  <5-HT1A>
5.5

>  <5-HT1D>
8.3

>  <Serotonin transporter>
6.8

$$$$
521712
  Marvin  02231216192D 0   1.00000     0.00000     0

 32 36  0  0  0  0  0  0  0  0999 V2000
   -3.4812   -1.5132    0.0000 O   0  0  0  0  0  0  0  0  0
   -4.1957   -1.9257    0.0000 C   0  0  0  0  0  0  0  0  0
   -4.1957   -2.7507    0.0000 C   0  0  0  0  0  0  0  0  0
   -4.9102   -3.1632    0.0000 O   0  0  0  0  0  0  0  0  0
   -3.4812   -3.1632    0.0000 N   0  0  0  0  0  0  0  0  0
   -2.7667   -2.7507    0.0000 C   0  0  0  0  0  0  0  0  0
   -2.7667   -1.9257    0.0000 C   0  0  0  0  0  0  0  0  0
   -2.0523   -1.5132    0.0000 C   0  0  0  0  0  0  0  0  0
   -1.3378   -1.9257    0.0000 C   0  0  0  0  0  0  0  0  0
   -1.3378   -2.7507    0.0000 C   0  0  0  0  0  0  0  0  0
   -2.0523   -3.1632    0.0000 C   0  0  0  0  0  0  0  0  0
   -2.0523   -0.6882    0.0000 C   0  0  0  0  0  0  0  0  0
   -2.7667   -0.2757    0.0000 C   0  0  0  0  0  0  0  0  0
   -2.7667    0.5493    0.0000 N   0  0  0  0  0  0  0  0  0
   -3.4812    0.9618    0.0000 C   0  0  0  0  0  0  0  0  0
   -3.4812    1.7868    0.0000 C   0  0  0  0  0  0  0  0  0
   -2.7667    2.1993    0.0000 N   0  0  0  0  0  0  0  0  0
   -2.0523    1.7868    0.0000 C   0  0  0  0  0  0  0  0  0
   -2.0523    0.9618    0.0000 C   0  0  0  0  0  0  0  0  0
   -2.7667    3.0243    0.0000 C   0  0  0  0  0  0  0  0  0
   -2.0523    3.4368    0.0000 C   0  0  0  0  0  0  0  0  0
   -2.0523    4.2618    0.0000 C   0  0  0  0  0  0  0  0  0
   -1.3378    4.6743    0.0000 N   0  0  0  0  0  0  0  0  0
   -0.6233    4.2618    0.0000 C   0  0  0  0  0  0  0  0  0
   -0.6233    3.4368    0.0000 C   0  0  0  0  0  0  0  0  0
   -1.3378    3.0243    0.0000 C   0  0  0  0  0  0  0  0  0
    0.0911    4.6743    0.0000 C   0  0  0  0  0  0  0  0  0
   -2.7667    4.6743    0.0000 C   0  0  0  0  0  0  0  0  0
   -3.4812    4.2618    0.0000 C   0  0  0  0  0  0  0  0  0
   -3.4812    3.4368    0.0000 C   0  0  0  0  0  0  0  0  0
   -3.4812   -3.9882    0.0000 C   0  0  0  0  0  0  0  0  0
   -2.7667   -4.4007    0.0000 C   0  0  0  0  0  0  0  0  0
  1  2  1  0  0  0  0
  1  7  1  0  0  0  0
  2  3  1  0  0  0  0
  3  4  2  0  0  0  0
  3  5  1  0  0  0  0
  5  6  1  0  0  0  0
  5 31  1  0  0  0  0
  6  7  4  0  0  0  0
  6 11  4  0  0  0  0
  7  8  4  0  0  0  0
  8  9  4  0  0  0  0
  8 12  1  0  0  0  0
  9 10  4  0  0  0  0
 10 11  4  0  0  0  0
 12 13  1  0  0  0  0
 13 14  1  0  0  0  0
 14 15  1  0  0  0  0
 14 19  1  0  0  0  0
 15 16  1  0  0  0  0
 16 17  1  0  0  0  0
 17 18  1  0  0  0  0
 17 20  1  0  0  0  0
 18 19  1  0  0  0  0
 20 21  4  0  0  0  0
 20 30  4  0  0  0  0
 21 22  4  0  0  0  0
 21 26  4  0  0  0  0
 22 23  4  0  0  0  0
 22 28  4  0  0  0  0
 23 24  4  0  0  0  0
 24 25  4  0  0  0  0
 24 27  1  0  0  0  0
 25 26  4  0  0  0  0
 28 29  4  0  0  0  0
 29 30  4  0  0  0  0
 31 32  1  0  0  0  0
M  END
>  <Name_Molregno>
521712

>  <5-HT1A>
9.9

>  <5-HT1B>
8.4

>  <5-HT1D>
9.7

>  <Serotonin transporter>
7.7

$$$$
521779
  Marvin  02231216192D 0   1.00000     0.00000     0

 33 37  0  0  0  0  0  0  0  0999 V2000
   -3.2919   -2.3753    0.0000 O   0  0  0  0  0  0  0  0  0
   -4.0064   -2.7878    0.0000 C   0  0  0  0  0  0  0  0  0
   -4.0064   -3.6128    0.0000 C   0  0  0  0  0  0  0  0  0
   -4.7208   -4.0253    0.0000 O   0  0  0  0  0  0  0  0  0
   -3.2919   -4.0253    0.0000 N   0  0  0  0  0  0  0  0  0
   -2.5774   -3.6128    0.0000 C   0  0  0  0  0  0  0  0  0
   -2.5774   -2.7878    0.0000 C   0  0  0  0  0  0  0  0  0
   -1.8629   -2.3753    0.0000 C   0  0  0  0  0  0  0  0  0
   -1.1485   -2.7878    0.0000 C   0  0  0  0  0  0  0  0  0
   -1.1485   -3.6128    0.0000 C   0  0  0  0  0  0  0  0  0
   -1.8629   -4.0253    0.0000 C   0  0  0  0  0  0  0  0  0
   -1.8629   -1.5503    0.0000 C   0  0  0  0  0  0  0  0  0
   -2.5774   -1.1378    0.0000 C   0  0  0  0  0  0  0  0  0
   -2.5774   -0.3128    0.0000 N   0  0  0  0  0  0  0  0  0
   -3.2919    0.0997    0.0000 C   0  0  0  0  0  0  0  0  0
   -3.2919    0.9247    0.0000 C   0  0  0  0  0  0  0  0  0
   -2.5774    1.3372    0.0000 N   0  0  0  0  0  0  0  0  0
   -1.8629    0.9247    0.0000 C   0  0  0  0  0  0  0  0  0
   -1.8629    0.0997    0.0000 C   0  0  0  0  0  0  0  0  0
   -2.5774    2.1622    0.0000 C   0  0  0  0  0  0  0  0  0
   -1.8629    2.5747    0.0000 C   0  0  0  0  0  0  0  0  0
   -1.8629    3.3997    0.0000 C   0  0  0  0  0  0  0  0  0
   -1.1485    3.8122    0.0000 N   0  0  0  0  0  0  0  0  0
   -0.4340    3.3997    0.0000 C   0  0  0  0  0  0  0  0  0
   -0.4340    2.5747    0.0000 C   0  0  0  0  0  0  0  0  0
   -1.1485    2.1622    0.0000 C   0  0  0  0  0  0  0  0  0
    0.2805    3.8122    0.0000 C   0  0  0  0  0  0  0  0  0
   -2.5774    3.8122    0.0000 C   0  0  0  0  0  0  0  0  0
   -3.2919    3.3997    0.0000 C   0  0  0  0  0  0  0  0  0
   -3.2919    2.5747    0.0000 C   0  0  0  0  0  0  0  0  0
   -3.2919   -4.8503    0.0000 C   0  0  0  0  0  0  0  0  0
   -2.5774   -5.2628    0.0000 C   0  0  0  0  0  0  0  0  0
   -4.0064   -5.2628    0.0000 C   0  0  0  0  0  0  0  0  0
  1  2  1  0  0  0  0
  1  7  1  0  0  0  0
  2  3  1  0  0  0  0
  3  4  2  0  0  0  0
  3  5  1  0  0  0  0
  5  6  1  0  0  0  0
  5 31  1  0  0  0  0
  6  7  4  0  0  0  0
  6 11  4  0  0  0  0
  7  8  4  0  0  0  0
  8  9  4  0  0  0  0
  8 12  1  0  0  0  0
  9 10  4  0  0  0  0
 10 11  4  0  0  0  0
 12 13  1  0  0  0  0
 13 14  1  0  0  0  0
 14 15  1  0  0  0  0
 14 19  1  0  0  0  0
 15 16  1  0  0  0  0
 16 17  1  0  0  0  0
 17 18  1  0  0  0  0
 17 20  1  0  0  0  0
 18 19  1  0  0  0  0
 20 21  4  0  0  0  0
 20 30  4  0  0  0  0
 21 22  4  0  0  0  0
 21 26  4  0  0  0  0
 22 23  4  0  0  0  0
 22 28  4  0  0  0  0
 23 24  4  0  0  0  0
 24 25  4  0  0  0  0
 24 27  1  0  0  0  0
 25 26  4  0  0  0  0
 28 29  4  0  0  0  0
 29 30  4  0  0  0  0
 31 32  1  0  0  0  0
 31 33  1  0  0  0  0
M  END
>  <Name_Molregno>
521779

>  <5-HT1A>
9.2

>  <5-HT1B>
8.3

>  <5-HT1D>
9.6

>  <Serotonin transporter>
6.8

$$$$
521780
  Marvin  02231216192D 0   1.00000     0.00000     0

 33 38  0  0  0  0  0  0  0  0999 V2000
   -3.2738   -2.3775    0.0000 O   0  0  0  0  0  0  0  0  0
   -3.9883   -2.7900    0.0000 C   0  0  0  0  0  0  0  0  0
   -3.9883   -3.6150    0.0000 C   0  0  0  0  0  0  0  0  0
   -4.7027   -4.0275    0.0000 O   0  0  0  0  0  0  0  0  0
   -3.2738   -4.0275    0.0000 N   0  0  0  0  0  0  0  0  0
   -2.5593   -3.6150    0.0000 C   0  0  0  0  0  0  0  0  0
   -2.5593   -2.7900    0.0000 C   0  0  0  0  0  0  0  0  0
   -1.8448   -2.3775    0.0000 C   0  0  0  0  0  0  0  0  0
   -1.1304   -2.7900    0.0000 C   0  0  0  0  0  0  0  0  0
   -1.1304   -3.6150    0.0000 C   0  0  0  0  0  0  0  0  0
   -1.8448   -4.0275    0.0000 C   0  0  0  0  0  0  0  0  0
   -1.8448   -1.5525    0.0000 C   0  0  0  0  0  0  0  0  0
   -2.5593   -1.1400    0.0000 C   0  0  0  0  0  0  0  0  0
   -2.5593   -0.3150    0.0000 N   0  0  0  0  0  0  0  0  0
   -3.2738    0.0975    0.0000 C   0  0  0  0  0  0  0  0  0
   -3.2738    0.9225    0.0000 C   0  0  0  0  0  0  0  0  0
   -2.5593    1.3350    0.0000 N   0  0  0  0  0  0  0  0  0
   -1.8448    0.9225    0.0000 C   0  0  0  0  0  0  0  0  0
   -1.8448    0.0975    0.0000 C   0  0  0  0  0  0  0  0  0
   -2.5593    2.1600    0.0000 C   0  0  0  0  0  0  0  0  0
   -1.8448    2.5725    0.0000 C   0  0  0  0  0  0  0  0  0
   -1.8448    3.3975    0.0000 C   0  0  0  0  0  0  0  0  0
   -1.1304    3.8100    0.0000 N   0  0  0  0  0  0  0  0  0
   -0.4159    3.3975    0.0000 C   0  0  0  0  0  0  0  0  0
   -0.4159    2.5725    0.0000 C   0  0  0  0  0  0  0  0  0
   -1.1304    2.1600    0.0000 C   0  0  0  0  0  0  0  0  0
    0.2986    3.8100    0.0000 C   0  0  0  0  0  0  0  0  0
   -2.5593    3.8100    0.0000 C   0  0  0  0  0  0  0  0  0
   -3.2738    3.3975    0.0000 C   0  0  0  0  0  0  0  0  0
   -3.2738    2.5725    0.0000 C   0  0  0  0  0  0  0  0  0
   -3.2738   -4.8525    0.0000 C   0  0  0  0  0  0  0  0  0
   -2.8613   -5.5670    0.0000 C   0  0  0  0  0  0  0  0  0
   -3.6863   -5.5670    0.0000 C   0  0  0  0  0  0  0  0  0
  1  2  1  0  0  0  0
  1  7  1  0  0  0  0
  2  3  1  0  0  0  0
  3  4  2  0  0  0  0
  3  5  1  0  0  0  0
  5  6  1  0  0  0  0
  5 31  1  0  0  0  0
  6  7  4  0  0  0  0
  6 11  4  0  0  0  0
  7  8  4  0  0  0  0
  8  9  4  0  0  0  0
  8 12  1  0  0  0  0
  9 10  4  0  0  0  0
 10 11  4  0  0  0  0
 12 13  1  0  0  0  0
 13 14  1  0  0  0  0
 14 15  1  0  0  0  0
 14 19  1  0  0  0  0
 15 16  1  0  0  0  0
 16 17  1  0  0  0  0
 17 18  1  0  0  0  0
 17 20  1  0  0  0  0
 18 19  1  0  0  0  0
 20 21  4  0  0  0  0
 20 30  4  0  0  0  0
 21 22  4  0  0  0  0
 21 26  4  0  0  0  0
 22 23  4  0  0  0  0
 22 28  4  0  0  0  0
 23 24  4  0  0  0  0
 24 25  4  0  0  0  0
 24 27  1  0  0  0  0
 25 26  4  0  0  0  0
 28 29  4  0  0  0  0
 29 30  4  0  0  0  0
 31 32  1  0  0  0  0
 31 33  1  0  0  0  0
 32 33  1  0  0  0  0
M  END
>  <Name_Molregno>
521780

>  <5-HT1A>
10

>  <5-HT1B>
8.3

>  <5-HT1D>
9.8

>  <Serotonin transporter>
6.9

$$$$
521781
  Marvin  02231216192D 0   1.00000     0.00000     0

 34 39  0  0  0  0  0  0  0  0999 V2000
   -3.7145   -2.1668    0.0000 O   0  0  0  0  0  0  0  0  0
   -4.4289   -2.5793    0.0000 C   0  0  0  0  0  0  0  0  0
   -4.4289   -3.4043    0.0000 C   0  0  0  0  0  0  0  0  0
   -5.1434   -3.8168    0.0000 O   0  0  0  0  0  0  0  0  0
   -3.7145   -3.8168    0.0000 N   0  0  0  0  0  0  0  0  0
   -3.0000   -3.4043    0.0000 C   0  0  0  0  0  0  0  0  0
   -3.0000   -2.5793    0.0000 C   0  0  0  0  0  0  0  0  0
   -2.2855   -2.1668    0.0000 C   0  0  0  0  0  0  0  0  0
   -1.5711   -2.5793    0.0000 C   0  0  0  0  0  0  0  0  0
   -1.5711   -3.4043    0.0000 C   0  0  0  0  0  0  0  0  0
   -2.2855   -3.8168    0.0000 C   0  0  0  0  0  0  0  0  0
   -2.2855   -1.3418    0.0000 C   0  0  0  0  0  0  0  0  0
   -1.5711   -0.9293    0.0000 C   0  0  0  0  0  0  0  0  0
   -1.5711   -0.1043    0.0000 N   0  0  0  0  0  0  0  0  0
   -2.2855    0.3082    0.0000 C   0  0  0  0  0  0  0  0  0
   -2.2855    1.1332    0.0000 C   0  0  0  0  0  0  0  0  0
   -1.5711    1.5457    0.0000 N   0  0  0  0  0  0  0  0  0
   -0.8566    1.1332    0.0000 C   0  0  0  0  0  0  0  0  0
   -0.8566    0.3082    0.0000 C   0  0  0  0  0  0  0  0  0
   -1.5711    2.3707    0.0000 C   0  0  0  0  0  0  0  0  0
   -0.8566    2.7832    0.0000 C   0  0  0  0  0  0  0  0  0
   -0.8566    3.6082    0.0000 C   0  0  0  0  0  0  0  0  0
   -0.1421    4.0207    0.0000 N   0  0  0  0  0  0  0  0  0
    0.5724    3.6082    0.0000 C   0  0  0  0  0  0  0  0  0
    0.5724    2.7832    0.0000 C   0  0  0  0  0  0  0  0  0
   -0.1421    2.3707    0.0000 C   0  0  0  0  0  0  0  0  0
    1.2868    4.0207    0.0000 C   0  0  0  0  0  0  0  0  0
   -1.5711    4.0207    0.0000 C   0  0  0  0  0  0  0  0  0
   -2.2855    3.6082    0.0000 C   0  0  0  0  0  0  0  0  0
   -2.2855    2.7832    0.0000 C   0  0  0  0  0  0  0  0  0
   -3.7145   -4.6418    0.0000 C   0  0  0  0  0  0  0  0  0
   -4.4289   -5.0543    0.0000 C   0  0  0  0  0  0  0  0  0
   -4.8414   -5.7688    0.0000 C   0  0  0  0  0  0  0  0  0
   -5.2539   -5.0543    0.0000 C   0  0  0  0  0  0  0  0  0
  1  2  1  0  0  0  0
  1  7  1  0  0  0  0
  2  3  1  0  0  0  0
  3  4  2  0  0  0  0
  3  5  1  0  0  0  0
  5  6  1  0  0  0  0
  5 31  1  0  0  0  0
  6  7  4  0  0  0  0
  6 11  4  0  0  0  0
  7  8  4  0  0  0  0
  8  9  4  0  0  0  0
  8 12  1  0  0  0  0
  9 10  4  0  0  0  0
 10 11  4  0  0  0  0
 12 13  1  0  0  0  0
 13 14  1  0  0  0  0
 14 15  1  0  0  0  0
 14 19  1  0  0  0  0
 15 16  1  0  0  0  0
 16 17  1  0  0  0  0
 17 18  1  0  0  0  0
 17 20  1  0  0  0  0
 18 19  1  0  0  0  0
 20 21  4  0  0  0  0
 20 30  4  0  0  0  0
 21 22  4  0  0  0  0
 21 26  4  0  0  0  0
 22 23  4  0  0  0  0
 22 28  4  0  0  0  0
 23 24  4  0  0  0  0
 24 25  4  0  0  0  0
 24 27  1  0  0  0  0
 25 26  4  0  0  0  0
 28 29  4  0  0  0  0
 29 30  4  0  0  0  0
 31 32  1  0  0  0  0
 32 33  1  0  0  0  0
 32 34  1  0  0  0  0
 33 34  1  0  0  0  0
M  END
>  <Name_Molregno>
521781

>  <5-HT1A>
9.2

>  <5-HT1B>
8.2

>  <5-HT1D>
9.5

>  <Serotonin transporter>
6.7

$$$$
521782
  Marvin  02231216192D 0   1.00000     0.00000     0

 34 38  0  0  0  0  0  0  0  0999 V2000
    4.1617   -6.0908    0.0000 F   0  0  0  0  0  0  0  0  0
    4.1617   -5.2658    0.0000 C   0  0  0  0  0  0  0  0  0
    3.4472   -4.8533    0.0000 F   0  0  0  0  0  0  0  0  0
    4.8761   -4.8533    0.0000 C   0  0  0  0  0  0  0  0  0
    4.8761   -4.0283    0.0000 N   0  0  0  0  0  0  0  0  0
    5.5906   -3.6158    0.0000 C   0  0  0  0  0  0  0  0  0
    5.5906   -2.7908    0.0000 C   0  0  0  0  0  0  0  0  0
    4.8761   -2.3783    0.0000 O   0  0  0  0  0  0  0  0  0
    4.1617   -2.7908    0.0000 C   0  0  0  0  0  0  0  0  0
    4.1617   -3.6158    0.0000 C   0  0  0  0  0  0  0  0  0
    3.4472   -4.0283    0.0000 O   0  0  0  0  0  0  0  0  0
    6.3051   -2.3783    0.0000 C   0  0  0  0  0  0  0  0  0
    7.0195   -2.7908    0.0000 C   0  0  0  0  0  0  0  0  0
    7.0195   -3.6158    0.0000 C   0  0  0  0  0  0  0  0  0
    6.3051   -4.0283    0.0000 C   0  0  0  0  0  0  0  0  0
    6.3051   -1.5533    0.0000 C   0  0  0  0  0  0  0  0  0
    5.5906   -1.1408    0.0000 C   0  0  0  0  0  0  0  0  0
    5.5906   -0.3158    0.0000 N   0  0  0  0  0  0  0  0  0
    4.8761    0.0967    0.0000 C   0  0  0  0  0  0  0  0  0
    4.8761    0.9217    0.0000 C   0  0  0  0  0  0  0  0  0
    5.5906    1.3342    0.0000 N   0  0  0  0  0  0  0  0  0
    6.3051    0.9217    0.0000 C   0  0  0  0  0  0  0  0  0
    6.3051    0.0967    0.0000 C   0  0  0  0  0  0  0  0  0
    5.5906    2.1592    0.0000 C   0  0  0  0  0  0  0  0  0
    6.3051    2.5717    0.0000 C   0  0  0  0  0  0  0  0  0
    6.3051    3.3967    0.0000 C   0  0  0  0  0  0  0  0  0
    7.0195    3.8092    0.0000 N   0  0  0  0  0  0  0  0  0
    7.7340    3.3967    0.0000 C   0  0  0  0  0  0  0  0  0
    7.7340    2.5717    0.0000 C   0  0  0  0  0  0  0  0  0
    7.0195    2.1592    0.0000 C   0  0  0  0  0  0  0  0  0
    8.4485    3.8092    0.0000 C   0  0  0  0  0  0  0  0  0
    5.5906    3.8092    0.0000 C   0  0  0  0  0  0  0  0  0
    4.8761    3.3967    0.0000 C   0  0  0  0  0  0  0  0  0
    4.8761    2.5717    0.0000 C   0  0  0  0  0  0  0  0  0
  1  2  1  0  0  0  0
  2  3  1  0  0  0  0
  2  4  1  0  0  0  0
  4  5  1  0  0  0  0
  5  6  1  0  0  0  0
  5 10  1  0  0  0  0
  6  7  4  0  0  0  0
  6 15  4  0  0  0  0
  7  8  1  0  0  0  0
  7 12  4  0  0  0  0
  8  9  1  0  0  0  0
  9 10  1  0  0  0  0
 10 11  2  0  0  0  0
 12 13  4  0  0  0  0
 12 16  1  0  0  0  0
 13 14  4  0  0  0  0
 14 15  4  0  0  0  0
 16 17  1  0  0  0  0
 17 18  1  0  0  0  0
 18 19  1  0  0  0  0
 18 23  1  0  0  0  0
 19 20  1  0  0  0  0
 20 21  1  0  0  0  0
 21 22  1  0  0  0  0
 21 24  1  0  0  0  0
 22 23  1  0  0  0  0
 24 25  4  0  0  0  0
 24 34  4  0  0  0  0
 25 26  4  0  0  0  0
 25 30  4  0  0  0  0
 26 27  4  0  0  0  0
 26 32  4  0  0  0  0
 27 28  4  0  0  0  0
 28 29  4  0  0  0  0
 28 31  1  0  0  0  0
 29 30  4  0  0  0  0
 32 33  4  0  0  0  0
 33 34  4  0  0  0  0
M  END
>  <Name_Molregno>
521782

>  <5-HT1A>
9.3

>  <5-HT1B>
7.8

>  <5-HT1D>
9.4

>  <Serotonin transporter>
7.2

$$$$
521849
  Marvin  02231216192D 0   1.00000     0.00000     0

 32 36  0  0  1  0  0  0  0  0999 V2000
   -3.0932   -3.9673    0.0000 O   0  0  0  0  0  0  0  0  0
   -3.8077   -4.3798    0.0000 C   0  0  0  0  0  0  0  0  0
   -3.8077   -5.2048    0.0000 C   0  0  0  0  0  0  0  0  0
   -4.5221   -5.6173    0.0000 O   0  0  0  0  0  0  0  0  0
   -3.0932   -5.6173    0.0000 N   0  0  0  0  0  0  0  0  0
   -2.3787   -5.2048    0.0000 C   0  0  0  0  0  0  0  0  0
   -2.3787   -4.3798    0.0000 C   0  0  0  0  0  0  0  0  0
   -1.6643   -3.9673    0.0000 C   0  0  0  0  0  0  0  0  0
   -0.9498   -4.3798    0.0000 C   0  0  0  0  0  0  0  0  0
   -0.9498   -5.2048    0.0000 C   0  0  0  0  0  0  0  0  0
   -1.6643   -5.6173    0.0000 C   0  0  0  0  0  0  0  0  0
   -1.6643   -3.1423    0.0000 C   0  0  0  0  0  0  0  0  0
   -2.3787   -2.7298    0.0000 C   0  0  0  0  0  0  0  0  0
   -2.3787   -1.9048    0.0000 N   0  0  0  0  0  0  0  0  0
   -3.0932   -1.4923    0.0000 C   0  0  0  0  0  0  0  0  0
   -3.0932   -0.6673    0.0000 C   0  0  0  0  0  0  0  0  0
   -2.3787   -0.2548    0.0000 N   0  0  0  0  0  0  0  0  0
   -1.6643   -0.6673    0.0000 C   0  0  0  0  0  0  0  0  0
   -1.6643   -1.4923    0.0000 C   0  0  0  0  0  0  0  0  0
   -0.9498   -1.9048    0.0000 C   0  0  0  0  0  0  0  0  0
   -2.3787    0.5702    0.0000 C   0  0  0  0  0  0  0  0  0
   -1.6643    0.9827    0.0000 C   0  0  0  0  0  0  0  0  0
   -1.6643    1.8077    0.0000 C   0  0  0  0  0  0  0  0  0
   -0.9498    2.2202    0.0000 N   0  0  0  0  0  0  0  0  0
   -0.2353    1.8077    0.0000 C   0  0  0  0  0  0  0  0  0
   -0.2353    0.9827    0.0000 C   0  0  0  0  0  0  0  0  0
   -0.9498    0.5702    0.0000 C   0  0  0  0  0  0  0  0  0
    0.4791    2.2202    0.0000 C   0  0  0  0  0  0  0  0  0
   -2.3787    2.2202    0.0000 C   0  0  0  0  0  0  0  0  0
   -3.0932    1.8077    0.0000 C   0  0  0  0  0  0  0  0  0
   -3.0932    0.9827    0.0000 C   0  0  0  0  0  0  0  0  0
   -3.0932   -6.4423    0.0000 C   0  0  0  0  0  0  0  0  0
  1  2  1  0  0  0  0
  1  7  1  0  0  0  0
  2  3  1  0  0  0  0
  3  4  2  0  0  0  0
  3  5  1  0  0  0  0
  5  6  1  0  0  0  0
  5 32  1  0  0  0  0
  6  7  4  0  0  0  0
  6 11  4  0  0  0  0
  7  8  4  0  0  0  0
  8  9  4  0  0  0  0
  8 12  1  0  0  0  0
  9 10  4  0  0  0  0
 10 11  4  0  0  0  0
 12 13  1  0  0  0  0
 13 14  1  0  0  0  0
 14 15  1  0  0  0  0
 14 19  1  0  0  0  0
 15 16  1  0  0  0  0
 16 17  1  0  0  0  0
 17 18  1  0  0  0  0
 17 21  1  0  0  0  0
 18 19  1  0  0  0  0
 19 20  1  0  0  0  0
 21 22  4  0  0  0  0
 21 31  4  0  0  0  0
 22 23  4  0  0  0  0
 22 27  4  0  0  0  0
 23 24  4  0  0  0  0
 23 29  4  0  0  0  0
 24 25  4  0  0  0  0
 25 26  4  0  0  0  0
 25 28  1  0  0  0  0
 26 27  4  0  0  0  0
 29 30  4  0  0  0  0
 30 31  4  0  0  0  0
M  END
>  <Name_Molregno>
521849

>  <5-HT1A>
9.45

>  <5-HT1B>
8.2

>  <5-HT1D>
9.1

>  <Serotonin transporter>
8.1

$$$$
521851
  Marvin  02231216192D 0   1.00000     0.00000     0

 32 36  0  0  0  0  0  0  0  0999 V2000
   -4.5546    1.1256    0.0000 F   0  0  0  0  0  0  0  0  0
   -3.8402    0.7131    0.0000 C   0  0  0  0  0  0  0  0  0
   -3.8402   -0.1119    0.0000 C   0  0  0  0  0  0  0  0  0
   -3.1257   -0.5244    0.0000 C   0  0  0  0  0  0  0  0  0
   -3.1257   -1.3494    0.0000 N   0  0  0  0  0  0  0  0  0
   -2.4112   -1.7619    0.0000 C   0  0  0  0  0  0  0  0  0
   -2.4112   -2.5869    0.0000 C   0  0  0  0  0  0  0  0  0
   -3.1257   -2.9994    0.0000 N   0  0  0  0  0  0  0  0  0
   -3.8402   -2.5869    0.0000 C   0  0  0  0  0  0  0  0  0
   -3.8402   -1.7619    0.0000 C   0  0  0  0  0  0  0  0  0
   -3.1257   -3.8244    0.0000 C   0  0  0  0  0  0  0  0  0
   -3.8402   -4.2369    0.0000 C   0  0  0  0  0  0  0  0  0
   -3.8402   -5.0619    0.0000 C   0  0  0  0  0  0  0  0  0
   -3.1257   -5.4744    0.0000 C   0  0  0  0  0  0  0  0  0
   -2.4112   -5.0619    0.0000 O   0  0  0  0  0  0  0  0  0
   -1.6968   -5.4744    0.0000 C   0  0  0  0  0  0  0  0  0
   -1.6968   -6.2994    0.0000 C   0  0  0  0  0  0  0  0  0
   -0.9823   -6.7119    0.0000 O   0  0  0  0  0  0  0  0  0
   -2.4112   -6.7119    0.0000 N   0  0  0  0  0  0  0  0  0
   -3.1257   -6.2994    0.0000 C   0  0  0  0  0  0  0  0  0
   -3.8402   -6.7119    0.0000 C   0  0  0  0  0  0  0  0  0
   -4.5546   -6.2994    0.0000 C   0  0  0  0  0  0  0  0  0
   -4.5546   -5.4744    0.0000 C   0  0  0  0  0  0  0  0  0
   -2.4112   -7.5369    0.0000 C   0  0  0  0  0  0  0  0  0
   -2.4112   -0.1119    0.0000 C   0  0  0  0  0  0  0  0  0
   -2.4112    0.7131    0.0000 C   0  0  0  0  0  0  0  0  0
   -1.6968    1.1256    0.0000 N   0  0  0  0  0  0  0  0  0
   -0.9823    0.7131    0.0000 C   0  0  0  0  0  0  0  0  0
   -0.9823   -0.1119    0.0000 C   0  0  0  0  0  0  0  0  0
   -1.6968   -0.5244    0.0000 C   0  0  0  0  0  0  0  0  0
   -0.2678    1.1256    0.0000 C   0  0  0  0  0  0  0  0  0
   -3.1257    1.1256    0.0000 C   0  0  0  0  0  0  0  0  0
  1  2  1  0  0  0  0
  2  3  4  0  0  0  0
  2 32  4  0  0  0  0
  3  4  4  0  0  0  0
  4  5  1  0  0  0  0
  4 25  4  0  0  0  0
  5  6  1  0  0  0  0
  5 10  1  0  0  0  0
  6  7  1  0  0  0  0
  7  8  1  0  0  0  0
  8  9  1  0  0  0  0
  8 11  1  0  0  0  0
  9 10  1  0  0  0  0
 11 12  1  0  0  0  0
 12 13  1  0  0  0  0
 13 14  4  0  0  0  0
 13 23  4  0  0  0  0
 14 15  1  0  0  0  0
 14 20  4  0  0  0  0
 15 16  1  0  0  0  0
 16 17  1  0  0  0  0
 17 18  2  0  0  0  0
 17 19  1  0  0  0  0
 19 20  1  0  0  0  0
 19 24  1  0  0  0  0
 20 21  4  0  0  0  0
 21 22  4  0  0  0  0
 22 23  4  0  0  0  0
 25 26  4  0  0  0  0
 25 30  4  0  0  0  0
 26 27  4  0  0  0  0
 26 32  4  0  0  0  0
 27 28  4  0  0  0  0
 28 29  4  0  0  0  0
 28 31  1  0  0  0  0
 29 30  4  0  0  0  0
M  END
>  <Name_Molregno>
521851

>  <5-HT1A>
9.7

>  <5-HT1B>
8.6

>  <5-HT1D>
10.1

>  <Serotonin transporter>
8.1

$$$$
521852
  Marvin  02231216192D 0   1.00000     0.00000     0

 33 37  0  0  1  0  0  0  0  0999 V2000
    0.9646    1.0748    0.0000 F   0  0  0  0  0  0  0  0  0
    1.6791    0.6623    0.0000 C   0  0  0  0  0  0  0  0  0
    1.6791   -0.1627    0.0000 C   0  0  0  0  0  0  0  0  0
    2.3936   -0.5752    0.0000 C   0  0  0  0  0  0  0  0  0
    2.3936   -1.4002    0.0000 N   0  0  0  0  0  0  0  0  0
    3.1080   -1.8127    0.0000 C   0  0  0  0  0  0  0  0  0
    3.1080   -2.6377    0.0000 C   0  0  0  0  0  0  0  0  0
    2.3936   -3.0502    0.0000 N   0  0  0  0  0  0  0  0  0
    1.6791   -2.6377    0.0000 C   0  0  0  0  0  0  0  0  0
    1.6791   -1.8127    0.0000 C   0  0  0  0  0  0  0  0  0
    2.3936   -3.8752    0.0000 C   0  0  0  0  0  0  0  0  0
    1.6791   -4.2877    0.0000 C   0  0  0  0  0  0  0  0  0
    1.6791   -5.1127    0.0000 C   0  0  0  0  0  0  0  0  0
    2.3936   -5.5252    0.0000 C   0  0  0  0  0  0  0  0  0
    3.1080   -5.1127    0.0000 O   0  0  0  0  0  0  0  0  0
    3.8225   -5.5252    0.0000 C   0  0  0  0  0  0  0  0  0
    3.8225   -6.3502    0.0000 C   0  0  0  0  0  0  0  0  0
    4.5370   -6.7627    0.0000 O   0  0  0  0  0  0  0  0  0
    3.1080   -6.7627    0.0000 N   0  0  0  0  0  0  0  0  0
    2.3936   -6.3502    0.0000 C   0  0  0  0  0  0  0  0  0
    1.6791   -6.7627    0.0000 C   0  0  0  0  0  0  0  0  0
    0.9646   -6.3502    0.0000 C   0  0  0  0  0  0  0  0  0
    0.9646   -5.5252    0.0000 C   0  0  0  0  0  0  0  0  0
    3.1080   -7.5877    0.0000 C   0  0  0  0  0  0  0  0  0
    3.8225   -3.0502    0.0000 C   0  0  0  0  0  0  0  0  0
    3.1080   -0.1627    0.0000 C   0  0  0  0  0  0  0  0  0
    3.1080    0.6623    0.0000 C   0  0  0  0  0  0  0  0  0
    3.8225    1.0748    0.0000 N   0  0  0  0  0  0  0  0  0
    4.5370    0.6623    0.0000 C   0  0  0  0  0  0  0  0  0
    4.5370   -0.1627    0.0000 C   0  0  0  0  0  0  0  0  0
    3.8225   -0.5752    0.0000 C   0  0  0  0  0  0  0  0  0
    5.2515    1.0748    0.0000 C   0  0  0  0  0  0  0  0  0
    2.3936    1.0748    0.0000 C   0  0  0  0  0  0  0  0  0
  1  2  1  0  0  0  0
  2  3  4  0  0  0  0
  2 33  4  0  0  0  0
  3  4  4  0  0  0  0
  4  5  1  0  0  0  0
  4 26  4  0  0  0  0
  5  6  1  0  0  0  0
  5 10  1  0  0  0  0
  6  7  1  0  0  0  0
  7  8  1  0  0  0  0
  7 25  1  0  0  0  0
  8  9  1  0  0  0  0
  8 11  1  0  0  0  0
  9 10  1  0  0  0  0
 11 12  1  0  0  0  0
 12 13  1  0  0  0  0
 13 14  4  0  0  0  0
 13 23  4  0  0  0  0
 14 15  1  0  0  0  0
 14 20  4  0  0  0  0
 15 16  1  0  0  0  0
 16 17  1  0  0  0  0
 17 18  2  0  0  0  0
 17 19  1  0  0  0  0
 19 20  1  0  0  0  0
 19 24  1  0  0  0  0
 20 21  4  0  0  0  0
 21 22  4  0  0  0  0
 22 23  4  0  0  0  0
 26 27  4  0  0  0  0
 26 31  4  0  0  0  0
 27 28  4  0  0  0  0
 27 33  4  0  0  0  0
 28 29  4  0  0  0  0
 29 30  4  0  0  0  0
 29 32  1  0  0  0  0
 30 31  4  0  0  0  0
M  END
>  <Name_Molregno>
521852

>  <5-HT1A>
9.7

>  <5-HT1B>
8.7

>  <5-HT1D>
9.5

>  <Serotonin transporter>
8.7

$$$$
521918
  Marvin  02231216192D 0   1.00000     0.00000     0

 32 36  0  0  0  0  0  0  0  0999 V2000
   -3.7118   -3.1771    0.0000 O   0  0  0  0  0  0  0  0  0
   -3.7118   -4.0021    0.0000 C   0  0  0  0  0  0  0  0  0
   -2.9973   -4.4146    0.0000 C   0  0  0  0  0  0  0  0  0
   -2.9973   -5.2396    0.0000 O   0  0  0  0  0  0  0  0  0
   -2.2828   -4.0021    0.0000 N   0  0  0  0  0  0  0  0  0
   -2.2828   -3.1771    0.0000 C   0  0  0  0  0  0  0  0  0
   -2.9973   -2.7646    0.0000 C   0  0  0  0  0  0  0  0  0
   -2.9973   -1.9396    0.0000 C   0  0  0  0  0  0  0  0  0
   -2.2828   -1.5271    0.0000 C   0  0  0  0  0  0  0  0  0
   -1.5684   -1.9396    0.0000 C   0  0  0  0  0  0  0  0  0
   -1.5684   -2.7646    0.0000 C   0  0  0  0  0  0  0  0  0
   -3.7118   -1.5271    0.0000 C   0  0  0  0  0  0  0  0  0
   -3.7118   -0.7021    0.0000 C   0  0  0  0  0  0  0  0  0
   -4.4262   -0.2896    0.0000 C   0  0  0  0  0  0  0  0  0
   -4.4262    0.5354    0.0000 N   0  0  0  0  0  0  0  0  0
   -5.1407    0.9479    0.0000 C   0  0  0  0  0  0  0  0  0
   -5.1407    1.7729    0.0000 C   0  0  0  0  0  0  0  0  0
   -4.4262    2.1854    0.0000 N   0  0  0  0  0  0  0  0  0
   -3.7118    1.7729    0.0000 C   0  0  0  0  0  0  0  0  0
   -3.7118    0.9479    0.0000 C   0  0  0  0  0  0  0  0  0
   -4.4262    3.0104    0.0000 C   0  0  0  0  0  0  0  0  0
   -3.7118    3.4229    0.0000 C   0  0  0  0  0  0  0  0  0
   -3.7118    4.2479    0.0000 C   0  0  0  0  0  0  0  0  0
   -2.9973    4.6604    0.0000 N   0  0  0  0  0  0  0  0  0
   -2.2828    4.2479    0.0000 C   0  0  0  0  0  0  0  0  0
   -2.2828    3.4229    0.0000 C   0  0  0  0  0  0  0  0  0
   -2.9973    3.0104    0.0000 C   0  0  0  0  0  0  0  0  0
   -1.5684    4.6604    0.0000 C   0  0  0  0  0  0  0  0  0
   -4.4262    4.6604    0.0000 C   0  0  0  0  0  0  0  0  0
   -5.1407    4.2479    0.0000 C   0  0  0  0  0  0  0  0  0
   -5.1407    3.4229    0.0000 C   0  0  0  0  0  0  0  0  0
   -1.5684   -4.4146    0.0000 C   0  0  0  0  0  0  0  0  0
  1  2  1  0  0  0  0
  1  7  1  0  0  0  0
  2  3  1  0  0  0  0
  3  4  2  0  0  0  0
  3  5  1  0  0  0  0
  5  6  1  0  0  0  0
  5 32  1  0  0  0  0
  6  7  4  0  0  0  0
  6 11  4  0  0  0  0
  7  8  4  0  0  0  0
  8  9  4  0  0  0  0
  8 12  1  0  0  0  0
  9 10  4  0  0  0  0
 10 11  4  0  0  0  0
 12 13  1  0  0  0  0
 13 14  1  0  0  0  0
 14 15  1  0  0  0  0
 15 16  1  0  0  0  0
 15 20  1  0  0  0  0
 16 17  1  0  0  0  0
 17 18  1  0  0  0  0
 18 19  1  0  0  0  0
 18 21  1  0  0  0  0
 19 20  1  0  0  0  0
 21 22  4  0  0  0  0
 21 31  4  0  0  0  0
 22 23  4  0  0  0  0
 22 27  4  0  0  0  0
 23 24  4  0  0  0  0
 23 29  4  0  0  0  0
 24 25  4  0  0  0  0
 25 26  4  0  0  0  0
 25 28  1  0  0  0  0
 26 27  4  0  0  0  0
 29 30  4  0  0  0  0
 30 31  4  0  0  0  0
M  END
>  <Name_Molregno>
521918

>  <5-HT1A>
8.8

>  <5-HT1D>
8.5

>  <Serotonin transporter>
9.4

$$$$
521919
  Marvin  02231216192D 0   1.00000     0.00000     0

 33 37  0  0  1  0  0  0  0  0999 V2000
   -3.7317   -3.8065    0.0000 O   0  0  0  0  0  0  0  0  0
   -3.7317   -4.6315    0.0000 C   0  0  0  0  0  0  0  0  0
   -3.0173   -5.0440    0.0000 C   0  0  0  0  0  0  0  0  0
   -3.0173   -5.8690    0.0000 O   0  0  0  0  0  0  0  0  0
   -2.3028   -4.6315    0.0000 N   0  0  0  0  0  0  0  0  0
   -2.3028   -3.8065    0.0000 C   0  0  0  0  0  0  0  0  0
   -3.0173   -3.3940    0.0000 C   0  0  0  0  0  0  0  0  0
   -3.0173   -2.5690    0.0000 C   0  0  0  0  0  0  0  0  0
   -2.3028   -2.1565    0.0000 C   0  0  0  0  0  0  0  0  0
   -1.5883   -2.5690    0.0000 C   0  0  0  0  0  0  0  0  0
   -1.5883   -3.3940    0.0000 C   0  0  0  0  0  0  0  0  0
   -3.7317   -2.1565    0.0000 C   0  0  0  0  0  0  0  0  0
   -3.7317   -1.3315    0.0000 C   0  0  0  0  0  0  0  0  0
   -4.4462   -0.9190    0.0000 C   0  0  0  0  0  0  0  0  0
   -4.4462   -0.0940    0.0000 N   0  0  0  0  0  0  0  0  0
   -5.1607    0.3185    0.0000 C   0  0  0  0  0  0  0  0  0
   -5.1607    1.1435    0.0000 C   0  0  0  0  0  0  0  0  0
   -4.4462    1.5560    0.0000 N   0  0  0  0  0  0  0  0  0
   -3.7317    1.1435    0.0000 C   0  0  0  0  0  0  0  0  0
   -3.7317    0.3185    0.0000 C   0  0  0  0  0  0  0  0  0
   -3.0173   -0.0940    0.0000 C   0  0  0  0  0  0  0  0  0
   -4.4462    2.3810    0.0000 C   0  0  0  0  0  0  0  0  0
   -3.7317    2.7935    0.0000 C   0  0  0  0  0  0  0  0  0
   -3.7317    3.6185    0.0000 C   0  0  0  0  0  0  0  0  0
   -3.0173    4.0310    0.0000 N   0  0  0  0  0  0  0  0  0
   -2.3028    3.6185    0.0000 C   0  0  0  0  0  0  0  0  0
   -2.3028    2.7935    0.0000 C   0  0  0  0  0  0  0  0  0
   -3.0173    2.3810    0.0000 C   0  0  0  0  0  0  0  0  0
   -1.5883    4.0310    0.0000 C   0  0  0  0  0  0  0  0  0
   -4.4462    4.0310    0.0000 C   0  0  0  0  0  0  0  0  0
   -5.1607    3.6185    0.0000 C   0  0  0  0  0  0  0  0  0
   -5.1607    2.7935    0.0000 C   0  0  0  0  0  0  0  0  0
   -1.5883   -5.0440    0.0000 C   0  0  0  0  0  0  0  0  0
  1  2  1  0  0  0  0
  1  7  1  0  0  0  0
  2  3  1  0  0  0  0
  3  4  2  0  0  0  0
  3  5  1  0  0  0  0
  5  6  1  0  0  0  0
  5 33  1  0  0  0  0
  6  7  4  0  0  0  0
  6 11  4  0  0  0  0
  7  8  4  0  0  0  0
  8  9  4  0  0  0  0
  8 12  1  0  0  0  0
  9 10  4  0  0  0  0
 10 11  4  0  0  0  0
 12 13  1  0  0  0  0
 13 14  1  0  0  0  0
 14 15  1  0  0  0  0
 15 16  1  0  0  0  0
 15 20  1  0  0  0  0
 16 17  1  0  0  0  0
 17 18  1  0  0  0  0
 18 19  1  0  0  0  0
 18 22  1  0  0  0  0
 19 20  1  0  0  0  0
 20 21  1  0  0  0  0
 22 23  4  0  0  0  0
 22 32  4  0  0  0  0
 23 24  4  0  0  0  0
 23 28  4  0  0  0  0
 24 25  4  0  0  0  0
 24 30  4  0  0  0  0
 25 26  4  0  0  0  0
 26 27  4  0  0  0  0
 26 29  1  0  0  0  0
 27 28  4  0  0  0  0
 30 31  4  0  0  0  0
 31 32  4  0  0  0  0
M  END
>  <Name_Molregno>
521919

>  <5-HT1A>
8.7

>  <5-HT1D>
9.2

>  <Serotonin transporter>
9.3

$$$$
521920
  Marvin  02231216192D 0   1.00000     0.00000     0

 33 37  0  0  0  0  0  0  0  0999 V2000
   -5.0946    3.2578    0.0000 F   0  0  0  0  0  0  0  0  0
   -4.3801    2.8453    0.0000 C   0  0  0  0  0  0  0  0  0
   -4.3801    2.0203    0.0000 C   0  0  0  0  0  0  0  0  0
   -3.6656    1.6078    0.0000 C   0  0  0  0  0  0  0  0  0
   -3.6656    0.7828    0.0000 N   0  0  0  0  0  0  0  0  0
   -2.9511    0.3703    0.0000 C   0  0  0  0  0  0  0  0  0
   -2.9511   -0.4547    0.0000 C   0  0  0  0  0  0  0  0  0
   -3.6656   -0.8672    0.0000 N   0  0  0  0  0  0  0  0  0
   -4.3801   -0.4547    0.0000 C   0  0  0  0  0  0  0  0  0
   -4.3801    0.3703    0.0000 C   0  0  0  0  0  0  0  0  0
   -3.6656   -1.6922    0.0000 C   0  0  0  0  0  0  0  0  0
   -4.3801   -2.1047    0.0000 C   0  0  0  0  0  0  0  0  0
   -4.3801   -2.9297    0.0000 C   0  0  0  0  0  0  0  0  0
   -5.0946   -3.3422    0.0000 C   0  0  0  0  0  0  0  0  0
   -5.0946   -4.1672    0.0000 C   0  0  0  0  0  0  0  0  0
   -4.3801   -4.5797    0.0000 O   0  0  0  0  0  0  0  0  0
   -4.3801   -5.4047    0.0000 C   0  0  0  0  0  0  0  0  0
   -5.0946   -5.8172    0.0000 C   0  0  0  0  0  0  0  0  0
   -5.0946   -6.6422    0.0000 O   0  0  0  0  0  0  0  0  0
   -5.8090   -5.4047    0.0000 N   0  0  0  0  0  0  0  0  0
   -5.8090   -4.5797    0.0000 C   0  0  0  0  0  0  0  0  0
   -6.5235   -4.1672    0.0000 C   0  0  0  0  0  0  0  0  0
   -6.5235   -3.3422    0.0000 C   0  0  0  0  0  0  0  0  0
   -5.8090   -2.9297    0.0000 C   0  0  0  0  0  0  0  0  0
   -6.5235   -5.8172    0.0000 C   0  0  0  0  0  0  0  0  0
   -2.9511    2.0203    0.0000 C   0  0  0  0  0  0  0  0  0
   -2.9511    2.8453    0.0000 C   0  0  0  0  0  0  0  0  0
   -2.2367    3.2578    0.0000 N   0  0  0  0  0  0  0  0  0
   -1.5222    2.8453    0.0000 C   0  0  0  0  0  0  0  0  0
   -1.5222    2.0203    0.0000 C   0  0  0  0  0  0  0  0  0
   -2.2367    1.6078    0.0000 C   0  0  0  0  0  0  0  0  0
   -0.8077    3.2578    0.0000 C   0  0  0  0  0  0  0  0  0
   -3.6656    3.2578    0.0000 C   0  0  0  0  0  0  0  0  0
  1  2  1  0  0  0  0
  2  3  4  0  0  0  0
  2 33  4  0  0  0  0
  3  4  4  0  0  0  0
  4  5  1  0  0  0  0
  4 26  4  0  0  0  0
  5  6  1  0  0  0  0
  5 10  1  0  0  0  0
  6  7  1  0  0  0  0
  7  8  1  0  0  0  0
  8  9  1  0  0  0  0
  8 11  1  0  0  0  0
  9 10  1  0  0  0  0
 11 12  1  0  0  0  0
 12 13  1  0  0  0  0
 13 14  1  0  0  0  0
 14 15  4  0  0  0  0
 14 24  4  0  0  0  0
 15 16  1  0  0  0  0
 15 21  4  0  0  0  0
 16 17  1  0  0  0  0
 17 18  1  0  0  0  0
 18 19  2  0  0  0  0
 18 20  1  0  0  0  0
 20 21  1  0  0  0  0
 20 25  1  0  0  0  0
 21 22  4  0  0  0  0
 22 23  4  0  0  0  0
 23 24  4  0  0  0  0
 26 27  4  0  0  0  0
 26 31  4  0  0  0  0
 27 28  4  0  0  0  0
 27 33  4  0  0  0  0
 28 29  4  0  0  0  0
 29 30  4  0  0  0  0
 29 32  1  0  0  0  0
 30 31  4  0  0  0  0
M  END
>  <Name_Molregno>
521920

>  <5-HT1A>
8.2

>  <5-HT1B>
6.1

>  <5-HT1D>
7.8

>  <Serotonin transporter>
9.5

$$$$
521921
  Marvin  02231216192D 0   1.00000     0.00000     0

 34 38  0  0  1  0  0  0  0  0999 V2000
   -5.1603    3.2583    0.0000 F   0  0  0  0  0  0  0  0  0
   -4.4458    2.8458    0.0000 C   0  0  0  0  0  0  0  0  0
   -4.4458    2.0208    0.0000 C   0  0  0  0  0  0  0  0  0
   -3.7314    1.6083    0.0000 C   0  0  0  0  0  0  0  0  0
   -3.7314    0.7833    0.0000 N   0  0  0  0  0  0  0  0  0
   -3.0169    0.3708    0.0000 C   0  0  0  0  0  0  0  0  0
   -3.0169   -0.4542    0.0000 C   0  0  0  0  0  0  0  0  0
   -3.7314   -0.8667    0.0000 N   0  0  0  0  0  0  0  0  0
   -4.4458   -0.4542    0.0000 C   0  0  0  0  0  0  0  0  0
   -4.4458    0.3708    0.0000 C   0  0  0  0  0  0  0  0  0
   -3.7314   -1.6917    0.0000 C   0  0  0  0  0  0  0  0  0
   -4.4458   -2.1042    0.0000 C   0  0  0  0  0  0  0  0  0
   -4.4458   -2.9292    0.0000 C   0  0  0  0  0  0  0  0  0
   -5.1603   -3.3417    0.0000 C   0  0  0  0  0  0  0  0  0
   -5.1603   -4.1667    0.0000 C   0  0  0  0  0  0  0  0  0
   -4.4458   -4.5792    0.0000 O   0  0  0  0  0  0  0  0  0
   -4.4458   -5.4042    0.0000 C   0  0  0  0  0  0  0  0  0
   -5.1603   -5.8167    0.0000 C   0  0  0  0  0  0  0  0  0
   -5.1603   -6.6417    0.0000 O   0  0  0  0  0  0  0  0  0
   -5.8748   -5.4042    0.0000 N   0  0  0  0  0  0  0  0  0
   -5.8748   -4.5792    0.0000 C   0  0  0  0  0  0  0  0  0
   -6.5893   -4.1667    0.0000 C   0  0  0  0  0  0  0  0  0
   -6.5893   -3.3417    0.0000 C   0  0  0  0  0  0  0  0  0
   -5.8748   -2.9292    0.0000 C   0  0  0  0  0  0  0  0  0
   -6.5893   -5.8167    0.0000 C   0  0  0  0  0  0  0  0  0
   -2.3024   -0.8667    0.0000 C   0  0  0  0  0  0  0  0  0
   -3.0169    2.0208    0.0000 C   0  0  0  0  0  0  0  0  0
   -3.0169    2.8458    0.0000 C   0  0  0  0  0  0  0  0  0
   -2.3024    3.2583    0.0000 N   0  0  0  0  0  0  0  0  0
   -1.5880    2.8458    0.0000 C   0  0  0  0  0  0  0  0  0
   -1.5880    2.0208    0.0000 C   0  0  0  0  0  0  0  0  0
   -2.3024    1.6083    0.0000 C   0  0  0  0  0  0  0  0  0
   -0.8735    3.2583    0.0000 C   0  0  0  0  0  0  0  0  0
   -3.7314    3.2583    0.0000 C   0  0  0  0  0  0  0  0  0
  1  2  1  0  0  0  0
  2  3  4  0  0  0  0
  2 34  4  0  0  0  0
  3  4  4  0  0  0  0
  4  5  1  0  0  0  0
  4 27  4  0  0  0  0
  5  6  1  0  0  0  0
  5 10  1  0  0  0  0
  6  7  1  0  0  0  0
  7  8  1  0  0  0  0
  7 26  1  0  0  0  0
  8  9  1  0  0  0  0
  8 11  1  0  0  0  0
  9 10  1  0  0  0  0
 11 12  1  0  0  0  0
 12 13  1  0  0  0  0
 13 14  1  0  0  0  0
 14 15  4  0  0  0  0
 14 24  4  0  0  0  0
 15 16  1  0  0  0  0
 15 21  4  0  0  0  0
 16 17  1  0  0  0  0
 17 18  1  0  0  0  0
 18 19  2  0  0  0  0
 18 20  1  0  0  0  0
 20 21  1  0  0  0  0
 20 25  1  0  0  0  0
 21 22  4  0  0  0  0
 22 23  4  0  0  0  0
 23 24  4  0  0  0  0
 27 28  4  0  0  0  0
 27 32  4  0  0  0  0
 28 29  4  0  0  0  0
 28 34  4  0  0  0  0
 29 30  4  0  0  0  0
 30 31  4  0  0  0  0
 30 33  1  0  0  0  0
 31 32  4  0  0  0  0
M  END
>  <Name_Molregno>
521921

>  <5-HT1A>
8.8

>  <5-HT1B>
6.8

>  <5-HT1D>
8.4

>  <Serotonin transporter>
9.1

$$$$
521994
  Marvin  02231216192D 0   1.00000     0.00000     0

 31 35  0  0  0  0  0  0  0  0999 V2000
   -3.8037   -3.2780    0.0000 O   0  0  0  0  0  0  0  0  0
   -3.8037   -4.1030    0.0000 C   0  0  0  0  0  0  0  0  0
   -3.0892   -4.5155    0.0000 C   0  0  0  0  0  0  0  0  0
   -3.0892   -5.3405    0.0000 O   0  0  0  0  0  0  0  0  0
   -2.3747   -4.1030    0.0000 N   0  0  0  0  0  0  0  0  0
   -2.3747   -3.2780    0.0000 C   0  0  0  0  0  0  0  0  0
   -3.0892   -2.8655    0.0000 C   0  0  0  0  0  0  0  0  0
   -3.0892   -2.0405    0.0000 C   0  0  0  0  0  0  0  0  0
   -2.3747   -1.6280    0.0000 C   0  0  0  0  0  0  0  0  0
   -1.6603   -2.0405    0.0000 C   0  0  0  0  0  0  0  0  0
   -1.6603   -2.8655    0.0000 C   0  0  0  0  0  0  0  0  0
   -3.8037   -1.6280    0.0000 C   0  0  0  0  0  0  0  0  0
   -3.8037   -0.8030    0.0000 C   0  0  0  0  0  0  0  0  0
   -4.5181   -0.3905    0.0000 C   0  0  0  0  0  0  0  0  0
   -4.5181    0.4345    0.0000 N   0  0  0  0  0  0  0  0  0
   -5.2326    0.8470    0.0000 C   0  0  0  0  0  0  0  0  0
   -5.2326    1.6720    0.0000 C   0  0  0  0  0  0  0  0  0
   -4.5181    2.0845    0.0000 N   0  0  0  0  0  0  0  0  0
   -3.8037    1.6720    0.0000 C   0  0  0  0  0  0  0  0  0
   -3.8037    0.8470    0.0000 C   0  0  0  0  0  0  0  0  0
   -4.5181    2.9095    0.0000 C   0  0  0  0  0  0  0  0  0
   -3.8037    3.3220    0.0000 C   0  0  0  0  0  0  0  0  0
   -3.8037    4.1470    0.0000 C   0  0  0  0  0  0  0  0  0
   -3.0892    4.5595    0.0000 N   0  0  0  0  0  0  0  0  0
   -2.3747    4.1470    0.0000 C   0  0  0  0  0  0  0  0  0
   -2.3747    3.3220    0.0000 C   0  0  0  0  0  0  0  0  0
   -3.0892    2.9095    0.0000 C   0  0  0  0  0  0  0  0  0
   -1.6603    4.5595    0.0000 C   0  0  0  0  0  0  0  0  0
   -4.5181    4.5595    0.0000 C   0  0  0  0  0  0  0  0  0
   -5.2326    4.1470    0.0000 C   0  0  0  0  0  0  0  0  0
   -5.2326    3.3220    0.0000 C   0  0  0  0  0  0  0  0  0
  1  2  1  0  0  0  0
  1  7  1  0  0  0  0
  2  3  1  0  0  0  0
  3  4  2  0  0  0  0
  3  5  1  0  0  0  0
  5  6  1  0  0  0  0
  6  7  4  0  0  0  0
  6 11  4  0  0  0  0
  7  8  4  0  0  0  0
  8  9  4  0  0  0  0
  8 12  1  0  0  0  0
  9 10  4  0  0  0  0
 10 11  4  0  0  0  0
 12 13  1  0  0  0  0
 13 14  1  0  0  0  0
 14 15  1  0  0  0  0
 15 16  1  0  0  0  0
 15 20  1  0  0  0  0
 16 17  1  0  0  0  0
 17 18  1  0  0  0  0
 18 19  1  0  0  0  0
 18 21  1  0  0  0  0
 19 20  1  0  0  0  0
 21 22  4  0  0  0  0
 21 31  4  0  0  0  0
 22 23  4  0  0  0  0
 22 27  4  0  0  0  0
 23 24  4  0  0  0  0
 23 29  4  0  0  0  0
 24 25  4  0  0  0  0
 25 26  4  0  0  0  0
 25 28  1  0  0  0  0
 26 27  4  0  0  0  0
 29 30  4  0  0  0  0
 30 31  4  0  0  0  0
M  END
>  <Name_Molregno>
521994

>  <5-HT1A>
8.5

>  <5-HT1D>
9.4

>  <Serotonin transporter>
7.4

$$$$
554815
  Marvin  02231216192D 0   1.00000     0.00000     0

 31 36  0  0  1  0  0  0  0  0999 V2000
    0.8684   -1.6585    0.0000 O   0  0  0  0  0  0  0  0  0
    1.4204   -2.2716    0.0000 C   0  0  0  0  0  0  0  0  0
    1.1655   -3.0562    0.0000 C   0  0  0  0  0  0  0  0  0
    1.7175   -3.6693    0.0000 C   0  0  0  0  0  0  0  0  0
    1.4626   -4.4539    0.0000 N   0  0  0  0  0  0  0  0  0
    0.6556   -4.6255    0.0000 C   0  0  0  0  0  0  0  0  0
    0.1036   -4.0124    0.0000 C   0  0  0  0  0  0  0  0  0
    0.3585   -3.2277    0.0000 C   0  0  0  0  0  0  0  0  0
    0.4007   -5.4101    0.0000 C   0  0  0  0  0  0  0  0  0
    2.5245   -3.4978    0.0000 C   0  0  0  0  0  0  0  0  0
    2.7795   -2.7132    0.0000 C   0  0  0  0  0  0  0  0  0
    2.2274   -2.1001    0.0000 C   0  0  0  0  0  0  0  0  0
    2.4824   -1.3155    0.0000 O   0  0  0  0  0  0  0  0  0
    1.9303   -0.7024    0.0000 C   0  0  0  0  0  0  0  0  0
    1.1234   -0.8739    0.0000 C   0  0  0  0  0  0  0  0  0
    0.5713   -0.2608    0.0000 C   0  0  0  0  0  0  0  0  0
    0.8263    0.5238    0.0000 N   0  0  0  0  0  0  0  0  0
    0.2742    1.1369    0.0000 C   0  0  0  0  0  0  0  0  0
    0.5292    1.9215    0.0000 C   0  0  0  0  0  0  0  0  0
    1.3361    2.0931    0.0000 C   0  0  0  0  0  0  0  0  0
    1.8882    1.4800    0.0000 C   0  0  0  0  0  0  0  0  0
    1.6332    0.6954    0.0000 C   0  0  0  0  0  0  0  0  0
    1.5911    2.8777    0.0000 C   0  0  0  0  0  0  0  0  0
    2.3757    3.1326    0.0000 C   0  0  0  0  0  0  0  0  0
    2.3757    3.9576    0.0000 C   0  0  0  0  0  0  0  0  0
    1.5911    4.2126    0.0000 N   0  0  0  0  0  0  0  0  0
    1.1062    3.5451    0.0000 C   0  0  0  0  0  0  0  0  0
    3.0902    4.3701    0.0000 C   0  0  0  0  0  0  0  0  0
    3.8046    3.9576    0.0000 C   0  0  0  0  0  0  0  0  0
    3.8046    3.1326    0.0000 C   0  0  0  0  0  0  0  0  0
    3.0902    2.7201    0.0000 C   0  0  0  0  0  0  0  0  0
  1  2  1  0  0  0  0
  1 15  1  0  0  0  0
  2  3  4  0  0  0  0
  2 12  4  0  0  0  0
  3  4  4  0  0  0  0
  3  8  4  0  0  0  0
  4  5  4  0  0  0  0
  4 10  4  0  0  0  0
  5  6  4  0  0  0  0
  6  7  4  0  0  0  0
  6  9  1  0  0  0  0
  7  8  4  0  0  0  0
 10 11  4  0  0  0  0
 11 12  4  0  0  0  0
 12 13  1  0  0  0  0
 13 14  1  0  0  0  0
 14 15  1  0  0  0  0
 15 16  1  0  0  0  0
 16 17  1  0  0  0  0
 17 18  1  0  0  0  0
 17 22  1  0  0  0  0
 18 19  1  0  0  0  0
 19 20  1  0  0  0  0
 20 21  2  0  0  0  0
 20 23  1  0  0  0  0
 21 22  1  0  0  0  0
 23 24  4  0  0  0  0
 23 27  4  0  0  0  0
 24 25  4  0  0  0  0
 24 31  4  0  0  0  0
 25 26  4  0  0  0  0
 25 28  4  0  0  0  0
 26 27  4  0  0  0  0
 28 29  4  0  0  0  0
 29 30  4  0  0  0  0
 30 31  4  0  0  0  0
M  STY  1   1 DAT
M  SAL   1  1  26
M  SDT   1 MRV_IMPLICIT_H                                        
M  SDD   1     0.0000    0.0000    DR    ALL  0       0  
M  SED   1 IMPL_H1
M  END
>  <Name_Molregno>
554815

>  <5-HT1A>
8.52

$$$$
556563
  Marvin  02231216192D 0   1.00000     0.00000     0

 35 40  0  0  1  0  0  0  0  0999 V2000
    0.5293   -1.4801    0.0000 O   0  0  0  0  0  0  0  0  0
   -0.2934   -1.4184    0.0000 C   0  0  0  0  0  0  0  0  0
   -0.6514   -0.6751    0.0000 C   0  0  0  0  0  0  0  0  0
   -1.4741   -0.6135    0.0000 C   0  0  0  0  0  0  0  0  0
   -1.8320    0.1298    0.0000 N   0  0  0  0  0  0  0  0  0
   -1.3673    0.8115    0.0000 C   0  0  0  0  0  0  0  0  0
   -0.5446    0.7498    0.0000 C   0  0  0  0  0  0  0  0  0
   -0.1867    0.0065    0.0000 C   0  0  0  0  0  0  0  0  0
   -1.7253    1.5548    0.0000 C   0  0  0  0  0  0  0  0  0
   -1.9388   -1.2951    0.0000 C   0  0  0  0  0  0  0  0  0
   -1.5809   -2.0384    0.0000 C   0  0  0  0  0  0  0  0  0
   -0.7582   -2.1001    0.0000 C   0  0  0  0  0  0  0  0  0
   -0.4002   -2.8434    0.0000 O   0  0  0  0  0  0  0  0  0
    0.4225   -2.9050    0.0000 C   0  0  0  0  0  0  0  0  0
    0.8872   -2.2234    0.0000 C   0  0  0  0  0  0  0  0  0
    1.7099   -2.2850    0.0000 C   0  0  0  0  0  0  0  0  0
    2.1746   -1.6034    0.0000 N   0  0  0  0  0  0  0  0  0
    1.7621   -0.8889    0.0000 C   0  0  0  0  0  0  0  0  0
    2.0635   -0.1209    0.0000 C   0  0  0  0  0  0  0  0  0
    2.8519    0.1222    0.0000 C   0  0  0  0  0  0  0  0  0
    3.5335   -0.3425    0.0000 N   0  0  0  0  0  0  0  0  0
    3.5952   -1.1652    0.0000 C   0  0  0  0  0  0  0  0  0
    2.9904   -1.7264    0.0000 C   0  0  0  0  0  0  0  0  0
    4.2480    0.0700    0.0000 C   0  0  0  0  0  0  0  0  0
    4.9625   -0.3425    0.0000 N   0  0  0  0  0  0  0  0  0
    5.6770    0.0700    0.0000 C   0  0  0  0  0  0  0  0  0
    5.6770    0.8950    0.0000 C   0  0  0  0  0  0  0  0  0
    6.3914    1.3075    0.0000 C   0  0  0  0  0  0  0  0  0
    7.1059    0.8950    0.0000 C   0  0  0  0  0  0  0  0  0
    7.1059    0.0700    0.0000 C   0  0  0  0  0  0  0  0  0
    6.3914   -0.3425    0.0000 C   0  0  0  0  0  0  0  0  0
    7.8204    1.3075    0.0000 C   0  0  0  0  0  0  0  0  0
    8.5348    1.7200    0.0000 N   0  0  0  0  0  0  0  0  0
    4.9625    1.3075    0.0000 C   0  0  0  0  0  0  0  0  0
    4.2480    0.8950    0.0000 C   0  0  0  0  0  0  0  0  0
  1  2  1  0  0  0  0
  1 15  1  0  0  0  0
  2  3  4  0  0  0  0
  2 12  4  0  0  0  0
  3  4  4  0  0  0  0
  3  8  4  0  0  0  0
  4  5  4  0  0  0  0
  4 10  4  0  0  0  0
  5  6  4  0  0  0  0
  6  7  4  0  0  0  0
  6  9  1  0  0  0  0
  7  8  4  0  0  0  0
 10 11  4  0  0  0  0
 11 12  4  0  0  0  0
 12 13  1  0  0  0  0
 13 14  1  0  0  0  0
 14 15  1  0  0  0  0
 15 16  1  0  0  0  0
 16 17  1  0  0  0  0
 17 18  1  0  0  0  0
 17 23  1  0  0  0  0
 18 19  1  0  0  0  0
 19 20  1  0  0  0  0
 20 21  1  0  0  0  0
 21 22  1  0  0  0  0
 21 24  1  0  0  0  0
 22 23  1  0  0  0  0
 24 25  4  0  0  0  0
 24 35  4  0  0  0  0
 25 26  4  0  0  0  0
 26 27  4  0  0  0  0
 26 31  4  0  0  0  0
 27 28  4  0  0  0  0
 27 34  4  0  0  0  0
 28 29  4  0  0  0  0
 29 30  4  0  0  0  0
 29 32  1  0  0  0  0
 30 31  4  0  0  0  0
 32 33  3  0  0  0  0
 34 35  4  0  0  0  0
M  END
>  <Name_Molregno>
556563

>  <5-HT1A>
8.7

$$$$
558272
  Marvin  02231216192D 0   1.00000     0.00000     0

 33 38  0  0  1  0  0  0  0  0999 V2000
   -0.1565    1.1274    0.0000 Cl  0  0  0  0  0  0  0  0  0
    0.6685    1.1274    0.0000 C   0  0  0  0  0  0  0  0  0
    1.0810    0.4130    0.0000 C   0  0  0  0  0  0  0  0  0
    1.9060    0.4130    0.0000 C   0  0  0  0  0  0  0  0  0
    2.3185    1.1274    0.0000 C   0  0  0  0  0  0  0  0  0
    3.1435    1.1274    0.0000 N   0  0  0  0  0  0  0  0  0
    3.5560    0.4130    0.0000 C   0  0  0  0  0  0  0  0  0
    4.3810    0.4130    0.0000 N   0  0  0  0  0  0  0  0  0
    4.7935    1.1274    0.0000 C   0  0  0  0  0  0  0  0  0
    5.6185    1.1274    0.0000 C   0  0  0  0  0  0  0  0  0
    6.0310    0.4130    0.0000 N   0  0  0  0  0  0  0  0  0
    5.6185   -0.3015    0.0000 C   0  0  0  0  0  0  0  0  0
    4.7935   -0.3015    0.0000 C   0  0  0  0  0  0  0  0  0
    6.8560    0.4130    0.0000 C   0  0  0  0  0  0  0  0  0
    7.2685    1.1274    0.0000 C   0  0  0  0  0  0  0  0  0
    8.0935    1.1274    0.0000 O   0  0  0  0  0  0  0  0  0
    8.5060    1.8419    0.0000 C   0  0  0  0  0  0  0  0  0
    9.3310    1.8419    0.0000 C   0  0  0  0  0  0  0  0  0
    9.7435    2.5564    0.0000 C   0  0  0  0  0  0  0  0  0
   10.5685    2.5564    0.0000 N   0  0  0  0  0  0  0  0  0
   10.9810    1.8419    0.0000 C   0  0  0  0  0  0  0  0  0
   10.5685    1.1274    0.0000 C   0  0  0  0  0  0  0  0  0
    9.7435    1.1274    0.0000 C   0  0  0  0  0  0  0  0  0
   11.8060    1.8419    0.0000 C   0  0  0  0  0  0  0  0  0
    9.3310    3.2709    0.0000 C   0  0  0  0  0  0  0  0  0
    8.5060    3.2709    0.0000 C   0  0  0  0  0  0  0  0  0
    8.0935    2.5564    0.0000 C   0  0  0  0  0  0  0  0  0
    7.2685    2.5564    0.0000 O   0  0  0  0  0  0  0  0  0
    6.8560    1.8419    0.0000 C   0  0  0  0  0  0  0  0  0
    3.1435   -0.3015    0.0000 C   0  0  0  0  0  0  0  0  0
    2.3185   -0.3015    0.0000 C   0  0  0  0  0  0  0  0  0
    1.9060    1.8419    0.0000 C   0  0  0  0  0  0  0  0  0
    1.0810    1.8419    0.0000 C   0  0  0  0  0  0  0  0  0
  1  2  1  0  0  0  0
  2  3  4  0  0  0  0
  2 33  4  0  0  0  0
  3  4  4  0  0  0  0
  4  5  4  0  0  0  0
  4 31  4  0  0  0  0
  5  6  4  0  0  0  0
  5 32  4  0  0  0  0
  6  7  4  0  0  0  0
  7  8  1  0  0  0  0
  7 30  4  0  0  0  0
  8  9  1  0  0  0  0
  8 13  1  0  0  0  0
  9 10  1  0  0  0  0
 10 11  1  0  0  0  0
 11 12  1  0  0  0  0
 11 14  1  0  0  0  0
 12 13  1  0  0  0  0
 14 15  1  0  0  0  0
 15 16  1  0  0  0  0
 15 29  1  0  0  0  0
 16 17  1  0  0  0  0
 17 18  4  0  0  0  0
 17 27  4  0  0  0  0
 18 19  4  0  0  0  0
 18 23  4  0  0  0  0
 19 20  4  0  0  0  0
 19 25  4  0  0  0  0
 20 21  4  0  0  0  0
 21 22  4  0  0  0  0
 21 24  1  0  0  0  0
 22 23  4  0  0  0  0
 25 26  4  0  0  0  0
 26 27  4  0  0  0  0
 27 28  1  0  0  0  0
 28 29  1  0  0  0  0
 30 31  4  0  0  0  0
 32 33  4  0  0  0  0
M  END
>  <Name_Molregno>
558272

>  <5-HT1A>
6.67

$$$$
558280
  Marvin  02231216192D 0   1.00000     0.00000     0

 35 40  0  0  1  0  0  0  0  0999 V2000
    0.2036   -1.3019    0.0000 O   0  0  0  0  0  0  0  0  0
    0.2036   -2.1269    0.0000 C   0  0  0  0  0  0  0  0  0
   -0.5108   -2.5394    0.0000 C   0  0  0  0  0  0  0  0  0
   -0.5108   -3.3644    0.0000 C   0  0  0  0  0  0  0  0  0
   -1.2253   -3.7769    0.0000 N   0  0  0  0  0  0  0  0  0
   -1.9398   -3.3644    0.0000 C   0  0  0  0  0  0  0  0  0
   -1.9398   -2.5394    0.0000 C   0  0  0  0  0  0  0  0  0
   -1.2253   -2.1269    0.0000 C   0  0  0  0  0  0  0  0  0
   -2.6543   -3.7769    0.0000 C   0  0  0  0  0  0  0  0  0
    0.2036   -3.7769    0.0000 C   0  0  0  0  0  0  0  0  0
    0.9181   -3.3644    0.0000 C   0  0  0  0  0  0  0  0  0
    0.9181   -2.5394    0.0000 C   0  0  0  0  0  0  0  0  0
    1.6326   -2.1269    0.0000 O   0  0  0  0  0  0  0  0  0
    1.6326   -1.3019    0.0000 C   0  0  0  0  0  0  0  0  0
    0.9181   -0.8894    0.0000 C   0  0  0  0  0  0  0  0  0
    0.9181   -0.0644    0.0000 C   0  0  0  0  0  0  0  0  0
    1.6326    0.3481    0.0000 N   0  0  0  0  0  0  0  0  0
    1.6326    1.1731    0.0000 C   0  0  0  0  0  0  0  0  0
    2.3470    1.5856    0.0000 C   0  0  0  0  0  0  0  0  0
    3.0615    1.1731    0.0000 N   0  0  0  0  0  0  0  0  0
    3.0615    0.3481    0.0000 C   0  0  0  0  0  0  0  0  0
    2.3470   -0.0644    0.0000 C   0  0  0  0  0  0  0  0  0
    3.7760    1.5856    0.0000 C   0  0  0  0  0  0  0  0  0
    4.4905    1.1731    0.0000 N   0  0  0  0  0  0  0  0  0
    5.2049    1.5856    0.0000 C   0  0  0  0  0  0  0  0  0
    5.2049    2.4106    0.0000 C   0  0  0  0  0  0  0  0  0
    5.9194    2.8231    0.0000 C   0  0  0  0  0  0  0  0  0
    6.6339    2.4106    0.0000 C   0  0  0  0  0  0  0  0  0
    6.6339    1.5856    0.0000 C   0  0  0  0  0  0  0  0  0
    5.9194    1.1731    0.0000 C   0  0  0  0  0  0  0  0  0
    7.3483    2.8231    0.0000 C   0  0  0  0  0  0  0  0  0
    7.3483    3.6481    0.0000 O   0  0  0  0  0  0  0  0  0
    8.0628    2.4106    0.0000 N   0  0  0  0  0  0  0  0  0
    4.4905    2.8231    0.0000 C   0  0  0  0  0  0  0  0  0
    3.7760    2.4106    0.0000 C   0  0  0  0  0  0  0  0  0
  1  2  1  0  0  0  0
  1 15  1  0  0  0  0
  2  3  4  0  0  0  0
  2 12  4  0  0  0  0
  3  4  4  0  0  0  0
  3  8  4  0  0  0  0
  4  5  4  0  0  0  0
  4 10  4  0  0  0  0
  5  6  4  0  0  0  0
  6  7  4  0  0  0  0
  6  9  1  0  0  0  0
  7  8  4  0  0  0  0
 10 11  4  0  0  0  0
 11 12  4  0  0  0  0
 12 13  1  0  0  0  0
 13 14  1  0  0  0  0
 14 15  1  0  0  0  0
 15 16  1  0  0  0  0
 16 17  1  0  0  0  0
 17 18  1  0  0  0  0
 17 22  1  0  0  0  0
 18 19  1  0  0  0  0
 19 20  1  0  0  0  0
 20 21  1  0  0  0  0
 20 23  1  0  0  0  0
 21 22  1  0  0  0  0
 23 24  4  0  0  0  0
 23 35  4  0  0  0  0
 24 25  4  0  0  0  0
 25 26  4  0  0  0  0
 25 30  4  0  0  0  0
 26 27  4  0  0  0  0
 26 34  4  0  0  0  0
 27 28  4  0  0  0  0
 28 29  4  0  0  0  0
 28 31  1  0  0  0  0
 29 30  4  0  0  0  0
 31 32  2  0  0  0  0
 31 33  1  0  0  0  0
 34 35  4  0  0  0  0
M  END
>  <Name_Molregno>
558280

>  <5-HT1A>
8.14

$$$$
558286
  Marvin  02231216192D 0   1.00000     0.00000     0

 35 40  0  0  1  0  0  0  0  0999 V2000
    0.1717   -1.2497    0.0000 O   0  0  0  0  0  0  0  0  0
    0.1717   -2.0747    0.0000 C   0  0  0  0  0  0  0  0  0
   -0.5428   -2.4872    0.0000 C   0  0  0  0  0  0  0  0  0
   -0.5428   -3.3122    0.0000 C   0  0  0  0  0  0  0  0  0
   -1.2573   -3.7247    0.0000 N   0  0  0  0  0  0  0  0  0
   -1.9717   -3.3122    0.0000 C   0  0  0  0  0  0  0  0  0
   -1.9717   -2.4872    0.0000 C   0  0  0  0  0  0  0  0  0
   -1.2573   -2.0747    0.0000 C   0  0  0  0  0  0  0  0  0
   -2.6862   -3.7247    0.0000 C   0  0  0  0  0  0  0  0  0
    0.1717   -3.7247    0.0000 C   0  0  0  0  0  0  0  0  0
    0.8862   -3.3122    0.0000 C   0  0  0  0  0  0  0  0  0
    0.8862   -2.4872    0.0000 C   0  0  0  0  0  0  0  0  0
    1.6006   -2.0747    0.0000 O   0  0  0  0  0  0  0  0  0
    1.6006   -1.2497    0.0000 C   0  0  0  0  0  0  0  0  0
    0.8862   -0.8372    0.0000 C   0  0  0  0  0  0  0  0  0
    0.8862   -0.0122    0.0000 C   0  0  0  0  0  0  0  0  0
    1.6006    0.4003    0.0000 N   0  0  0  0  0  0  0  0  0
    1.6006    1.2253    0.0000 C   0  0  0  0  0  0  0  0  0
    2.3151    1.6378    0.0000 C   0  0  0  0  0  0  0  0  0
    3.0296    1.2253    0.0000 N   0  0  0  0  0  0  0  0  0
    3.0296    0.4003    0.0000 C   0  0  0  0  0  0  0  0  0
    2.3151   -0.0122    0.0000 C   0  0  0  0  0  0  0  0  0
    2.3151   -0.8372    0.0000 C   0  0  0  0  0  0  0  0  0
    3.7440    1.6378    0.0000 C   0  0  0  0  0  0  0  0  0
    4.4585    1.2253    0.0000 N   0  0  0  0  0  0  0  0  0
    5.1730    1.6378    0.0000 C   0  0  0  0  0  0  0  0  0
    5.1730    2.4628    0.0000 C   0  0  0  0  0  0  0  0  0
    5.8874    2.8753    0.0000 C   0  0  0  0  0  0  0  0  0
    6.6019    2.4628    0.0000 C   0  0  0  0  0  0  0  0  0
    6.6019    1.6378    0.0000 C   0  0  0  0  0  0  0  0  0
    5.8874    1.2253    0.0000 C   0  0  0  0  0  0  0  0  0
    7.3164    2.8753    0.0000 C   0  0  0  0  0  0  0  0  0
    8.0309    3.2878    0.0000 N   0  0  0  0  0  0  0  0  0
    4.4585    2.8753    0.0000 C   0  0  0  0  0  0  0  0  0
    3.7440    2.4628    0.0000 C   0  0  0  0  0  0  0  0  0
  1  2  1  0  0  0  0
  1 15  1  0  0  0  0
  2  3  4  0  0  0  0
  2 12  4  0  0  0  0
  3  4  4  0  0  0  0
  3  8  4  0  0  0  0
  4  5  4  0  0  0  0
  4 10  4  0  0  0  0
  5  6  4  0  0  0  0
  6  7  4  0  0  0  0
  6  9  1  0  0  0  0
  7  8  4  0  0  0  0
 10 11  4  0  0  0  0
 11 12  4  0  0  0  0
 12 13  1  0  0  0  0
 13 14  1  0  0  0  0
 14 15  1  0  0  0  0
 15 16  1  0  0  0  0
 16 17  1  0  0  0  0
 17 18  1  0  0  0  0
 17 22  1  0  0  0  0
 18 19  1  0  0  0  0
 19 20  1  0  0  0  0
 20 21  1  0  0  0  0
 20 24  1  0  0  0  0
 21 22  1  0  0  0  0
 22 23  1  0  0  0  0
 24 25  4  0  0  0  0
 24 35  4  0  0  0  0
 25 26  4  0  0  0  0
 26 27  4  0  0  0  0
 26 31  4  0  0  0  0
 27 28  4  0  0  0  0
 27 34  4  0  0  0  0
 28 29  4  0  0  0  0
 29 30  4  0  0  0  0
 29 32  1  0  0  0  0
 30 31  4  0  0  0  0
 32 33  3  0  0  0  0
 34 35  4  0  0  0  0
M  END
>  <Name_Molregno>
558286

>  <5-HT1A>
8.55

$$$$
560069
  Marvin  02231216192D 0   1.00000     0.00000     0

 33 38  0  0  1  0  0  0  0  0999 V2000
   -0.1565    1.1274    0.0000 F   0  0  0  0  0  0  0  0  0
    0.6685    1.1274    0.0000 C   0  0  0  0  0  0  0  0  0
    1.0810    0.4130    0.0000 C   0  0  0  0  0  0  0  0  0
    1.9060    0.4130    0.0000 C   0  0  0  0  0  0  0  0  0
    2.3185    1.1274    0.0000 C   0  0  0  0  0  0  0  0  0
    3.1435    1.1274    0.0000 N   0  0  0  0  0  0  0  0  0
    3.5560    0.4130    0.0000 C   0  0  0  0  0  0  0  0  0
    4.3810    0.4130    0.0000 N   0  0  0  0  0  0  0  0  0
    4.7935    1.1274    0.0000 C   0  0  0  0  0  0  0  0  0
    5.6185    1.1274    0.0000 C   0  0  0  0  0  0  0  0  0
    6.0310    0.4130    0.0000 N   0  0  0  0  0  0  0  0  0
    5.6185   -0.3015    0.0000 C   0  0  0  0  0  0  0  0  0
    4.7935   -0.3015    0.0000 C   0  0  0  0  0  0  0  0  0
    6.8560    0.4130    0.0000 C   0  0  0  0  0  0  0  0  0
    7.2685    1.1274    0.0000 C   0  0  0  0  0  0  0  0  0
    8.0935    1.1274    0.0000 O   0  0  0  0  0  0  0  0  0
    8.5060    1.8419    0.0000 C   0  0  0  0  0  0  0  0  0
    9.3310    1.8419    0.0000 C   0  0  0  0  0  0  0  0  0
    9.7435    2.5564    0.0000 C   0  0  0  0  0  0  0  0  0
   10.5685    2.5564    0.0000 N   0  0  0  0  0  0  0  0  0
   10.9810    1.8419    0.0000 C   0  0  0  0  0  0  0  0  0
   10.5685    1.1274    0.0000 C   0  0  0  0  0  0  0  0  0
    9.7435    1.1274    0.0000 C   0  0  0  0  0  0  0  0  0
   11.8060    1.8419    0.0000 C   0  0  0  0  0  0  0  0  0
    9.3310    3.2709    0.0000 C   0  0  0  0  0  0  0  0  0
    8.5060    3.2709    0.0000 C   0  0  0  0  0  0  0  0  0
    8.0935    2.5564    0.0000 C   0  0  0  0  0  0  0  0  0
    7.2685    2.5564    0.0000 O   0  0  0  0  0  0  0  0  0
    6.8560    1.8419    0.0000 C   0  0  0  0  0  0  0  0  0
    3.1435   -0.3015    0.0000 C   0  0  0  0  0  0  0  0  0
    2.3185   -0.3015    0.0000 C   0  0  0  0  0  0  0  0  0
    1.9060    1.8419    0.0000 C   0  0  0  0  0  0  0  0  0
    1.0810    1.8419    0.0000 C   0  0  0  0  0  0  0  0  0
  1  2  1  0  0  0  0
  2  3  4  0  0  0  0
  2 33  4  0  0  0  0
  3  4  4  0  0  0  0
  4  5  4  0  0  0  0
  4 31  4  0  0  0  0
  5  6  4  0  0  0  0
  5 32  4  0  0  0  0
  6  7  4  0  0  0  0
  7  8  1  0  0  0  0
  7 30  4  0  0  0  0
  8  9  1  0  0  0  0
  8 13  1  0  0  0  0
  9 10  1  0  0  0  0
 10 11  1  0  0  0  0
 11 12  1  0  0  0  0
 11 14  1  0  0  0  0
 12 13  1  0  0  0  0
 14 15  1  0  0  0  0
 15 16  1  0  0  0  0
 15 29  1  0  0  0  0
 16 17  1  0  0  0  0
 17 18  4  0  0  0  0
 17 27  4  0  0  0  0
 18 19  4  0  0  0  0
 18 23  4  0  0  0  0
 19 20  4  0  0  0  0
 19 25  4  0  0  0  0
 20 21  4  0  0  0  0
 21 22  4  0  0  0  0
 21 24  1  0  0  0  0
 22 23  4  0  0  0  0
 25 26  4  0  0  0  0
 26 27  4  0  0  0  0
 27 28  1  0  0  0  0
 28 29  1  0  0  0  0
 30 31  4  0  0  0  0
 32 33  4  0  0  0  0
M  END
>  <Name_Molregno>
560069

>  <5-HT1A>
7.48

$$$$
560080
  Marvin  02231216192D 0   1.00000     0.00000     0

 32 37  0  0  1  0  0  0  0  0999 V2000
    0.1353   -0.7988    0.0000 O   0  0  0  0  0  0  0  0  0
    0.1353   -1.6238    0.0000 C   0  0  0  0  0  0  0  0  0
   -0.5792   -2.0363    0.0000 C   0  0  0  0  0  0  0  0  0
   -0.5792   -2.8613    0.0000 C   0  0  0  0  0  0  0  0  0
   -1.2936   -3.2738    0.0000 N   0  0  0  0  0  0  0  0  0
   -2.0081   -2.8613    0.0000 C   0  0  0  0  0  0  0  0  0
   -2.0081   -2.0363    0.0000 C   0  0  0  0  0  0  0  0  0
   -1.2936   -1.6238    0.0000 C   0  0  0  0  0  0  0  0  0
   -2.7226   -3.2738    0.0000 C   0  0  0  0  0  0  0  0  0
    0.1353   -3.2738    0.0000 C   0  0  0  0  0  0  0  0  0
    0.8498   -2.8613    0.0000 C   0  0  0  0  0  0  0  0  0
    0.8498   -2.0363    0.0000 C   0  0  0  0  0  0  0  0  0
    1.5643   -1.6238    0.0000 O   0  0  0  0  0  0  0  0  0
    1.5643   -0.7988    0.0000 C   0  0  0  0  0  0  0  0  0
    0.8498   -0.3863    0.0000 C   0  0  0  0  0  0  0  0  0
    0.8498    0.4387    0.0000 C   0  0  0  0  0  0  0  0  0
    1.5643    0.8512    0.0000 N   0  0  0  0  0  0  0  0  0
    1.5643    1.6762    0.0000 C   0  0  0  0  0  0  0  0  0
    2.2787    2.0887    0.0000 C   0  0  0  0  0  0  0  0  0
    2.9932    1.6762    0.0000 N   0  0  0  0  0  0  0  0  0
    2.9932    0.8512    0.0000 C   0  0  0  0  0  0  0  0  0
    2.2787    0.4387    0.0000 C   0  0  0  0  0  0  0  0  0
    3.7077    2.0887    0.0000 C   0  0  0  0  0  0  0  0  0
    4.4221    1.6762    0.0000 N   0  0  0  0  0  0  0  0  0
    5.1366    2.0887    0.0000 C   0  0  0  0  0  0  0  0  0
    5.1366    2.9137    0.0000 C   0  0  0  0  0  0  0  0  0
    4.4221    3.3262    0.0000 C   0  0  0  0  0  0  0  0  0
    3.7077    2.9137    0.0000 C   0  0  0  0  0  0  0  0  0
    5.8511    3.3262    0.0000 C   0  0  0  0  0  0  0  0  0
    6.5656    2.9137    0.0000 C   0  0  0  0  0  0  0  0  0
    6.5656    2.0887    0.0000 C   0  0  0  0  0  0  0  0  0
    5.8511    1.6762    0.0000 C   0  0  0  0  0  0  0  0  0
  1  2  1  0  0  0  0
  1 15  1  0  0  0  0
  2  3  4  0  0  0  0
  2 12  4  0  0  0  0
  3  4  4  0  0  0  0
  3  8  4  0  0  0  0
  4  5  4  0  0  0  0
  4 10  4  0  0  0  0
  5  6  4  0  0  0  0
  6  7  4  0  0  0  0
  6  9  1  0  0  0  0
  7  8  4  0  0  0  0
 10 11  4  0  0  0  0
 11 12  4  0  0  0  0
 12 13  1  0  0  0  0
 13 14  1  0  0  0  0
 14 15  1  0  0  0  0
 15 16  1  0  0  0  0
 16 17  1  0  0  0  0
 17 18  1  0  0  0  0
 17 22  1  0  0  0  0
 18 19  1  0  0  0  0
 19 20  1  0  0  0  0
 20 21  1  0  0  0  0
 20 23  1  0  0  0  0
 21 22  1  0  0  0  0
 23 24  4  0  0  0  0
 23 28  4  0  0  0  0
 24 25  4  0  0  0  0
 25 26  4  0  0  0  0
 25 32  4  0  0  0  0
 26 27  4  0  0  0  0
 26 29  4  0  0  0  0
 27 28  4  0  0  0  0
 29 30  4  0  0  0  0
 30 31  4  0  0  0  0
 31 32  4  0  0  0  0
M  END
>  <Name_Molregno>
560080

>  <5-HT1A>
7.33

$$$$
563553
  Marvin  02231216192D 0   1.00000     0.00000     0

 33 38  0  0  1  0  0  0  0  0999 V2000
   -0.1565    1.1274    0.0000 Br  0  0  0  0  0  0  0  0  0
    0.6685    1.1274    0.0000 C   0  0  0  0  0  0  0  0  0
    1.0810    0.4130    0.0000 C   0  0  0  0  0  0  0  0  0
    1.9060    0.4130    0.0000 C   0  0  0  0  0  0  0  0  0
    2.3185    1.1274    0.0000 C   0  0  0  0  0  0  0  0  0
    3.1435    1.1274    0.0000 N   0  0  0  0  0  0  0  0  0
    3.5560    0.4130    0.0000 C   0  0  0  0  0  0  0  0  0
    4.3810    0.4130    0.0000 N   0  0  0  0  0  0  0  0  0
    4.7935    1.1274    0.0000 C   0  0  0  0  0  0  0  0  0
    5.6185    1.1274    0.0000 C   0  0  0  0  0  0  0  0  0
    6.0310    0.4130    0.0000 N   0  0  0  0  0  0  0  0  0
    5.6185   -0.3015    0.0000 C   0  0  0  0  0  0  0  0  0
    4.7935   -0.3015    0.0000 C   0  0  0  0  0  0  0  0  0
    6.8560    0.4130    0.0000 C   0  0  0  0  0  0  0  0  0
    7.2685    1.1274    0.0000 C   0  0  0  0  0  0  0  0  0
    8.0935    1.1274    0.0000 O   0  0  0  0  0  0  0  0  0
    8.5060    1.8419    0.0000 C   0  0  0  0  0  0  0  0  0
    9.3310    1.8419    0.0000 C   0  0  0  0  0  0  0  0  0
    9.7435    2.5564    0.0000 C   0  0  0  0  0  0  0  0  0
   10.5685    2.5564    0.0000 N   0  0  0  0  0  0  0  0  0
   10.9810    1.8419    0.0000 C   0  0  0  0  0  0  0  0  0
   10.5685    1.1274    0.0000 C   0  0  0  0  0  0  0  0  0
    9.7435    1.1274    0.0000 C   0  0  0  0  0  0  0  0  0
   11.8060    1.8419    0.0000 C   0  0  0  0  0  0  0  0  0
    9.3310    3.2709    0.0000 C   0  0  0  0  0  0  0  0  0
    8.5060    3.2709    0.0000 C   0  0  0  0  0  0  0  0  0
    8.0935    2.5564    0.0000 C   0  0  0  0  0  0  0  0  0
    7.2685    2.5564    0.0000 O   0  0  0  0  0  0  0  0  0
    6.8560    1.8419    0.0000 C   0  0  0  0  0  0  0  0  0
    3.1435   -0.3015    0.0000 C   0  0  0  0  0  0  0  0  0
    2.3185   -0.3015    0.0000 C   0  0  0  0  0  0  0  0  0
    1.9060    1.8419    0.0000 C   0  0  0  0  0  0  0  0  0
    1.0810    1.8419    0.0000 C   0  0  0  0  0  0  0  0  0
  1  2  1  0  0  0  0
  2  3  4  0  0  0  0
  2 33  4  0  0  0  0
  3  4  4  0  0  0  0
  4  5  4  0  0  0  0
  4 31  4  0  0  0  0
  5  6  4  0  0  0  0
  5 32  4  0  0  0  0
  6  7  4  0  0  0  0
  7  8  1  0  0  0  0
  7 30  4  0  0  0  0
  8  9  1  0  0  0  0
  8 13  1  0  0  0  0
  9 10  1  0  0  0  0
 10 11  1  0  0  0  0
 11 12  1  0  0  0  0
 11 14  1  0  0  0  0
 12 13  1  0  0  0  0
 14 15  1  0  0  0  0
 15 16  1  0  0  0  0
 15 29  1  0  0  0  0
 16 17  1  0  0  0  0
 17 18  4  0  0  0  0
 17 27  4  0  0  0  0
 18 19  4  0  0  0  0
 18 23  4  0  0  0  0
 19 20  4  0  0  0  0
 19 25  4  0  0  0  0
 20 21  4  0  0  0  0
 21 22  4  0  0  0  0
 21 24  1  0  0  0  0
 22 23  4  0  0  0  0
 25 26  4  0  0  0  0
 26 27  4  0  0  0  0
 27 28  1  0  0  0  0
 28 29  1  0  0  0  0
 30 31  4  0  0  0  0
 32 33  4  0  0  0  0
M  END
>  <Name_Molregno>
563553

>  <5-HT1A>
7.76

$$$$
563558
  Marvin  02231216192D 0   1.00000     0.00000     0

 37 42  0  0  1  0  0  0  0  0999 V2000
   -0.8690    0.4069    0.0000 F   0  0  0  0  0  0  0  0  0
   -0.4565   -0.3076    0.0000 C   0  0  0  0  0  0  0  0  0
   -1.1709   -0.7201    0.0000 F   0  0  0  0  0  0  0  0  0
    0.2580    0.1049    0.0000 F   0  0  0  0  0  0  0  0  0
   -0.0440   -1.0221    0.0000 O   0  0  0  0  0  0  0  0  0
    0.7810   -1.0221    0.0000 C   0  0  0  0  0  0  0  0  0
    1.1935   -1.7365    0.0000 C   0  0  0  0  0  0  0  0  0
    2.0185   -1.7365    0.0000 C   0  0  0  0  0  0  0  0  0
    2.4310   -1.0221    0.0000 C   0  0  0  0  0  0  0  0  0
    3.2560   -1.0221    0.0000 N   0  0  0  0  0  0  0  0  0
    3.6685   -1.7365    0.0000 C   0  0  0  0  0  0  0  0  0
    4.4935   -1.7365    0.0000 N   0  0  0  0  0  0  0  0  0
    4.9060   -1.0221    0.0000 C   0  0  0  0  0  0  0  0  0
    5.7310   -1.0221    0.0000 C   0  0  0  0  0  0  0  0  0
    6.1435   -1.7365    0.0000 N   0  0  0  0  0  0  0  0  0
    5.7310   -2.4510    0.0000 C   0  0  0  0  0  0  0  0  0
    4.9060   -2.4510    0.0000 C   0  0  0  0  0  0  0  0  0
    6.9685   -1.7365    0.0000 C   0  0  0  0  0  0  0  0  0
    7.3810   -1.0221    0.0000 C   0  0  0  0  0  0  0  0  0
    8.2060   -1.0221    0.0000 O   0  0  0  0  0  0  0  0  0
    8.6185   -0.3076    0.0000 C   0  0  0  0  0  0  0  0  0
    9.4435   -0.3076    0.0000 C   0  0  0  0  0  0  0  0  0
    9.8560    0.4069    0.0000 C   0  0  0  0  0  0  0  0  0
   10.6810    0.4069    0.0000 N   0  0  0  0  0  0  0  0  0
   11.0935   -0.3076    0.0000 C   0  0  0  0  0  0  0  0  0
   10.6810   -1.0221    0.0000 C   0  0  0  0  0  0  0  0  0
    9.8560   -1.0221    0.0000 C   0  0  0  0  0  0  0  0  0
   11.9185   -0.3076    0.0000 C   0  0  0  0  0  0  0  0  0
    9.4435    1.1214    0.0000 C   0  0  0  0  0  0  0  0  0
    8.6185    1.1214    0.0000 C   0  0  0  0  0  0  0  0  0
    8.2060    0.4069    0.0000 C   0  0  0  0  0  0  0  0  0
    7.3810    0.4069    0.0000 O   0  0  0  0  0  0  0  0  0
    6.9685   -0.3076    0.0000 C   0  0  0  0  0  0  0  0  0
    3.2560   -2.4510    0.0000 C   0  0  0  0  0  0  0  0  0
    2.4310   -2.4510    0.0000 C   0  0  0  0  0  0  0  0  0
    2.0185   -0.3076    0.0000 C   0  0  0  0  0  0  0  0  0
    1.1935   -0.3076    0.0000 C   0  0  0  0  0  0  0  0  0
  1  2  1  0  0  0  0
  2  3  1  0  0  0  0
  2  4  1  0  0  0  0
  2  5  1  0  0  0  0
  5  6  1  0  0  0  0
  6  7  4  0  0  0  0
  6 37  4  0  0  0  0
  7  8  4  0  0  0  0
  8  9  4  0  0  0  0
  8 35  4  0  0  0  0
  9 10  4  0  0  0  0
  9 36  4  0  0  0  0
 10 11  4  0  0  0  0
 11 12  1  0  0  0  0
 11 34  4  0  0  0  0
 12 13  1  0  0  0  0
 12 17  1  0  0  0  0
 13 14  1  0  0  0  0
 14 15  1  0  0  0  0
 15 16  1  0  0  0  0
 15 18  1  0  0  0  0
 16 17  1  0  0  0  0
 18 19  1  0  0  0  0
 19 20  1  0  0  0  0
 19 33  1  0  0  0  0
 20 21  1  0  0  0  0
 21 22  4  0  0  0  0
 21 31  4  0  0  0  0
 22 23  4  0  0  0  0
 22 27  4  0  0  0  0
 23 24  4  0  0  0  0
 23 29  4  0  0  0  0
 24 25  4  0  0  0  0
 25 26  4  0  0  0  0
 25 28  1  0  0  0  0
 26 27  4  0  0  0  0
 29 30  4  0  0  0  0
 30 31  4  0  0  0  0
 31 32  1  0  0  0  0
 32 33  1  0  0  0  0
 34 35  4  0  0  0  0
 36 37  4  0  0  0  0
M  END
>  <Name_Molregno>
563558

>  <5-HT1A>
6.76

$$$$
563559
  Marvin  02231216192D 0   1.00000     0.00000     0

 33 38  0  0  1  0  0  0  0  0999 V2000
    0.1258   -0.6975    0.0000 O   0  0  0  0  0  0  0  0  0
    0.1258   -1.5225    0.0000 C   0  0  0  0  0  0  0  0  0
   -0.5887   -1.9350    0.0000 C   0  0  0  0  0  0  0  0  0
   -0.5887   -2.7600    0.0000 C   0  0  0  0  0  0  0  0  0
   -1.3032   -3.1725    0.0000 N   0  0  0  0  0  0  0  0  0
   -2.0176   -2.7600    0.0000 C   0  0  0  0  0  0  0  0  0
   -2.0176   -1.9350    0.0000 C   0  0  0  0  0  0  0  0  0
   -1.3032   -1.5225    0.0000 C   0  0  0  0  0  0  0  0  0
   -2.7321   -3.1725    0.0000 C   0  0  0  0  0  0  0  0  0
    0.1258   -3.1725    0.0000 C   0  0  0  0  0  0  0  0  0
    0.8403   -2.7600    0.0000 C   0  0  0  0  0  0  0  0  0
    0.8403   -1.9350    0.0000 C   0  0  0  0  0  0  0  0  0
    1.5547   -1.5225    0.0000 O   0  0  0  0  0  0  0  0  0
    1.5547   -0.6975    0.0000 C   0  0  0  0  0  0  0  0  0
    0.8403   -0.2850    0.0000 C   0  0  0  0  0  0  0  0  0
    0.8403    0.5400    0.0000 C   0  0  0  0  0  0  0  0  0
    1.5547    0.9525    0.0000 N   0  0  0  0  0  0  0  0  0
    1.5547    1.7775    0.0000 C   0  0  0  0  0  0  0  0  0
    2.2692    2.1900    0.0000 C   0  0  0  0  0  0  0  0  0
    2.9837    1.7775    0.0000 N   0  0  0  0  0  0  0  0  0
    2.9837    0.9525    0.0000 C   0  0  0  0  0  0  0  0  0
    2.2692    0.5400    0.0000 C   0  0  0  0  0  0  0  0  0
    2.2692   -0.2850    0.0000 C   0  0  0  0  0  0  0  0  0
    3.6981    2.1900    0.0000 C   0  0  0  0  0  0  0  0  0
    4.4126    1.7775    0.0000 N   0  0  0  0  0  0  0  0  0
    5.1271    2.1900    0.0000 C   0  0  0  0  0  0  0  0  0
    5.1271    3.0150    0.0000 C   0  0  0  0  0  0  0  0  0
    4.4126    3.4275    0.0000 C   0  0  0  0  0  0  0  0  0
    3.6981    3.0150    0.0000 C   0  0  0  0  0  0  0  0  0
    5.8416    3.4275    0.0000 C   0  0  0  0  0  0  0  0  0
    6.5560    3.0150    0.0000 C   0  0  0  0  0  0  0  0  0
    6.5560    2.1900    0.0000 C   0  0  0  0  0  0  0  0  0
    5.8416    1.7775    0.0000 C   0  0  0  0  0  0  0  0  0
  1  2  1  0  0  0  0
  1 15  1  0  0  0  0
  2  3  4  0  0  0  0
  2 12  4  0  0  0  0
  3  4  4  0  0  0  0
  3  8  4  0  0  0  0
  4  5  4  0  0  0  0
  4 10  4  0  0  0  0
  5  6  4  0  0  0  0
  6  7  4  0  0  0  0
  6  9  1  0  0  0  0
  7  8  4  0  0  0  0
 10 11  4  0  0  0  0
 11 12  4  0  0  0  0
 12 13  1  0  0  0  0
 13 14  1  0  0  0  0
 14 15  1  0  0  0  0
 15 16  1  0  0  0  0
 16 17  1  0  0  0  0
 17 18  1  0  0  0  0
 17 22  1  0  0  0  0
 18 19  1  0  0  0  0
 19 20  1  0  0  0  0
 20 21  1  0  0  0  0
 20 24  1  0  0  0  0
 21 22  1  0  0  0  0
 22 23  1  0  0  0  0
 24 25  4  0  0  0  0
 24 29  4  0  0  0  0
 25 26  4  0  0  0  0
 26 27  4  0  0  0  0
 26 33  4  0  0  0  0
 27 28  4  0  0  0  0
 27 30  4  0  0  0  0
 28 29  4  0  0  0  0
 30 31  4  0  0  0  0
 31 32  4  0  0  0  0
 32 33  4  0  0  0  0
M  END
>  <Name_Molregno>
563559

>  <5-HT1A>
7.52

$$$$
563563
  Marvin  02231216192D 0   1.00000     0.00000     0

 33 38  0  0  1  0  0  0  0  0999 V2000
    0.5139   -1.2372    0.0000 O   0  0  0  0  0  0  0  0  0
   -0.3088   -1.1756    0.0000 C   0  0  0  0  0  0  0  0  0
   -0.6667   -0.4323    0.0000 C   0  0  0  0  0  0  0  0  0
   -1.4894   -0.3706    0.0000 C   0  0  0  0  0  0  0  0  0
   -1.8474    0.3727    0.0000 N   0  0  0  0  0  0  0  0  0
   -1.3826    1.0543    0.0000 C   0  0  0  0  0  0  0  0  0
   -0.5600    0.9927    0.0000 C   0  0  0  0  0  0  0  0  0
   -0.2020    0.2494    0.0000 C   0  0  0  0  0  0  0  0  0
   -1.7406    1.7976    0.0000 C   0  0  0  0  0  0  0  0  0
   -1.9542   -1.0523    0.0000 C   0  0  0  0  0  0  0  0  0
   -1.5962   -1.7956    0.0000 C   0  0  0  0  0  0  0  0  0
   -0.7735   -1.8572    0.0000 C   0  0  0  0  0  0  0  0  0
   -0.4156   -2.6005    0.0000 O   0  0  0  0  0  0  0  0  0
    0.4071   -2.6622    0.0000 C   0  0  0  0  0  0  0  0  0
    0.8719   -1.9805    0.0000 C   0  0  0  0  0  0  0  0  0
    1.6946   -2.0422    0.0000 C   0  0  0  0  0  0  0  0  0
    2.1593   -1.3605    0.0000 N   0  0  0  0  0  0  0  0  0
    1.7468   -0.6461    0.0000 C   0  0  0  0  0  0  0  0  0
    2.0482    0.1219    0.0000 C   0  0  0  0  0  0  0  0  0
    2.8366    0.3651    0.0000 C   0  0  0  0  0  0  0  0  0
    3.5182   -0.0997    0.0000 N   0  0  0  0  0  0  0  0  0
    3.5798   -0.9224    0.0000 C   0  0  0  0  0  0  0  0  0
    2.9751   -1.4835    0.0000 C   0  0  0  0  0  0  0  0  0
    4.2327    0.3128    0.0000 C   0  0  0  0  0  0  0  0  0
    4.9471   -0.0997    0.0000 N   0  0  0  0  0  0  0  0  0
    5.6616    0.3128    0.0000 C   0  0  0  0  0  0  0  0  0
    5.6616    1.1378    0.0000 C   0  0  0  0  0  0  0  0  0
    4.9471    1.5503    0.0000 C   0  0  0  0  0  0  0  0  0
    4.2327    1.1378    0.0000 C   0  0  0  0  0  0  0  0  0
    6.3761    1.5503    0.0000 C   0  0  0  0  0  0  0  0  0
    7.0906    1.1378    0.0000 C   0  0  0  0  0  0  0  0  0
    7.0906    0.3128    0.0000 C   0  0  0  0  0  0  0  0  0
    6.3761   -0.0997    0.0000 C   0  0  0  0  0  0  0  0  0
  1  2  1  0  0  0  0
  1 15  1  0  0  0  0
  2  3  4  0  0  0  0
  2 12  4  0  0  0  0
  3  4  4  0  0  0  0
  3  8  4  0  0  0  0
  4  5  4  0  0  0  0
  4 10  4  0  0  0  0
  5  6  4  0  0  0  0
  6  7  4  0  0  0  0
  6  9  1  0  0  0  0
  7  8  4  0  0  0  0
 10 11  4  0  0  0  0
 11 12  4  0  0  0  0
 12 13  1  0  0  0  0
 13 14  1  0  0  0  0
 14 15  1  0  0  0  0
 15 16  1  0  0  0  0
 16 17  1  0  0  0  0
 17 18  1  0  0  0  0
 17 23  1  0  0  0  0
 18 19  1  0  0  0  0
 19 20  1  0  0  0  0
 20 21  1  0  0  0  0
 21 22  1  0  0  0  0
 21 24  1  0  0  0  0
 22 23  1  0  0  0  0
 24 25  4  0  0  0  0
 24 29  4  0  0  0  0
 25 26  4  0  0  0  0
 26 27  4  0  0  0  0
 26 33  4  0  0  0  0
 27 28  4  0  0  0  0
 27 30  4  0  0  0  0
 28 29  4  0  0  0  0
 30 31  4  0  0  0  0
 31 32  4  0  0  0  0
 32 33  4  0  0  0  0
M  END
>  <Name_Molregno>
563563

>  <5-HT1A>
8.17

$$$$
563576
  Marvin  02231216192D 0   1.00000     0.00000     0

 34 39  0  0  1  0  0  0  0  0999 V2000
    0.1362   -2.8575    0.0000 F   0  0  0  0  0  0  0  0  0
    0.8795   -2.4996    0.0000 C   0  0  0  0  0  0  0  0  0
    1.5611   -2.9643    0.0000 C   0  0  0  0  0  0  0  0  0
    2.3044   -2.6063    0.0000 C   0  0  0  0  0  0  0  0  0
    2.3661   -1.7837    0.0000 C   0  0  0  0  0  0  0  0  0
    3.1094   -1.4257    0.0000 N   0  0  0  0  0  0  0  0  0
    3.7910   -1.8904    0.0000 C   0  0  0  0  0  0  0  0  0
    4.5343   -1.5325    0.0000 N   0  0  0  0  0  0  0  0  0
    4.5343   -0.7075    0.0000 C   0  0  0  0  0  0  0  0  0
    5.1793   -0.1931    0.0000 C   0  0  0  0  0  0  0  0  0
    5.9836   -0.3767    0.0000 C   0  0  0  0  0  0  0  0  0
    6.3416   -1.1200    0.0000 N   0  0  0  0  0  0  0  0  0
    5.9836   -1.8633    0.0000 C   0  0  0  0  0  0  0  0  0
    5.1793   -2.0469    0.0000 C   0  0  0  0  0  0  0  0  0
    7.1666   -1.1200    0.0000 C   0  0  0  0  0  0  0  0  0
    7.5791   -0.4055    0.0000 C   0  0  0  0  0  0  0  0  0
    8.4041   -0.4055    0.0000 O   0  0  0  0  0  0  0  0  0
    8.8166    0.3090    0.0000 C   0  0  0  0  0  0  0  0  0
    9.6416    0.3090    0.0000 C   0  0  0  0  0  0  0  0  0
   10.0541    1.0234    0.0000 C   0  0  0  0  0  0  0  0  0
   10.8791    1.0234    0.0000 N   0  0  0  0  0  0  0  0  0
   11.2916    0.3090    0.0000 C   0  0  0  0  0  0  0  0  0
   10.8791   -0.4055    0.0000 C   0  0  0  0  0  0  0  0  0
   10.0541   -0.4055    0.0000 C   0  0  0  0  0  0  0  0  0
   12.1166    0.3090    0.0000 C   0  0  0  0  0  0  0  0  0
    9.6416    1.7379    0.0000 C   0  0  0  0  0  0  0  0  0
    8.8166    1.7379    0.0000 C   0  0  0  0  0  0  0  0  0
    8.4041    1.0234    0.0000 C   0  0  0  0  0  0  0  0  0
    7.5791    1.0234    0.0000 O   0  0  0  0  0  0  0  0  0
    7.1666    0.3090    0.0000 C   0  0  0  0  0  0  0  0  0
    3.7294   -2.7131    0.0000 C   0  0  0  0  0  0  0  0  0
    2.9861   -3.0711    0.0000 C   0  0  0  0  0  0  0  0  0
    1.6844   -1.3189    0.0000 C   0  0  0  0  0  0  0  0  0
    0.9411   -1.6769    0.0000 C   0  0  0  0  0  0  0  0  0
  1  2  1  0  0  0  0
  2  3  4  0  0  0  0
  2 34  4  0  0  0  0
  3  4  4  0  0  0  0
  4  5  4  0  0  0  0
  4 32  4  0  0  0  0
  5  6  4  0  0  0  0
  5 33  4  0  0  0  0
  6  7  4  0  0  0  0
  7  8  1  0  0  0  0
  7 31  4  0  0  0  0
  8  9  1  0  0  0  0
  8 14  1  0  0  0  0
  9 10  1  0  0  0  0
 10 11  1  0  0  0  0
 11 12  1  0  0  0  0
 12 13  1  0  0  0  0
 12 15  1  0  0  0  0
 13 14  1  0  0  0  0
 15 16  1  0  0  0  0
 16 17  1  0  0  0  0
 16 30  1  0  0  0  0
 17 18  1  0  0  0  0
 18 19  4  0  0  0  0
 18 28  4  0  0  0  0
 19 20  4  0  0  0  0
 19 24  4  0  0  0  0
 20 21  4  0  0  0  0
 20 26  4  0  0  0  0
 21 22  4  0  0  0  0
 22 23  4  0  0  0  0
 22 25  1  0  0  0  0
 23 24  4  0  0  0  0
 26 27  4  0  0  0  0
 27 28  4  0  0  0  0
 28 29  1  0  0  0  0
 29 30  1  0  0  0  0
 31 32  4  0  0  0  0
 33 34  4  0  0  0  0
M  END
>  <Name_Molregno>
563576

>  <5-HT1A>
8.82

$$$$
565343
  Marvin  02231216192D 0   1.00000     0.00000     0

 34 39  0  0  1  0  0  0  0  0999 V2000
    0.1810   -1.2147    0.0000 O   0  0  0  0  0  0  0  0  0
    0.1810   -2.0397    0.0000 C   0  0  0  0  0  0  0  0  0
   -0.5335   -2.4522    0.0000 C   0  0  0  0  0  0  0  0  0
   -0.5335   -3.2772    0.0000 C   0  0  0  0  0  0  0  0  0
   -1.2480   -3.6897    0.0000 N   0  0  0  0  0  0  0  0  0
   -1.9624   -3.2772    0.0000 C   0  0  0  0  0  0  0  0  0
   -1.9624   -2.4522    0.0000 C   0  0  0  0  0  0  0  0  0
   -1.2480   -2.0397    0.0000 C   0  0  0  0  0  0  0  0  0
   -2.6769   -3.6897    0.0000 C   0  0  0  0  0  0  0  0  0
    0.1810   -3.6897    0.0000 C   0  0  0  0  0  0  0  0  0
    0.8954   -3.2772    0.0000 C   0  0  0  0  0  0  0  0  0
    0.8954   -2.4522    0.0000 C   0  0  0  0  0  0  0  0  0
    1.6099   -2.0397    0.0000 O   0  0  0  0  0  0  0  0  0
    1.6099   -1.2147    0.0000 C   0  0  0  0  0  0  0  0  0
    0.8954   -0.8022    0.0000 C   0  0  0  0  0  0  0  0  0
    0.8954    0.0228    0.0000 C   0  0  0  0  0  0  0  0  0
    1.6099    0.4353    0.0000 N   0  0  0  0  0  0  0  0  0
    1.6099    1.2603    0.0000 C   0  0  0  0  0  0  0  0  0
    2.3244    1.6728    0.0000 C   0  0  0  0  0  0  0  0  0
    3.0389    1.2603    0.0000 N   0  0  0  0  0  0  0  0  0
    3.0389    0.4353    0.0000 C   0  0  0  0  0  0  0  0  0
    2.3244    0.0228    0.0000 C   0  0  0  0  0  0  0  0  0
    3.7533    1.6728    0.0000 C   0  0  0  0  0  0  0  0  0
    4.4678    1.2603    0.0000 N   0  0  0  0  0  0  0  0  0
    5.1823    1.6728    0.0000 C   0  0  0  0  0  0  0  0  0
    5.1823    2.4978    0.0000 C   0  0  0  0  0  0  0  0  0
    5.8967    2.9103    0.0000 C   0  0  0  0  0  0  0  0  0
    6.6112    2.4978    0.0000 C   0  0  0  0  0  0  0  0  0
    6.6112    1.6728    0.0000 C   0  0  0  0  0  0  0  0  0
    5.8967    1.2603    0.0000 C   0  0  0  0  0  0  0  0  0
    7.3257    2.9103    0.0000 C   0  0  0  0  0  0  0  0  0
    8.0401    3.3228    0.0000 N   0  0  0  0  0  0  0  0  0
    4.4678    2.9103    0.0000 C   0  0  0  0  0  0  0  0  0
    3.7533    2.4978    0.0000 C   0  0  0  0  0  0  0  0  0
  1  2  1  0  0  0  0
  1 15  1  0  0  0  0
  2  3  4  0  0  0  0
  2 12  4  0  0  0  0
  3  4  4  0  0  0  0
  3  8  4  0  0  0  0
  4  5  4  0  0  0  0
  4 10  4  0  0  0  0
  5  6  4  0  0  0  0
  6  7  4  0  0  0  0
  6  9  1  0  0  0  0
  7  8  4  0  0  0  0
 10 11  4  0  0  0  0
 11 12  4  0  0  0  0
 12 13  1  0  0  0  0
 13 14  1  0  0  0  0
 14 15  1  0  0  0  0
 15 16  1  0  0  0  0
 16 17  1  0  0  0  0
 17 18  1  0  0  0  0
 17 22  1  0  0  0  0
 18 19  1  0  0  0  0
 19 20  1  0  0  0  0
 20 21  1  0  0  0  0
 20 23  1  0  0  0  0
 21 22  1  0  0  0  0
 23 24  4  0  0  0  0
 23 34  4  0  0  0  0
 24 25  4  0  0  0  0
 25 26  4  0  0  0  0
 25 30  4  0  0  0  0
 26 27  4  0  0  0  0
 26 33  4  0  0  0  0
 27 28  4  0  0  0  0
 28 29  4  0  0  0  0
 28 31  1  0  0  0  0
 29 30  4  0  0  0  0
 31 32  3  0  0  0  0
 33 34  4  0  0  0  0
M  END
>  <Name_Molregno>
565343

>  <5-HT1A>
8.43

>  <DOPAMINE D2>
5.88

>  <DOPAMINE D3>
5.88

>  <DOPAMINE D4>
5.85

$$$$
567175
  Marvin  02231216192D 0   1.00000     0.00000     0

 35 40  0  0  1  0  0  0  0  0999 V2000
    0.2036   -1.3019    0.0000 O   0  0  0  0  0  0  0  0  0
    0.2036   -2.1269    0.0000 C   0  0  0  0  0  0  0  0  0
   -0.5108   -2.5394    0.0000 C   0  0  0  0  0  0  0  0  0
   -0.5108   -3.3644    0.0000 C   0  0  0  0  0  0  0  0  0
   -1.2253   -3.7769    0.0000 N   0  0  0  0  0  0  0  0  0
   -1.9398   -3.3644    0.0000 C   0  0  0  0  0  0  0  0  0
   -1.9398   -2.5394    0.0000 C   0  0  0  0  0  0  0  0  0
   -1.2253   -2.1269    0.0000 C   0  0  0  0  0  0  0  0  0
   -2.6543   -3.7769    0.0000 C   0  0  0  0  0  0  0  0  0
    0.2036   -3.7769    0.0000 C   0  0  0  0  0  0  0  0  0
    0.9181   -3.3644    0.0000 C   0  0  0  0  0  0  0  0  0
    0.9181   -2.5394    0.0000 C   0  0  0  0  0  0  0  0  0
    1.6326   -2.1269    0.0000 O   0  0  0  0  0  0  0  0  0
    1.6326   -1.3019    0.0000 C   0  0  0  0  0  0  0  0  0
    0.9181   -0.8894    0.0000 C   0  0  0  0  0  0  0  0  0
    0.9181   -0.0644    0.0000 C   0  0  0  0  0  0  0  0  0
    1.6326    0.3481    0.0000 N   0  0  0  0  0  0  0  0  0
    1.6326    1.1731    0.0000 C   0  0  0  0  0  0  0  0  0
    2.3470    1.5856    0.0000 C   0  0  0  0  0  0  0  0  0
    3.0615    1.1731    0.0000 N   0  0  0  0  0  0  0  0  0
    3.0615    0.3481    0.0000 C   0  0  0  0  0  0  0  0  0
    2.3470   -0.0644    0.0000 C   0  0  0  0  0  0  0  0  0
    3.7760    1.5856    0.0000 C   0  0  0  0  0  0  0  0  0
    4.4905    1.1731    0.0000 N   0  0  0  0  0  0  0  0  0
    5.2049    1.5856    0.0000 C   0  0  0  0  0  0  0  0  0
    5.2049    2.4106    0.0000 C   0  0  0  0  0  0  0  0  0
    5.9194    2.8231    0.0000 C   0  0  0  0  0  0  0  0  0
    6.6339    2.4106    0.0000 C   0  0  0  0  0  0  0  0  0
    7.3483    2.8231    0.0000 N   0  3  0  0  0  0  0  0  0
    7.3483    3.6481    0.0000 O   0  5  0  0  0  0  0  0  0
    8.0628    2.4106    0.0000 O   0  5  0  0  0  0  0  0  0
    6.6339    1.5856    0.0000 C   0  0  0  0  0  0  0  0  0
    5.9194    1.1731    0.0000 C   0  0  0  0  0  0  0  0  0
    4.4905    2.8231    0.0000 C   0  0  0  0  0  0  0  0  0
    3.7760    2.4106    0.0000 C   0  0  0  0  0  0  0  0  0
  1  2  1  0  0  0  0
  1 15  1  0  0  0  0
  2  3  4  0  0  0  0
  2 12  4  0  0  0  0
  3  4  4  0  0  0  0
  3  8  4  0  0  0  0
  4  5  4  0  0  0  0
  4 10  4  0  0  0  0
  5  6  4  0  0  0  0
  6  7  4  0  0  0  0
  6  9  1  0  0  0  0
  7  8  4  0  0  0  0
 10 11  4  0  0  0  0
 11 12  4  0  0  0  0
 12 13  1  0  0  0  0
 13 14  1  0  0  0  0
 14 15  1  0  0  0  0
 15 16  1  0  0  0  0
 16 17  1  0  0  0  0
 17 18  1  0  0  0  0
 17 22  1  0  0  0  0
 18 19  1  0  0  0  0
 19 20  1  0  0  0  0
 20 21  1  0  0  0  0
 20 23  1  0  0  0  0
 21 22  1  0  0  0  0
 23 24  4  0  0  0  0
 23 35  4  0  0  0  0
 24 25  4  0  0  0  0
 25 26  4  0  0  0  0
 25 33  4  0  0  0  0
 26 27  4  0  0  0  0
 26 34  4  0  0  0  0
 27 28  4  0  0  0  0
 28 29  1  0  0  0  0
 28 32  4  0  0  0  0
 29 30  1  0  0  0  0
 29 31  1  0  0  0  0
 32 33  4  0  0  0  0
 34 35  4  0  0  0  0
M  CHG  3  29   1  30  -1  31  -1
M  END
>  <Name_Molregno>
567175

>  <5-HT1A>
7.7

$$$$
571251
  Marvin  02231216192D 0   1.00000     0.00000     0

 31 34  0  0  0  0  0  0  0  0999 V2000
    6.7254   -0.8970    0.0000 O   0  0  0  0  0  0  0  0  0
    7.4399   -0.4845    0.0000 C   0  0  0  0  0  0  0  0  0
    6.7254   -1.7220    0.0000 C   0  0  0  0  0  0  0  0  0
    7.4399   -2.1345    0.0000 C   0  0  0  0  0  0  0  0  0
    7.4399   -2.9595    0.0000 C   0  0  0  0  0  0  0  0  0
    6.7254   -3.3720    0.0000 C   0  0  0  0  0  0  0  0  0
    6.0109   -2.9595    0.0000 C   0  0  0  0  0  0  0  0  0
    6.0109   -2.1345    0.0000 C   0  0  0  0  0  0  0  0  0
    5.2964   -1.7220    0.0000 N   0  0  0  0  0  0  0  0  0
    4.5820   -2.1345    0.0000 C   0  0  0  0  0  0  0  0  0
    3.8675   -1.7220    0.0000 C   0  0  0  0  0  0  0  0  0
    3.8675   -0.8970    0.0000 N   0  0  0  0  0  0  0  0  0
    4.5820   -0.4845    0.0000 C   0  0  0  0  0  0  0  0  0
    5.2964   -0.8970    0.0000 C   0  0  0  0  0  0  0  0  0
    3.1530   -0.4845    0.0000 C   0  0  0  0  0  0  0  0  0
    3.1530    0.3405    0.0000 C   0  0  0  0  0  0  0  0  0
    2.4386    0.7530    0.0000 C   0  0  0  0  0  0  0  0  0
    2.4386    1.5780    0.0000 N   0  0  0  0  0  0  0  0  0
    1.7241    1.9905    0.0000 N   0  0  0  0  0  0  0  0  0
    1.7241    2.8155    0.0000 C   0  0  0  0  0  0  0  0  0
    1.0096    3.2280    0.0000 O   0  0  0  0  0  0  0  0  0
    2.4386    3.2280    0.0000 C   0  0  0  0  0  0  0  0  0
    3.1530    2.8155    0.0000 C   0  0  0  0  0  0  0  0  0
    3.1530    1.9905    0.0000 C   0  0  0  0  0  0  0  0  0
    3.8675    1.5780    0.0000 O   0  0  0  0  0  0  0  0  0
    1.0096    1.5780    0.0000 C   0  0  0  0  0  0  0  0  0
    1.0096    0.7530    0.0000 C   0  0  0  0  0  0  0  0  0
    0.2951    0.3405    0.0000 C   0  0  0  0  0  0  0  0  0
   -0.4193    0.7530    0.0000 C   0  0  0  0  0  0  0  0  0
   -0.4193    1.5780    0.0000 C   0  0  0  0  0  0  0  0  0
    0.2951    1.9905    0.0000 C   0  0  0  0  0  0  0  0  0
  1  2  1  0  0  0  0
  1  3  1  0  0  0  0
  3  4  4  0  0  0  0
  3  8  4  0  0  0  0
  4  5  4  0  0  0  0
  5  6  4  0  0  0  0
  6  7  4  0  0  0  0
  7  8  4  0  0  0  0
  8  9  1  0  0  0  0
  9 10  1  0  0  0  0
  9 14  1  0  0  0  0
 10 11  1  0  0  0  0
 11 12  1  0  0  0  0
 12 13  1  0  0  0  0
 12 15  1  0  0  0  0
 13 14  1  0  0  0  0
 15 16  1  0  0  0  0
 16 17  1  0  0  0  0
 17 18  1  0  0  0  0
 18 19  1  0  0  0  0
 18 24  1  0  0  0  0
 19 20  1  0  0  0  0
 19 26  1  0  0  0  0
 20 21  2  0  0  0  0
 20 22  1  0  0  0  0
 22 23  2  0  0  0  0
 23 24  1  0  0  0  0
 24 25  2  0  0  0  0
 26 27  4  0  0  0  0
 26 31  4  0  0  0  0
 27 28  4  0  0  0  0
 28 29  4  0  0  0  0
 29 30  4  0  0  0  0
 30 31  4  0  0  0  0
M  END
>  <Name_Molregno>
571251

>  <5-HT1A>
7.27

$$$$
571252
  Marvin  02231216192D 0   1.00000     0.00000     0

 30 33  0  0  0  0  0  0  0  0999 V2000
    1.8637    4.8815    0.0000 Cl  0  0  0  0  0  0  0  0  0
    1.8637    4.0565    0.0000 C   0  0  0  0  0  0  0  0  0
    2.5782    3.6440    0.0000 C   0  0  0  0  0  0  0  0  0
    2.5782    2.8190    0.0000 C   0  0  0  0  0  0  0  0  0
    3.2927    2.4065    0.0000 N   0  0  0  0  0  0  0  0  0
    4.0071    2.8190    0.0000 C   0  0  0  0  0  0  0  0  0
    4.7216    2.4065    0.0000 C   0  0  0  0  0  0  0  0  0
    4.7216    1.5815    0.0000 N   0  0  0  0  0  0  0  0  0
    4.0071    1.1690    0.0000 C   0  0  0  0  0  0  0  0  0
    3.2927    1.5815    0.0000 C   0  0  0  0  0  0  0  0  0
    5.4361    1.1690    0.0000 C   0  0  0  0  0  0  0  0  0
    5.4361    0.3440    0.0000 C   0  0  0  0  0  0  0  0  0
    6.1506   -0.0685    0.0000 C   0  0  0  0  0  0  0  0  0
    6.1506   -0.8935    0.0000 N   0  0  0  0  0  0  0  0  0
    6.8650   -1.3060    0.0000 N   0  0  0  0  0  0  0  0  0
    6.8650   -2.1310    0.0000 C   0  0  0  0  0  0  0  0  0
    7.5795   -2.5435    0.0000 O   0  0  0  0  0  0  0  0  0
    6.1506   -2.5435    0.0000 C   0  0  0  0  0  0  0  0  0
    5.4361   -2.1310    0.0000 C   0  0  0  0  0  0  0  0  0
    5.4361   -1.3060    0.0000 C   0  0  0  0  0  0  0  0  0
    4.7216   -0.8935    0.0000 O   0  0  0  0  0  0  0  0  0
    7.5795   -0.8935    0.0000 C   0  0  0  0  0  0  0  0  0
    7.5795   -0.0685    0.0000 C   0  0  0  0  0  0  0  0  0
    8.2940    0.3440    0.0000 C   0  0  0  0  0  0  0  0  0
    9.0084   -0.0685    0.0000 C   0  0  0  0  0  0  0  0  0
    9.0084   -0.8935    0.0000 C   0  0  0  0  0  0  0  0  0
    8.2940   -1.3060    0.0000 C   0  0  0  0  0  0  0  0  0
    1.8637    2.4065    0.0000 C   0  0  0  0  0  0  0  0  0
    1.1493    2.8190    0.0000 C   0  0  0  0  0  0  0  0  0
    1.1493    3.6440    0.0000 C   0  0  0  0  0  0  0  0  0
  1  2  1  0  0  0  0
  2  3  4  0  0  0  0
  2 30  4  0  0  0  0
  3  4  4  0  0  0  0
  4  5  1  0  0  0  0
  4 28  4  0  0  0  0
  5  6  1  0  0  0  0
  5 10  1  0  0  0  0
  6  7  1  0  0  0  0
  7  8  1  0  0  0  0
  8  9  1  0  0  0  0
  8 11  1  0  0  0  0
  9 10  1  0  0  0  0
 11 12  1  0  0  0  0
 12 13  1  0  0  0  0
 13 14  1  0  0  0  0
 14 15  1  0  0  0  0
 14 20  1  0  0  0  0
 15 16  1  0  0  0  0
 15 22  1  0  0  0  0
 16 17  2  0  0  0  0
 16 18  1  0  0  0  0
 18 19  2  0  0  0  0
 19 20  1  0  0  0  0
 20 21  2  0  0  0  0
 22 23  4  0  0  0  0
 22 27  4  0  0  0  0
 23 24  4  0  0  0  0
 24 25  4  0  0  0  0
 25 26  4  0  0  0  0
 26 27  4  0  0  0  0
 28 29  4  0  0  0  0
 29 30  4  0  0  0  0
M  END
>  <Name_Molregno>
571252

>  <5-HT1A>
6.69

$$$$
571258
  Marvin  02231216192D 0   1.00000     0.00000     0

 32 35  0  0  0  0  0  0  0  0999 V2000
    0.1027    0.8584    0.0000 O   0  0  0  0  0  0  0  0  0
    0.8172    1.2709    0.0000 C   0  0  0  0  0  0  0  0  0
    0.1027    0.0334    0.0000 C   0  0  0  0  0  0  0  0  0
    0.8172   -0.3791    0.0000 C   0  0  0  0  0  0  0  0  0
    0.8172   -1.2041    0.0000 C   0  0  0  0  0  0  0  0  0
    0.1027   -1.6166    0.0000 C   0  0  0  0  0  0  0  0  0
   -0.6117   -1.2041    0.0000 C   0  0  0  0  0  0  0  0  0
   -0.6117   -0.3791    0.0000 C   0  0  0  0  0  0  0  0  0
   -1.3262    0.0334    0.0000 N   0  0  0  0  0  0  0  0  0
   -2.0407   -0.3791    0.0000 C   0  0  0  0  0  0  0  0  0
   -2.7552    0.0334    0.0000 C   0  0  0  0  0  0  0  0  0
   -2.7552    0.8584    0.0000 N   0  0  0  0  0  0  0  0  0
   -2.0407    1.2709    0.0000 C   0  0  0  0  0  0  0  0  0
   -1.3262    0.8584    0.0000 C   0  0  0  0  0  0  0  0  0
   -3.4696    1.2709    0.0000 C   0  0  0  0  0  0  0  0  0
   -4.1841    0.8584    0.0000 C   0  0  0  0  0  0  0  0  0
   -4.8986    1.2709    0.0000 C   0  0  0  0  0  0  0  0  0
   -5.6130    0.8584    0.0000 C   0  0  0  0  0  0  0  0  0
   -6.3275    1.2709    0.0000 N   0  0  0  0  0  0  0  0  0
   -7.0420    0.8584    0.0000 N   0  0  0  0  0  0  0  0  0
   -7.7565    1.2709    0.0000 C   0  0  0  0  0  0  0  0  0
   -8.4709    0.8584    0.0000 O   0  0  0  0  0  0  0  0  0
   -7.7565    2.0959    0.0000 C   0  0  0  0  0  0  0  0  0
   -7.0420    2.5084    0.0000 C   0  0  0  0  0  0  0  0  0
   -6.3275    2.0959    0.0000 C   0  0  0  0  0  0  0  0  0
   -5.6130    2.5084    0.0000 O   0  0  0  0  0  0  0  0  0
   -7.0420    0.0334    0.0000 C   0  0  0  0  0  0  0  0  0
   -6.3275   -0.3791    0.0000 C   0  0  0  0  0  0  0  0  0
   -6.3275   -1.2041    0.0000 C   0  0  0  0  0  0  0  0  0
   -7.0420   -1.6166    0.0000 C   0  0  0  0  0  0  0  0  0
   -7.7565   -1.2041    0.0000 C   0  0  0  0  0  0  0  0  0
   -7.7565   -0.3791    0.0000 C   0  0  0  0  0  0  0  0  0
  1  2  1  0  0  0  0
  1  3  1  0  0  0  0
  3  4  4  0  0  0  0
  3  8  4  0  0  0  0
  4  5  4  0  0  0  0
  5  6  4  0  0  0  0
  6  7  4  0  0  0  0
  7  8  4  0  0  0  0
  8  9  1  0  0  0  0
  9 10  1  0  0  0  0
  9 14  1  0  0  0  0
 10 11  1  0  0  0  0
 11 12  1  0  0  0  0
 12 13  1  0  0  0  0
 12 15  1  0  0  0  0
 13 14  1  0  0  0  0
 15 16  1  0  0  0  0
 16 17  1  0  0  0  0
 17 18  1  0  0  0  0
 18 19  1  0  0  0  0
 19 20  1  0  0  0  0
 19 25  1  0  0  0  0
 20 21  1  0  0  0  0
 20 27  1  0  0  0  0
 21 22  2  0  0  0  0
 21 23  1  0  0  0  0
 23 24  2  0  0  0  0
 24 25  1  0  0  0  0
 25 26  2  0  0  0  0
 27 28  4  0  0  0  0
 27 32  4  0  0  0  0
 28 29  4  0  0  0  0
 29 30  4  0  0  0  0
 30 31  4  0  0  0  0
 31 32  4  0  0  0  0
M  END
>  <Name_Molregno>
571258

>  <5-HT1A>
7.96

$$$$
571259
  Marvin  02231216192D 0   1.00000     0.00000     0

 28 31  0  0  0  0  0  0  0  0999 V2000
    1.8996    3.5768    0.0000 Cl  0  0  0  0  0  0  0  0  0
    1.8996    2.7518    0.0000 C   0  0  0  0  0  0  0  0  0
    2.6141    2.3393    0.0000 C   0  0  0  0  0  0  0  0  0
    2.6141    1.5143    0.0000 C   0  0  0  0  0  0  0  0  0
    3.3286    1.1018    0.0000 N   0  0  0  0  0  0  0  0  0
    4.0430    1.5143    0.0000 C   0  0  0  0  0  0  0  0  0
    4.7575    1.1018    0.0000 C   0  0  0  0  0  0  0  0  0
    4.7575    0.2768    0.0000 N   0  0  0  0  0  0  0  0  0
    4.0430   -0.1357    0.0000 C   0  0  0  0  0  0  0  0  0
    3.3286    0.2768    0.0000 C   0  0  0  0  0  0  0  0  0
    5.4720   -0.1357    0.0000 C   0  0  0  0  0  0  0  0  0
    5.4720   -0.9607    0.0000 C   0  0  0  0  0  0  0  0  0
    6.1864   -1.3732    0.0000 C   0  0  0  0  0  0  0  0  0
    6.1864   -2.1982    0.0000 C   0  0  0  0  0  0  0  0  0
    6.9009   -2.6107    0.0000 N   0  0  0  0  0  0  0  0  0
    6.9009   -3.4357    0.0000 C   0  0  0  0  0  0  0  0  0
    7.6154   -3.8482    0.0000 N   0  0  0  0  0  0  0  0  0
    8.3298   -3.4357    0.0000 C   0  0  0  0  0  0  0  0  0
    8.3298   -2.6107    0.0000 C   0  0  0  0  0  0  0  0  0
    9.0443   -2.1982    0.0000 C   0  0  0  0  0  0  0  0  0
    9.7588   -2.6107    0.0000 C   0  0  0  0  0  0  0  0  0
    9.7588   -3.4357    0.0000 C   0  0  0  0  0  0  0  0  0
    9.0443   -3.8482    0.0000 C   0  0  0  0  0  0  0  0  0
    7.6154   -2.1982    0.0000 C   0  0  0  0  0  0  0  0  0
    7.6154   -1.3732    0.0000 O   0  0  0  0  0  0  0  0  0
    1.8996    1.1018    0.0000 C   0  0  0  0  0  0  0  0  0
    1.1851    1.5143    0.0000 C   0  0  0  0  0  0  0  0  0
    1.1851    2.3393    0.0000 C   0  0  0  0  0  0  0  0  0
  1  2  1  0  0  0  0
  2  3  4  0  0  0  0
  2 28  4  0  0  0  0
  3  4  4  0  0  0  0
  4  5  1  0  0  0  0
  4 26  4  0  0  0  0
  5  6  1  0  0  0  0
  5 10  1  0  0  0  0
  6  7  1  0  0  0  0
  7  8  1  0  0  0  0
  8  9  1  0  0  0  0
  8 11  1  0  0  0  0
  9 10  1  0  0  0  0
 11 12  1  0  0  0  0
 12 13  1  0  0  0  0
 13 14  1  0  0  0  0
 14 15  1  0  0  0  0
 15 16  1  0  0  0  0
 15 24  1  0  0  0  0
 16 17  2  0  0  0  0
 17 18  1  0  0  0  0
 18 19  4  0  0  0  0
 18 23  4  0  0  0  0
 19 20  4  0  0  0  0
 19 24  1  0  0  0  0
 20 21  4  0  0  0  0
 21 22  4  0  0  0  0
 22 23  4  0  0  0  0
 24 25  2  0  0  0  0
 26 27  4  0  0  0  0
 27 28  4  0  0  0  0
M  END
>  <Name_Molregno>
571259

>  <5-HT1A>
7.3

$$$$
571269
  Marvin  02231216192D 0   1.00000     0.00000     0

 28 31  0  0  0  0  0  0  0  0999 V2000
   -6.0260    2.1161    0.0000 O   0  0  0  0  0  0  0  0  0
   -6.7405    2.5286    0.0000 C   0  0  0  0  0  0  0  0  0
   -5.3116    2.5286    0.0000 C   0  0  0  0  0  0  0  0  0
   -5.3116    3.3536    0.0000 C   0  0  0  0  0  0  0  0  0
   -4.5971    3.7661    0.0000 C   0  0  0  0  0  0  0  0  0
   -3.8826    3.3536    0.0000 C   0  0  0  0  0  0  0  0  0
   -3.8826    2.5286    0.0000 C   0  0  0  0  0  0  0  0  0
   -4.5971    2.1161    0.0000 C   0  0  0  0  0  0  0  0  0
   -4.5971    1.2911    0.0000 N   0  0  0  0  0  0  0  0  0
   -3.8826    0.8786    0.0000 C   0  0  0  0  0  0  0  0  0
   -3.8826    0.0536    0.0000 C   0  0  0  0  0  0  0  0  0
   -4.5971   -0.3589    0.0000 N   0  0  0  0  0  0  0  0  0
   -5.3116    0.0536    0.0000 C   0  0  0  0  0  0  0  0  0
   -5.3116    0.8786    0.0000 C   0  0  0  0  0  0  0  0  0
   -4.5971   -1.1839    0.0000 C   0  0  0  0  0  0  0  0  0
   -3.8826   -1.5964    0.0000 C   0  0  0  0  0  0  0  0  0
   -3.8826   -2.4214    0.0000 C   0  0  0  0  0  0  0  0  0
   -3.1682   -2.8339    0.0000 N   0  0  0  0  0  0  0  0  0
   -3.1682   -3.6589    0.0000 C   0  0  0  0  0  0  0  0  0
   -2.4537   -4.0714    0.0000 N   0  0  0  0  0  0  0  0  0
   -1.7392   -3.6589    0.0000 C   0  0  0  0  0  0  0  0  0
   -1.7392   -2.8339    0.0000 C   0  0  0  0  0  0  0  0  0
   -1.0247   -2.4214    0.0000 C   0  0  0  0  0  0  0  0  0
   -0.3103   -2.8339    0.0000 C   0  0  0  0  0  0  0  0  0
   -0.3103   -3.6589    0.0000 C   0  0  0  0  0  0  0  0  0
   -1.0247   -4.0714    0.0000 C   0  0  0  0  0  0  0  0  0
   -2.4537   -2.4214    0.0000 C   0  0  0  0  0  0  0  0  0
   -2.4537   -1.5964    0.0000 O   0  0  0  0  0  0  0  0  0
  1  2  1  0  0  0  0
  1  3  1  0  0  0  0
  3  4  4  0  0  0  0
  3  8  4  0  0  0  0
  4  5  4  0  0  0  0
  5  6  4  0  0  0  0
  6  7  4  0  0  0  0
  7  8  4  0  0  0  0
  8  9  1  0  0  0  0
  9 10  1  0  0  0  0
  9 14  1  0  0  0  0
 10 11  1  0  0  0  0
 11 12  1  0  0  0  0
 12 13  1  0  0  0  0
 12 15  1  0  0  0  0
 13 14  1  0  0  0  0
 15 16  1  0  0  0  0
 16 17  1  0  0  0  0
 17 18  1  0  0  0  0
 18 19  1  0  0  0  0
 18 27  1  0  0  0  0
 19 20  2  0  0  0  0
 20 21  1  0  0  0  0
 21 22  4  0  0  0  0
 21 26  4  0  0  0  0
 22 23  4  0  0  0  0
 22 27  1  0  0  0  0
 23 24  4  0  0  0  0
 24 25  4  0  0  0  0
 25 26  4  0  0  0  0
 27 28  2  0  0  0  0
M  END
>  <Name_Molregno>
571269

>  <5-HT1A>
7

$$$$
571284
  Marvin  02231216192D 0   1.00000     0.00000     0

 34 38  0  0  0  0  0  0  0  0999 V2000
    5.8869    5.5963    0.0000 Cl  0  0  0  0  0  0  0  0  0
    5.1724    5.1838    0.0000 C   0  0  0  0  0  0  0  0  0
    5.1724    4.3588    0.0000 C   0  0  0  0  0  0  0  0  0
    4.4580    3.9463    0.0000 C   0  0  0  0  0  0  0  0  0
    4.4580    3.1213    0.0000 N   0  0  0  0  0  0  0  0  0
    5.1724    2.7088    0.0000 C   0  0  0  0  0  0  0  0  0
    5.1724    1.8838    0.0000 C   0  0  0  0  0  0  0  0  0
    4.4580    1.4713    0.0000 N   0  0  0  0  0  0  0  0  0
    3.7435    1.8838    0.0000 C   0  0  0  0  0  0  0  0  0
    3.7435    2.7088    0.0000 C   0  0  0  0  0  0  0  0  0
    4.4580    0.6463    0.0000 C   0  0  0  0  0  0  0  0  0
    5.1724    0.2338    0.0000 C   0  0  0  0  0  0  0  0  0
    5.1724   -0.5912    0.0000 C   0  0  0  0  0  0  0  0  0
    5.8869   -1.0037    0.0000 N   0  0  0  0  0  0  0  0  0
    5.8869   -1.8287    0.0000 N   0  0  0  0  0  0  0  0  0
    6.6014   -2.2412    0.0000 C   0  0  0  0  0  0  0  0  0
    6.6014   -3.0662    0.0000 O   0  0  0  0  0  0  0  0  0
    7.3158   -1.8287    0.0000 C   0  0  0  0  0  0  0  0  0
    7.3158   -1.0037    0.0000 C   0  0  0  0  0  0  0  0  0
    8.0303   -0.5912    0.0000 C   0  0  0  0  0  0  0  0  0
    8.7448   -1.0037    0.0000 C   0  0  0  0  0  0  0  0  0
    8.7448   -1.8287    0.0000 C   0  0  0  0  0  0  0  0  0
    8.0303   -2.2412    0.0000 C   0  0  0  0  0  0  0  0  0
    6.6014   -0.5912    0.0000 C   0  0  0  0  0  0  0  0  0
    6.6014    0.2338    0.0000 O   0  0  0  0  0  0  0  0  0
    5.1724   -2.2412    0.0000 C   0  0  0  0  0  0  0  0  0
    5.1724   -3.0662    0.0000 C   0  0  0  0  0  0  0  0  0
    4.4580   -3.4787    0.0000 C   0  0  0  0  0  0  0  0  0
    3.7435   -3.0662    0.0000 C   0  0  0  0  0  0  0  0  0
    3.7435   -2.2412    0.0000 C   0  0  0  0  0  0  0  0  0
    4.4580   -1.8287    0.0000 C   0  0  0  0  0  0  0  0  0
    3.7435    4.3588    0.0000 C   0  0  0  0  0  0  0  0  0
    3.7435    5.1838    0.0000 C   0  0  0  0  0  0  0  0  0
    4.4580    5.5963    0.0000 C   0  0  0  0  0  0  0  0  0
  1  2  1  0  0  0  0
  2  3  4  0  0  0  0
  2 34  4  0  0  0  0
  3  4  4  0  0  0  0
  4  5  1  0  0  0  0
  4 32  4  0  0  0  0
  5  6  1  0  0  0  0
  5 10  1  0  0  0  0
  6  7  1  0  0  0  0
  7  8  1  0  0  0  0
  8  9  1  0  0  0  0
  8 11  1  0  0  0  0
  9 10  1  0  0  0  0
 11 12  1  0  0  0  0
 12 13  1  0  0  0  0
 13 14  1  0  0  0  0
 14 15  1  0  0  0  0
 14 24  1  0  0  0  0
 15 16  1  0  0  0  0
 15 26  1  0  0  0  0
 16 17  2  0  0  0  0
 16 18  1  0  0  0  0
 18 19  4  0  0  0  0
 18 23  4  0  0  0  0
 19 20  4  0  0  0  0
 19 24  1  0  0  0  0
 20 21  4  0  0  0  0
 21 22  4  0  0  0  0
 22 23  4  0  0  0  0
 24 25  2  0  0  0  0
 26 27  4  0  0  0  0
 26 31  4  0  0  0  0
 27 28  4  0  0  0  0
 28 29  4  0  0  0  0
 29 30  4  0  0  0  0
 30 31  4  0  0  0  0
 32 33  4  0  0  0  0
 33 34  4  0  0  0  0
M  END
>  <Name_Molregno>
571284

>  <5-HT1A>
6.38

$$$$
571307
  Marvin  02231216192D 0   1.00000     0.00000     0

 27 30  0  0  0  0  0  0  0  0999 V2000
    5.2634    4.0823    0.0000 Cl  0  0  0  0  0  0  0  0  0
    4.5489    3.6698    0.0000 C   0  0  0  0  0  0  0  0  0
    4.5489    2.8448    0.0000 C   0  0  0  0  0  0  0  0  0
    3.8344    2.4323    0.0000 C   0  0  0  0  0  0  0  0  0
    3.8344    1.6073    0.0000 N   0  0  0  0  0  0  0  0  0
    4.5489    1.1948    0.0000 C   0  0  0  0  0  0  0  0  0
    4.5489    0.3698    0.0000 C   0  0  0  0  0  0  0  0  0
    3.8344   -0.0427    0.0000 N   0  0  0  0  0  0  0  0  0
    3.1200    0.3698    0.0000 C   0  0  0  0  0  0  0  0  0
    3.1200    1.1948    0.0000 C   0  0  0  0  0  0  0  0  0
    3.8344   -0.8677    0.0000 C   0  0  0  0  0  0  0  0  0
    4.5489   -1.2802    0.0000 C   0  0  0  0  0  0  0  0  0
    4.5489   -2.1052    0.0000 C   0  0  0  0  0  0  0  0  0
    5.2634   -2.5177    0.0000 N   0  0  0  0  0  0  0  0  0
    5.2634   -3.3427    0.0000 C   0  0  0  0  0  0  0  0  0
    5.9778   -3.7552    0.0000 N   0  0  0  0  0  0  0  0  0
    6.6923   -3.3427    0.0000 C   0  0  0  0  0  0  0  0  0
    6.6923   -2.5177    0.0000 C   0  0  0  0  0  0  0  0  0
    7.4068   -2.1052    0.0000 C   0  0  0  0  0  0  0  0  0
    8.1213   -2.5177    0.0000 C   0  0  0  0  0  0  0  0  0
    8.1213   -3.3427    0.0000 C   0  0  0  0  0  0  0  0  0
    7.4068   -3.7552    0.0000 C   0  0  0  0  0  0  0  0  0
    5.9778   -2.1052    0.0000 C   0  0  0  0  0  0  0  0  0
    5.9778   -1.2802    0.0000 O   0  0  0  0  0  0  0  0  0
    3.1200    2.8448    0.0000 C   0  0  0  0  0  0  0  0  0
    3.1200    3.6698    0.0000 C   0  0  0  0  0  0  0  0  0
    3.8344    4.0823    0.0000 C   0  0  0  0  0  0  0  0  0
  1  2  1  0  0  0  0
  2  3  4  0  0  0  0
  2 27  4  0  0  0  0
  3  4  4  0  0  0  0
  4  5  1  0  0  0  0
  4 25  4  0  0  0  0
  5  6  1  0  0  0  0
  5 10  1  0  0  0  0
  6  7  1  0  0  0  0
  7  8  1  0  0  0  0
  8  9  1  0  0  0  0
  8 11  1  0  0  0  0
  9 10  1  0  0  0  0
 11 12  1  0  0  0  0
 12 13  1  0  0  0  0
 13 14  1  0  0  0  0
 14 15  1  0  0  0  0
 14 23  1  0  0  0  0
 15 16  2  0  0  0  0
 16 17  1  0  0  0  0
 17 18  4  0  0  0  0
 17 22  4  0  0  0  0
 18 19  4  0  0  0  0
 18 23  1  0  0  0  0
 19 20  4  0  0  0  0
 20 21  4  0  0  0  0
 21 22  4  0  0  0  0
 23 24  2  0  0  0  0
 25 26  4  0  0  0  0
 26 27  4  0  0  0  0
M  END
>  <Name_Molregno>
571307

>  <5-HT1A>
6.63

$$$$
571308
  Marvin  02231216192D 0   1.00000     0.00000     0

 35 39  0  0  0  0  0  0  0  0999 V2000
    2.3175    4.3436    0.0000 Cl  0  0  0  0  0  0  0  0  0
    2.3175    3.5186    0.0000 C   0  0  0  0  0  0  0  0  0
    3.0320    3.1061    0.0000 C   0  0  0  0  0  0  0  0  0
    3.0320    2.2811    0.0000 C   0  0  0  0  0  0  0  0  0
    3.7464    1.8686    0.0000 N   0  0  0  0  0  0  0  0  0
    4.4609    2.2811    0.0000 C   0  0  0  0  0  0  0  0  0
    5.1754    1.8686    0.0000 C   0  0  0  0  0  0  0  0  0
    5.1754    1.0436    0.0000 N   0  0  0  0  0  0  0  0  0
    4.4609    0.6311    0.0000 C   0  0  0  0  0  0  0  0  0
    3.7464    1.0436    0.0000 C   0  0  0  0  0  0  0  0  0
    5.8898    0.6311    0.0000 C   0  0  0  0  0  0  0  0  0
    5.8898   -0.1939    0.0000 C   0  0  0  0  0  0  0  0  0
    6.6043   -0.6064    0.0000 C   0  0  0  0  0  0  0  0  0
    6.6043   -1.4314    0.0000 C   0  0  0  0  0  0  0  0  0
    7.3188   -1.8439    0.0000 N   0  0  0  0  0  0  0  0  0
    7.3188   -2.6689    0.0000 N   0  0  0  0  0  0  0  0  0
    8.0333   -3.0814    0.0000 C   0  0  0  0  0  0  0  0  0
    8.0333   -3.9064    0.0000 O   0  0  0  0  0  0  0  0  0
    8.7477   -2.6689    0.0000 C   0  0  0  0  0  0  0  0  0
    8.7477   -1.8439    0.0000 C   0  0  0  0  0  0  0  0  0
    9.4622   -1.4314    0.0000 C   0  0  0  0  0  0  0  0  0
   10.1767   -1.8439    0.0000 C   0  0  0  0  0  0  0  0  0
   10.1767   -2.6689    0.0000 C   0  0  0  0  0  0  0  0  0
    9.4622   -3.0814    0.0000 C   0  0  0  0  0  0  0  0  0
    8.0333   -1.4314    0.0000 C   0  0  0  0  0  0  0  0  0
    8.0333   -0.6064    0.0000 O   0  0  0  0  0  0  0  0  0
    6.6043   -3.0814    0.0000 C   0  0  0  0  0  0  0  0  0
    6.6043   -3.9064    0.0000 C   0  0  0  0  0  0  0  0  0
    5.8898   -4.3189    0.0000 C   0  0  0  0  0  0  0  0  0
    5.1754   -3.9064    0.0000 C   0  0  0  0  0  0  0  0  0
    5.1754   -3.0814    0.0000 C   0  0  0  0  0  0  0  0  0
    5.8898   -2.6689    0.0000 C   0  0  0  0  0  0  0  0  0
    2.3175    1.8686    0.0000 C   0  0  0  0  0  0  0  0  0
    1.6030    2.2811    0.0000 C   0  0  0  0  0  0  0  0  0
    1.6030    3.1061    0.0000 C   0  0  0  0  0  0  0  0  0
  1  2  1  0  0  0  0
  2  3  4  0  0  0  0
  2 35  4  0  0  0  0
  3  4  4  0  0  0  0
  4  5  1  0  0  0  0
  4 33  4  0  0  0  0
  5  6  1  0  0  0  0
  5 10  1  0  0  0  0
  6  7  1  0  0  0  0
  7  8  1  0  0  0  0
  8  9  1  0  0  0  0
  8 11  1  0  0  0  0
  9 10  1  0  0  0  0
 11 12  1  0  0  0  0
 12 13  1  0  0  0  0
 13 14  1  0  0  0  0
 14 15  1  0  0  0  0
 15 16  1  0  0  0  0
 15 25  1  0  0  0  0
 16 17  1  0  0  0  0
 16 27  1  0  0  0  0
 17 18  2  0  0  0  0
 17 19  1  0  0  0  0
 19 20  4  0  0  0  0
 19 24  4  0  0  0  0
 20 21  4  0  0  0  0
 20 25  1  0  0  0  0
 21 22  4  0  0  0  0
 22 23  4  0  0  0  0
 23 24  4  0  0  0  0
 25 26  2  0  0  0  0
 27 28  4  0  0  0  0
 27 32  4  0  0  0  0
 28 29  4  0  0  0  0
 29 30  4  0  0  0  0
 30 31  4  0  0  0  0
 31 32  4  0  0  0  0
 33 34  4  0  0  0  0
 34 35  4  0  0  0  0
M  END
>  <Name_Molregno>
571308

>  <5-HT1A>
6.4

$$$$
571311
  Marvin  02231216192D 0   1.00000     0.00000     0

 31 34  0  0  0  0  0  0  0  0999 V2000
    1.2391    2.4467    0.0000 Cl  0  0  0  0  0  0  0  0  0
    1.2391    1.6217    0.0000 C   0  0  0  0  0  0  0  0  0
    1.9536    1.2092    0.0000 C   0  0  0  0  0  0  0  0  0
    1.9536    0.3842    0.0000 C   0  0  0  0  0  0  0  0  0
    2.6680   -0.0283    0.0000 N   0  0  0  0  0  0  0  0  0
    3.3825    0.3842    0.0000 C   0  0  0  0  0  0  0  0  0
    4.0970   -0.0283    0.0000 C   0  0  0  0  0  0  0  0  0
    4.0970   -0.8533    0.0000 N   0  0  0  0  0  0  0  0  0
    3.3825   -1.2658    0.0000 C   0  0  0  0  0  0  0  0  0
    2.6680   -0.8533    0.0000 C   0  0  0  0  0  0  0  0  0
    4.8115   -1.2658    0.0000 C   0  0  0  0  0  0  0  0  0
    5.5259   -0.8533    0.0000 C   0  0  0  0  0  0  0  0  0
    6.2404   -1.2658    0.0000 C   0  0  0  0  0  0  0  0  0
    6.9549   -0.8533    0.0000 C   0  0  0  0  0  0  0  0  0
    7.6693   -1.2658    0.0000 N   0  0  0  0  0  0  0  0  0
    8.3838   -0.8533    0.0000 N   0  0  0  0  0  0  0  0  0
    9.0983   -1.2658    0.0000 C   0  0  0  0  0  0  0  0  0
    9.8128   -0.8533    0.0000 O   0  0  0  0  0  0  0  0  0
    9.0983   -2.0908    0.0000 C   0  0  0  0  0  0  0  0  0
    8.3838   -2.5033    0.0000 C   0  0  0  0  0  0  0  0  0
    7.6693   -2.0908    0.0000 C   0  0  0  0  0  0  0  0  0
    6.9549   -2.5033    0.0000 O   0  0  0  0  0  0  0  0  0
    8.3838   -0.0283    0.0000 C   0  0  0  0  0  0  0  0  0
    7.6693    0.3842    0.0000 C   0  0  0  0  0  0  0  0  0
    7.6693    1.2092    0.0000 C   0  0  0  0  0  0  0  0  0
    8.3838    1.6217    0.0000 C   0  0  0  0  0  0  0  0  0
    9.0983    1.2092    0.0000 C   0  0  0  0  0  0  0  0  0
    9.0983    0.3842    0.0000 C   0  0  0  0  0  0  0  0  0
    1.2391   -0.0283    0.0000 C   0  0  0  0  0  0  0  0  0
    0.5246    0.3842    0.0000 C   0  0  0  0  0  0  0  0  0
    0.5246    1.2092    0.0000 C   0  0  0  0  0  0  0  0  0
  1  2  1  0  0  0  0
  2  3  4  0  0  0  0
  2 31  4  0  0  0  0
  3  4  4  0  0  0  0
  4  5  1  0  0  0  0
  4 29  4  0  0  0  0
  5  6  1  0  0  0  0
  5 10  1  0  0  0  0
  6  7  1  0  0  0  0
  7  8  1  0  0  0  0
  8  9  1  0  0  0  0
  8 11  1  0  0  0  0
  9 10  1  0  0  0  0
 11 12  1  0  0  0  0
 12 13  1  0  0  0  0
 13 14  1  0  0  0  0
 14 15  1  0  0  0  0
 15 16  1  0  0  0  0
 15 21  1  0  0  0  0
 16 17  1  0  0  0  0
 16 23  1  0  0  0  0
 17 18  2  0  0  0  0
 17 19  1  0  0  0  0
 19 20  2  0  0  0  0
 20 21  1  0  0  0  0
 21 22  2  0  0  0  0
 23 24  4  0  0  0  0
 23 28  4  0  0  0  0
 24 25  4  0  0  0  0
 25 26  4  0  0  0  0
 26 27  4  0  0  0  0
 27 28  4  0  0  0  0
 29 30  4  0  0  0  0
 30 31  4  0  0  0  0
M  END
>  <Name_Molregno>
571311

>  <5-HT1A>
7.3

$$$$
571312
  Marvin  02231216192D 0   1.00000     0.00000     0

 35 39  0  0  0  0  0  0  0  0999 V2000
   -6.3220    3.7206    0.0000 O   0  0  0  0  0  0  0  0  0
   -7.0365    4.1331    0.0000 C   0  0  0  0  0  0  0  0  0
   -5.6076    4.1331    0.0000 C   0  0  0  0  0  0  0  0  0
   -5.6076    4.9581    0.0000 C   0  0  0  0  0  0  0  0  0
   -4.8931    5.3706    0.0000 C   0  0  0  0  0  0  0  0  0
   -4.1786    4.9581    0.0000 C   0  0  0  0  0  0  0  0  0
   -4.1786    4.1331    0.0000 C   0  0  0  0  0  0  0  0  0
   -4.8931    3.7206    0.0000 C   0  0  0  0  0  0  0  0  0
   -4.8931    2.8956    0.0000 N   0  0  0  0  0  0  0  0  0
   -4.1786    2.4831    0.0000 C   0  0  0  0  0  0  0  0  0
   -4.1786    1.6581    0.0000 C   0  0  0  0  0  0  0  0  0
   -4.8931    1.2456    0.0000 N   0  0  0  0  0  0  0  0  0
   -5.6076    1.6581    0.0000 C   0  0  0  0  0  0  0  0  0
   -5.6076    2.4831    0.0000 C   0  0  0  0  0  0  0  0  0
   -4.8931    0.4206    0.0000 C   0  0  0  0  0  0  0  0  0
   -4.1786    0.0081    0.0000 C   0  0  0  0  0  0  0  0  0
   -4.1786   -0.8169    0.0000 C   0  0  0  0  0  0  0  0  0
   -3.4641   -1.2294    0.0000 N   0  0  0  0  0  0  0  0  0
   -3.4641   -2.0544    0.0000 N   0  0  0  0  0  0  0  0  0
   -2.7497   -2.4669    0.0000 C   0  0  0  0  0  0  0  0  0
   -2.7497   -3.2919    0.0000 O   0  0  0  0  0  0  0  0  0
   -2.0352   -2.0544    0.0000 C   0  0  0  0  0  0  0  0  0
   -2.0352   -1.2294    0.0000 C   0  0  0  0  0  0  0  0  0
   -1.3207   -0.8169    0.0000 C   0  0  0  0  0  0  0  0  0
   -0.6063   -1.2294    0.0000 C   0  0  0  0  0  0  0  0  0
   -0.6063   -2.0544    0.0000 C   0  0  0  0  0  0  0  0  0
   -1.3207   -2.4669    0.0000 C   0  0  0  0  0  0  0  0  0
   -2.7497   -0.8169    0.0000 C   0  0  0  0  0  0  0  0  0
   -2.7497    0.0081    0.0000 O   0  0  0  0  0  0  0  0  0
   -4.1786   -2.4669    0.0000 C   0  0  0  0  0  0  0  0  0
   -4.1786   -3.2919    0.0000 C   0  0  0  0  0  0  0  0  0
   -4.8931   -3.7044    0.0000 C   0  0  0  0  0  0  0  0  0
   -5.6076   -3.2919    0.0000 C   0  0  0  0  0  0  0  0  0
   -5.6076   -2.4669    0.0000 C   0  0  0  0  0  0  0  0  0
   -4.8931   -2.0544    0.0000 C   0  0  0  0  0  0  0  0  0
  1  2  1  0  0  0  0
  1  3  1  0  0  0  0
  3  4  4  0  0  0  0
  3  8  4  0  0  0  0
  4  5  4  0  0  0  0
  5  6  4  0  0  0  0
  6  7  4  0  0  0  0
  7  8  4  0  0  0  0
  8  9  1  0  0  0  0
  9 10  1  0  0  0  0
  9 14  1  0  0  0  0
 10 11  1  0  0  0  0
 11 12  1  0  0  0  0
 12 13  1  0  0  0  0
 12 15  1  0  0  0  0
 13 14  1  0  0  0  0
 15 16  1  0  0  0  0
 16 17  1  0  0  0  0
 17 18  1  0  0  0  0
 18 19  1  0  0  0  0
 18 28  1  0  0  0  0
 19 20  1  0  0  0  0
 19 30  1  0  0  0  0
 20 21  2  0  0  0  0
 20 22  1  0  0  0  0
 22 23  4  0  0  0  0
 22 27  4  0  0  0  0
 23 24  4  0  0  0  0
 23 28  1  0  0  0  0
 24 25  4  0  0  0  0
 25 26  4  0  0  0  0
 26 27  4  0  0  0  0
 28 29  2  0  0  0  0
 30 31  4  0  0  0  0
 30 35  4  0  0  0  0
 31 32  4  0  0  0  0
 32 33  4  0  0  0  0
 33 34  4  0  0  0  0
 34 35  4  0  0  0  0
M  END
>  <Name_Molregno>
571312

>  <5-HT1A>
7.52

$$$$
571321
  Marvin  02231216192D 0   1.00000     0.00000     0

 36 40  0  0  0  0  0  0  0  0999 V2000
   -7.8812    1.7973    0.0000 O   0  0  0  0  0  0  0  0  0
   -8.5957    1.3848    0.0000 C   0  0  0  0  0  0  0  0  0
   -7.8812    2.6223    0.0000 C   0  0  0  0  0  0  0  0  0
   -8.5957    3.0348    0.0000 C   0  0  0  0  0  0  0  0  0
   -8.5957    3.8598    0.0000 C   0  0  0  0  0  0  0  0  0
   -7.8812    4.2723    0.0000 C   0  0  0  0  0  0  0  0  0
   -7.1667    3.8598    0.0000 C   0  0  0  0  0  0  0  0  0
   -7.1667    3.0348    0.0000 C   0  0  0  0  0  0  0  0  0
   -6.4522    2.6223    0.0000 N   0  0  0  0  0  0  0  0  0
   -5.7378    3.0348    0.0000 C   0  0  0  0  0  0  0  0  0
   -5.0233    2.6223    0.0000 C   0  0  0  0  0  0  0  0  0
   -5.0233    1.7973    0.0000 N   0  0  0  0  0  0  0  0  0
   -5.7378    1.3848    0.0000 C   0  0  0  0  0  0  0  0  0
   -6.4522    1.7973    0.0000 C   0  0  0  0  0  0  0  0  0
   -4.3088    1.3848    0.0000 C   0  0  0  0  0  0  0  0  0
   -4.3088    0.5598    0.0000 C   0  0  0  0  0  0  0  0  0
   -3.5944    0.1473    0.0000 C   0  0  0  0  0  0  0  0  0
   -3.5944   -0.6777    0.0000 C   0  0  0  0  0  0  0  0  0
   -2.8799   -1.0902    0.0000 N   0  0  0  0  0  0  0  0  0
   -2.8799   -1.9152    0.0000 N   0  0  0  0  0  0  0  0  0
   -2.1654   -2.3277    0.0000 C   0  0  0  0  0  0  0  0  0
   -2.1654   -3.1527    0.0000 O   0  0  0  0  0  0  0  0  0
   -1.4509   -1.9152    0.0000 C   0  0  0  0  0  0  0  0  0
   -1.4509   -1.0902    0.0000 C   0  0  0  0  0  0  0  0  0
   -0.7365   -0.6777    0.0000 C   0  0  0  0  0  0  0  0  0
   -0.0220   -1.0902    0.0000 C   0  0  0  0  0  0  0  0  0
   -0.0220   -1.9152    0.0000 C   0  0  0  0  0  0  0  0  0
   -0.7365   -2.3277    0.0000 C   0  0  0  0  0  0  0  0  0
   -2.1654   -0.6777    0.0000 C   0  0  0  0  0  0  0  0  0
   -2.1654    0.1473    0.0000 O   0  0  0  0  0  0  0  0  0
   -3.5944   -2.3277    0.0000 C   0  0  0  0  0  0  0  0  0
   -3.5944   -3.1527    0.0000 C   0  0  0  0  0  0  0  0  0
   -4.3088   -3.5652    0.0000 C   0  0  0  0  0  0  0  0  0
   -5.0233   -3.1527    0.0000 C   0  0  0  0  0  0  0  0  0
   -5.0233   -2.3277    0.0000 C   0  0  0  0  0  0  0  0  0
   -4.3088   -1.9152    0.0000 C   0  0  0  0  0  0  0  0  0
  1  2  1  0  0  0  0
  1  3  1  0  0  0  0
  3  4  4  0  0  0  0
  3  8  4  0  0  0  0
  4  5  4  0  0  0  0
  5  6  4  0  0  0  0
  6  7  4  0  0  0  0
  7  8  4  0  0  0  0
  8  9  1  0  0  0  0
  9 10  1  0  0  0  0
  9 14  1  0  0  0  0
 10 11  1  0  0  0  0
 11 12  1  0  0  0  0
 12 13  1  0  0  0  0
 12 15  1  0  0  0  0
 13 14  1  0  0  0  0
 15 16  1  0  0  0  0
 16 17  1  0  0  0  0
 17 18  1  0  0  0  0
 18 19  1  0  0  0  0
 19 20  1  0  0  0  0
 19 29  1  0  0  0  0
 20 21  1  0  0  0  0
 20 31  1  0  0  0  0
 21 22  2  0  0  0  0
 21 23  1  0  0  0  0
 23 24  4  0  0  0  0
 23 28  4  0  0  0  0
 24 25  4  0  0  0  0
 24 29  1  0  0  0  0
 25 26  4  0  0  0  0
 26 27  4  0  0  0  0
 27 28  4  0  0  0  0
 29 30  2  0  0  0  0
 31 32  4  0  0  0  0
 31 36  4  0  0  0  0
 32 33  4  0  0  0  0
 33 34  4  0  0  0  0
 34 35  4  0  0  0  0
 35 36  4  0  0  0  0
M  END
>  <Name_Molregno>
571321

>  <5-HT1A>
7.37

$$$$
571710
  Marvin  02231216192D 0   1.00000     0.00000     0

 32 35  0  0  0  0  0  0  0  0999 V2000
   -8.3028   -0.6259    0.0000 O   0  0  0  0  0  0  0  0  0
   -8.7153   -1.3404    0.0000 C   0  0  0  0  0  0  0  0  0
   -8.7153    0.0885    0.0000 C   0  0  0  0  0  0  0  0  0
   -9.5403    0.0885    0.0000 C   0  0  0  0  0  0  0  0  0
   -9.9528    0.8030    0.0000 C   0  0  0  0  0  0  0  0  0
   -9.5403    1.5175    0.0000 C   0  0  0  0  0  0  0  0  0
   -8.7153    1.5175    0.0000 C   0  0  0  0  0  0  0  0  0
   -8.3028    0.8030    0.0000 C   0  0  0  0  0  0  0  0  0
   -7.4778    0.8030    0.0000 N   0  0  0  0  0  0  0  0  0
   -7.0653    1.5175    0.0000 C   0  0  0  0  0  0  0  0  0
   -6.2403    1.5175    0.0000 C   0  0  0  0  0  0  0  0  0
   -5.8278    0.8030    0.0000 N   0  0  0  0  0  0  0  0  0
   -6.2403    0.0885    0.0000 C   0  0  0  0  0  0  0  0  0
   -7.0653    0.0885    0.0000 C   0  0  0  0  0  0  0  0  0
   -5.0028    0.8030    0.0000 C   0  0  0  0  0  0  0  0  0
   -4.5903    0.0885    0.0000 C   0  0  0  0  0  0  0  0  0
   -3.7653    0.0885    0.0000 C   0  0  0  0  0  0  0  0  0
   -3.3528   -0.6259    0.0000 C   0  0  0  0  0  0  0  0  0
   -2.5278   -0.6259    0.0000 N   0  0  0  0  0  0  0  0  0
   -2.0429   -1.2934    0.0000 C   0  0  0  0  0  0  0  0  0
   -2.2978   -2.0780    0.0000 O   0  0  0  0  0  0  0  0  0
   -1.2583   -1.0384    0.0000 C   0  0  0  0  0  0  0  0  0
   -1.2583   -0.2134    0.0000 C   0  0  0  0  0  0  0  0  0
   -0.5438    0.1991    0.0000 C   0  0  0  0  0  0  0  0  0
    0.1707   -0.2134    0.0000 C   0  0  0  0  0  0  0  0  0
    0.1707   -1.0384    0.0000 C   0  0  0  0  0  0  0  0  0
    0.8852   -1.4509    0.0000 N   0  0  0  0  0  0  0  0  0
    1.5996   -1.0384    0.0000 C   0  0  0  0  0  0  0  0  0
    0.8852   -2.2759    0.0000 C   0  0  0  0  0  0  0  0  0
   -0.5438   -1.4509    0.0000 C   0  0  0  0  0  0  0  0  0
   -2.0429    0.0415    0.0000 C   0  0  0  0  0  0  0  0  0
   -2.2978    0.8261    0.0000 O   0  0  0  0  0  0  0  0  0
  1  2  1  0  0  0  0
  1  3  1  0  0  0  0
  3  4  4  0  0  0  0
  3  8  4  0  0  0  0
  4  5  4  0  0  0  0
  5  6  4  0  0  0  0
  6  7  4  0  0  0  0
  7  8  4  0  0  0  0
  8  9  1  0  0  0  0
  9 10  1  0  0  0  0
  9 14  1  0  0  0  0
 10 11  1  0  0  0  0
 11 12  1  0  0  0  0
 12 13  1  0  0  0  0
 12 15  1  0  0  0  0
 13 14  1  0  0  0  0
 15 16  1  0  0  0  0
 16 17  1  0  0  0  0
 17 18  1  0  0  0  0
 18 19  1  0  0  0  0
 19 20  1  0  0  0  0
 19 31  1  0  0  0  0
 20 21  2  0  0  0  0
 20 22  1  0  0  0  0
 22 23  4  0  0  0  0
 22 30  4  0  0  0  0
 23 24  4  0  0  0  0
 23 31  1  0  0  0  0
 24 25  4  0  0  0  0
 25 26  4  0  0  0  0
 26 27  1  0  0  0  0
 26 30  4  0  0  0  0
 27 28  1  0  0  0  0
 27 29  1  0  0  0  0
 31 32  2  0  0  0  0
M  END
>  <Name_Molregno>
571710

>  <5-HT1A>
9.3

$$$$
571711
  Marvin  02231216192D 0   1.00000     0.00000     0

 33 36  0  0  0  0  0  0  0  0999 V2000
   -9.5463    0.0151    0.0000 O   0  0  0  0  0  0  0  0  0
  -10.2608   -0.3974    0.0000 C   0  0  0  0  0  0  0  0  0
   -9.5463    0.8401    0.0000 C   0  0  0  0  0  0  0  0  0
  -10.2608    1.2526    0.0000 C   0  0  0  0  0  0  0  0  0
  -10.2608    2.0776    0.0000 C   0  0  0  0  0  0  0  0  0
   -9.5463    2.4901    0.0000 C   0  0  0  0  0  0  0  0  0
   -8.8318    2.0776    0.0000 C   0  0  0  0  0  0  0  0  0
   -8.8318    1.2526    0.0000 C   0  0  0  0  0  0  0  0  0
   -8.1174    0.8401    0.0000 N   0  0  0  0  0  0  0  0  0
   -7.4029    1.2526    0.0000 C   0  0  0  0  0  0  0  0  0
   -6.6884    0.8401    0.0000 C   0  0  0  0  0  0  0  0  0
   -6.6884    0.0151    0.0000 N   0  0  0  0  0  0  0  0  0
   -7.4029   -0.3974    0.0000 C   0  0  0  0  0  0  0  0  0
   -8.1174    0.0151    0.0000 C   0  0  0  0  0  0  0  0  0
   -5.9740   -0.3974    0.0000 C   0  0  0  0  0  0  0  0  0
   -5.2595    0.0151    0.0000 C   0  0  0  0  0  0  0  0  0
   -4.5450   -0.3974    0.0000 C   0  0  0  0  0  0  0  0  0
   -3.8305    0.0151    0.0000 C   0  0  0  0  0  0  0  0  0
   -3.1161   -0.3974    0.0000 C   0  0  0  0  0  0  0  0  0
   -2.4016    0.0151    0.0000 N   0  0  0  0  0  0  0  0  0
   -1.6479   -0.3204    0.0000 C   0  0  0  0  0  0  0  0  0
   -1.4764   -1.1274    0.0000 O   0  0  0  0  0  0  0  0  0
   -1.0959    0.2927    0.0000 C   0  0  0  0  0  0  0  0  0
   -1.5084    1.0071    0.0000 C   0  0  0  0  0  0  0  0  0
   -1.0959    1.7216    0.0000 C   0  0  0  0  0  0  0  0  0
   -0.2709    1.7216    0.0000 C   0  0  0  0  0  0  0  0  0
    0.1416    1.0071    0.0000 C   0  0  0  0  0  0  0  0  0
    0.9666    1.0071    0.0000 N   0  0  0  0  0  0  0  0  0
    1.3791    1.7216    0.0000 C   0  0  0  0  0  0  0  0  0
    1.3791    0.2927    0.0000 C   0  0  0  0  0  0  0  0  0
   -0.2709    0.2927    0.0000 C   0  0  0  0  0  0  0  0  0
   -2.3154    0.8356    0.0000 C   0  0  0  0  0  0  0  0  0
   -2.9285    1.3876    0.0000 O   0  0  0  0  0  0  0  0  0
  1  2  1  0  0  0  0
  1  3  1  0  0  0  0
  3  4  4  0  0  0  0
  3  8  4  0  0  0  0
  4  5  4  0  0  0  0
  5  6  4  0  0  0  0
  6  7  4  0  0  0  0
  7  8  4  0  0  0  0
  8  9  1  0  0  0  0
  9 10  1  0  0  0  0
  9 14  1  0  0  0  0
 10 11  1  0  0  0  0
 11 12  1  0  0  0  0
 12 13  1  0  0  0  0
 12 15  1  0  0  0  0
 13 14  1  0  0  0  0
 15 16  1  0  0  0  0
 16 17  1  0  0  0  0
 17 18  1  0  0  0  0
 18 19  1  0  0  0  0
 19 20  1  0  0  0  0
 20 21  1  0  0  0  0
 20 32  1  0  0  0  0
 21 22  2  0  0  0  0
 21 23  1  0  0  0  0
 23 24  4  0  0  0  0
 23 31  4  0  0  0  0
 24 25  4  0  0  0  0
 24 32  1  0  0  0  0
 25 26  4  0  0  0  0
 26 27  4  0  0  0  0
 27 28  1  0  0  0  0
 27 31  4  0  0  0  0
 28 29  1  0  0  0  0
 28 30  1  0  0  0  0
 32 33  2  0  0  0  0
M  END
>  <Name_Molregno>
571711

>  <5-HT1A>
8.11

$$$$
571718
  Marvin  02231216192D 0   1.00000     0.00000     0

 33 36  0  0  0  0  0  0  0  0999 V2000
   -0.1157    0.2681    0.0000 S   0  0  0  0  0  0  0  0  0
    0.7093    0.2681    0.0000 O   0  0  0  0  0  0  0  0  0
   -0.9407    0.2681    0.0000 O   0  0  0  0  0  0  0  0  0
   -0.1157   -0.5569    0.0000 N   0  0  0  0  0  0  0  0  0
   -0.8302   -0.9694    0.0000 C   0  0  0  0  0  0  0  0  0
   -0.8302   -1.7944    0.0000 C   0  0  0  0  0  0  0  0  0
   -1.5446   -2.2069    0.0000 N   0  0  0  0  0  0  0  0  0
   -1.5446   -3.0319    0.0000 C   0  0  0  0  0  0  0  0  0
   -2.2591   -3.4444    0.0000 C   0  0  0  0  0  0  0  0  0
   -2.9736   -3.0319    0.0000 N   0  0  0  0  0  0  0  0  0
   -2.9736   -2.2069    0.0000 C   0  0  0  0  0  0  0  0  0
   -2.2591   -1.7944    0.0000 C   0  0  0  0  0  0  0  0  0
   -3.6880   -3.4444    0.0000 C   0  0  0  0  0  0  0  0  0
   -3.6880   -4.2694    0.0000 C   0  0  0  0  0  0  0  0  0
   -4.4025   -4.6819    0.0000 C   0  0  0  0  0  0  0  0  0
   -5.1170   -4.2694    0.0000 C   0  0  0  0  0  0  0  0  0
   -5.1170   -3.4444    0.0000 C   0  0  0  0  0  0  0  0  0
   -4.4025   -3.0319    0.0000 C   0  0  0  0  0  0  0  0  0
   -4.4025   -2.2069    0.0000 O   0  0  0  0  0  0  0  0  0
   -5.1170   -1.7944    0.0000 C   0  0  0  0  0  0  0  0  0
   -0.1157    1.0931    0.0000 C   0  0  0  0  0  0  0  0  0
    0.5988    1.5056    0.0000 C   0  0  0  0  0  0  0  0  0
    0.5988    2.3306    0.0000 C   0  0  0  0  0  0  0  0  0
   -0.1157    2.7431    0.0000 C   0  0  0  0  0  0  0  0  0
   -0.8302    2.3306    0.0000 C   0  0  0  0  0  0  0  0  0
   -0.8302    1.5056    0.0000 C   0  0  0  0  0  0  0  0  0
    1.3133    2.7431    0.0000 C   0  0  0  0  0  0  0  0  0
    1.3133    3.5681    0.0000 N   0  0  0  0  0  0  0  0  0
    0.5988    3.9806    0.0000 C   0  0  0  0  0  0  0  0  0
    2.0277    3.9806    0.0000 C   0  0  0  0  0  0  0  0  0
    2.0277    2.3306    0.0000 C   0  0  0  0  0  0  0  0  0
    2.0277    1.5056    0.0000 C   0  0  0  0  0  0  0  0  0
    1.3133    1.0931    0.0000 C   0  0  0  0  0  0  0  0  0
  1  2  2  0  0  0  0
  1  3  2  0  0  0  0
  1  4  1  0  0  0  0
  1 21  1  0  0  0  0
  4  5  1  0  0  0  0
  5  6  1  0  0  0  0
  6  7  1  0  0  0  0
  7  8  1  0  0  0  0
  7 12  1  0  0  0  0
  8  9  1  0  0  0  0
  9 10  1  0  0  0  0
 10 11  1  0  0  0  0
 10 13  1  0  0  0  0
 11 12  1  0  0  0  0
 13 14  4  0  0  0  0
 13 18  4  0  0  0  0
 14 15  4  0  0  0  0
 15 16  4  0  0  0  0
 16 17  4  0  0  0  0
 17 18  4  0  0  0  0
 18 19  1  0  0  0  0
 19 20  1  0  0  0  0
 21 22  4  0  0  0  0
 21 26  4  0  0  0  0
 22 23  4  0  0  0  0
 22 33  4  0  0  0  0
 23 24  4  0  0  0  0
 23 27  4  0  0  0  0
 24 25  4  0  0  0  0
 25 26  4  0  0  0  0
 27 28  1  0  0  0  0
 27 31  4  0  0  0  0
 28 29  1  0  0  0  0
 28 30  1  0  0  0  0
 31 32  4  0  0  0  0
 32 33  4  0  0  0  0
M  END
>  <Name_Molregno>
571718

>  <5-HT1A>
7.14

$$$$
571724
  Marvin  02231216192D 0   1.00000     0.00000     0

 34 38  0  0  0  0  0  0  0  0999 V2000
   -7.7204   -2.7085    0.0000 O   0  0  0  0  0  0  0  0  0
   -7.7204   -3.5335    0.0000 C   0  0  0  0  0  0  0  0  0
   -8.4349   -2.2960    0.0000 C   0  0  0  0  0  0  0  0  0
   -9.1493   -2.7085    0.0000 C   0  0  0  0  0  0  0  0  0
   -9.8638   -2.2960    0.0000 C   0  0  0  0  0  0  0  0  0
   -9.8638   -1.4710    0.0000 C   0  0  0  0  0  0  0  0  0
   -9.1493   -1.0585    0.0000 C   0  0  0  0  0  0  0  0  0
   -8.4349   -1.4710    0.0000 C   0  0  0  0  0  0  0  0  0
   -7.7204   -1.0585    0.0000 N   0  0  0  0  0  0  0  0  0
   -7.7204   -0.2335    0.0000 C   0  0  0  0  0  0  0  0  0
   -7.0059    0.1790    0.0000 C   0  0  0  0  0  0  0  0  0
   -6.2914   -0.2335    0.0000 N   0  0  0  0  0  0  0  0  0
   -6.2914   -1.0585    0.0000 C   0  0  0  0  0  0  0  0  0
   -7.0059   -1.4710    0.0000 C   0  0  0  0  0  0  0  0  0
   -5.5770    0.1790    0.0000 C   0  0  0  0  0  0  0  0  0
   -4.8625   -0.2335    0.0000 C   0  0  0  0  0  0  0  0  0
   -4.1480    0.1790    0.0000 C   0  0  0  0  0  0  0  0  0
   -3.4336   -0.2335    0.0000 C   0  0  0  0  0  0  0  0  0
   -2.7191    0.1790    0.0000 N   0  0  0  0  0  0  0  0  0
   -2.0046   -0.2335    0.0000 C   0  0  0  0  0  0  0  0  0
   -2.0046   -1.0585    0.0000 O   0  0  0  0  0  0  0  0  0
   -1.2901    0.1790    0.0000 C   0  0  0  0  0  0  0  0  0
   -1.2901    1.0040    0.0000 C   0  0  0  0  0  0  0  0  0
   -2.0046    1.4165    0.0000 C   0  0  0  0  0  0  0  0  0
   -2.0046    2.2415    0.0000 C   0  0  0  0  0  0  0  0  0
   -1.2901    2.6540    0.0000 C   0  0  0  0  0  0  0  0  0
   -0.5757    2.2415    0.0000 C   0  0  0  0  0  0  0  0  0
   -0.5757    1.4165    0.0000 C   0  0  0  0  0  0  0  0  0
    0.1388    1.0040    0.0000 C   0  0  0  0  0  0  0  0  0
    0.8533    1.4165    0.0000 N   0  0  0  0  0  0  0  0  0
    0.1388    0.1790    0.0000 C   0  0  0  0  0  0  0  0  0
   -0.5757   -0.2335    0.0000 C   0  0  0  0  0  0  0  0  0
   -2.7191    1.0040    0.0000 C   0  0  0  0  0  0  0  0  0
   -3.4336    1.4165    0.0000 O   0  0  0  0  0  0  0  0  0
  1  2  1  0  0  0  0
  1  3  1  0  0  0  0
  3  4  4  0  0  0  0
  3  8  4  0  0  0  0
  4  5  4  0  0  0  0
  5  6  4  0  0  0  0
  6  7  4  0  0  0  0
  7  8  4  0  0  0  0
  8  9  1  0  0  0  0
  9 10  1  0  0  0  0
  9 14  1  0  0  0  0
 10 11  1  0  0  0  0
 11 12  1  0  0  0  0
 12 13  1  0  0  0  0
 12 15  1  0  0  0  0
 13 14  1  0  0  0  0
 15 16  1  0  0  0  0
 16 17  1  0  0  0  0
 17 18  1  0  0  0  0
 18 19  1  0  0  0  0
 19 20  1  0  0  0  0
 19 33  1  0  0  0  0
 20 21  2  0  0  0  0
 20 22  1  0  0  0  0
 22 23  4  0  0  0  0
 22 32  4  0  0  0  0
 23 24  4  0  0  0  0
 23 28  4  0  0  0  0
 24 25  4  0  0  0  0
 24 33  1  0  0  0  0
 25 26  4  0  0  0  0
 26 27  4  0  0  0  0
 27 28  4  0  0  0  0
 28 29  4  0  0  0  0
 29 30  1  0  0  0  0
 29 31  4  0  0  0  0
 31 32  4  0  0  0  0
 33 34  2  0  0  0  0
M  END
>  <Name_Molregno>
571724

>  <5-HT1A>
8.17

$$$$
571725
  Marvin  02231216192D 0   1.00000     0.00000     0

 32 36  0  0  0  0  0  0  0  0999 V2000
   -6.2198   -2.7162    0.0000 O   0  0  0  0  0  0  0  0  0
   -6.2198   -3.5412    0.0000 C   0  0  0  0  0  0  0  0  0
   -6.9343   -2.3037    0.0000 C   0  0  0  0  0  0  0  0  0
   -7.6488   -2.7162    0.0000 C   0  0  0  0  0  0  0  0  0
   -8.3632   -2.3037    0.0000 C   0  0  0  0  0  0  0  0  0
   -8.3632   -1.4787    0.0000 C   0  0  0  0  0  0  0  0  0
   -7.6488   -1.0662    0.0000 C   0  0  0  0  0  0  0  0  0
   -6.9343   -1.4787    0.0000 C   0  0  0  0  0  0  0  0  0
   -6.2198   -1.0662    0.0000 N   0  0  0  0  0  0  0  0  0
   -6.2198   -0.2412    0.0000 C   0  0  0  0  0  0  0  0  0
   -5.5054    0.1713    0.0000 C   0  0  0  0  0  0  0  0  0
   -4.7909   -0.2412    0.0000 N   0  0  0  0  0  0  0  0  0
   -4.7909   -1.0662    0.0000 C   0  0  0  0  0  0  0  0  0
   -5.5054   -1.4787    0.0000 C   0  0  0  0  0  0  0  0  0
   -4.0764    0.1713    0.0000 C   0  0  0  0  0  0  0  0  0
   -3.3619   -0.2412    0.0000 C   0  0  0  0  0  0  0  0  0
   -2.6475    0.1713    0.0000 N   0  0  0  0  0  0  0  0  0
   -1.9330   -0.2412    0.0000 C   0  0  0  0  0  0  0  0  0
   -1.9330   -1.0662    0.0000 O   0  0  0  0  0  0  0  0  0
   -1.2185    0.1713    0.0000 C   0  0  0  0  0  0  0  0  0
   -1.2185    0.9963    0.0000 C   0  0  0  0  0  0  0  0  0
   -1.9330    1.4088    0.0000 C   0  0  0  0  0  0  0  0  0
   -1.9330    2.2338    0.0000 C   0  0  0  0  0  0  0  0  0
   -1.2185    2.6463    0.0000 C   0  0  0  0  0  0  0  0  0
   -0.5041    2.2338    0.0000 C   0  0  0  0  0  0  0  0  0
   -0.5041    1.4088    0.0000 C   0  0  0  0  0  0  0  0  0
    0.2104    0.9963    0.0000 C   0  0  0  0  0  0  0  0  0
    0.9249    1.4088    0.0000 N   0  0  0  0  0  0  0  0  0
    0.2104    0.1713    0.0000 C   0  0  0  0  0  0  0  0  0
   -0.5041   -0.2412    0.0000 C   0  0  0  0  0  0  0  0  0
   -2.6475    0.9963    0.0000 C   0  0  0  0  0  0  0  0  0
   -3.3619    1.4088    0.0000 O   0  0  0  0  0  0  0  0  0
  1  2  1  0  0  0  0
  1  3  1  0  0  0  0
  3  4  4  0  0  0  0
  3  8  4  0  0  0  0
  4  5  4  0  0  0  0
  5  6  4  0  0  0  0
  6  7  4  0  0  0  0
  7  8  4  0  0  0  0
  8  9  1  0  0  0  0
  9 10  1  0  0  0  0
  9 14  1  0  0  0  0
 10 11  1  0  0  0  0
 11 12  1  0  0  0  0
 12 13  1  0  0  0  0
 12 15  1  0  0  0  0
 13 14  1  0  0  0  0
 15 16  1  0  0  0  0
 16 17  1  0  0  0  0
 17 18  1  0  0  0  0
 17 31  1  0  0  0  0
 18 19  2  0  0  0  0
 18 20  1  0  0  0  0
 20 21  4  0  0  0  0
 20 30  4  0  0  0  0
 21 22  4  0  0  0  0
 21 26  4  0  0  0  0
 22 23  4  0  0  0  0
 22 31  1  0  0  0  0
 23 24  4  0  0  0  0
 24 25  4  0  0  0  0
 25 26  4  0  0  0  0
 26 27  4  0  0  0  0
 27 28  1  0  0  0  0
 27 29  4  0  0  0  0
 29 30  4  0  0  0  0
 31 32  2  0  0  0  0
M  END
>  <Name_Molregno>
571725

>  <5-HT1A>
7.36

$$$$
571726
  Marvin  02231216192D 0   1.00000     0.00000     0

 34 37  0  0  0  0  0  0  0  0999 V2000
   -3.2368   -0.0161    0.0000 S   0  0  0  0  0  0  0  0  0
   -3.6493    0.6984    0.0000 O   0  0  0  0  0  0  0  0  0
   -2.8243   -0.7306    0.0000 O   0  0  0  0  0  0  0  0  0
   -2.5224    0.3964    0.0000 N   0  0  0  0  0  0  0  0  0
   -1.8079   -0.0161    0.0000 C   0  0  0  0  0  0  0  0  0
   -1.0934    0.3964    0.0000 C   0  0  0  0  0  0  0  0  0
   -0.3789   -0.0161    0.0000 C   0  0  0  0  0  0  0  0  0
    0.3355    0.3964    0.0000 N   0  0  0  0  0  0  0  0  0
    0.3355    1.2214    0.0000 C   0  0  0  0  0  0  0  0  0
    1.0500    1.6339    0.0000 C   0  0  0  0  0  0  0  0  0
    1.7645    1.2214    0.0000 N   0  0  0  0  0  0  0  0  0
    1.7645    0.3964    0.0000 C   0  0  0  0  0  0  0  0  0
    1.0500   -0.0161    0.0000 C   0  0  0  0  0  0  0  0  0
    2.4789    1.6339    0.0000 C   0  0  0  0  0  0  0  0  0
    2.4789    2.4589    0.0000 C   0  0  0  0  0  0  0  0  0
    3.1934    2.8714    0.0000 C   0  0  0  0  0  0  0  0  0
    3.9079    2.4589    0.0000 C   0  0  0  0  0  0  0  0  0
    3.9079    1.6339    0.0000 C   0  0  0  0  0  0  0  0  0
    3.1934    1.2214    0.0000 C   0  0  0  0  0  0  0  0  0
    3.1934    0.3964    0.0000 O   0  0  0  0  0  0  0  0  0
    3.9079   -0.0161    0.0000 C   0  0  0  0  0  0  0  0  0
   -3.9513   -0.4286    0.0000 C   0  0  0  0  0  0  0  0  0
   -4.6658   -0.0161    0.0000 C   0  0  0  0  0  0  0  0  0
   -5.3802   -0.4286    0.0000 C   0  0  0  0  0  0  0  0  0
   -5.3802   -1.2536    0.0000 C   0  0  0  0  0  0  0  0  0
   -4.6658   -1.6661    0.0000 C   0  0  0  0  0  0  0  0  0
   -3.9513   -1.2536    0.0000 C   0  0  0  0  0  0  0  0  0
   -6.0947   -0.0161    0.0000 C   0  0  0  0  0  0  0  0  0
   -6.8092   -0.4286    0.0000 N   0  0  0  0  0  0  0  0  0
   -6.8092   -1.2536    0.0000 C   0  0  0  0  0  0  0  0  0
   -7.5237   -0.0161    0.0000 C   0  0  0  0  0  0  0  0  0
   -6.0947    0.8089    0.0000 C   0  0  0  0  0  0  0  0  0
   -5.3802    1.2214    0.0000 C   0  0  0  0  0  0  0  0  0
   -4.6658    0.8089    0.0000 C   0  0  0  0  0  0  0  0  0
  1  2  2  0  0  0  0
  1  3  2  0  0  0  0
  1  4  1  0  0  0  0
  1 22  1  0  0  0  0
  4  5  1  0  0  0  0
  5  6  1  0  0  0  0
  6  7  1  0  0  0  0
  7  8  1  0  0  0  0
  8  9  1  0  0  0  0
  8 13  1  0  0  0  0
  9 10  1  0  0  0  0
 10 11  1  0  0  0  0
 11 12  1  0  0  0  0
 11 14  1  0  0  0  0
 12 13  1  0  0  0  0
 14 15  4  0  0  0  0
 14 19  4  0  0  0  0
 15 16  4  0  0  0  0
 16 17  4  0  0  0  0
 17 18  4  0  0  0  0
 18 19  4  0  0  0  0
 19 20  1  0  0  0  0
 20 21  1  0  0  0  0
 22 23  4  0  0  0  0
 22 27  4  0  0  0  0
 23 24  4  0  0  0  0
 23 34  4  0  0  0  0
 24 25  4  0  0  0  0
 24 28  4  0  0  0  0
 25 26  4  0  0  0  0
 26 27  4  0  0  0  0
 28 29  1  0  0  0  0
 28 32  4  0  0  0  0
 29 30  1  0  0  0  0
 29 31  1  0  0  0  0
 32 33  4  0  0  0  0
 33 34  4  0  0  0  0
M  END
>  <Name_Molregno>
571726

>  <5-HT1A>
7.54

$$$$
571727
  Marvin  02231216192D 0   1.00000     0.00000     0

 35 38  0  0  0  0  0  0  0  0999 V2000
    0.0482    0.1759    0.0000 S   0  0  0  0  0  0  0  0  0
   -0.3643    0.8904    0.0000 O   0  0  0  0  0  0  0  0  0
    0.4607   -0.5386    0.0000 O   0  0  0  0  0  0  0  0  0
    0.7627    0.5884    0.0000 N   0  0  0  0  0  0  0  0  0
    1.4771    0.1759    0.0000 C   0  0  0  0  0  0  0  0  0
    2.1916    0.5884    0.0000 C   0  0  0  0  0  0  0  0  0
    2.9061    0.1759    0.0000 C   0  0  0  0  0  0  0  0  0
    3.6205    0.5884    0.0000 C   0  0  0  0  0  0  0  0  0
    4.3350    0.1759    0.0000 N   0  0  0  0  0  0  0  0  0
    5.0495    0.5884    0.0000 C   0  0  0  0  0  0  0  0  0
    5.7640    0.1759    0.0000 C   0  0  0  0  0  0  0  0  0
    5.7640   -0.6491    0.0000 N   0  0  0  0  0  0  0  0  0
    5.0495   -1.0616    0.0000 C   0  0  0  0  0  0  0  0  0
    4.3350   -0.6491    0.0000 C   0  0  0  0  0  0  0  0  0
    6.4784   -1.0616    0.0000 C   0  0  0  0  0  0  0  0  0
    7.1929   -0.6491    0.0000 C   0  0  0  0  0  0  0  0  0
    7.9074   -1.0616    0.0000 C   0  0  0  0  0  0  0  0  0
    7.9074   -1.8866    0.0000 C   0  0  0  0  0  0  0  0  0
    7.1929   -2.2991    0.0000 C   0  0  0  0  0  0  0  0  0
    6.4784   -1.8866    0.0000 C   0  0  0  0  0  0  0  0  0
    5.7640   -2.2991    0.0000 O   0  0  0  0  0  0  0  0  0
    5.7640   -3.1241    0.0000 C   0  0  0  0  0  0  0  0  0
   -0.6663   -0.2366    0.0000 C   0  0  0  0  0  0  0  0  0
   -1.3808    0.1759    0.0000 C   0  0  0  0  0  0  0  0  0
   -2.0952   -0.2366    0.0000 C   0  0  0  0  0  0  0  0  0
   -2.0952   -1.0616    0.0000 C   0  0  0  0  0  0  0  0  0
   -1.3808   -1.4741    0.0000 C   0  0  0  0  0  0  0  0  0
   -0.6663   -1.0616    0.0000 C   0  0  0  0  0  0  0  0  0
   -2.8097    0.1759    0.0000 C   0  0  0  0  0  0  0  0  0
   -3.5242   -0.2366    0.0000 N   0  0  0  0  0  0  0  0  0
   -3.5242   -1.0616    0.0000 C   0  0  0  0  0  0  0  0  0
   -4.2386    0.1759    0.0000 C   0  0  0  0  0  0  0  0  0
   -2.8097    1.0009    0.0000 C   0  0  0  0  0  0  0  0  0
   -2.0952    1.4134    0.0000 C   0  0  0  0  0  0  0  0  0
   -1.3808    1.0009    0.0000 C   0  0  0  0  0  0  0  0  0
  1  2  2  0  0  0  0
  1  3  2  0  0  0  0
  1  4  1  0  0  0  0
  1 23  1  0  0  0  0
  4  5  1  0  0  0  0
  5  6  1  0  0  0  0
  6  7  1  0  0  0  0
  7  8  1  0  0  0  0
  8  9  1  0  0  0  0
  9 10  1  0  0  0  0
  9 14  1  0  0  0  0
 10 11  1  0  0  0  0
 11 12  1  0  0  0  0
 12 13  1  0  0  0  0
 12 15  1  0  0  0  0
 13 14  1  0  0  0  0
 15 16  4  0  0  0  0
 15 20  4  0  0  0  0
 16 17  4  0  0  0  0
 17 18  4  0  0  0  0
 18 19  4  0  0  0  0
 19 20  4  0  0  0  0
 20 21  1  0  0  0  0
 21 22  1  0  0  0  0
 23 24  4  0  0  0  0
 23 28  4  0  0  0  0
 24 25  4  0  0  0  0
 24 35  4  0  0  0  0
 25 26  4  0  0  0  0
 25 29  4  0  0  0  0
 26 27  4  0  0  0  0
 27 28  4  0  0  0  0
 29 30  1  0  0  0  0
 29 33  4  0  0  0  0
 30 31  1  0  0  0  0
 30 32  1  0  0  0  0
 33 34  4  0  0  0  0
 34 35  4  0  0  0  0
M  END
>  <Name_Molregno>
571727

>  <5-HT1A>
6.82

$$$$
571739
  Marvin  02231216192D 0   1.00000     0.00000     0

 36 39  0  0  0  0  0  0  0  0999 V2000
   -4.4832   -1.0189    0.0000 S   0  0  0  0  0  0  0  0  0
   -4.8957   -0.3044    0.0000 O   0  0  0  0  0  0  0  0  0
   -4.0707   -1.7334    0.0000 O   0  0  0  0  0  0  0  0  0
   -3.7687   -0.6064    0.0000 N   0  0  0  0  0  0  0  0  0
   -3.0542   -1.0189    0.0000 C   0  0  0  0  0  0  0  0  0
   -2.3397   -0.6064    0.0000 C   0  0  0  0  0  0  0  0  0
   -1.6253   -1.0189    0.0000 C   0  0  0  0  0  0  0  0  0
   -0.9108   -0.6064    0.0000 C   0  0  0  0  0  0  0  0  0
   -0.1963   -1.0189    0.0000 C   0  0  0  0  0  0  0  0  0
    0.5181   -0.6064    0.0000 N   0  0  0  0  0  0  0  0  0
    0.5181    0.2186    0.0000 C   0  0  0  0  0  0  0  0  0
    1.2326    0.6311    0.0000 C   0  0  0  0  0  0  0  0  0
    1.9471    0.2186    0.0000 N   0  0  0  0  0  0  0  0  0
    1.9471   -0.6064    0.0000 C   0  0  0  0  0  0  0  0  0
    1.2326   -1.0189    0.0000 C   0  0  0  0  0  0  0  0  0
    2.6615    0.6311    0.0000 C   0  0  0  0  0  0  0  0  0
    2.6615    1.4561    0.0000 C   0  0  0  0  0  0  0  0  0
    3.3760    1.8686    0.0000 C   0  0  0  0  0  0  0  0  0
    4.0905    1.4561    0.0000 C   0  0  0  0  0  0  0  0  0
    4.0905    0.6311    0.0000 C   0  0  0  0  0  0  0  0  0
    3.3760    0.2186    0.0000 C   0  0  0  0  0  0  0  0  0
    3.3760   -0.6064    0.0000 O   0  0  0  0  0  0  0  0  0
    4.0905   -1.0189    0.0000 C   0  0  0  0  0  0  0  0  0
   -5.1976   -1.4314    0.0000 C   0  0  0  0  0  0  0  0  0
   -5.9121   -1.0189    0.0000 C   0  0  0  0  0  0  0  0  0
   -6.6266   -1.4314    0.0000 C   0  0  0  0  0  0  0  0  0
   -6.6266   -2.2564    0.0000 C   0  0  0  0  0  0  0  0  0
   -5.9121   -2.6689    0.0000 C   0  0  0  0  0  0  0  0  0
   -5.1976   -2.2564    0.0000 C   0  0  0  0  0  0  0  0  0
   -7.3410   -1.0189    0.0000 C   0  0  0  0  0  0  0  0  0
   -8.0555   -1.4314    0.0000 N   0  0  0  0  0  0  0  0  0
   -8.0555   -2.2564    0.0000 C   0  0  0  0  0  0  0  0  0
   -8.7700   -1.0189    0.0000 C   0  0  0  0  0  0  0  0  0
   -7.3410   -0.1939    0.0000 C   0  0  0  0  0  0  0  0  0
   -6.6266    0.2186    0.0000 C   0  0  0  0  0  0  0  0  0
   -5.9121   -0.1939    0.0000 C   0  0  0  0  0  0  0  0  0
  1  2  2  0  0  0  0
  1  3  2  0  0  0  0
  1  4  1  0  0  0  0
  1 24  1  0  0  0  0
  4  5  1  0  0  0  0
  5  6  1  0  0  0  0
  6  7  1  0  0  0  0
  7  8  1  0  0  0  0
  8  9  1  0  0  0  0
  9 10  1  0  0  0  0
 10 11  1  0  0  0  0
 10 15  1  0  0  0  0
 11 12  1  0  0  0  0
 12 13  1  0  0  0  0
 13 14  1  0  0  0  0
 13 16  1  0  0  0  0
 14 15  1  0  0  0  0
 16 17  4  0  0  0  0
 16 21  4  0  0  0  0
 17 18  4  0  0  0  0
 18 19  4  0  0  0  0
 19 20  4  0  0  0  0
 20 21  4  0  0  0  0
 21 22  1  0  0  0  0
 22 23  1  0  0  0  0
 24 25  4  0  0  0  0
 24 29  4  0  0  0  0
 25 26  4  0  0  0  0
 25 36  4  0  0  0  0
 26 27  4  0  0  0  0
 26 30  4  0  0  0  0
 27 28  4  0  0  0  0
 28 29  4  0  0  0  0
 30 31  1  0  0  0  0
 30 34  4  0  0  0  0
 31 32  1  0  0  0  0
 31 33  1  0  0  0  0
 34 35  4  0  0  0  0
 35 36  4  0  0  0  0
M  END
>  <Name_Molregno>
571739

>  <5-HT1A>
7.27

$$$$
571764
  Marvin  02231216192D 0   1.00000     0.00000     0

 31 34  0  0  0  0  0  0  0  0999 V2000
   -7.9072    0.8465    0.0000 O   0  0  0  0  0  0  0  0  0
   -8.7322    0.8465    0.0000 C   0  0  0  0  0  0  0  0  0
   -7.4947    1.5610    0.0000 C   0  0  0  0  0  0  0  0  0
   -7.9072    2.2754    0.0000 C   0  0  0  0  0  0  0  0  0
   -7.4947    2.9899    0.0000 C   0  0  0  0  0  0  0  0  0
   -6.6697    2.9899    0.0000 C   0  0  0  0  0  0  0  0  0
   -6.2572    2.2754    0.0000 C   0  0  0  0  0  0  0  0  0
   -6.6697    1.5610    0.0000 C   0  0  0  0  0  0  0  0  0
   -6.2572    0.8465    0.0000 N   0  0  0  0  0  0  0  0  0
   -5.4322    0.8465    0.0000 C   0  0  0  0  0  0  0  0  0
   -5.0197    0.1320    0.0000 C   0  0  0  0  0  0  0  0  0
   -5.4322   -0.5824    0.0000 N   0  0  0  0  0  0  0  0  0
   -6.2572   -0.5824    0.0000 C   0  0  0  0  0  0  0  0  0
   -6.6697    0.1320    0.0000 C   0  0  0  0  0  0  0  0  0
   -5.0197   -1.2969    0.0000 C   0  0  0  0  0  0  0  0  0
   -4.1947   -1.2969    0.0000 C   0  0  0  0  0  0  0  0  0
   -3.7822   -2.0114    0.0000 C   0  0  0  0  0  0  0  0  0
   -2.9572   -2.0114    0.0000 N   0  0  0  0  0  0  0  0  0
   -2.4722   -2.6788    0.0000 C   0  0  0  0  0  0  0  0  0
   -2.7272   -3.4635    0.0000 O   0  0  0  0  0  0  0  0  0
   -1.6876   -2.4239    0.0000 C   0  0  0  0  0  0  0  0  0
   -1.6876   -1.5989    0.0000 C   0  0  0  0  0  0  0  0  0
   -0.9731   -1.1864    0.0000 C   0  0  0  0  0  0  0  0  0
   -0.2587   -1.5989    0.0000 C   0  0  0  0  0  0  0  0  0
   -0.2587   -2.4239    0.0000 C   0  0  0  0  0  0  0  0  0
    0.4558   -2.8364    0.0000 N   0  0  0  0  0  0  0  0  0
    1.1703   -2.4239    0.0000 C   0  0  0  0  0  0  0  0  0
    0.4558   -3.6614    0.0000 C   0  0  0  0  0  0  0  0  0
   -0.9731   -2.8364    0.0000 C   0  0  0  0  0  0  0  0  0
   -2.4722   -1.3440    0.0000 C   0  0  0  0  0  0  0  0  0
   -2.7272   -0.5593    0.0000 O   0  0  0  0  0  0  0  0  0
  1  2  1  0  0  0  0
  1  3  1  0  0  0  0
  3  4  4  0  0  0  0
  3  8  4  0  0  0  0
  4  5  4  0  0  0  0
  5  6  4  0  0  0  0
  6  7  4  0  0  0  0
  7  8  4  0  0  0  0
  8  9  1  0  0  0  0
  9 10  1  0  0  0  0
  9 14  1  0  0  0  0
 10 11  1  0  0  0  0
 11 12  1  0  0  0  0
 12 13  1  0  0  0  0
 12 15  1  0  0  0  0
 13 14  1  0  0  0  0
 15 16  1  0  0  0  0
 16 17  1  0  0  0  0
 17 18  1  0  0  0  0
 18 19  1  0  0  0  0
 18 30  1  0  0  0  0
 19 20  2  0  0  0  0
 19 21  1  0  0  0  0
 21 22  4  0  0  0  0
 21 29  4  0  0  0  0
 22 23  4  0  0  0  0
 22 30  1  0  0  0  0
 23 24  4  0  0  0  0
 24 25  4  0  0  0  0
 25 26  1  0  0  0  0
 25 29  4  0  0  0  0
 26 27  1  0  0  0  0
 26 28  1  0  0  0  0
 30 31  2  0  0  0  0
M  END
>  <Name_Molregno>
571764

>  <5-HT1A>
9.33

$$$$
571765
  Marvin  02231216192D 0   1.00000     0.00000     0

 32 35  0  0  1  0  0  0  0  0999 V2000
   -6.6156   -2.3088    0.0000 O   0  0  0  0  0  0  0  0  0
   -6.6156   -3.1338    0.0000 C   0  0  0  0  0  0  0  0  0
   -7.3301   -1.8963    0.0000 C   0  0  0  0  0  0  0  0  0
   -8.0446   -2.3088    0.0000 C   0  0  0  0  0  0  0  0  0
   -8.7591   -1.8963    0.0000 C   0  0  0  0  0  0  0  0  0
   -8.7591   -1.0713    0.0000 C   0  0  0  0  0  0  0  0  0
   -8.0446   -0.6588    0.0000 C   0  0  0  0  0  0  0  0  0
   -7.3301   -1.0713    0.0000 C   0  0  0  0  0  0  0  0  0
   -6.6156   -0.6588    0.0000 N   0  0  0  0  0  0  0  0  0
   -6.6156    0.1662    0.0000 C   0  0  0  0  0  0  0  0  0
   -5.9012    0.5787    0.0000 C   0  0  0  0  0  0  0  0  0
   -5.1867    0.1662    0.0000 N   0  0  0  0  0  0  0  0  0
   -5.1867   -0.6588    0.0000 C   0  0  0  0  0  0  0  0  0
   -5.9012   -1.0713    0.0000 C   0  0  0  0  0  0  0  0  0
   -4.4722    0.5787    0.0000 C   0  0  0  0  0  0  0  0  0
   -3.7578    0.1662    0.0000 C   0  0  0  0  0  0  0  0  0
   -3.0433    0.5787    0.0000 N   0  0  0  0  0  0  0  0  0
   -2.3288    0.1662    0.0000 C   0  0  0  0  0  0  0  0  0
   -2.3288   -0.6588    0.0000 O   0  0  0  0  0  0  0  0  0
   -1.6143    0.5787    0.0000 C   0  0  0  0  0  0  0  0  0
   -0.8999    0.1662    0.0000 C   0  0  0  0  0  0  0  0  0
   -0.1854    0.5787    0.0000 C   0  0  0  0  0  0  0  0  0
    0.5291    0.1662    0.0000 C   0  0  0  0  0  0  0  0  0
    0.5291   -0.6588    0.0000 C   0  0  0  0  0  0  0  0  0
   -0.1854   -1.0713    0.0000 C   0  0  0  0  0  0  0  0  0
   -0.8999   -0.6588    0.0000 C   0  0  0  0  0  0  0  0  0
   -1.6143    1.4037    0.0000 C   0  0  0  0  0  0  0  0  0
   -2.3288    1.8162    0.0000 N   0  0  0  0  0  0  0  0  0
   -2.3288    2.6412    0.0000 C   0  0  0  0  0  0  0  0  0
   -1.6143    3.0537    0.0000 C   0  0  0  0  0  0  0  0  0
   -0.8999    2.6412    0.0000 C   0  0  0  0  0  0  0  0  0
   -0.8999    1.8162    0.0000 C   0  0  0  0  0  0  0  0  0
  1  2  1  0  0  0  0
  1  3  1  0  0  0  0
  3  4  4  0  0  0  0
  3  8  4  0  0  0  0
  4  5  4  0  0  0  0
  5  6  4  0  0  0  0
  6  7  4  0  0  0  0
  7  8  4  0  0  0  0
  8  9  1  0  0  0  0
  9 10  1  0  0  0  0
  9 14  1  0  0  0  0
 10 11  1  0  0  0  0
 11 12  1  0  0  0  0
 12 13  1  0  0  0  0
 12 15  1  0  0  0  0
 13 14  1  0  0  0  0
 15 16  1  0  0  0  0
 16 17  1  0  0  0  0
 17 18  1  0  0  0  0
 18 19  2  0  0  0  0
 18 20  1  0  0  0  0
 20 21  1  0  0  0  0
 20 27  1  0  0  0  0
 21 22  1  0  0  0  0
 21 26  1  0  0  0  0
 22 23  1  0  0  0  0
 23 24  1  0  0  0  0
 24 25  1  0  0  0  0
 25 26  1  0  0  0  0
 27 28  4  0  0  0  0
 27 32  4  0  0  0  0
 28 29  4  0  0  0  0
 29 30  4  0  0  0  0
 30 31  4  0  0  0  0
 31 32  4  0  0  0  0
M  END
>  <Name_Molregno>
571765

>  <5-HT1A>
8.66

$$$$
571791
  Marvin  02231216192D 0   1.00000     0.00000     0

 35 39  0  0  0  0  0  0  0  0999 V2000
   -9.7900   -1.2983    0.0000 O   0  0  0  0  0  0  0  0  0
  -10.5045   -1.7108    0.0000 C   0  0  0  0  0  0  0  0  0
   -9.7900   -0.4733    0.0000 C   0  0  0  0  0  0  0  0  0
  -10.5045   -0.0608    0.0000 C   0  0  0  0  0  0  0  0  0
  -10.5045    0.7642    0.0000 C   0  0  0  0  0  0  0  0  0
   -9.7900    1.1767    0.0000 C   0  0  0  0  0  0  0  0  0
   -9.0756    0.7642    0.0000 C   0  0  0  0  0  0  0  0  0
   -9.0756   -0.0608    0.0000 C   0  0  0  0  0  0  0  0  0
   -8.3611   -0.4733    0.0000 N   0  0  0  0  0  0  0  0  0
   -7.6466   -0.0608    0.0000 C   0  0  0  0  0  0  0  0  0
   -6.9321   -0.4733    0.0000 C   0  0  0  0  0  0  0  0  0
   -6.9321   -1.2983    0.0000 N   0  0  0  0  0  0  0  0  0
   -7.6466   -1.7108    0.0000 C   0  0  0  0  0  0  0  0  0
   -8.3611   -1.2983    0.0000 C   0  0  0  0  0  0  0  0  0
   -6.2177   -1.7108    0.0000 C   0  0  0  0  0  0  0  0  0
   -5.5032   -1.2983    0.0000 C   0  0  0  0  0  0  0  0  0
   -4.7887   -1.7108    0.0000 C   0  0  0  0  0  0  0  0  0
   -4.0743   -1.2983    0.0000 C   0  0  0  0  0  0  0  0  0
   -3.3598   -1.7108    0.0000 C   0  0  0  0  0  0  0  0  0
   -2.6453   -1.2983    0.0000 N   0  0  0  0  0  0  0  0  0
   -1.9308   -1.7108    0.0000 C   0  0  0  0  0  0  0  0  0
   -1.9308   -2.5358    0.0000 O   0  0  0  0  0  0  0  0  0
   -1.2164   -1.2983    0.0000 C   0  0  0  0  0  0  0  0  0
   -1.2164   -0.4733    0.0000 C   0  0  0  0  0  0  0  0  0
   -1.9308   -0.0608    0.0000 C   0  0  0  0  0  0  0  0  0
   -1.9308    0.7642    0.0000 C   0  0  0  0  0  0  0  0  0
   -1.2164    1.1767    0.0000 C   0  0  0  0  0  0  0  0  0
   -0.5019    0.7642    0.0000 C   0  0  0  0  0  0  0  0  0
   -0.5019   -0.0608    0.0000 C   0  0  0  0  0  0  0  0  0
    0.2126   -0.4733    0.0000 C   0  0  0  0  0  0  0  0  0
    0.9270   -0.0608    0.0000 N   0  0  0  0  0  0  0  0  0
    0.2126   -1.2983    0.0000 C   0  0  0  0  0  0  0  0  0
   -0.5019   -1.7108    0.0000 C   0  0  0  0  0  0  0  0  0
   -2.6453   -0.4733    0.0000 C   0  0  0  0  0  0  0  0  0
   -3.3598   -0.0608    0.0000 O   0  0  0  0  0  0  0  0  0
  1  2  1  0  0  0  0
  1  3  1  0  0  0  0
  3  4  4  0  0  0  0
  3  8  4  0  0  0  0
  4  5  4  0  0  0  0
  5  6  4  0  0  0  0
  6  7  4  0  0  0  0
  7  8  4  0  0  0  0
  8  9  1  0  0  0  0
  9 10  1  0  0  0  0
  9 14  1  0  0  0  0
 10 11  1  0  0  0  0
 11 12  1  0  0  0  0
 12 13  1  0  0  0  0
 12 15  1  0  0  0  0
 13 14  1  0  0  0  0
 15 16  1  0  0  0  0
 16 17  1  0  0  0  0
 17 18  1  0  0  0  0
 18 19  1  0  0  0  0
 19 20  1  0  0  0  0
 20 21  1  0  0  0  0
 20 34  1  0  0  0  0
 21 22  2  0  0  0  0
 21 23  1  0  0  0  0
 23 24  4  0  0  0  0
 23 33  4  0  0  0  0
 24 25  4  0  0  0  0
 24 29  4  0  0  0  0
 25 26  4  0  0  0  0
 25 34  1  0  0  0  0
 26 27  4  0  0  0  0
 27 28  4  0  0  0  0
 28 29  4  0  0  0  0
 29 30  4  0  0  0  0
 30 31  1  0  0  0  0
 30 32  4  0  0  0  0
 32 33  4  0  0  0  0
 34 35  2  0  0  0  0
M  END
>  <Name_Molregno>
571791

>  <5-HT1A>
9.17

$$$$
571807
  Marvin  02231216192D 0   1.00000     0.00000     0

 33 37  0  0  0  0  0  0  0  0999 V2000
   -8.2962   -0.0449    0.0000 O   0  0  0  0  0  0  0  0  0
   -9.0107   -0.4574    0.0000 C   0  0  0  0  0  0  0  0  0
   -8.2962    0.7801    0.0000 C   0  0  0  0  0  0  0  0  0
   -9.0107    1.1926    0.0000 C   0  0  0  0  0  0  0  0  0
   -9.0107    2.0176    0.0000 C   0  0  0  0  0  0  0  0  0
   -8.2962    2.4301    0.0000 C   0  0  0  0  0  0  0  0  0
   -7.5818    2.0176    0.0000 C   0  0  0  0  0  0  0  0  0
   -7.5818    1.1926    0.0000 C   0  0  0  0  0  0  0  0  0
   -6.8673    0.7801    0.0000 N   0  0  0  0  0  0  0  0  0
   -6.1528    1.1926    0.0000 C   0  0  0  0  0  0  0  0  0
   -5.4384    0.7801    0.0000 C   0  0  0  0  0  0  0  0  0
   -5.4384   -0.0449    0.0000 N   0  0  0  0  0  0  0  0  0
   -6.1528   -0.4574    0.0000 C   0  0  0  0  0  0  0  0  0
   -6.8673   -0.0449    0.0000 C   0  0  0  0  0  0  0  0  0
   -4.7239   -0.4574    0.0000 C   0  0  0  0  0  0  0  0  0
   -4.0094   -0.0449    0.0000 C   0  0  0  0  0  0  0  0  0
   -3.2949   -0.4574    0.0000 C   0  0  0  0  0  0  0  0  0
   -2.5805   -0.0449    0.0000 N   0  0  0  0  0  0  0  0  0
   -1.8660   -0.4574    0.0000 C   0  0  0  0  0  0  0  0  0
   -1.8660   -1.2824    0.0000 O   0  0  0  0  0  0  0  0  0
   -1.1515   -0.0449    0.0000 C   0  0  0  0  0  0  0  0  0
   -1.1515    0.7801    0.0000 C   0  0  0  0  0  0  0  0  0
   -1.8660    1.1926    0.0000 C   0  0  0  0  0  0  0  0  0
   -1.8660    2.0176    0.0000 C   0  0  0  0  0  0  0  0  0
   -1.1515    2.4301    0.0000 C   0  0  0  0  0  0  0  0  0
   -0.4371    2.0176    0.0000 C   0  0  0  0  0  0  0  0  0
   -0.4371    1.1926    0.0000 C   0  0  0  0  0  0  0  0  0
    0.2774    0.7801    0.0000 C   0  0  0  0  0  0  0  0  0
    0.9919    1.1926    0.0000 N   0  0  0  0  0  0  0  0  0
    0.2774   -0.0449    0.0000 C   0  0  0  0  0  0  0  0  0
   -0.4371   -0.4574    0.0000 C   0  0  0  0  0  0  0  0  0
   -2.5805    0.7801    0.0000 C   0  0  0  0  0  0  0  0  0
   -3.2949    1.1926    0.0000 O   0  0  0  0  0  0  0  0  0
  1  2  1  0  0  0  0
  1  3  1  0  0  0  0
  3  4  4  0  0  0  0
  3  8  4  0  0  0  0
  4  5  4  0  0  0  0
  5  6  4  0  0  0  0
  6  7  4  0  0  0  0
  7  8  4  0  0  0  0
  8  9  1  0  0  0  0
  9 10  1  0  0  0  0
  9 14  1  0  0  0  0
 10 11  1  0  0  0  0
 11 12  1  0  0  0  0
 12 13  1  0  0  0  0
 12 15  1  0  0  0  0
 13 14  1  0  0  0  0
 15 16  1  0  0  0  0
 16 17  1  0  0  0  0
 17 18  1  0  0  0  0
 18 19  1  0  0  0  0
 18 32  1  0  0  0  0
 19 20  2  0  0  0  0
 19 21  1  0  0  0  0
 21 22  4  0  0  0  0
 21 31  4  0  0  0  0
 22 23  4  0  0  0  0
 22 27  4  0  0  0  0
 23 24  4  0  0  0  0
 23 32  1  0  0  0  0
 24 25  4  0  0  0  0
 25 26  4  0  0  0  0
 26 27  4  0  0  0  0
 27 28  4  0  0  0  0
 28 29  1  0  0  0  0
 28 30  4  0  0  0  0
 30 31  4  0  0  0  0
 32 33  2  0  0  0  0
M  END
>  <Name_Molregno>
571807

>  <5-HT1A>
6.94

$$$$
571838
  Marvin  02231216192D 0   1.00000     0.00000     0

 30 33  0  0  0  0  0  0  0  0999 V2000
   -6.5526    0.8336    0.0000 O   0  0  0  0  0  0  0  0  0
   -6.9651    0.1192    0.0000 C   0  0  0  0  0  0  0  0  0
   -6.9651    1.5481    0.0000 C   0  0  0  0  0  0  0  0  0
   -7.7901    1.5481    0.0000 C   0  0  0  0  0  0  0  0  0
   -8.2026    2.2626    0.0000 C   0  0  0  0  0  0  0  0  0
   -7.7901    2.9771    0.0000 C   0  0  0  0  0  0  0  0  0
   -6.9651    2.9771    0.0000 C   0  0  0  0  0  0  0  0  0
   -6.5526    2.2626    0.0000 C   0  0  0  0  0  0  0  0  0
   -5.7276    2.2626    0.0000 N   0  0  0  0  0  0  0  0  0
   -5.3151    2.9771    0.0000 C   0  0  0  0  0  0  0  0  0
   -4.4901    2.9771    0.0000 C   0  0  0  0  0  0  0  0  0
   -4.0776    2.2626    0.0000 N   0  0  0  0  0  0  0  0  0
   -4.4901    1.5481    0.0000 C   0  0  0  0  0  0  0  0  0
   -5.3151    1.5481    0.0000 C   0  0  0  0  0  0  0  0  0
   -3.2526    2.2626    0.0000 C   0  0  0  0  0  0  0  0  0
   -2.8401    1.5481    0.0000 C   0  0  0  0  0  0  0  0  0
   -2.0151    1.5481    0.0000 N   0  0  0  0  0  0  0  0  0
   -1.5302    0.8807    0.0000 C   0  0  0  0  0  0  0  0  0
   -1.7851    0.0961    0.0000 O   0  0  0  0  0  0  0  0  0
   -0.7456    1.1356    0.0000 C   0  0  0  0  0  0  0  0  0
   -0.7456    1.9606    0.0000 C   0  0  0  0  0  0  0  0  0
   -0.0311    2.3731    0.0000 C   0  0  0  0  0  0  0  0  0
    0.6834    1.9606    0.0000 C   0  0  0  0  0  0  0  0  0
    0.6834    1.1356    0.0000 C   0  0  0  0  0  0  0  0  0
    1.3978    0.7231    0.0000 N   0  0  0  0  0  0  0  0  0
    2.1123    1.1356    0.0000 C   0  0  0  0  0  0  0  0  0
    1.3978   -0.1019    0.0000 C   0  0  0  0  0  0  0  0  0
   -0.0311    0.7231    0.0000 C   0  0  0  0  0  0  0  0  0
   -1.5302    2.2155    0.0000 C   0  0  0  0  0  0  0  0  0
   -1.7851    3.0002    0.0000 O   0  0  0  0  0  0  0  0  0
  1  2  1  0  0  0  0
  1  3  1  0  0  0  0
  3  4  4  0  0  0  0
  3  8  4  0  0  0  0
  4  5  4  0  0  0  0
  5  6  4  0  0  0  0
  6  7  4  0  0  0  0
  7  8  4  0  0  0  0
  8  9  1  0  0  0  0
  9 10  1  0  0  0  0
  9 14  1  0  0  0  0
 10 11  1  0  0  0  0
 11 12  1  0  0  0  0
 12 13  1  0  0  0  0
 12 15  1  0  0  0  0
 13 14  1  0  0  0  0
 15 16  1  0  0  0  0
 16 17  1  0  0  0  0
 17 18  1  0  0  0  0
 17 29  1  0  0  0  0
 18 19  2  0  0  0  0
 18 20  1  0  0  0  0
 20 21  4  0  0  0  0
 20 28  4  0  0  0  0
 21 22  4  0  0  0  0
 21 29  1  0  0  0  0
 22 23  4  0  0  0  0
 23 24  4  0  0  0  0
 24 25  1  0  0  0  0
 24 28  4  0  0  0  0
 25 26  1  0  0  0  0
 25 27  1  0  0  0  0
 29 30  2  0  0  0  0
M  END
>  <Name_Molregno>
571838

>  <5-HT1A>
7.82

$$$$
572495
  Marvin  02231216192D 0   1.00000     0.00000     0

 21 23  0  0  0  0  0  0  0  0999 V2000
    3.7582   -0.5204    0.0000 F   0  0  0  0  0  0  0  0  0
    3.7582   -1.3454    0.0000 C   0  0  0  0  0  0  0  0  0
    4.4727   -1.7579    0.0000 C   0  0  0  0  0  0  0  0  0
    4.4727   -2.5829    0.0000 C   0  0  0  0  0  0  0  0  0
    3.7582   -2.9954    0.0000 C   0  0  0  0  0  0  0  0  0
    3.0438   -2.5829    0.0000 C   0  0  0  0  0  0  0  0  0
    3.0438   -1.7579    0.0000 C   0  0  0  0  0  0  0  0  0
    2.3293   -1.3454    0.0000 C   0  0  0  0  0  0  0  0  0
    2.3293   -0.5204    0.0000 O   0  0  0  0  0  0  0  0  0
    1.6148   -0.1079    0.0000 C   0  0  0  0  0  0  0  0  0
    0.9004   -0.5204    0.0000 C   0  0  0  0  0  0  0  0  0
    0.1859   -0.1079    0.0000 C   0  0  0  0  0  0  0  0  0
    0.1859    0.7171    0.0000 C   0  0  0  0  0  0  0  0  0
    0.9004    1.1296    0.0000 C   0  0  0  0  0  0  0  0  0
    1.6148    0.7171    0.0000 C   0  0  0  0  0  0  0  0  0
    2.3293    1.1296    0.0000 C   0  0  0  0  0  0  0  0  0
    2.3293    1.9546    0.0000 C   0  0  0  0  0  0  0  0  0
    3.0438    2.3671    0.0000 C   0  0  0  0  0  0  0  0  0
    3.7582    1.9546    0.0000 N   0  0  0  0  0  0  0  0  0
    3.7582    1.1296    0.0000 C   0  0  0  0  0  0  0  0  0
    3.0438    0.7171    0.0000 C   0  0  0  0  0  0  0  0  0
  1  2  1  0  0  0  0
  2  3  4  0  0  0  0
  2  7  4  0  0  0  0
  3  4  4  0  0  0  0
  4  5  4  0  0  0  0
  5  6  4  0  0  0  0
  6  7  4  0  0  0  0
  7  8  1  0  0  0  0
  8  9  1  0  0  0  0
  9 10  1  0  0  0  0
 10 11  4  0  0  0  0
 10 15  4  0  0  0  0
 11 12  4  0  0  0  0
 12 13  4  0  0  0  0
 13 14  4  0  0  0  0
 14 15  4  0  0  0  0
 15 16  1  0  0  0  0
 16 17  1  0  0  0  0
 16 21  1  0  0  0  0
 17 18  1  0  0  0  0
 18 19  1  0  0  0  0
 19 20  1  0  0  0  0
 20 21  1  0  0  0  0
M  END
>  <Name_Molregno>
572495

>  <5-HT1A>
7.33

>  <Dopamine transporter>
5.74

>  <Norepinephrine transporter>
7.47

>  <Serotonin transporter>
7.25

$$$$
572496
  Marvin  02231216192D 0   1.00000     0.00000     0

 22 24  0  0  0  0  0  0  0  0999 V2000
   -2.3312    1.4071    0.0000 F   0  0  0  0  0  0  0  0  0
   -2.3312    0.5821    0.0000 C   0  0  0  0  0  0  0  0  0
   -1.6167    0.1696    0.0000 C   0  0  0  0  0  0  0  0  0
   -1.6167   -0.6554    0.0000 C   0  0  0  0  0  0  0  0  0
   -0.9023   -1.0679    0.0000 C   0  0  0  0  0  0  0  0  0
   -0.1878   -0.6554    0.0000 C   0  0  0  0  0  0  0  0  0
    0.5267   -1.0679    0.0000 C   0  0  0  0  0  0  0  0  0
    0.5267   -1.8929    0.0000 N   0  0  0  0  0  0  0  0  0
   -0.1878   -2.3054    0.0000 C   0  0  0  0  0  0  0  0  0
   -0.9023   -1.8929    0.0000 C   0  0  0  0  0  0  0  0  0
   -2.3312   -1.0679    0.0000 C   0  0  0  0  0  0  0  0  0
   -2.3312   -1.8929    0.0000 O   0  0  0  0  0  0  0  0  0
   -3.0457   -2.3054    0.0000 C   0  0  0  0  0  0  0  0  0
   -3.0457   -3.1304    0.0000 C   0  0  0  0  0  0  0  0  0
   -3.7602   -3.5429    0.0000 C   0  0  0  0  0  0  0  0  0
   -4.4746   -3.1304    0.0000 C   0  0  0  0  0  0  0  0  0
   -5.1891   -3.5429    0.0000 F   0  0  0  0  0  0  0  0  0
   -4.4746   -2.3054    0.0000 C   0  0  0  0  0  0  0  0  0
   -3.7602   -1.8929    0.0000 C   0  0  0  0  0  0  0  0  0
   -3.0457   -0.6554    0.0000 C   0  0  0  0  0  0  0  0  0
   -3.0457    0.1696    0.0000 C   0  0  0  0  0  0  0  0  0
   -3.7602    0.5821    0.0000 F   0  0  0  0  0  0  0  0  0
  1  2  1  0  0  0  0
  2  3  4  0  0  0  0
  2 21  4  0  0  0  0
  3  4  4  0  0  0  0
  4  5  1  0  0  0  0
  4 11  4  0  0  0  0
  5  6  1  0  0  0  0
  5 10  1  0  0  0  0
  6  7  1  0  0  0  0
  7  8  1  0  0  0  0
  8  9  1  0  0  0  0
  9 10  1  0  0  0  0
 11 12  1  0  0  0  0
 11 20  4  0  0  0  0
 12 13  1  0  0  0  0
 13 14  4  0  0  0  0
 13 19  4  0  0  0  0
 14 15  4  0  0  0  0
 15 16  4  0  0  0  0
 16 17  1  0  0  0  0
 16 18  4  0  0  0  0
 18 19  4  0  0  0  0
 20 21  4  0  0  0  0
 21 22  1  0  0  0  0
M  END
>  <Name_Molregno>
572496

>  <5-HT1A>
5.34

>  <Dopamine transporter>
9

>  <Norepinephrine transporter>
9

>  <Serotonin transporter>
6.59

$$$$
572504
  Marvin  02231216192D 0   1.00000     0.00000     0

 21 23  0  0  0  0  0  0  0  0999 V2000
    1.9777   -0.3426    0.0000 F   0  0  0  0  0  0  0  0  0
    1.9777   -1.1676    0.0000 C   0  0  0  0  0  0  0  0  0
    2.6921   -1.5801    0.0000 C   0  0  0  0  0  0  0  0  0
    2.6921   -2.4051    0.0000 C   0  0  0  0  0  0  0  0  0
    1.9777   -2.8176    0.0000 C   0  0  0  0  0  0  0  0  0
    1.2632   -2.4051    0.0000 C   0  0  0  0  0  0  0  0  0
    0.5487   -2.8176    0.0000 C   0  0  0  0  0  0  0  0  0
    0.5487   -3.6426    0.0000 C   0  0  0  0  0  0  0  0  0
   -0.1658   -4.0551    0.0000 C   0  0  0  0  0  0  0  0  0
   -0.8802   -3.6426    0.0000 N   0  0  0  0  0  0  0  0  0
   -0.8802   -2.8176    0.0000 C   0  0  0  0  0  0  0  0  0
   -0.1658   -2.4051    0.0000 C   0  0  0  0  0  0  0  0  0
    1.2632   -1.5801    0.0000 C   0  0  0  0  0  0  0  0  0
    0.5487   -1.1676    0.0000 O   0  0  0  0  0  0  0  0  0
   -0.1658   -1.5801    0.0000 C   0  0  0  0  0  0  0  0  0
   -0.8802   -1.1676    0.0000 C   0  0  0  0  0  0  0  0  0
   -1.5947   -1.5801    0.0000 C   0  0  0  0  0  0  0  0  0
   -2.3092   -1.1676    0.0000 C   0  0  0  0  0  0  0  0  0
   -2.3092   -0.3426    0.0000 C   0  0  0  0  0  0  0  0  0
   -1.5947    0.0699    0.0000 C   0  0  0  0  0  0  0  0  0
   -0.8802   -0.3426    0.0000 C   0  0  0  0  0  0  0  0  0
  1  2  1  0  0  0  0
  2  3  4  0  0  0  0
  2 13  4  0  0  0  0
  3  4  4  0  0  0  0
  4  5  4  0  0  0  0
  5  6  4  0  0  0  0
  6  7  1  0  0  0  0
  6 13  4  0  0  0  0
  7  8  1  0  0  0  0
  7 12  1  0  0  0  0
  8  9  1  0  0  0  0
  9 10  1  0  0  0  0
 10 11  1  0  0  0  0
 11 12  1  0  0  0  0
 13 14  1  0  0  0  0
 14 15  1  0  0  0  0
 15 16  1  0  0  0  0
 16 17  4  0  0  0  0
 16 21  4  0  0  0  0
 17 18  4  0  0  0  0
 18 19  4  0  0  0  0
 19 20  4  0  0  0  0
 20 21  4  0  0  0  0
M  END
>  <Name_Molregno>
572504

>  <5-HT1A>
6.22

>  <Dopamine transporter>
5.13

>  <Norepinephrine transporter>
8.05

>  <Serotonin transporter>
5.53

$$$$
572505
  Marvin  02231216192D 0   1.00000     0.00000     0

 21 23  0  0  0  0  0  0  0  0999 V2000
    4.0511    2.3628    0.0000 F   0  0  0  0  0  0  0  0  0
    4.0511    1.5378    0.0000 C   0  0  0  0  0  0  0  0  0
    4.7656    1.1253    0.0000 C   0  0  0  0  0  0  0  0  0
    4.7656    0.3003    0.0000 C   0  0  0  0  0  0  0  0  0
    4.0511   -0.1122    0.0000 C   0  0  0  0  0  0  0  0  0
    3.3366    0.3003    0.0000 C   0  0  0  0  0  0  0  0  0
    2.6222   -0.1122    0.0000 O   0  0  0  0  0  0  0  0  0
    2.6222   -0.9372    0.0000 C   0  0  0  0  0  0  0  0  0
    1.9077   -1.3497    0.0000 C   0  0  0  0  0  0  0  0  0
    1.9077   -2.1747    0.0000 C   0  0  0  0  0  0  0  0  0
    1.1932   -2.5872    0.0000 C   0  0  0  0  0  0  0  0  0
    0.4787   -2.1747    0.0000 C   0  0  0  0  0  0  0  0  0
    0.4787   -1.3497    0.0000 C   0  0  0  0  0  0  0  0  0
    1.1932   -0.9372    0.0000 C   0  0  0  0  0  0  0  0  0
    3.3366    1.1253    0.0000 C   0  0  0  0  0  0  0  0  0
    2.6222    1.5378    0.0000 C   0  0  0  0  0  0  0  0  0
    1.9077    1.1253    0.0000 C   0  0  0  0  0  0  0  0  0
    1.1932    1.5378    0.0000 C   0  0  0  0  0  0  0  0  0
    1.1932    2.3628    0.0000 N   0  0  0  0  0  0  0  0  0
    1.9077    2.7753    0.0000 C   0  0  0  0  0  0  0  0  0
    2.6222    2.3628    0.0000 C   0  0  0  0  0  0  0  0  0
  1  2  1  0  0  0  0
  2  3  4  0  0  0  0
  2 15  4  0  0  0  0
  3  4  4  0  0  0  0
  4  5  4  0  0  0  0
  5  6  4  0  0  0  0
  6  7  1  0  0  0  0
  6 15  4  0  0  0  0
  7  8  1  0  0  0  0
  8  9  1  0  0  0  0
  9 10  4  0  0  0  0
  9 14  4  0  0  0  0
 10 11  4  0  0  0  0
 11 12  4  0  0  0  0
 12 13  4  0  0  0  0
 13 14  4  0  0  0  0
 15 16  1  0  0  0  0
 16 17  1  0  0  0  0
 16 21  1  0  0  0  0
 17 18  1  0  0  0  0
 18 19  1  0  0  0  0
 19 20  1  0  0  0  0
 20 21  1  0  0  0  0
M  END
>  <Name_Molregno>
572505

>  <5-HT1A>
6.44

>  <Dopamine transporter>
5.99

>  <Norepinephrine transporter>
8.05

>  <Serotonin transporter>
7.55

$$$$
572506
  Marvin  02231216192D 0   1.00000     0.00000     0

 21 23  0  0  0  0  0  0  0  0999 V2000
    4.4801    4.5411    0.0000 F   0  0  0  0  0  0  0  0  0
    4.4801    3.7161    0.0000 C   0  0  0  0  0  0  0  0  0
    5.1946    3.3036    0.0000 C   0  0  0  0  0  0  0  0  0
    5.1946    2.4786    0.0000 C   0  0  0  0  0  0  0  0  0
    4.4801    2.0661    0.0000 C   0  0  0  0  0  0  0  0  0
    3.7657    2.4786    0.0000 C   0  0  0  0  0  0  0  0  0
    3.7657    3.3036    0.0000 C   0  0  0  0  0  0  0  0  0
    4.4801    1.2411    0.0000 C   0  0  0  0  0  0  0  0  0
    3.7657    0.8286    0.0000 O   0  0  0  0  0  0  0  0  0
    3.7657    0.0036    0.0000 C   0  0  0  0  0  0  0  0  0
    4.4801   -0.4089    0.0000 C   0  0  0  0  0  0  0  0  0
    4.4801   -1.2339    0.0000 C   0  0  0  0  0  0  0  0  0
    3.7657   -1.6464    0.0000 C   0  0  0  0  0  0  0  0  0
    3.0512   -1.2339    0.0000 C   0  0  0  0  0  0  0  0  0
    3.0512   -0.4089    0.0000 C   0  0  0  0  0  0  0  0  0
    2.3367    0.0036    0.0000 C   0  0  0  0  0  0  0  0  0
    1.6222   -0.4089    0.0000 C   0  0  0  0  0  0  0  0  0
    0.9078    0.0036    0.0000 C   0  0  0  0  0  0  0  0  0
    0.9078    0.8286    0.0000 N   0  0  0  0  0  0  0  0  0
    1.6222    1.2411    0.0000 C   0  0  0  0  0  0  0  0  0
    2.3367    0.8286    0.0000 C   0  0  0  0  0  0  0  0  0
  1  2  1  0  0  0  0
  2  3  4  0  0  0  0
  2  7  4  0  0  0  0
  3  4  4  0  0  0  0
  4  5  4  0  0  0  0
  5  6  4  0  0  0  0
  5  8  1  0  0  0  0
  6  7  4  0  0  0  0
  8  9  1  0  0  0  0
  9 10  1  0  0  0  0
 10 11  4  0  0  0  0
 10 15  4  0  0  0  0
 11 12  4  0  0  0  0
 12 13  4  0  0  0  0
 13 14  4  0  0  0  0
 14 15  4  0  0  0  0
 15 16  1  0  0  0  0
 16 17  1  0  0  0  0
 16 21  1  0  0  0  0
 17 18  1  0  0  0  0
 18 19  1  0  0  0  0
 19 20  1  0  0  0  0
 20 21  1  0  0  0  0
M  END
>  <Name_Molregno>
572506

>  <5-HT1A>
7.11

>  <Dopamine transporter>
5.04

>  <Norepinephrine transporter>
6.79

>  <Serotonin transporter>
6.56

$$$$
572507
  Marvin  02231216192D 0   1.00000     0.00000     0

 21 23  0  0  0  0  0  0  0  0999 V2000
    0.8001    0.5776    0.0000 F   0  0  0  0  0  0  0  0  0
    0.8001   -0.2474    0.0000 C   0  0  0  0  0  0  0  0  0
    1.5146   -0.6599    0.0000 C   0  0  0  0  0  0  0  0  0
    1.5146   -1.4849    0.0000 C   0  0  0  0  0  0  0  0  0
    2.2290   -1.8974    0.0000 O   0  0  0  0  0  0  0  0  0
    2.9435   -1.4849    0.0000 C   0  0  0  0  0  0  0  0  0
    2.9435   -0.6599    0.0000 C   0  0  0  0  0  0  0  0  0
    3.6580   -0.2474    0.0000 C   0  0  0  0  0  0  0  0  0
    4.3724   -0.6599    0.0000 C   0  0  0  0  0  0  0  0  0
    4.3724   -1.4849    0.0000 C   0  0  0  0  0  0  0  0  0
    3.6580   -1.8974    0.0000 C   0  0  0  0  0  0  0  0  0
    3.6580   -2.7224    0.0000 C   0  0  0  0  0  0  0  0  0
    4.3724   -3.1349    0.0000 C   0  0  0  0  0  0  0  0  0
    4.3724   -3.9599    0.0000 C   0  0  0  0  0  0  0  0  0
    3.6580   -4.3724    0.0000 N   0  0  0  0  0  0  0  0  0
    2.9435   -3.9599    0.0000 C   0  0  0  0  0  0  0  0  0
    2.9435   -3.1349    0.0000 C   0  0  0  0  0  0  0  0  0
    3.6580    0.5776    0.0000 C   0  0  0  0  0  0  0  0  0
    0.8001   -1.8974    0.0000 C   0  0  0  0  0  0  0  0  0
    0.0856   -1.4849    0.0000 C   0  0  0  0  0  0  0  0  0
    0.0856   -0.6599    0.0000 C   0  0  0  0  0  0  0  0  0
  1  2  1  0  0  0  0
  2  3  4  0  0  0  0
  2 21  4  0  0  0  0
  3  4  4  0  0  0  0
  4  5  1  0  0  0  0
  4 19  4  0  0  0  0
  5  6  1  0  0  0  0
  6  7  4  0  0  0  0
  6 11  4  0  0  0  0
  7  8  4  0  0  0  0
  8  9  4  0  0  0  0
  8 18  1  0  0  0  0
  9 10  4  0  0  0  0
 10 11  4  0  0  0  0
 11 12  1  0  0  0  0
 12 13  1  0  0  0  0
 12 17  1  0  0  0  0
 13 14  1  0  0  0  0
 14 15  1  0  0  0  0
 15 16  1  0  0  0  0
 16 17  1  0  0  0  0
 19 20  4  0  0  0  0
 20 21  4  0  0  0  0
M  END
>  <Name_Molregno>
572507

>  <5-HT1A>
5.34

>  <Dopamine transporter>
5.84

>  <Norepinephrine transporter>
6.77

>  <Serotonin transporter>
8.7

$$$$
572508
  Marvin  02231216192D 0   1.00000     0.00000     0

 21 23  0  0  0  0  0  0  0  0999 V2000
    2.6883   -0.6918    0.0000 F   0  0  0  0  0  0  0  0  0
    2.6883   -1.5168    0.0000 C   0  0  0  0  0  0  0  0  0
    3.4027   -1.9293    0.0000 C   0  0  0  0  0  0  0  0  0
    3.4027   -2.7543    0.0000 C   0  0  0  0  0  0  0  0  0
    2.6883   -3.1668    0.0000 C   0  0  0  0  0  0  0  0  0
    1.9738   -2.7543    0.0000 C   0  0  0  0  0  0  0  0  0
    1.9738   -1.9293    0.0000 C   0  0  0  0  0  0  0  0  0
    1.2593   -1.5168    0.0000 O   0  0  0  0  0  0  0  0  0
    0.5449   -1.9293    0.0000 C   0  0  0  0  0  0  0  0  0
    0.5449   -2.7543    0.0000 C   0  0  0  0  0  0  0  0  0
   -0.1696   -3.1668    0.0000 C   0  0  0  0  0  0  0  0  0
   -0.8841   -2.7543    0.0000 C   0  0  0  0  0  0  0  0  0
   -0.8841   -1.9293    0.0000 C   0  0  0  0  0  0  0  0  0
   -0.1696   -1.5168    0.0000 C   0  0  0  0  0  0  0  0  0
   -0.1696   -0.6918    0.0000 C   0  0  0  0  0  0  0  0  0
   -0.8841   -0.2793    0.0000 C   0  0  0  0  0  0  0  0  0
   -0.8841    0.5457    0.0000 C   0  0  0  0  0  0  0  0  0
   -0.1696    0.9582    0.0000 N   0  0  0  0  0  0  0  0  0
    0.5449    0.5457    0.0000 C   0  0  0  0  0  0  0  0  0
    0.5449   -0.2793    0.0000 C   0  0  0  0  0  0  0  0  0
    2.6883   -3.9918    0.0000 C   0  0  0  0  0  0  0  0  0
  1  2  1  0  0  0  0
  2  3  4  0  0  0  0
  2  7  4  0  0  0  0
  3  4  4  0  0  0  0
  4  5  4  0  0  0  0
  5  6  4  0  0  0  0
  5 21  1  0  0  0  0
  6  7  4  0  0  0  0
  7  8  1  0  0  0  0
  8  9  1  0  0  0  0
  9 10  4  0  0  0  0
  9 14  4  0  0  0  0
 10 11  4  0  0  0  0
 11 12  4  0  0  0  0
 12 13  4  0  0  0  0
 13 14  4  0  0  0  0
 14 15  1  0  0  0  0
 15 16  1  0  0  0  0
 15 20  1  0  0  0  0
 16 17  1  0  0  0  0
 17 18  1  0  0  0  0
 18 19  1  0  0  0  0
 19 20  1  0  0  0  0
M  END
>  <Name_Molregno>
572508

>  <5-HT1A>
7.24

>  <Dopamine transporter>
5.97

>  <Norepinephrine transporter>
8.52

>  <Serotonin transporter>
7.59

$$$$
572509
  Marvin  02231216192D 0   1.00000     0.00000     0

 19 21  0  0  0  0  0  0  0  0999 V2000
   -0.1560    0.1727    0.0000 O   0  0  0  0  0  0  0  0  0
   -0.1560   -0.6523    0.0000 C   0  0  0  0  0  0  0  0  0
    0.5585   -1.0648    0.0000 C   0  0  0  0  0  0  0  0  0
    0.5585   -1.8898    0.0000 C   0  0  0  0  0  0  0  0  0
   -0.1560   -2.3023    0.0000 C   0  0  0  0  0  0  0  0  0
   -0.8704   -1.8898    0.0000 C   0  0  0  0  0  0  0  0  0
   -0.8704   -1.0648    0.0000 C   0  0  0  0  0  0  0  0  0
   -1.5849   -0.6523    0.0000 N   0  0  0  0  0  0  0  0  0
   -2.2994   -1.0648    0.0000 C   0  0  0  0  0  0  0  0  0
   -3.0139   -0.6523    0.0000 C   0  0  0  0  0  0  0  0  0
   -3.0139    0.1727    0.0000 N   0  0  0  0  0  0  0  0  0
   -2.2994    0.5852    0.0000 C   0  0  0  0  0  0  0  0  0
   -1.5849    0.1727    0.0000 C   0  0  0  0  0  0  0  0  0
    0.5585    0.5852    0.0000 C   0  0  0  0  0  0  0  0  0
    0.5585    1.4102    0.0000 C   0  0  0  0  0  0  0  0  0
    1.2730    1.8227    0.0000 C   0  0  0  0  0  0  0  0  0
    1.9874    1.4102    0.0000 C   0  0  0  0  0  0  0  0  0
    1.9874    0.5852    0.0000 C   0  0  0  0  0  0  0  0  0
    1.2730    0.1727    0.0000 C   0  0  0  0  0  0  0  0  0
  1  2  1  0  0  0  0
  1 14  1  0  0  0  0
  2  3  4  0  0  0  0
  2  7  4  0  0  0  0
  3  4  4  0  0  0  0
  4  5  4  0  0  0  0
  5  6  4  0  0  0  0
  6  7  4  0  0  0  0
  7  8  1  0  0  0  0
  8  9  1  0  0  0  0
  8 13  1  0  0  0  0
  9 10  1  0  0  0  0
 10 11  1  0  0  0  0
 11 12  1  0  0  0  0
 12 13  1  0  0  0  0
 14 15  4  0  0  0  0
 14 19  4  0  0  0  0
 15 16  4  0  0  0  0
 16 17  4  0  0  0  0
 17 18  4  0  0  0  0
 18 19  4  0  0  0  0
M  END
>  <Name_Molregno>
572509

>  <5-HT1A>
6.89

>  <Dopamine transporter>
5.33

>  <Norepinephrine transporter>
6.26

>  <Serotonin transporter>
5.73

$$$$
572516
  Marvin  02231216192D 0   1.00000     0.00000     0

 22 24  0  0  0  0  0  0  0  0999 V2000
    2.4060    3.0169    0.0000 F   0  0  0  0  0  0  0  0  0
    2.4060    2.1919    0.0000 C   0  0  0  0  0  0  0  0  0
    3.1205    1.7794    0.0000 C   0  0  0  0  0  0  0  0  0
    3.1205    0.9544    0.0000 C   0  0  0  0  0  0  0  0  0
    3.8350    0.5419    0.0000 C   0  0  0  0  0  0  0  0  0
    4.5495    0.9544    0.0000 C   0  0  0  0  0  0  0  0  0
    5.2639    0.5419    0.0000 C   0  0  0  0  0  0  0  0  0
    5.2639   -0.2831    0.0000 N   0  0  0  0  0  0  0  0  0
    4.5495   -0.6956    0.0000 C   0  0  0  0  0  0  0  0  0
    3.8350   -0.2831    0.0000 C   0  0  0  0  0  0  0  0  0
    2.4060    0.5419    0.0000 C   0  0  0  0  0  0  0  0  0
    2.4060   -0.2831    0.0000 O   0  0  0  0  0  0  0  0  0
    3.1205   -0.6956    0.0000 C   0  0  0  0  0  0  0  0  0
    3.1205   -1.5206    0.0000 C   0  0  0  0  0  0  0  0  0
    3.8350   -1.9331    0.0000 C   0  0  0  0  0  0  0  0  0
    3.8350   -2.7581    0.0000 C   0  0  0  0  0  0  0  0  0
    3.1205   -3.1706    0.0000 C   0  0  0  0  0  0  0  0  0
    3.1205   -3.9956    0.0000 F   0  0  0  0  0  0  0  0  0
    2.4060   -2.7581    0.0000 C   0  0  0  0  0  0  0  0  0
    2.4060   -1.9331    0.0000 C   0  0  0  0  0  0  0  0  0
    1.6916    0.9544    0.0000 C   0  0  0  0  0  0  0  0  0
    1.6916    1.7794    0.0000 C   0  0  0  0  0  0  0  0  0
  1  2  1  0  0  0  0
  2  3  4  0  0  0  0
  2 22  4  0  0  0  0
  3  4  4  0  0  0  0
  4  5  1  0  0  0  0
  4 11  4  0  0  0  0
  5  6  1  0  0  0  0
  5 10  1  0  0  0  0
  6  7  1  0  0  0  0
  7  8  1  0  0  0  0
  8  9  1  0  0  0  0
  9 10  1  0  0  0  0
 11 12  1  0  0  0  0
 11 21  4  0  0  0  0
 12 13  1  0  0  0  0
 13 14  1  0  0  0  0
 14 15  4  0  0  0  0
 14 20  4  0  0  0  0
 15 16  4  0  0  0  0
 16 17  4  0  0  0  0
 17 18  1  0  0  0  0
 17 19  4  0  0  0  0
 19 20  4  0  0  0  0
 21 22  4  0  0  0  0
M  END
>  <Name_Molregno>
572516

>  <5-HT1A>
5.66

>  <Dopamine transporter>
6.18

>  <Norepinephrine transporter>
8.7

>  <Serotonin transporter>
8.7

$$$$
572531
  Marvin  02231216192D 0   1.00000     0.00000     0

 22 24  0  0  0  0  0  0  0  0999 V2000
    2.4060    3.0169    0.0000 Cl  0  0  0  0  0  0  0  0  0
    2.4060    2.1919    0.0000 C   0  0  0  0  0  0  0  0  0
    3.1205    1.7794    0.0000 C   0  0  0  0  0  0  0  0  0
    3.1205    0.9544    0.0000 C   0  0  0  0  0  0  0  0  0
    3.8350    0.5419    0.0000 C   0  0  0  0  0  0  0  0  0
    4.5495    0.9544    0.0000 C   0  0  0  0  0  0  0  0  0
    5.2639    0.5419    0.0000 C   0  0  0  0  0  0  0  0  0
    5.2639   -0.2831    0.0000 N   0  0  0  0  0  0  0  0  0
    4.5495   -0.6956    0.0000 C   0  0  0  0  0  0  0  0  0
    3.8350   -0.2831    0.0000 C   0  0  0  0  0  0  0  0  0
    2.4060    0.5419    0.0000 C   0  0  0  0  0  0  0  0  0
    2.4060   -0.2831    0.0000 O   0  0  0  0  0  0  0  0  0
    3.1205   -0.6956    0.0000 C   0  0  0  0  0  0  0  0  0
    3.1205   -1.5206    0.0000 C   0  0  0  0  0  0  0  0  0
    3.8350   -1.9331    0.0000 C   0  0  0  0  0  0  0  0  0
    3.8350   -2.7581    0.0000 C   0  0  0  0  0  0  0  0  0
    3.1205   -3.1706    0.0000 C   0  0  0  0  0  0  0  0  0
    3.1205   -3.9956    0.0000 F   0  0  0  0  0  0  0  0  0
    2.4060   -2.7581    0.0000 C   0  0  0  0  0  0  0  0  0
    2.4060   -1.9331    0.0000 C   0  0  0  0  0  0  0  0  0
    1.6916    0.9544    0.0000 C   0  0  0  0  0  0  0  0  0
    1.6916    1.7794    0.0000 C   0  0  0  0  0  0  0  0  0
  1  2  1  0  0  0  0
  2  3  4  0  0  0  0
  2 22  4  0  0  0  0
  3  4  4  0  0  0  0
  4  5  1  0  0  0  0
  4 11  4  0  0  0  0
  5  6  1  0  0  0  0
  5 10  1  0  0  0  0
  6  7  1  0  0  0  0
  7  8  1  0  0  0  0
  8  9  1  0  0  0  0
  9 10  1  0  0  0  0
 11 12  1  0  0  0  0
 11 21  4  0  0  0  0
 12 13  1  0  0  0  0
 13 14  1  0  0  0  0
 14 15  4  0  0  0  0
 14 20  4  0  0  0  0
 15 16  4  0  0  0  0
 16 17  4  0  0  0  0
 17 18  1  0  0  0  0
 17 19  4  0  0  0  0
 19 20  4  0  0  0  0
 21 22  4  0  0  0  0
M  END
>  <Name_Molregno>
572531

>  <5-HT1A>
6

>  <Dopamine transporter>
5.26

>  <Norepinephrine transporter>
8.22

>  <Serotonin transporter>
7.4

$$$$
572532
  Marvin  02231216192D 0   1.00000     0.00000     0

 23 25  0  0  0  0  0  0  0  0999 V2000
    2.2694    2.7464    0.0000 Cl  0  0  0  0  0  0  0  0  0
    2.2694    1.9214    0.0000 C   0  0  0  0  0  0  0  0  0
    2.9839    1.5089    0.0000 C   0  0  0  0  0  0  0  0  0
    2.9839    0.6839    0.0000 C   0  0  0  0  0  0  0  0  0
    2.2694    0.2714    0.0000 C   0  0  0  0  0  0  0  0  0
    1.5549    0.6839    0.0000 C   0  0  0  0  0  0  0  0  0
    1.5549    1.5089    0.0000 C   0  0  0  0  0  0  0  0  0
    0.8405    1.9214    0.0000 Cl  0  0  0  0  0  0  0  0  0
    3.6983    0.2714    0.0000 C   0  0  0  0  0  0  0  0  0
    3.6983   -0.5536    0.0000 O   0  0  0  0  0  0  0  0  0
    4.4128   -0.9661    0.0000 C   0  0  0  0  0  0  0  0  0
    5.1273   -0.5536    0.0000 C   0  0  0  0  0  0  0  0  0
    5.8418   -0.9661    0.0000 C   0  0  0  0  0  0  0  0  0
    5.8418   -1.7911    0.0000 C   0  0  0  0  0  0  0  0  0
    6.5562   -2.2036    0.0000 F   0  0  0  0  0  0  0  0  0
    5.1273   -2.2036    0.0000 C   0  0  0  0  0  0  0  0  0
    4.4128   -1.7911    0.0000 C   0  0  0  0  0  0  0  0  0
    3.6983   -2.2036    0.0000 C   0  0  0  0  0  0  0  0  0
    3.6983   -3.0286    0.0000 C   0  0  0  0  0  0  0  0  0
    2.9839   -3.4411    0.0000 C   0  0  0  0  0  0  0  0  0
    2.2694   -3.0286    0.0000 N   0  0  0  0  0  0  0  0  0
    2.2694   -2.2036    0.0000 C   0  0  0  0  0  0  0  0  0
    2.9839   -1.7911    0.0000 C   0  0  0  0  0  0  0  0  0
  1  2  1  0  0  0  0
  2  3  4  0  0  0  0
  2  7  4  0  0  0  0
  3  4  4  0  0  0  0
  4  5  4  0  0  0  0
  4  9  1  0  0  0  0
  5  6  4  0  0  0  0
  6  7  4  0  0  0  0
  7  8  1  0  0  0  0
  9 10  1  0  0  0  0
 10 11  1  0  0  0  0
 11 12  4  0  0  0  0
 11 17  4  0  0  0  0
 12 13  4  0  0  0  0
 13 14  4  0  0  0  0
 14 15  1  0  0  0  0
 14 16  4  0  0  0  0
 16 17  4  0  0  0  0
 17 18  1  0  0  0  0
 18 19  1  0  0  0  0
 18 23  1  0  0  0  0
 19 20  1  0  0  0  0
 20 21  1  0  0  0  0
 21 22  1  0  0  0  0
 22 23  1  0  0  0  0
M  END
>  <Name_Molregno>
572532

>  <5-HT1A>
5.94

>  <Dopamine transporter>
6.34

>  <Norepinephrine transporter>
7.7

>  <Serotonin transporter>
8.7

$$$$
572533
  Marvin  02231216192D 0   1.00000     0.00000     0

 20 22  0  0  0  0  0  0  0  0999 V2000
    3.2021    3.6932    0.0000 F   0  0  0  0  0  0  0  0  0
    3.2021    2.8682    0.0000 C   0  0  0  0  0  0  0  0  0
    3.9166    2.4557    0.0000 C   0  0  0  0  0  0  0  0  0
    3.9166    1.6307    0.0000 C   0  0  0  0  0  0  0  0  0
    3.2021    1.2182    0.0000 C   0  0  0  0  0  0  0  0  0
    3.2021    0.3932    0.0000 O   0  0  0  0  0  0  0  0  0
    3.9166   -0.0193    0.0000 C   0  0  0  0  0  0  0  0  0
    4.6310    0.3932    0.0000 C   0  0  0  0  0  0  0  0  0
    5.3455   -0.0193    0.0000 C   0  0  0  0  0  0  0  0  0
    5.3455   -0.8443    0.0000 C   0  0  0  0  0  0  0  0  0
    4.6310   -1.2568    0.0000 C   0  0  0  0  0  0  0  0  0
    3.9166   -0.8443    0.0000 C   0  0  0  0  0  0  0  0  0
    3.2021   -1.2568    0.0000 N   0  0  0  0  0  0  0  0  0
    3.2021   -2.0818    0.0000 C   0  0  0  0  0  0  0  0  0
    2.4876   -2.4943    0.0000 C   0  0  0  0  0  0  0  0  0
    1.7732   -2.0818    0.0000 N   0  0  0  0  0  0  0  0  0
    1.7732   -1.2568    0.0000 C   0  0  0  0  0  0  0  0  0
    2.4876   -0.8443    0.0000 C   0  0  0  0  0  0  0  0  0
    2.4876    1.6307    0.0000 C   0  0  0  0  0  0  0  0  0
    2.4876    2.4557    0.0000 C   0  0  0  0  0  0  0  0  0
  1  2  1  0  0  0  0
  2  3  4  0  0  0  0
  2 20  4  0  0  0  0
  3  4  4  0  0  0  0
  4  5  4  0  0  0  0
  5  6  1  0  0  0  0
  5 19  4  0  0  0  0
  6  7  1  0  0  0  0
  7  8  4  0  0  0  0
  7 12  4  0  0  0  0
  8  9  4  0  0  0  0
  9 10  4  0  0  0  0
 10 11  4  0  0  0  0
 11 12  4  0  0  0  0
 12 13  1  0  0  0  0
 13 14  1  0  0  0  0
 13 18  1  0  0  0  0
 14 15  1  0  0  0  0
 15 16  1  0  0  0  0
 16 17  1  0  0  0  0
 17 18  1  0  0  0  0
 19 20  4  0  0  0  0
M  END
>  <Name_Molregno>
572533

>  <5-HT1A>
8.1

>  <Dopamine transporter>
5.35

>  <Norepinephrine transporter>
5.77

>  <Serotonin transporter>
6

$$$$
572534
  Marvin  02231216192D 0   1.00000     0.00000     0

 20 22  0  0  0  0  0  0  0  0999 V2000
    0.8600    0.8106    0.0000 F   0  0  0  0  0  0  0  0  0
    0.8600   -0.0144    0.0000 C   0  0  0  0  0  0  0  0  0
    1.5745   -0.4269    0.0000 C   0  0  0  0  0  0  0  0  0
    1.5745   -1.2519    0.0000 C   0  0  0  0  0  0  0  0  0
    2.2889   -1.6644    0.0000 O   0  0  0  0  0  0  0  0  0
    3.0034   -1.2519    0.0000 C   0  0  0  0  0  0  0  0  0
    3.0034   -0.4269    0.0000 C   0  0  0  0  0  0  0  0  0
    3.7179   -0.0144    0.0000 C   0  0  0  0  0  0  0  0  0
    4.4323   -0.4269    0.0000 C   0  0  0  0  0  0  0  0  0
    4.4323   -1.2519    0.0000 C   0  0  0  0  0  0  0  0  0
    3.7179   -1.6644    0.0000 C   0  0  0  0  0  0  0  0  0
    3.7179   -2.4894    0.0000 N   0  0  0  0  0  0  0  0  0
    4.4323   -2.9019    0.0000 C   0  0  0  0  0  0  0  0  0
    4.4323   -3.7269    0.0000 C   0  0  0  0  0  0  0  0  0
    3.7179   -4.1394    0.0000 N   0  0  0  0  0  0  0  0  0
    3.0034   -3.7269    0.0000 C   0  0  0  0  0  0  0  0  0
    3.0034   -2.9019    0.0000 C   0  0  0  0  0  0  0  0  0
    0.8600   -1.6644    0.0000 C   0  0  0  0  0  0  0  0  0
    0.1455   -1.2519    0.0000 C   0  0  0  0  0  0  0  0  0
    0.1455   -0.4269    0.0000 C   0  0  0  0  0  0  0  0  0
  1  2  1  0  0  0  0
  2  3  4  0  0  0  0
  2 20  4  0  0  0  0
  3  4  4  0  0  0  0
  4  5  1  0  0  0  0
  4 18  4  0  0  0  0
  5  6  1  0  0  0  0
  6  7  4  0  0  0  0
  6 11  4  0  0  0  0
  7  8  4  0  0  0  0
  8  9  4  0  0  0  0
  9 10  4  0  0  0  0
 10 11  4  0  0  0  0
 11 12  1  0  0  0  0
 12 13  1  0  0  0  0
 12 17  1  0  0  0  0
 13 14  1  0  0  0  0
 14 15  1  0  0  0  0
 15 16  1  0  0  0  0
 16 17  1  0  0  0  0
 18 19  4  0  0  0  0
 19 20  4  0  0  0  0
M  END
>  <Name_Molregno>
572534

>  <5-HT1A>
8.05

>  <Dopamine transporter>
5.15

>  <Norepinephrine transporter>
5.76

>  <Serotonin transporter>
5.51

$$$$
572550
  Marvin  02231216192D 0   1.00000     0.00000     0

 20 22  0  0  0  0  0  0  0  0999 V2000
   -0.7159    0.2271    0.0000 O   0  0  0  0  0  0  0  0  0
   -1.4304   -0.1854    0.0000 C   0  0  0  0  0  0  0  0  0
   -1.4304   -1.0104    0.0000 C   0  0  0  0  0  0  0  0  0
   -0.7159   -1.4229    0.0000 C   0  0  0  0  0  0  0  0  0
   -0.7159   -2.2479    0.0000 C   0  0  0  0  0  0  0  0  0
   -1.4304   -2.6604    0.0000 C   0  0  0  0  0  0  0  0  0
   -2.1449   -2.2479    0.0000 C   0  0  0  0  0  0  0  0  0
   -2.1449   -1.4229    0.0000 C   0  0  0  0  0  0  0  0  0
   -0.7159    1.0521    0.0000 C   0  0  0  0  0  0  0  0  0
   -1.4304    1.4646    0.0000 C   0  0  0  0  0  0  0  0  0
   -1.4304    2.2896    0.0000 C   0  0  0  0  0  0  0  0  0
   -0.7159    2.7021    0.0000 C   0  0  0  0  0  0  0  0  0
   -0.0014    2.2896    0.0000 C   0  0  0  0  0  0  0  0  0
   -0.0014    1.4646    0.0000 C   0  0  0  0  0  0  0  0  0
    0.7130    1.0521    0.0000 N   0  0  0  0  0  0  0  0  0
    1.4275    1.4646    0.0000 C   0  0  0  0  0  0  0  0  0
    2.1420    1.0521    0.0000 C   0  0  0  0  0  0  0  0  0
    2.1420    0.2271    0.0000 N   0  0  0  0  0  0  0  0  0
    1.4275   -0.1854    0.0000 C   0  0  0  0  0  0  0  0  0
    0.7130    0.2271    0.0000 C   0  0  0  0  0  0  0  0  0
  1  2  1  0  0  0  0
  1  9  1  0  0  0  0
  2  3  1  0  0  0  0
  3  4  4  0  0  0  0
  3  8  4  0  0  0  0
  4  5  4  0  0  0  0
  5  6  4  0  0  0  0
  6  7  4  0  0  0  0
  7  8  4  0  0  0  0
  9 10  4  0  0  0  0
  9 14  4  0  0  0  0
 10 11  4  0  0  0  0
 11 12  4  0  0  0  0
 12 13  4  0  0  0  0
 13 14  4  0  0  0  0
 14 15  1  0  0  0  0
 15 16  1  0  0  0  0
 15 20  1  0  0  0  0
 16 17  1  0  0  0  0
 17 18  1  0  0  0  0
 18 19  1  0  0  0  0
 19 20  1  0  0  0  0
M  END
>  <Name_Molregno>
572550

>  <5-HT1A>
7.55

>  <Dopamine transporter>
5.06

>  <Norepinephrine transporter>
6.77

>  <Serotonin transporter>
5.94

$$$$
572551
  Marvin  02231216192D 0   1.00000     0.00000     0

 21 23  0  0  0  0  0  0  0  0999 V2000
    3.7582   -0.5204    0.0000 F   0  0  0  0  0  0  0  0  0
    3.7582   -1.3454    0.0000 C   0  0  0  0  0  0  0  0  0
    4.4727   -1.7579    0.0000 C   0  0  0  0  0  0  0  0  0
    4.4727   -2.5829    0.0000 C   0  0  0  0  0  0  0  0  0
    3.7582   -2.9954    0.0000 C   0  0  0  0  0  0  0  0  0
    3.0438   -2.5829    0.0000 C   0  0  0  0  0  0  0  0  0
    3.0438   -1.7579    0.0000 C   0  0  0  0  0  0  0  0  0
    2.3293   -1.3454    0.0000 C   0  0  0  0  0  0  0  0  0
    2.3293   -0.5204    0.0000 O   0  0  0  0  0  0  0  0  0
    1.6148   -0.1079    0.0000 C   0  0  0  0  0  0  0  0  0
    0.9004   -0.5204    0.0000 C   0  0  0  0  0  0  0  0  0
    0.1859   -0.1079    0.0000 C   0  0  0  0  0  0  0  0  0
    0.1859    0.7171    0.0000 C   0  0  0  0  0  0  0  0  0
    0.9004    1.1296    0.0000 C   0  0  0  0  0  0  0  0  0
    1.6148    0.7171    0.0000 C   0  0  0  0  0  0  0  0  0
    2.3293    1.1296    0.0000 N   0  0  0  0  0  0  0  0  0
    2.3293    1.9546    0.0000 C   0  0  0  0  0  0  0  0  0
    3.0438    2.3671    0.0000 C   0  0  0  0  0  0  0  0  0
    3.7582    1.9546    0.0000 N   0  0  0  0  0  0  0  0  0
    3.7582    1.1296    0.0000 C   0  0  0  0  0  0  0  0  0
    3.0438    0.7171    0.0000 C   0  0  0  0  0  0  0  0  0
  1  2  1  0  0  0  0
  2  3  4  0  0  0  0
  2  7  4  0  0  0  0
  3  4  4  0  0  0  0
  4  5  4  0  0  0  0
  5  6  4  0  0  0  0
  6  7  4  0  0  0  0
  7  8  1  0  0  0  0
  8  9  1  0  0  0  0
  9 10  1  0  0  0  0
 10 11  4  0  0  0  0
 10 15  4  0  0  0  0
 11 12  4  0  0  0  0
 12 13  4  0  0  0  0
 13 14  4  0  0  0  0
 14 15  4  0  0  0  0
 15 16  1  0  0  0  0
 16 17  1  0  0  0  0
 16 21  1  0  0  0  0
 17 18  1  0  0  0  0
 18 19  1  0  0  0  0
 19 20  1  0  0  0  0
 20 21  1  0  0  0  0
M  END
>  <Name_Molregno>
572551

>  <5-HT1A>
7.51

>  <Dopamine transporter>
5

>  <Norepinephrine transporter>
6.28

>  <Serotonin transporter>
6.01

$$$$
572552
  Marvin  02231216192D 0   1.00000     0.00000     0

 19 21  0  0  0  0  0  0  0  0999 V2000
   -0.1560    0.1727    0.0000 O   0  0  0  0  0  0  0  0  0
   -0.1560   -0.6523    0.0000 C   0  0  0  0  0  0  0  0  0
    0.5585   -1.0648    0.0000 C   0  0  0  0  0  0  0  0  0
    0.5585   -1.8898    0.0000 C   0  0  0  0  0  0  0  0  0
   -0.1560   -2.3023    0.0000 C   0  0  0  0  0  0  0  0  0
   -0.8704   -1.8898    0.0000 C   0  0  0  0  0  0  0  0  0
   -0.8704   -1.0648    0.0000 C   0  0  0  0  0  0  0  0  0
   -1.5849   -0.6523    0.0000 C   0  0  0  0  0  0  0  0  0
   -2.2994   -1.0648    0.0000 C   0  0  0  0  0  0  0  0  0
   -3.0139   -0.6523    0.0000 C   0  0  0  0  0  0  0  0  0
   -3.0139    0.1727    0.0000 N   0  0  0  0  0  0  0  0  0
   -2.2994    0.5852    0.0000 C   0  0  0  0  0  0  0  0  0
   -1.5849    0.1727    0.0000 C   0  0  0  0  0  0  0  0  0
    0.5585    0.5852    0.0000 C   0  0  0  0  0  0  0  0  0
    0.5585    1.4102    0.0000 C   0  0  0  0  0  0  0  0  0
    1.2730    1.8227    0.0000 C   0  0  0  0  0  0  0  0  0
    1.9874    1.4102    0.0000 C   0  0  0  0  0  0  0  0  0
    1.9874    0.5852    0.0000 C   0  0  0  0  0  0  0  0  0
    1.2730    0.1727    0.0000 C   0  0  0  0  0  0  0  0  0
  1  2  1  0  0  0  0
  1 14  1  0  0  0  0
  2  3  4  0  0  0  0
  2  7  4  0  0  0  0
  3  4  4  0  0  0  0
  4  5  4  0  0  0  0
  5  6  4  0  0  0  0
  6  7  4  0  0  0  0
  7  8  1  0  0  0  0
  8  9  1  0  0  0  0
  8 13  1  0  0  0  0
  9 10  1  0  0  0  0
 10 11  1  0  0  0  0
 11 12  1  0  0  0  0
 12 13  1  0  0  0  0
 14 15  4  0  0  0  0
 14 19  4  0  0  0  0
 15 16  4  0  0  0  0
 16 17  4  0  0  0  0
 17 18  4  0  0  0  0
 18 19  4  0  0  0  0
M  END
>  <Name_Molregno>
572552

>  <5-HT1A>
7.2

>  <Dopamine transporter>
6.55

>  <Norepinephrine transporter>
6.38

>  <Serotonin transporter>
5.75

$$$$
572562
  Marvin  02231216192D 0   1.00000     0.00000     0

 20 22  0  0  0  0  0  0  0  0999 V2000
    3.2021    3.6932    0.0000 F   0  0  0  0  0  0  0  0  0
    3.2021    2.8682    0.0000 C   0  0  0  0  0  0  0  0  0
    3.9166    2.4557    0.0000 C   0  0  0  0  0  0  0  0  0
    3.9166    1.6307    0.0000 C   0  0  0  0  0  0  0  0  0
    3.2021    1.2182    0.0000 C   0  0  0  0  0  0  0  0  0
    3.2021    0.3932    0.0000 O   0  0  0  0  0  0  0  0  0
    3.9166   -0.0193    0.0000 C   0  0  0  0  0  0  0  0  0
    4.6310    0.3932    0.0000 C   0  0  0  0  0  0  0  0  0
    5.3455   -0.0193    0.0000 C   0  0  0  0  0  0  0  0  0
    5.3455   -0.8443    0.0000 C   0  0  0  0  0  0  0  0  0
    4.6310   -1.2568    0.0000 C   0  0  0  0  0  0  0  0  0
    3.9166   -0.8443    0.0000 C   0  0  0  0  0  0  0  0  0
    3.2021   -1.2568    0.0000 C   0  0  0  0  0  0  0  0  0
    3.2021   -2.0818    0.0000 C   0  0  0  0  0  0  0  0  0
    2.4876   -2.4943    0.0000 C   0  0  0  0  0  0  0  0  0
    1.7732   -2.0818    0.0000 N   0  0  0  0  0  0  0  0  0
    1.7732   -1.2568    0.0000 C   0  0  0  0  0  0  0  0  0
    2.4876   -0.8443    0.0000 C   0  0  0  0  0  0  0  0  0
    2.4876    1.6307    0.0000 C   0  0  0  0  0  0  0  0  0
    2.4876    2.4557    0.0000 C   0  0  0  0  0  0  0  0  0
  1  2  1  0  0  0  0
  2  3  4  0  0  0  0
  2 20  4  0  0  0  0
  3  4  4  0  0  0  0
  4  5  4  0  0  0  0
  5  6  1  0  0  0  0
  5 19  4  0  0  0  0
  6  7  1  0  0  0  0
  7  8  4  0  0  0  0
  7 12  4  0  0  0  0
  8  9  4  0  0  0  0
  9 10  4  0  0  0  0
 10 11  4  0  0  0  0
 11 12  4  0  0  0  0
 12 13  1  0  0  0  0
 13 14  1  0  0  0  0
 13 18  1  0  0  0  0
 14 15  1  0  0  0  0
 15 16  1  0  0  0  0
 16 17  1  0  0  0  0
 17 18  1  0  0  0  0
 19 20  4  0  0  0  0
M  END
>  <Name_Molregno>
572562

>  <5-HT1A>
6.93

>  <Dopamine transporter>
7.89

>  <Norepinephrine transporter>
7.68

>  <Serotonin transporter>
6.5

$$$$
572563
  Marvin  02231216192D 0   1.00000     0.00000     0

 20 22  0  0  0  0  0  0  0  0999 V2000
    2.2590    3.9072    0.0000 F   0  0  0  0  0  0  0  0  0
    2.2590    3.0822    0.0000 C   0  0  0  0  0  0  0  0  0
    2.9734    2.6697    0.0000 C   0  0  0  0  0  0  0  0  0
    2.9734    1.8447    0.0000 C   0  0  0  0  0  0  0  0  0
    2.2590    1.4322    0.0000 C   0  0  0  0  0  0  0  0  0
    1.5445    1.8447    0.0000 C   0  0  0  0  0  0  0  0  0
    0.8300    1.4322    0.0000 O   0  0  0  0  0  0  0  0  0
    0.8300    0.6072    0.0000 C   0  0  0  0  0  0  0  0  0
    1.5445    0.1947    0.0000 C   0  0  0  0  0  0  0  0  0
    1.5445   -0.6303    0.0000 C   0  0  0  0  0  0  0  0  0
    0.8300   -1.0428    0.0000 C   0  0  0  0  0  0  0  0  0
    0.1156   -0.6303    0.0000 C   0  0  0  0  0  0  0  0  0
    0.1156    0.1947    0.0000 C   0  0  0  0  0  0  0  0  0
    1.5445    2.6697    0.0000 C   0  0  0  0  0  0  0  0  0
    0.8300    3.0822    0.0000 C   0  0  0  0  0  0  0  0  0
    0.1156    2.6697    0.0000 C   0  0  0  0  0  0  0  0  0
   -0.5989    3.0822    0.0000 C   0  0  0  0  0  0  0  0  0
   -0.5989    3.9072    0.0000 N   0  0  0  0  0  0  0  0  0
    0.1156    4.3197    0.0000 C   0  0  0  0  0  0  0  0  0
    0.8300    3.9072    0.0000 C   0  0  0  0  0  0  0  0  0
  1  2  1  0  0  0  0
  2  3  4  0  0  0  0
  2 14  4  0  0  0  0
  3  4  4  0  0  0  0
  4  5  4  0  0  0  0
  5  6  4  0  0  0  0
  6  7  1  0  0  0  0
  6 14  4  0  0  0  0
  7  8  1  0  0  0  0
  8  9  4  0  0  0  0
  8 13  4  0  0  0  0
  9 10  4  0  0  0  0
 10 11  4  0  0  0  0
 11 12  4  0  0  0  0
 12 13  4  0  0  0  0
 14 15  1  0  0  0  0
 15 16  1  0  0  0  0
 15 20  1  0  0  0  0
 16 17  1  0  0  0  0
 17 18  1  0  0  0  0
 18 19  1  0  0  0  0
 19 20  1  0  0  0  0
M  END
>  <Name_Molregno>
572563

>  <5-HT1A>
6.89

>  <Dopamine transporter>
7.35

>  <Norepinephrine transporter>
6.77

>  <Serotonin transporter>
6.15

$$$$
572576
  Marvin  02231216192D 0   1.00000     0.00000     0

 28 31  0  0  1  0  0  0  0  0999 V2000
    2.4419    3.2970    0.0000 Cl  0  0  0  0  0  0  0  0  0
    2.4419    2.4720    0.0000 C   0  0  0  0  0  0  0  0  0
    3.1564    2.0595    0.0000 C   0  0  0  0  0  0  0  0  0
    3.1564    1.2345    0.0000 C   0  0  0  0  0  0  0  0  0
    3.8708    0.8220    0.0000 N   0  0  0  0  0  0  0  0  0
    4.5853    1.2345    0.0000 C   0  0  0  0  0  0  0  0  0
    5.2998    0.8220    0.0000 C   0  0  0  0  0  0  0  0  0
    5.2998   -0.0030    0.0000 S   0  0  0  0  0  0  0  0  0
    4.5853   -0.4155    0.0000 C   0  0  0  0  0  0  0  0  0
    4.5853   -1.2405    0.0000 C   0  0  0  0  0  0  0  0  0
    5.2998   -1.6530    0.0000 C   0  0  0  0  0  0  0  0  0
    6.0143   -1.2405    0.0000 C   0  0  0  0  0  0  0  0  0
    6.7287   -1.6530    0.0000 C   0  0  0  0  0  0  0  0  0
    6.7287   -2.4780    0.0000 C   0  0  0  0  0  0  0  0  0
    6.0143   -2.8905    0.0000 C   0  0  0  0  0  0  0  0  0
    5.2998   -2.4780    0.0000 C   0  0  0  0  0  0  0  0  0
    4.5853   -2.8905    0.0000 N   0  0  0  0  0  0  0  0  0
    4.5853   -3.7155    0.0000 C   0  0  0  0  0  0  0  0  0
    3.8708   -4.1280    0.0000 C   0  0  0  0  0  0  0  0  0
    3.1564   -3.7155    0.0000 N   0  0  0  0  0  0  0  0  0
    3.1564   -2.8905    0.0000 C   0  0  0  0  0  0  0  0  0
    3.8708   -2.4780    0.0000 C   0  0  0  0  0  0  0  0  0
    3.8708   -0.0030    0.0000 C   0  0  0  0  0  0  0  0  0
    3.1564   -0.4155    0.0000 O   0  0  0  0  0  0  0  0  0
    2.4419    0.8220    0.0000 C   0  0  0  0  0  0  0  0  0
    1.7274    1.2345    0.0000 C   0  0  0  0  0  0  0  0  0
    1.7274    2.0595    0.0000 C   0  0  0  0  0  0  0  0  0
    1.0130    2.4720    0.0000 Cl  0  0  0  0  0  0  0  0  0
  1  2  1  0  0  0  0
  2  3  4  0  0  0  0
  2 27  4  0  0  0  0
  3  4  4  0  0  0  0
  4  5  1  0  0  0  0
  4 25  4  0  0  0  0
  5  6  1  0  0  0  0
  5 23  1  0  0  0  0
  6  7  1  0  0  0  0
  7  8  1  0  0  0  0
  8  9  1  0  0  0  0
  9 10  1  0  0  0  0
  9 23  1  0  0  0  0
 10 11  1  0  0  0  0
 11 12  4  0  0  0  0
 11 16  4  0  0  0  0
 12 13  4  0  0  0  0
 13 14  4  0  0  0  0
 14 15  4  0  0  0  0
 15 16  4  0  0  0  0
 16 17  1  0  0  0  0
 17 18  1  0  0  0  0
 17 22  1  0  0  0  0
 18 19  1  0  0  0  0
 19 20  1  0  0  0  0
 20 21  1  0  0  0  0
 21 22  1  0  0  0  0
 23 24  2  0  0  0  0
 25 26  4  0  0  0  0
 26 27  4  0  0  0  0
 27 28  1  0  0  0  0
M  END
>  <Name_Molregno>
572576

>  <5-HT1A>
8.05

>  <Dopamine transporter>
7.06

>  <Norepinephrine transporter>
8.3

>  <Serotonin transporter>
7.09

$$$$
572577
  Marvin  02231216192D 0   1.00000     0.00000     0

 20 22  0  0  0  0  0  0  0  0999 V2000
    2.6763    0.7613    0.0000 F   0  0  0  0  0  0  0  0  0
    2.6763   -0.0637    0.0000 C   0  0  0  0  0  0  0  0  0
    3.3907   -0.4763    0.0000 C   0  0  0  0  0  0  0  0  0
    3.3907   -1.3013    0.0000 C   0  0  0  0  0  0  0  0  0
    2.6763   -1.7138    0.0000 C   0  0  0  0  0  0  0  0  0
    1.9618   -1.3012    0.0000 C   0  0  0  0  0  0  0  0  0
    1.2473   -1.7137    0.0000 C   0  0  0  0  0  0  0  0  0
    1.2473   -2.5388    0.0000 C   0  0  0  0  0  0  0  0  0
    0.5328   -2.9513    0.0000 C   0  0  0  0  0  0  0  0  0
   -0.1816   -2.5387    0.0000 N   0  0  0  0  0  0  0  0  0
   -0.1816   -1.7137    0.0000 C   0  0  0  0  0  0  0  0  0
    0.5328   -1.3012    0.0000 C   0  0  0  0  0  0  0  0  0
    1.9618   -0.4762    0.0000 C   0  0  0  0  0  0  0  0  0
    1.2473   -0.0637    0.0000 O   0  0  0  0  0  0  0  0  0
    1.2473    0.7613    0.0000 C   0  0  0  0  0  0  0  0  0
    0.5328    1.1738    0.0000 C   0  0  0  0  0  0  0  0  0
    0.5328    1.9988    0.0000 C   0  0  0  0  0  0  0  0  0
    1.2473    2.4113    0.0000 C   0  0  0  0  0  0  0  0  0
    1.9618    1.9988    0.0000 C   0  0  0  0  0  0  0  0  0
    1.9618    1.1738    0.0000 C   0  0  0  0  0  0  0  0  0
  1  2  1  0  0  0  0
  2  3  4  0  0  0  0
  2 13  4  0  0  0  0
  3  4  4  0  0  0  0
  4  5  4  0  0  0  0
  5  6  4  0  0  0  0
  6  7  1  0  0  0  0
  6 13  4  0  0  0  0
  7  8  1  0  0  0  0
  7 12  1  0  0  0  0
  8  9  1  0  0  0  0
  9 10  1  0  0  0  0
 10 11  1  0  0  0  0
 11 12  1  0  0  0  0
 13 14  1  0  0  0  0
 14 15  1  0  0  0  0
 15 16  4  0  0  0  0
 15 20  4  0  0  0  0
 16 17  4  0  0  0  0
 17 18  4  0  0  0  0
 18 19  4  0  0  0  0
 19 20  4  0  0  0  0
M  END
>  <Name_Molregno>
572577

>  <5-HT1A>
7.7

>  <Dopamine transporter>
6.62

>  <Norepinephrine transporter>
5.86

>  <Serotonin transporter>
5.63

$$$$
572578
  Marvin  02231216192D 0   1.00000     0.00000     0

 20 22  0  0  0  0  0  0  0  0999 V2000
    0.8600    0.8106    0.0000 F   0  0  0  0  0  0  0  0  0
    0.8600   -0.0144    0.0000 C   0  0  0  0  0  0  0  0  0
    1.5745   -0.4269    0.0000 C   0  0  0  0  0  0  0  0  0
    1.5745   -1.2519    0.0000 C   0  0  0  0  0  0  0  0  0
    2.2889   -1.6644    0.0000 O   0  0  0  0  0  0  0  0  0
    3.0034   -1.2519    0.0000 C   0  0  0  0  0  0  0  0  0
    3.0034   -0.4269    0.0000 C   0  0  0  0  0  0  0  0  0
    3.7179   -0.0144    0.0000 C   0  0  0  0  0  0  0  0  0
    4.4323   -0.4269    0.0000 C   0  0  0  0  0  0  0  0  0
    4.4323   -1.2519    0.0000 C   0  0  0  0  0  0  0  0  0
    3.7179   -1.6644    0.0000 C   0  0  0  0  0  0  0  0  0
    3.7179   -2.4894    0.0000 C   0  0  0  0  0  0  0  0  0
    4.4323   -2.9019    0.0000 C   0  0  0  0  0  0  0  0  0
    4.4323   -3.7269    0.0000 C   0  0  0  0  0  0  0  0  0
    3.7179   -4.1394    0.0000 N   0  0  0  0  0  0  0  0  0
    3.0034   -3.7269    0.0000 C   0  0  0  0  0  0  0  0  0
    3.0034   -2.9019    0.0000 C   0  0  0  0  0  0  0  0  0
    0.8600   -1.6644    0.0000 C   0  0  0  0  0  0  0  0  0
    0.1455   -1.2519    0.0000 C   0  0  0  0  0  0  0  0  0
    0.1455   -0.4269    0.0000 C   0  0  0  0  0  0  0  0  0
  1  2  1  0  0  0  0
  2  3  4  0  0  0  0
  2 20  4  0  0  0  0
  3  4  4  0  0  0  0
  4  5  1  0  0  0  0
  4 18  4  0  0  0  0
  5  6  1  0  0  0  0
  6  7  4  0  0  0  0
  6 11  4  0  0  0  0
  7  8  4  0  0  0  0
  8  9  4  0  0  0  0
  9 10  4  0  0  0  0
 10 11  4  0  0  0  0
 11 12  1  0  0  0  0
 12 13  1  0  0  0  0
 12 17  1  0  0  0  0
 13 14  1  0  0  0  0
 14 15  1  0  0  0  0
 15 16  1  0  0  0  0
 16 17  1  0  0  0  0
 18 19  4  0  0  0  0
 19 20  4  0  0  0  0
M  END
>  <Name_Molregno>
572578

>  <5-HT1A>
7.96

>  <Dopamine transporter>
6.78

>  <Norepinephrine transporter>
7.96

>  <Serotonin transporter>
6.05

$$$$
572579
  Marvin  02231216192D 0   1.00000     0.00000     0

 21 23  0  0  0  0  0  0  0  0999 V2000
    3.4747    2.1306    0.0000 F   0  0  0  0  0  0  0  0  0
    3.4747    1.3056    0.0000 C   0  0  0  0  0  0  0  0  0
    4.1892    0.8931    0.0000 C   0  0  0  0  0  0  0  0  0
    4.1892    0.0681    0.0000 C   0  0  0  0  0  0  0  0  0
    3.4747   -0.3444    0.0000 C   0  0  0  0  0  0  0  0  0
    2.7602    0.0681    0.0000 C   0  0  0  0  0  0  0  0  0
    2.0458   -0.3444    0.0000 O   0  0  0  0  0  0  0  0  0
    2.0458   -1.1694    0.0000 C   0  0  0  0  0  0  0  0  0
    2.7602   -1.5819    0.0000 C   0  0  0  0  0  0  0  0  0
    2.7602   -2.4069    0.0000 C   0  0  0  0  0  0  0  0  0
    3.4747   -2.8194    0.0000 F   0  0  0  0  0  0  0  0  0
    2.0458   -2.8194    0.0000 C   0  0  0  0  0  0  0  0  0
    1.3313   -2.4069    0.0000 C   0  0  0  0  0  0  0  0  0
    1.3313   -1.5819    0.0000 C   0  0  0  0  0  0  0  0  0
    2.7602    0.8931    0.0000 C   0  0  0  0  0  0  0  0  0
    2.0458    1.3056    0.0000 C   0  0  0  0  0  0  0  0  0
    1.3313    0.8931    0.0000 C   0  0  0  0  0  0  0  0  0
    0.6168    1.3056    0.0000 C   0  0  0  0  0  0  0  0  0
    0.6168    2.1306    0.0000 N   0  0  0  0  0  0  0  0  0
    1.3313    2.5431    0.0000 C   0  0  0  0  0  0  0  0  0
    2.0458    2.1306    0.0000 C   0  0  0  0  0  0  0  0  0
  1  2  1  0  0  0  0
  2  3  4  0  0  0  0
  2 15  4  0  0  0  0
  3  4  4  0  0  0  0
  4  5  4  0  0  0  0
  5  6  4  0  0  0  0
  6  7  1  0  0  0  0
  6 15  4  0  0  0  0
  7  8  1  0  0  0  0
  8  9  4  0  0  0  0
  8 14  4  0  0  0  0
  9 10  4  0  0  0  0
 10 11  1  0  0  0  0
 10 12  4  0  0  0  0
 12 13  4  0  0  0  0
 13 14  4  0  0  0  0
 15 16  1  0  0  0  0
 16 17  1  0  0  0  0
 16 21  1  0  0  0  0
 17 18  1  0  0  0  0
 18 19  1  0  0  0  0
 19 20  1  0  0  0  0
 20 21  1  0  0  0  0
M  END
>  <Name_Molregno>
572579

>  <5-HT1A>
7.68

>  <Dopamine transporter>
6.86

>  <Norepinephrine transporter>
7.74

>  <Serotonin transporter>
5.98

$$$$
572589
  Marvin  02231216192D 0   1.00000     0.00000     0

 28 31  0  0  0  0  0  0  0  0999 V2000
   -1.3304   -1.9090    0.0000 S   0  0  0  0  0  0  0  0  0
   -1.3304   -2.7340    0.0000 C   0  0  0  0  0  0  0  0  0
   -0.6159   -3.1465    0.0000 C   0  0  0  0  0  0  0  0  0
    0.0986   -2.7340    0.0000 N   0  0  0  0  0  0  0  0  0
    0.8130   -3.1465    0.0000 C   0  0  0  0  0  0  0  0  0
    1.5275   -2.7340    0.0000 C   0  0  0  0  0  0  0  0  0
    2.2420   -3.1465    0.0000 C   0  0  0  0  0  0  0  0  0
    2.2420   -3.9715    0.0000 C   0  0  0  0  0  0  0  0  0
    2.9564   -4.3840    0.0000 F   0  0  0  0  0  0  0  0  0
    1.5275   -4.3840    0.0000 C   0  0  0  0  0  0  0  0  0
    0.8130   -3.9715    0.0000 C   0  0  0  0  0  0  0  0  0
    0.0986   -4.3840    0.0000 F   0  0  0  0  0  0  0  0  0
    0.0986   -1.9090    0.0000 C   0  0  0  0  0  0  0  0  0
    0.8130   -1.4965    0.0000 O   0  0  0  0  0  0  0  0  0
   -0.6159   -1.4965    0.0000 C   0  0  0  0  0  0  0  0  0
   -0.6159   -0.6715    0.0000 C   0  0  0  0  0  0  0  0  0
   -1.3304   -0.2590    0.0000 C   0  0  0  0  0  0  0  0  0
   -2.0449   -0.6715    0.0000 C   0  0  0  0  0  0  0  0  0
   -2.7593   -0.2590    0.0000 C   0  0  0  0  0  0  0  0  0
   -2.7593    0.5660    0.0000 C   0  0  0  0  0  0  0  0  0
   -2.0449    0.9785    0.0000 C   0  0  0  0  0  0  0  0  0
   -1.3304    0.5660    0.0000 C   0  0  0  0  0  0  0  0  0
   -0.6159    0.9785    0.0000 N   0  0  0  0  0  0  0  0  0
   -0.6159    1.8035    0.0000 C   0  0  0  0  0  0  0  0  0
    0.0986    2.2160    0.0000 C   0  0  0  0  0  0  0  0  0
    0.8130    1.8035    0.0000 N   0  0  0  0  0  0  0  0  0
    0.8130    0.9785    0.0000 C   0  0  0  0  0  0  0  0  0
    0.0986    0.5660    0.0000 C   0  0  0  0  0  0  0  0  0
  1  2  1  0  0  0  0
  1 15  1  0  0  0  0
  2  3  1  0  0  0  0
  3  4  1  0  0  0  0
  4  5  1  0  0  0  0
  4 13  1  0  0  0  0
  5  6  4  0  0  0  0
  5 11  4  0  0  0  0
  6  7  4  0  0  0  0
  7  8  4  0  0  0  0
  8  9  1  0  0  0  0
  8 10  4  0  0  0  0
 10 11  4  0  0  0  0
 11 12  1  0  0  0  0
 13 14  2  0  0  0  0
 13 15  1  0  0  0  0
 15 16  2  0  0  0  0
 16 17  1  0  0  0  0
 17 18  4  0  0  0  0
 17 22  4  0  0  0  0
 18 19  4  0  0  0  0
 19 20  4  0  0  0  0
 20 21  4  0  0  0  0
 21 22  4  0  0  0  0
 22 23  1  0  0  0  0
 23 24  1  0  0  0  0
 23 28  1  0  0  0  0
 24 25  1  0  0  0  0
 25 26  1  0  0  0  0
 26 27  1  0  0  0  0
 27 28  1  0  0  0  0
M  END
>  <Name_Molregno>
572589

>  <5-HT1A>
8.4

>  <Dopamine transporter>
5.87

>  <Norepinephrine transporter>
6.19

>  <Serotonin transporter>
7.01

$$$$
572590
  Marvin  02231216192D 0   1.00000     0.00000     0

 20 22  0  0  0  0  0  0  0  0999 V2000
    1.3051    0.5925    0.0000 O   0  0  0  0  0  0  0  0  0
    2.0196    0.1800    0.0000 C   0  0  0  0  0  0  0  0  0
    2.0196   -0.6450    0.0000 C   0  0  0  0  0  0  0  0  0
    2.7340   -1.0575    0.0000 C   0  0  0  0  0  0  0  0  0
    2.7340   -1.8825    0.0000 C   0  0  0  0  0  0  0  0  0
    2.0196   -2.2950    0.0000 C   0  0  0  0  0  0  0  0  0
    1.3051   -1.8825    0.0000 C   0  0  0  0  0  0  0  0  0
    1.3051   -1.0575    0.0000 C   0  0  0  0  0  0  0  0  0
    0.5906   -0.6450    0.0000 N   0  0  0  0  0  0  0  0  0
   -0.1239   -1.0575    0.0000 C   0  0  0  0  0  0  0  0  0
   -0.8383   -0.6450    0.0000 C   0  0  0  0  0  0  0  0  0
   -0.8383    0.1800    0.0000 N   0  0  0  0  0  0  0  0  0
   -0.1239    0.5925    0.0000 C   0  0  0  0  0  0  0  0  0
    0.5906    0.1800    0.0000 C   0  0  0  0  0  0  0  0  0
    1.3051    1.4175    0.0000 C   0  0  0  0  0  0  0  0  0
    0.5906    1.8300    0.0000 C   0  0  0  0  0  0  0  0  0
    0.5906    2.6550    0.0000 C   0  0  0  0  0  0  0  0  0
    1.3051    3.0675    0.0000 C   0  0  0  0  0  0  0  0  0
    2.0196    2.6550    0.0000 C   0  0  0  0  0  0  0  0  0
    2.0196    1.8300    0.0000 C   0  0  0  0  0  0  0  0  0
  1  2  1  0  0  0  0
  1 15  1  0  0  0  0
  2  3  1  0  0  0  0
  3  4  4  0  0  0  0
  3  8  4  0  0  0  0
  4  5  4  0  0  0  0
  5  6  4  0  0  0  0
  6  7  4  0  0  0  0
  7  8  4  0  0  0  0
  8  9  1  0  0  0  0
  9 10  1  0  0  0  0
  9 14  1  0  0  0  0
 10 11  1  0  0  0  0
 11 12  1  0  0  0  0
 12 13  1  0  0  0  0
 13 14  1  0  0  0  0
 15 16  4  0  0  0  0
 15 20  4  0  0  0  0
 16 17  4  0  0  0  0
 17 18  4  0  0  0  0
 18 19  4  0  0  0  0
 19 20  4  0  0  0  0
M  END
>  <Name_Molregno>
572590

>  <5-HT1A>
6.72

>  <Dopamine transporter>
6.15

>  <Norepinephrine transporter>
6.74

>  <Serotonin transporter>
6.11

$$$$
572591
  Marvin  02231216192D 0   1.00000     0.00000     0

 21 23  0  0  0  0  0  0  0  0999 V2000
    2.3277    4.1405    0.0000 F   0  0  0  0  0  0  0  0  0
    2.3277    3.3155    0.0000 C   0  0  0  0  0  0  0  0  0
    3.0421    2.9030    0.0000 C   0  0  0  0  0  0  0  0  0
    3.0421    2.0780    0.0000 C   0  0  0  0  0  0  0  0  0
    3.7566    1.6655    0.0000 O   0  0  0  0  0  0  0  0  0
    3.7566    0.8405    0.0000 C   0  0  0  0  0  0  0  0  0
    4.4711    0.4280    0.0000 C   0  0  0  0  0  0  0  0  0
    5.1855    0.8405    0.0000 C   0  0  0  0  0  0  0  0  0
    5.9000    0.4280    0.0000 C   0  0  0  0  0  0  0  0  0
    5.9000   -0.3970    0.0000 C   0  0  0  0  0  0  0  0  0
    5.1855   -0.8095    0.0000 C   0  0  0  0  0  0  0  0  0
    4.4711   -0.3970    0.0000 C   0  0  0  0  0  0  0  0  0
    3.7566   -0.8095    0.0000 N   0  0  0  0  0  0  0  0  0
    3.7566   -1.6345    0.0000 C   0  0  0  0  0  0  0  0  0
    3.0421   -2.0470    0.0000 C   0  0  0  0  0  0  0  0  0
    2.3277   -1.6345    0.0000 N   0  0  0  0  0  0  0  0  0
    2.3277   -0.8095    0.0000 C   0  0  0  0  0  0  0  0  0
    3.0421   -0.3970    0.0000 C   0  0  0  0  0  0  0  0  0
    2.3277    1.6655    0.0000 C   0  0  0  0  0  0  0  0  0
    1.6132    2.0780    0.0000 C   0  0  0  0  0  0  0  0  0
    1.6132    2.9030    0.0000 C   0  0  0  0  0  0  0  0  0
  1  2  1  0  0  0  0
  2  3  4  0  0  0  0
  2 21  4  0  0  0  0
  3  4  4  0  0  0  0
  4  5  1  0  0  0  0
  4 19  4  0  0  0  0
  5  6  1  0  0  0  0
  6  7  1  0  0  0  0
  7  8  4  0  0  0  0
  7 12  4  0  0  0  0
  8  9  4  0  0  0  0
  9 10  4  0  0  0  0
 10 11  4  0  0  0  0
 11 12  4  0  0  0  0
 12 13  1  0  0  0  0
 13 14  1  0  0  0  0
 13 18  1  0  0  0  0
 14 15  1  0  0  0  0
 15 16  1  0  0  0  0
 16 17  1  0  0  0  0
 17 18  1  0  0  0  0
 19 20  4  0  0  0  0
 20 21  4  0  0  0  0
M  END
>  <Name_Molregno>
572591

>  <5-HT1A>
6.94

>  <Dopamine transporter>
5.7

>  <Norepinephrine transporter>
6.98

>  <Serotonin transporter>
7.77

$$$$
572635
  Marvin  02231216192D 0   1.00000     0.00000     0

 22 24  0  0  0  0  0  0  0  0999 V2000
    0.8228    0.4907    0.0000 F   0  0  0  0  0  0  0  0  0
    0.8228   -0.3343    0.0000 C   0  0  0  0  0  0  0  0  0
    1.5373   -0.7468    0.0000 C   0  0  0  0  0  0  0  0  0
    2.2517   -0.3343    0.0000 O   0  0  0  0  0  0  0  0  0
    2.2517    0.4907    0.0000 C   0  0  0  0  0  0  0  0  0
    2.9662    0.9032    0.0000 C   0  0  0  0  0  0  0  0  0
    2.9662    1.7282    0.0000 C   0  0  0  0  0  0  0  0  0
    3.6807    2.1407    0.0000 C   0  0  0  0  0  0  0  0  0
    4.3951    1.7282    0.0000 C   0  0  0  0  0  0  0  0  0
    4.3951    0.9032    0.0000 C   0  0  0  0  0  0  0  0  0
    3.6807    0.4907    0.0000 C   0  0  0  0  0  0  0  0  0
    3.6807   -0.3343    0.0000 N   0  0  0  0  0  0  0  0  0
    4.3951   -0.7468    0.0000 C   0  0  0  0  0  0  0  0  0
    4.3951   -1.5718    0.0000 C   0  0  0  0  0  0  0  0  0
    3.6807   -1.9843    0.0000 N   0  0  0  0  0  0  0  0  0
    2.9662   -1.5718    0.0000 C   0  0  0  0  0  0  0  0  0
    2.9662   -0.7468    0.0000 C   0  0  0  0  0  0  0  0  0
    1.5373   -1.5718    0.0000 C   0  0  0  0  0  0  0  0  0
    0.8228   -1.9843    0.0000 C   0  0  0  0  0  0  0  0  0
    0.1083   -1.5718    0.0000 C   0  0  0  0  0  0  0  0  0
    0.1083   -0.7468    0.0000 C   0  0  0  0  0  0  0  0  0
   -0.6062   -0.3343    0.0000 F   0  0  0  0  0  0  0  0  0
  1  2  1  0  0  0  0
  2  3  4  0  0  0  0
  2 21  4  0  0  0  0
  3  4  1  0  0  0  0
  3 18  4  0  0  0  0
  4  5  1  0  0  0  0
  5  6  1  0  0  0  0
  6  7  4  0  0  0  0
  6 11  4  0  0  0  0
  7  8  4  0  0  0  0
  8  9  4  0  0  0  0
  9 10  4  0  0  0  0
 10 11  4  0  0  0  0
 11 12  1  0  0  0  0
 12 13  1  0  0  0  0
 12 17  1  0  0  0  0
 13 14  1  0  0  0  0
 14 15  1  0  0  0  0
 15 16  1  0  0  0  0
 16 17  1  0  0  0  0
 18 19  4  0  0  0  0
 19 20  4  0  0  0  0
 20 21  4  0  0  0  0
 21 22  1  0  0  0  0
M  END
>  <Name_Molregno>
572635

>  <5-HT1A>
7

>  <Dopamine transporter>
6.33

>  <Norepinephrine transporter>
7.1

>  <Serotonin transporter>
6.11

$$$$
572641
  Marvin  02231216192D 0   1.00000     0.00000     0

 23 26  0  0  0  0  0  0  0  0999 V2000
    0.9256    0.0809    0.0000 O   0  0  0  0  0  0  0  0  0
    0.9256   -0.7441    0.0000 C   0  0  0  0  0  0  0  0  0
    0.2111   -1.1566    0.0000 C   0  0  0  0  0  0  0  0  0
    0.2111   -1.9816    0.0000 C   0  0  0  0  0  0  0  0  0
   -0.5034   -2.3941    0.0000 C   0  0  0  0  0  0  0  0  0
   -1.2179   -1.9816    0.0000 C   0  0  0  0  0  0  0  0  0
   -1.2179   -1.1566    0.0000 C   0  0  0  0  0  0  0  0  0
   -0.5034   -0.7441    0.0000 C   0  0  0  0  0  0  0  0  0
   -0.5034    0.0809    0.0000 N   0  0  0  0  0  0  0  0  0
   -1.2179    0.4934    0.0000 C   0  0  0  0  0  0  0  0  0
   -1.2179    1.3184    0.0000 C   0  0  0  0  0  0  0  0  0
   -0.5034    1.7309    0.0000 N   0  0  0  0  0  0  0  0  0
    0.2111    1.3184    0.0000 C   0  0  0  0  0  0  0  0  0
    0.2111    0.4934    0.0000 C   0  0  0  0  0  0  0  0  0
    1.6400    0.4934    0.0000 C   0  0  0  0  0  0  0  0  0
    1.6400    1.3184    0.0000 C   0  0  0  0  0  0  0  0  0
    2.3545    1.7309    0.0000 C   0  0  0  0  0  0  0  0  0
    3.0690    1.3184    0.0000 C   0  0  0  0  0  0  0  0  0
    3.0690    0.4934    0.0000 C   0  0  0  0  0  0  0  0  0
    2.3545    0.0809    0.0000 C   0  0  0  0  0  0  0  0  0
    2.3545   -0.7441    0.0000 C   0  0  0  0  0  0  0  0  0
    2.7670   -1.4585    0.0000 C   0  0  0  0  0  0  0  0  0
    1.9420   -1.4585    0.0000 C   0  0  0  0  0  0  0  0  0
  1  2  1  0  0  0  0
  1 15  1  0  0  0  0
  2  3  1  0  0  0  0
  3  4  4  0  0  0  0
  3  8  4  0  0  0  0
  4  5  4  0  0  0  0
  5  6  4  0  0  0  0
  6  7  4  0  0  0  0
  7  8  4  0  0  0  0
  8  9  1  0  0  0  0
  9 10  1  0  0  0  0
  9 14  1  0  0  0  0
 10 11  1  0  0  0  0
 11 12  1  0  0  0  0
 12 13  1  0  0  0  0
 13 14  1  0  0  0  0
 15 16  4  0  0  0  0
 15 20  4  0  0  0  0
 16 17  4  0  0  0  0
 17 18  4  0  0  0  0
 18 19  4  0  0  0  0
 19 20  4  0  0  0  0
 20 21  1  0  0  0  0
 21 22  1  0  0  0  0
 21 23  1  0  0  0  0
 22 23  1  0  0  0  0
M  END
>  <Name_Molregno>
572641

>  <5-HT1A>
6.33

>  <Dopamine transporter>
5.22

>  <Norepinephrine transporter>
6.72

>  <Serotonin transporter>
7.28

$$$$
572642
  Marvin  02231216192D 0   1.00000     0.00000     0

 20 22  0  0  0  0  0  0  0  0999 V2000
    0.8600    0.8106    0.0000 Cl  0  0  0  0  0  0  0  0  0
    0.8600   -0.0144    0.0000 C   0  0  0  0  0  0  0  0  0
    1.5745   -0.4269    0.0000 C   0  0  0  0  0  0  0  0  0
    1.5745   -1.2519    0.0000 C   0  0  0  0  0  0  0  0  0
    2.2889   -1.6644    0.0000 O   0  0  0  0  0  0  0  0  0
    3.0034   -1.2519    0.0000 C   0  0  0  0  0  0  0  0  0
    3.0034   -0.4269    0.0000 C   0  0  0  0  0  0  0  0  0
    3.7179   -0.0144    0.0000 C   0  0  0  0  0  0  0  0  0
    4.4323   -0.4269    0.0000 C   0  0  0  0  0  0  0  0  0
    4.4323   -1.2519    0.0000 C   0  0  0  0  0  0  0  0  0
    3.7179   -1.6644    0.0000 C   0  0  0  0  0  0  0  0  0
    3.7179   -2.4894    0.0000 C   0  0  0  0  0  0  0  0  0
    4.4323   -2.9019    0.0000 C   0  0  0  0  0  0  0  0  0
    4.4323   -3.7269    0.0000 C   0  0  0  0  0  0  0  0  0
    3.7179   -4.1394    0.0000 N   0  0  0  0  0  0  0  0  0
    3.0034   -3.7269    0.0000 C   0  0  0  0  0  0  0  0  0
    3.0034   -2.9019    0.0000 C   0  0  0  0  0  0  0  0  0
    0.8600   -1.6644    0.0000 C   0  0  0  0  0  0  0  0  0
    0.1455   -1.2519    0.0000 C   0  0  0  0  0  0  0  0  0
    0.1455   -0.4269    0.0000 C   0  0  0  0  0  0  0  0  0
  1  2  1  0  0  0  0
  2  3  4  0  0  0  0
  2 20  4  0  0  0  0
  3  4  4  0  0  0  0
  4  5  1  0  0  0  0
  4 18  4  0  0  0  0
  5  6  1  0  0  0  0
  6  7  4  0  0  0  0
  6 11  4  0  0  0  0
  7  8  4  0  0  0  0
  8  9  4  0  0  0  0
  9 10  4  0  0  0  0
 10 11  4  0  0  0  0
 11 12  1  0  0  0  0
 12 13  1  0  0  0  0
 12 17  1  0  0  0  0
 13 14  1  0  0  0  0
 14 15  1  0  0  0  0
 15 16  1  0  0  0  0
 16 17  1  0  0  0  0
 18 19  4  0  0  0  0
 19 20  4  0  0  0  0
M  END
>  <Name_Molregno>
572642

>  <5-HT1A>
8.3

>  <Dopamine transporter>
6.51

>  <Norepinephrine transporter>
7.89

>  <Serotonin transporter>
6.68

$$$$
572652
  Marvin  02231216192D 0   1.00000     0.00000     0

 21 23  0  0  0  0  0  0  0  0999 V2000
    3.0645    3.8362    0.0000 F   0  0  0  0  0  0  0  0  0
    3.0645    3.0112    0.0000 C   0  0  0  0  0  0  0  0  0
    3.7790    2.5987    0.0000 C   0  0  0  0  0  0  0  0  0
    3.7790    1.7737    0.0000 C   0  0  0  0  0  0  0  0  0
    3.0645    1.3612    0.0000 C   0  0  0  0  0  0  0  0  0
    3.0645    0.5362    0.0000 O   0  0  0  0  0  0  0  0  0
    3.7790    0.1237    0.0000 C   0  0  0  0  0  0  0  0  0
    4.4935    0.5362    0.0000 C   0  0  0  0  0  0  0  0  0
    5.2080    0.1237    0.0000 C   0  0  0  0  0  0  0  0  0
    5.2080   -0.7013    0.0000 C   0  0  0  0  0  0  0  0  0
    4.4935   -1.1138    0.0000 C   0  0  0  0  0  0  0  0  0
    3.7790   -0.7013    0.0000 C   0  0  0  0  0  0  0  0  0
    3.0645   -1.1138    0.0000 C   0  0  0  0  0  0  0  0  0
    3.0645   -1.9388    0.0000 C   0  0  0  0  0  0  0  0  0
    2.3501   -2.3513    0.0000 C   0  0  0  0  0  0  0  0  0
    1.6356   -1.9388    0.0000 N   0  0  0  0  0  0  0  0  0
    1.6356   -1.1138    0.0000 C   0  0  0  0  0  0  0  0  0
    2.3501   -0.7013    0.0000 C   0  0  0  0  0  0  0  0  0
    5.9224    0.5362    0.0000 C   0  0  0  0  0  0  0  0  0
    2.3501    1.7737    0.0000 C   0  0  0  0  0  0  0  0  0
    2.3501    2.5987    0.0000 C   0  0  0  0  0  0  0  0  0
  1  2  1  0  0  0  0
  2  3  4  0  0  0  0
  2 21  4  0  0  0  0
  3  4  4  0  0  0  0
  4  5  4  0  0  0  0
  5  6  1  0  0  0  0
  5 20  4  0  0  0  0
  6  7  1  0  0  0  0
  7  8  4  0  0  0  0
  7 12  4  0  0  0  0
  8  9  4  0  0  0  0
  9 10  4  0  0  0  0
  9 19  1  0  0  0  0
 10 11  4  0  0  0  0
 11 12  4  0  0  0  0
 12 13  1  0  0  0  0
 13 14  1  0  0  0  0
 13 18  1  0  0  0  0
 14 15  1  0  0  0  0
 15 16  1  0  0  0  0
 16 17  1  0  0  0  0
 17 18  1  0  0  0  0
 20 21  4  0  0  0  0
M  END
>  <Name_Molregno>
572652

>  <5-HT1A>
5.34

>  <Dopamine transporter>
5.77

>  <Norepinephrine transporter>
6.94

>  <Serotonin transporter>
6.37

$$$$
572662
  Marvin  02231216192D 0   1.00000     0.00000     0

 20 22  0  0  0  0  0  0  0  0999 V2000
    1.3051    0.5925    0.0000 O   0  0  0  0  0  0  0  0  0
    2.0196    0.1800    0.0000 C   0  0  0  0  0  0  0  0  0
    2.0196   -0.6450    0.0000 C   0  0  0  0  0  0  0  0  0
    2.7340   -1.0575    0.0000 C   0  0  0  0  0  0  0  0  0
    2.7340   -1.8825    0.0000 C   0  0  0  0  0  0  0  0  0
    2.0196   -2.2950    0.0000 C   0  0  0  0  0  0  0  0  0
    1.3051   -1.8825    0.0000 C   0  0  0  0  0  0  0  0  0
    1.3051   -1.0575    0.0000 C   0  0  0  0  0  0  0  0  0
    0.5906   -0.6450    0.0000 C   0  0  0  0  0  0  0  0  0
   -0.1239   -1.0575    0.0000 C   0  0  0  0  0  0  0  0  0
   -0.8383   -0.6450    0.0000 C   0  0  0  0  0  0  0  0  0
   -0.8383    0.1800    0.0000 N   0  0  0  0  0  0  0  0  0
   -0.1239    0.5925    0.0000 C   0  0  0  0  0  0  0  0  0
    0.5906    0.1800    0.0000 C   0  0  0  0  0  0  0  0  0
    1.3051    1.4175    0.0000 C   0  0  0  0  0  0  0  0  0
    0.5906    1.8300    0.0000 C   0  0  0  0  0  0  0  0  0
    0.5906    2.6550    0.0000 C   0  0  0  0  0  0  0  0  0
    1.3051    3.0675    0.0000 C   0  0  0  0  0  0  0  0  0
    2.0196    2.6550    0.0000 C   0  0  0  0  0  0  0  0  0
    2.0196    1.8300    0.0000 C   0  0  0  0  0  0  0  0  0
  1  2  1  0  0  0  0
  1 15  1  0  0  0  0
  2  3  1  0  0  0  0
  3  4  4  0  0  0  0
  3  8  4  0  0  0  0
  4  5  4  0  0  0  0
  5  6  4  0  0  0  0
  6  7  4  0  0  0  0
  7  8  4  0  0  0  0
  8  9  1  0  0  0  0
  9 10  1  0  0  0  0
  9 14  1  0  0  0  0
 10 11  1  0  0  0  0
 11 12  1  0  0  0  0
 12 13  1  0  0  0  0
 13 14  1  0  0  0  0
 15 16  4  0  0  0  0
 15 20  4  0  0  0  0
 16 17  4  0  0  0  0
 17 18  4  0  0  0  0
 18 19  4  0  0  0  0
 19 20  4  0  0  0  0
M  END
>  <Name_Molregno>
572662

>  <5-HT1A>
6

>  <Dopamine transporter>
6.4

>  <Norepinephrine transporter>
5.77

>  <Serotonin transporter>
6.44

$$$$
572663
  Marvin  02231216192D 0   1.00000     0.00000     0

 21 23  0  0  0  0  0  0  0  0999 V2000
    2.3277    4.1405    0.0000 F   0  0  0  0  0  0  0  0  0
    2.3277    3.3155    0.0000 C   0  0  0  0  0  0  0  0  0
    3.0421    2.9030    0.0000 C   0  0  0  0  0  0  0  0  0
    3.0421    2.0780    0.0000 C   0  0  0  0  0  0  0  0  0
    3.7566    1.6655    0.0000 O   0  0  0  0  0  0  0  0  0
    3.7566    0.8405    0.0000 C   0  0  0  0  0  0  0  0  0
    4.4711    0.4280    0.0000 C   0  0  0  0  0  0  0  0  0
    5.1855    0.8405    0.0000 C   0  0  0  0  0  0  0  0  0
    5.9000    0.4280    0.0000 C   0  0  0  0  0  0  0  0  0
    5.9000   -0.3970    0.0000 C   0  0  0  0  0  0  0  0  0
    5.1855   -0.8095    0.0000 C   0  0  0  0  0  0  0  0  0
    4.4711   -0.3970    0.0000 C   0  0  0  0  0  0  0  0  0
    3.7566   -0.8095    0.0000 C   0  0  0  0  0  0  0  0  0
    3.7566   -1.6345    0.0000 C   0  0  0  0  0  0  0  0  0
    3.0421   -2.0470    0.0000 C   0  0  0  0  0  0  0  0  0
    2.3277   -1.6345    0.0000 N   0  0  0  0  0  0  0  0  0
    2.3277   -0.8095    0.0000 C   0  0  0  0  0  0  0  0  0
    3.0421   -0.3970    0.0000 C   0  0  0  0  0  0  0  0  0
    2.3277    1.6655    0.0000 C   0  0  0  0  0  0  0  0  0
    1.6132    2.0780    0.0000 C   0  0  0  0  0  0  0  0  0
    1.6132    2.9030    0.0000 C   0  0  0  0  0  0  0  0  0
  1  2  1  0  0  0  0
  2  3  4  0  0  0  0
  2 21  4  0  0  0  0
  3  4  4  0  0  0  0
  4  5  1  0  0  0  0
  4 19  4  0  0  0  0
  5  6  1  0  0  0  0
  6  7  1  0  0  0  0
  7  8  4  0  0  0  0
  7 12  4  0  0  0  0
  8  9  4  0  0  0  0
  9 10  4  0  0  0  0
 10 11  4  0  0  0  0
 11 12  4  0  0  0  0
 12 13  1  0  0  0  0
 13 14  1  0  0  0  0
 13 18  1  0  0  0  0
 14 15  1  0  0  0  0
 15 16  1  0  0  0  0
 16 17  1  0  0  0  0
 17 18  1  0  0  0  0
 19 20  4  0  0  0  0
 20 21  4  0  0  0  0
M  END
>  <Name_Molregno>
572663

>  <5-HT1A>
6

>  <Dopamine transporter>
6.34

>  <Norepinephrine transporter>
5.71

>  <Serotonin transporter>
7.31

$$$$
572664
  Marvin  02231216192D 0   1.00000     0.00000     0

 20 22  0  0  0  0  0  0  0  0999 V2000
   -0.7159    0.2271    0.0000 O   0  0  0  0  0  0  0  0  0
   -1.4304   -0.1854    0.0000 C   0  0  0  0  0  0  0  0  0
   -1.4304   -1.0104    0.0000 C   0  0  0  0  0  0  0  0  0
   -0.7159   -1.4229    0.0000 C   0  0  0  0  0  0  0  0  0
   -0.7159   -2.2479    0.0000 C   0  0  0  0  0  0  0  0  0
   -1.4304   -2.6604    0.0000 C   0  0  0  0  0  0  0  0  0
   -2.1449   -2.2479    0.0000 C   0  0  0  0  0  0  0  0  0
   -2.1449   -1.4229    0.0000 C   0  0  0  0  0  0  0  0  0
   -0.7159    1.0521    0.0000 C   0  0  0  0  0  0  0  0  0
   -1.4304    1.4646    0.0000 C   0  0  0  0  0  0  0  0  0
   -1.4304    2.2896    0.0000 C   0  0  0  0  0  0  0  0  0
   -0.7159    2.7021    0.0000 C   0  0  0  0  0  0  0  0  0
   -0.0014    2.2896    0.0000 C   0  0  0  0  0  0  0  0  0
   -0.0014    1.4646    0.0000 C   0  0  0  0  0  0  0  0  0
    0.7130    1.0521    0.0000 C   0  0  0  0  0  0  0  0  0
    1.4275    1.4646    0.0000 C   0  0  0  0  0  0  0  0  0
    2.1420    1.0521    0.0000 C   0  0  0  0  0  0  0  0  0
    2.1420    0.2271    0.0000 N   0  0  0  0  0  0  0  0  0
    1.4275   -0.1854    0.0000 C   0  0  0  0  0  0  0  0  0
    0.7130    0.2271    0.0000 C   0  0  0  0  0  0  0  0  0
  1  2  1  0  0  0  0
  1  9  1  0  0  0  0
  2  3  1  0  0  0  0
  3  4  4  0  0  0  0
  3  8  4  0  0  0  0
  4  5  4  0  0  0  0
  5  6  4  0  0  0  0
  6  7  4  0  0  0  0
  7  8  4  0  0  0  0
  9 10  4  0  0  0  0
  9 14  4  0  0  0  0
 10 11  4  0  0  0  0
 11 12  4  0  0  0  0
 12 13  4  0  0  0  0
 13 14  4  0  0  0  0
 14 15  1  0  0  0  0
 15 16  1  0  0  0  0
 15 20  1  0  0  0  0
 16 17  1  0  0  0  0
 17 18  1  0  0  0  0
 18 19  1  0  0  0  0
 19 20  1  0  0  0  0
M  END
>  <Name_Molregno>
572664

>  <5-HT1A>
6.92

>  <Dopamine transporter>
6

>  <Norepinephrine transporter>
7.12

>  <Serotonin transporter>
7.13

$$$$
572672
  Marvin  02231216192D 0   1.00000     0.00000     0

 21 23  0  0  0  0  0  0  0  0999 V2000
    3.2606    3.2887    0.0000 F   0  0  0  0  0  0  0  0  0
    3.2606    2.4637    0.0000 C   0  0  0  0  0  0  0  0  0
    3.9751    2.0512    0.0000 C   0  0  0  0  0  0  0  0  0
    3.9751    1.2262    0.0000 C   0  0  0  0  0  0  0  0  0
    3.2606    0.8137    0.0000 C   0  0  0  0  0  0  0  0  0
    2.5462    1.2262    0.0000 C   0  0  0  0  0  0  0  0  0
    1.8317    0.8137    0.0000 O   0  0  0  0  0  0  0  0  0
    1.8317   -0.0113    0.0000 C   0  0  0  0  0  0  0  0  0
    2.5462   -0.4238    0.0000 C   0  0  0  0  0  0  0  0  0
    2.5462   -1.2488    0.0000 C   0  0  0  0  0  0  0  0  0
    1.8317   -1.6613    0.0000 C   0  0  0  0  0  0  0  0  0
    1.8317   -2.4863    0.0000 F   0  0  0  0  0  0  0  0  0
    1.1172   -1.2488    0.0000 C   0  0  0  0  0  0  0  0  0
    1.1172   -0.4238    0.0000 C   0  0  0  0  0  0  0  0  0
    2.5462    2.0512    0.0000 C   0  0  0  0  0  0  0  0  0
    1.8317    2.4637    0.0000 C   0  0  0  0  0  0  0  0  0
    1.1172    2.0512    0.0000 C   0  0  0  0  0  0  0  0  0
    0.4028    2.4637    0.0000 C   0  0  0  0  0  0  0  0  0
    0.4028    3.2887    0.0000 N   0  0  0  0  0  0  0  0  0
    1.1172    3.7012    0.0000 C   0  0  0  0  0  0  0  0  0
    1.8317    3.2887    0.0000 C   0  0  0  0  0  0  0  0  0
  1  2  1  0  0  0  0
  2  3  4  0  0  0  0
  2 15  4  0  0  0  0
  3  4  4  0  0  0  0
  4  5  4  0  0  0  0
  5  6  4  0  0  0  0
  6  7  1  0  0  0  0
  6 15  4  0  0  0  0
  7  8  1  0  0  0  0
  8  9  4  0  0  0  0
  8 14  4  0  0  0  0
  9 10  4  0  0  0  0
 10 11  4  0  0  0  0
 11 12  1  0  0  0  0
 11 13  4  0  0  0  0
 13 14  4  0  0  0  0
 15 16  1  0  0  0  0
 16 17  1  0  0  0  0
 16 21  1  0  0  0  0
 17 18  1  0  0  0  0
 18 19  1  0  0  0  0
 19 20  1  0  0  0  0
 20 21  1  0  0  0  0
M  END
>  <Name_Molregno>
572672

>  <5-HT1A>
6.81

>  <Dopamine transporter>
8.22

>  <Norepinephrine transporter>
7.01

>  <Serotonin transporter>
6.8

$$$$
590288
  Marvin  02231216192D 0   1.00000     0.00000     0

 33 38  0  0  1  0  0  0  0  0999 V2000
   -7.5835    1.7849    0.0000 F   0  0  0  0  0  0  0  0  0
   -7.7298    0.9730    0.0000 C   0  0  0  0  0  0  0  0  0
   -7.0998    0.4404    0.0000 C   0  0  0  0  0  0  0  0  0
   -7.2460   -0.3716    0.0000 C   0  0  0  0  0  0  0  0  0
   -8.0223   -0.6509    0.0000 C   0  0  0  0  0  0  0  0  0
   -7.9965   -1.4755    0.0000 N   0  0  0  0  0  0  0  0  0
   -7.2043   -1.7058    0.0000 C   0  0  0  0  0  0  0  0  0
   -6.7405   -1.0235    0.0000 C   0  0  0  0  0  0  0  0  0
   -5.9159   -0.9978    0.0000 C   0  0  0  0  0  0  0  0  0
   -5.4813   -1.6990    0.0000 C   0  0  0  0  0  0  0  0  0
   -4.6567   -1.6733    0.0000 C   0  0  0  0  0  0  0  0  0
   -4.2221   -2.3745    0.0000 C   0  0  0  0  0  0  0  0  0
   -3.3975   -2.3487    0.0000 N   0  0  0  0  0  0  0  0  0
   -3.0075   -1.6217    0.0000 C   0  0  0  0  0  0  0  0  0
   -2.1829   -1.5960    0.0000 C   0  0  0  0  0  0  0  0  0
   -1.4816   -1.1614    0.0000 C   0  0  0  0  0  0  0  0  0
   -1.4559   -1.9860    0.0000 C   0  0  0  0  0  0  0  0  0
   -2.9628   -3.0500    0.0000 C   0  0  0  0  0  0  0  0  0
   -2.1382   -3.0242    0.0000 C   0  0  0  0  0  0  0  0  0
   -1.7036   -3.7255    0.0000 C   0  0  0  0  0  0  0  0  0
   -0.8790   -3.6997    0.0000 C   0  0  0  0  0  0  0  0  0
   -0.4444   -4.4009    0.0000 C   0  0  0  0  0  0  0  0  0
    0.3568   -4.2043    0.0000 C   0  0  0  0  0  0  0  0  0
    0.4174   -3.3815    0.0000 N   0  0  0  0  0  0  0  0  0
   -0.3464   -3.0697    0.0000 C   0  0  0  0  0  0  0  0  0
   -0.5431   -2.2684    0.0000 O   0  0  0  0  0  0  0  0  0
   -0.8344   -5.1279    0.0000 C   0  0  0  0  0  0  0  0  0
   -1.6590   -5.1537    0.0000 C   0  0  0  0  0  0  0  0  0
   -2.0936   -4.4525    0.0000 C   0  0  0  0  0  0  0  0  0
   -2.9182   -4.4782    0.0000 O   0  0  0  0  0  0  0  0  0
   -3.3528   -3.7770    0.0000 C   0  0  0  0  0  0  0  0  0
   -8.6523   -0.1183    0.0000 C   0  0  0  0  0  0  0  0  0
   -8.5061    0.6937    0.0000 C   0  0  0  0  0  0  0  0  0
  1  2  1  0  0  0  0
  2  3  4  0  0  0  0
  2 33  4  0  0  0  0
  3  4  4  0  0  0  0
  4  5  4  0  0  0  0
  4  8  4  0  0  0  0
  5  6  4  0  0  0  0
  5 32  4  0  0  0  0
  6  7  4  0  0  0  0
  7  8  4  0  0  0  0
  8  9  1  0  0  0  0
  9 10  1  0  0  0  0
 10 11  1  0  0  0  0
 11 12  1  0  0  0  0
 12 13  1  0  0  0  0
 13 14  1  0  0  0  0
 13 18  1  0  0  0  0
 14 15  1  0  0  0  0
 15 16  1  0  0  0  0
 15 17  1  0  0  0  0
 16 17  1  0  0  0  0
 18 19  1  0  0  0  0
 18 31  1  0  0  0  0
 19 20  1  0  0  0  0
 20 21  4  0  0  0  0
 20 29  4  0  0  0  0
 21 22  4  0  0  0  0
 21 25  1  0  0  0  0
 22 23  1  0  0  0  0
 22 27  4  0  0  0  0
 23 24  1  0  0  0  0
 24 25  1  0  0  0  0
 25 26  2  0  0  0  0
 27 28  4  0  0  0  0
 28 29  4  0  0  0  0
 29 30  1  0  0  0  0
 30 31  1  0  0  0  0
 32 33  4  0  0  0  0
M  STY  1   1 DAT
M  SAL   1  1   6
M  SDT   1 MRV_IMPLICIT_H                                        
M  SDD   1     0.0000    0.0000    DR    ALL  0       0  
M  SED   1 IMPL_H1
M  END
>  <Name_Molregno>
590288

>  <5-HT1A>
7.72

$$$$
590986
  Marvin  02231216192D 0   1.00000     0.00000     0

 37 42  0  0  1  0  0  0  0  0999 V2000
   -0.1297   -0.3849    0.0000 F   0  0  0  0  0  0  0  0  0
    0.4834   -0.9370    0.0000 C   0  0  0  0  0  0  0  0  0
    1.2680   -0.6820    0.0000 C   0  0  0  0  0  0  0  0  0
    1.8811   -1.2341    0.0000 C   0  0  0  0  0  0  0  0  0
    1.7096   -2.0410    0.0000 C   0  0  0  0  0  0  0  0  0
    2.4241   -2.4535    0.0000 N   0  0  0  0  0  0  0  0  0
    3.0372   -1.9015    0.0000 C   0  0  0  0  0  0  0  0  0
    2.7016   -1.1478    0.0000 C   0  0  0  0  0  0  0  0  0
    3.1141   -0.4334    0.0000 C   0  0  0  0  0  0  0  0  0
    3.9391   -0.4334    0.0000 C   0  0  0  0  0  0  0  0  0
    4.3516    0.2811    0.0000 C   0  0  0  0  0  0  0  0  0
    5.1766    0.2811    0.0000 N   0  0  0  0  0  0  0  0  0
    5.5891   -0.4334    0.0000 C   0  0  0  0  0  0  0  0  0
    6.4141   -0.4334    0.0000 O   0  0  0  0  0  0  0  0  0
    5.1766   -1.1478    0.0000 C   0  0  0  0  0  0  0  0  0
    5.5891   -1.8623    0.0000 C   0  0  0  0  0  0  0  0  0
    5.1766   -2.5768    0.0000 C   0  0  0  0  0  0  0  0  0
    4.3516   -2.5768    0.0000 C   0  0  0  0  0  0  0  0  0
    3.9391   -1.8623    0.0000 C   0  0  0  0  0  0  0  0  0
    4.3516   -1.1478    0.0000 C   0  0  0  0  0  0  0  0  0
    5.5891    0.9956    0.0000 C   0  0  0  0  0  0  0  0  0
    6.4141    0.9956    0.0000 C   0  0  0  0  0  0  0  0  0
    6.8266    1.7101    0.0000 C   0  0  0  0  0  0  0  0  0
    7.6516    1.7101    0.0000 C   0  0  0  0  0  0  0  0  0
    8.0641    2.4245    0.0000 C   0  0  0  0  0  0  0  0  0
    8.8891    2.4245    0.0000 C   0  0  0  0  0  0  0  0  0
    9.3016    1.7101    0.0000 C   0  0  0  0  0  0  0  0  0
    8.8891    0.9956    0.0000 N   0  0  0  0  0  0  0  0  0
    8.0641    0.9956    0.0000 C   0  0  0  0  0  0  0  0  0
    7.6516    0.2811    0.0000 O   0  0  0  0  0  0  0  0  0
    7.6516    3.1390    0.0000 C   0  0  0  0  0  0  0  0  0
    6.8266    3.1390    0.0000 C   0  0  0  0  0  0  0  0  0
    6.4141    2.4245    0.0000 C   0  0  0  0  0  0  0  0  0
    5.5891    2.4245    0.0000 O   0  0  0  0  0  0  0  0  0
    5.1766    1.7101    0.0000 C   0  0  0  0  0  0  0  0  0
    0.9250   -2.2960    0.0000 C   0  0  0  0  0  0  0  0  0
    0.3119   -1.7439    0.0000 C   0  0  0  0  0  0  0  0  0
  1  2  1  0  0  0  0
  2  3  4  0  0  0  0
  2 37  4  0  0  0  0
  3  4  4  0  0  0  0
  4  5  4  0  0  0  0
  4  8  4  0  0  0  0
  5  6  4  0  0  0  0
  5 36  4  0  0  0  0
  6  7  4  0  0  0  0
  7  8  4  0  0  0  0
  8  9  1  0  0  0  0
  9 10  1  0  0  0  0
 10 11  1  0  0  0  0
 11 12  1  0  0  0  0
 12 13  1  0  0  0  0
 12 21  1  0  0  0  0
 13 14  2  0  0  0  0
 13 15  1  0  0  0  0
 15 16  4  0  0  0  0
 15 20  4  0  0  0  0
 16 17  4  0  0  0  0
 17 18  4  0  0  0  0
 18 19  4  0  0  0  0
 19 20  4  0  0  0  0
 21 22  1  0  0  0  0
 21 35  1  0  0  0  0
 22 23  1  0  0  0  0
 23 24  4  0  0  0  0
 23 33  4  0  0  0  0
 24 25  4  0  0  0  0
 24 29  1  0  0  0  0
 25 26  1  0  0  0  0
 25 31  4  0  0  0  0
 26 27  1  0  0  0  0
 27 28  1  0  0  0  0
 28 29  1  0  0  0  0
 29 30  2  0  0  0  0
 31 32  4  0  0  0  0
 32 33  4  0  0  0  0
 33 34  1  0  0  0  0
 34 35  1  0  0  0  0
 36 37  4  0  0  0  0
M  STY  1   1 DAT
M  SAL   1  1   6
M  SDT   1 MRV_IMPLICIT_H                                        
M  SDD   1     0.0000    0.0000    DR    ALL  0       0  
M  SED   1 IMPL_H1
M  END
>  <Name_Molregno>
590986

>  <5-HT1A>
5.91

$$$$
590987
  Marvin  02231216192D 0   1.00000     0.00000     0

 28 32  0  0  1  0  0  0  0  0999 V2000
   -5.2704    4.0575    0.0000 F   0  0  0  0  0  0  0  0  0
   -6.0466    3.7782    0.0000 C   0  0  0  0  0  0  0  0  0
   -6.1929    2.9662    0.0000 C   0  0  0  0  0  0  0  0  0
   -6.9692    2.6869    0.0000 C   0  0  0  0  0  0  0  0  0
   -7.5992    3.2195    0.0000 C   0  0  0  0  0  0  0  0  0
   -8.3004    2.7849    0.0000 N   0  0  0  0  0  0  0  0  0
   -8.1038    1.9837    0.0000 C   0  0  0  0  0  0  0  0  0
   -7.2810    1.9231    0.0000 C   0  0  0  0  0  0  0  0  0
   -6.8464    1.2219    0.0000 C   0  0  0  0  0  0  0  0  0
   -6.0218    1.2477    0.0000 C   0  0  0  0  0  0  0  0  0
   -5.5872    0.5464    0.0000 C   0  0  0  0  0  0  0  0  0
   -4.7626    0.5722    0.0000 N   0  0  0  0  0  0  0  0  0
   -4.3280   -0.1291    0.0000 C   0  0  0  0  0  0  0  0  0
   -3.5034   -0.1033    0.0000 C   0  0  0  0  0  0  0  0  0
   -3.0688   -0.8045    0.0000 C   0  0  0  0  0  0  0  0  0
   -2.2442   -0.7788    0.0000 C   0  0  0  0  0  0  0  0  0
   -1.8096   -1.4800    0.0000 C   0  0  0  0  0  0  0  0  0
   -1.0084   -1.2834    0.0000 C   0  0  0  0  0  0  0  0  0
   -0.9478   -0.4606    0.0000 N   0  0  0  0  0  0  0  0  0
   -1.7116   -0.1487    0.0000 C   0  0  0  0  0  0  0  0  0
   -1.9082    0.6525    0.0000 O   0  0  0  0  0  0  0  0  0
   -2.1996   -2.2070    0.0000 C   0  0  0  0  0  0  0  0  0
   -3.0242   -2.2328    0.0000 C   0  0  0  0  0  0  0  0  0
   -3.4588   -1.5315    0.0000 C   0  0  0  0  0  0  0  0  0
   -4.2834   -1.5573    0.0000 O   0  0  0  0  0  0  0  0  0
   -4.7180   -0.8561    0.0000 C   0  0  0  0  0  0  0  0  0
   -7.4530    4.0315    0.0000 C   0  0  0  0  0  0  0  0  0
   -6.6767    4.3108    0.0000 C   0  0  0  0  0  0  0  0  0
  1  2  1  0  0  0  0
  2  3  4  0  0  0  0
  2 28  4  0  0  0  0
  3  4  4  0  0  0  0
  4  5  4  0  0  0  0
  4  8  4  0  0  0  0
  5  6  4  0  0  0  0
  5 27  4  0  0  0  0
  6  7  4  0  0  0  0
  7  8  4  0  0  0  0
  8  9  1  0  0  0  0
  9 10  1  0  0  0  0
 10 11  1  0  0  0  0
 11 12  1  0  0  0  0
 12 13  1  0  0  0  0
 13 14  1  0  0  0  0
 13 26  1  0  0  0  0
 14 15  1  0  0  0  0
 15 16  4  0  0  0  0
 15 24  4  0  0  0  0
 16 17  4  0  0  0  0
 16 20  1  0  0  0  0
 17 18  1  0  0  0  0
 17 22  4  0  0  0  0
 18 19  1  0  0  0  0
 19 20  1  0  0  0  0
 20 21  2  0  0  0  0
 22 23  4  0  0  0  0
 23 24  4  0  0  0  0
 24 25  1  0  0  0  0
 25 26  1  0  0  0  0
 27 28  4  0  0  0  0
M  STY  1   1 DAT
M  SAL   1  1   6
M  SDT   1 MRV_IMPLICIT_H                                        
M  SDD   1     0.0000    0.0000    DR    ALL  0       0  
M  SED   1 IMPL_H1
M  END
>  <Name_Molregno>
590987

>  <5-HT1A>
7.62

$$$$
590988
  Marvin  02231216192D 0   1.00000     0.00000     0

 29 33  0  0  1  0  0  0  0  0999 V2000
   -5.3103    4.0214    0.0000 F   0  0  0  0  0  0  0  0  0
   -6.0866    3.7420    0.0000 C   0  0  0  0  0  0  0  0  0
   -6.2329    2.9301    0.0000 C   0  0  0  0  0  0  0  0  0
   -7.0091    2.6508    0.0000 C   0  0  0  0  0  0  0  0  0
   -7.6392    3.1834    0.0000 C   0  0  0  0  0  0  0  0  0
   -8.3404    2.7488    0.0000 N   0  0  0  0  0  0  0  0  0
   -8.1438    1.9476    0.0000 C   0  0  0  0  0  0  0  0  0
   -7.3210    1.8870    0.0000 C   0  0  0  0  0  0  0  0  0
   -6.8864    1.1858    0.0000 C   0  0  0  0  0  0  0  0  0
   -6.0618    1.2115    0.0000 C   0  0  0  0  0  0  0  0  0
   -5.6272    0.5103    0.0000 C   0  0  0  0  0  0  0  0  0
   -4.8026    0.5360    0.0000 N   0  0  0  0  0  0  0  0  0
   -4.4126    1.2631    0.0000 C   0  0  0  0  0  0  0  0  0
   -4.3680   -0.1652    0.0000 C   0  0  0  0  0  0  0  0  0
   -3.5434   -0.1394    0.0000 C   0  0  0  0  0  0  0  0  0
   -3.1088   -0.8407    0.0000 C   0  0  0  0  0  0  0  0  0
   -2.2842   -0.8149    0.0000 C   0  0  0  0  0  0  0  0  0
   -1.8496   -1.5161    0.0000 C   0  0  0  0  0  0  0  0  0
   -1.0483   -1.3195    0.0000 C   0  0  0  0  0  0  0  0  0
   -0.9878   -0.4967    0.0000 N   0  0  0  0  0  0  0  0  0
   -1.7515   -0.1849    0.0000 C   0  0  0  0  0  0  0  0  0
   -1.9482    0.6163    0.0000 O   0  0  0  0  0  0  0  0  0
   -2.2395   -2.2432    0.0000 C   0  0  0  0  0  0  0  0  0
   -3.0641   -2.2689    0.0000 C   0  0  0  0  0  0  0  0  0
   -3.4987   -1.5677    0.0000 C   0  0  0  0  0  0  0  0  0
   -4.3233   -1.5934    0.0000 O   0  0  0  0  0  0  0  0  0
   -4.7580   -0.8922    0.0000 C   0  0  0  0  0  0  0  0  0
   -7.4929    3.9953    0.0000 C   0  0  0  0  0  0  0  0  0
   -6.7166    4.2747    0.0000 C   0  0  0  0  0  0  0  0  0
  1  2  1  0  0  0  0
  2  3  4  0  0  0  0
  2 29  4  0  0  0  0
  3  4  4  0  0  0  0
  4  5  4  0  0  0  0
  4  8  4  0  0  0  0
  5  6  4  0  0  0  0
  5 28  4  0  0  0  0
  6  7  4  0  0  0  0
  7  8  4  0  0  0  0
  8  9  1  0  0  0  0
  9 10  1  0  0  0  0
 10 11  1  0  0  0  0
 11 12  1  0  0  0  0
 12 13  1  0  0  0  0
 12 14  1  0  0  0  0
 14 15  1  0  0  0  0
 14 27  1  0  0  0  0
 15 16  1  0  0  0  0
 16 17  4  0  0  0  0
 16 25  4  0  0  0  0
 17 18  4  0  0  0  0
 17 21  1  0  0  0  0
 18 19  1  0  0  0  0
 18 23  4  0  0  0  0
 19 20  1  0  0  0  0
 20 21  1  0  0  0  0
 21 22  2  0  0  0  0
 23 24  4  0  0  0  0
 24 25  4  0  0  0  0
 25 26  1  0  0  0  0
 26 27  1  0  0  0  0
 28 29  4  0  0  0  0
M  STY  1   1 DAT
M  SAL   1  1   6
M  SDT   1 MRV_IMPLICIT_H                                        
M  SDD   1     0.0000    0.0000    DR    ALL  0       0  
M  SED   1 IMPL_H1
M  END
>  <Name_Molregno>
590988

>  <5-HT1A>
7.66

$$$$
590989
  Marvin  02231216192D 0   1.00000     0.00000     0

 30 34  0  0  1  0  0  0  0  0999 V2000
    4.1070    3.9475    0.0000 F   0  0  0  0  0  0  0  0  0
    3.3308    3.6682    0.0000 C   0  0  0  0  0  0  0  0  0
    3.1845    2.8563    0.0000 C   0  0  0  0  0  0  0  0  0
    2.4082    2.5769    0.0000 C   0  0  0  0  0  0  0  0  0
    1.7782    3.1096    0.0000 C   0  0  0  0  0  0  0  0  0
    1.0770    2.6749    0.0000 N   0  0  0  0  0  0  0  0  0
    1.2736    1.8737    0.0000 C   0  0  0  0  0  0  0  0  0
    2.0964    1.8132    0.0000 C   0  0  0  0  0  0  0  0  0
    2.5310    1.1119    0.0000 C   0  0  0  0  0  0  0  0  0
    3.3556    1.1377    0.0000 C   0  0  0  0  0  0  0  0  0
    3.7902    0.4364    0.0000 C   0  0  0  0  0  0  0  0  0
    4.6148    0.4622    0.0000 N   0  0  0  0  0  0  0  0  0
    5.0048    1.1892    0.0000 C   0  0  0  0  0  0  0  0  0
    5.8294    1.2150    0.0000 C   0  0  0  0  0  0  0  0  0
    5.0494   -0.2390    0.0000 C   0  0  0  0  0  0  0  0  0
    5.8740   -0.2133    0.0000 C   0  0  0  0  0  0  0  0  0
    6.3086   -0.9145    0.0000 C   0  0  0  0  0  0  0  0  0
    7.1332   -0.8888    0.0000 C   0  0  0  0  0  0  0  0  0
    7.5678   -1.5900    0.0000 C   0  0  0  0  0  0  0  0  0
    8.3690   -1.3934    0.0000 C   0  0  0  0  0  0  0  0  0
    8.4296   -0.5706    0.0000 N   0  0  0  0  0  0  0  0  0
    7.6658   -0.2587    0.0000 C   0  0  0  0  0  0  0  0  0
    7.4692    0.5425    0.0000 O   0  0  0  0  0  0  0  0  0
    7.1778   -2.3170    0.0000 C   0  0  0  0  0  0  0  0  0
    6.3532   -2.3428    0.0000 C   0  0  0  0  0  0  0  0  0
    5.9186   -1.6415    0.0000 C   0  0  0  0  0  0  0  0  0
    5.0940   -1.6673    0.0000 O   0  0  0  0  0  0  0  0  0
    4.6594   -0.9661    0.0000 C   0  0  0  0  0  0  0  0  0
    1.9244    3.9215    0.0000 C   0  0  0  0  0  0  0  0  0
    2.7007    4.2008    0.0000 C   0  0  0  0  0  0  0  0  0
  1  2  1  0  0  0  0
  2  3  4  0  0  0  0
  2 30  4  0  0  0  0
  3  4  4  0  0  0  0
  4  5  4  0  0  0  0
  4  8  4  0  0  0  0
  5  6  4  0  0  0  0
  5 29  4  0  0  0  0
  6  7  4  0  0  0  0
  7  8  4  0  0  0  0
  8  9  1  0  0  0  0
  9 10  1  0  0  0  0
 10 11  1  0  0  0  0
 11 12  1  0  0  0  0
 12 13  1  0  0  0  0
 12 15  1  0  0  0  0
 13 14  1  0  0  0  0
 15 16  1  0  0  0  0
 15 28  1  0  0  0  0
 16 17  1  0  0  0  0
 17 18  4  0  0  0  0
 17 26  4  0  0  0  0
 18 19  4  0  0  0  0
 18 22  1  0  0  0  0
 19 20  1  0  0  0  0
 19 24  4  0  0  0  0
 20 21  1  0  0  0  0
 21 22  1  0  0  0  0
 22 23  2  0  0  0  0
 24 25  4  0  0  0  0
 25 26  4  0  0  0  0
 26 27  1  0  0  0  0
 27 28  1  0  0  0  0
 29 30  4  0  0  0  0
M  STY  1   1 DAT
M  SAL   1  1   6
M  SDT   1 MRV_IMPLICIT_H                                        
M  SDD   1     0.0000    0.0000    DR    ALL  0       0  
M  SED   1 IMPL_H1
M  END
>  <Name_Molregno>
590989

>  <5-HT1A>
8.7

$$$$
591046
  Marvin  02231216192D 0   1.00000     0.00000     0

 32 37  0  0  1  0  0  0  0  0999 V2000
   -3.8173    0.1001    0.0000 F   0  0  0  0  0  0  0  0  0
   -4.5936   -0.1792    0.0000 C   0  0  0  0  0  0  0  0  0
   -4.7399   -0.9912    0.0000 C   0  0  0  0  0  0  0  0  0
   -5.5161   -1.2705    0.0000 C   0  0  0  0  0  0  0  0  0
   -6.1462   -0.7379    0.0000 C   0  0  0  0  0  0  0  0  0
   -6.8474   -1.1725    0.0000 N   0  0  0  0  0  0  0  0  0
   -6.6508   -1.9737    0.0000 C   0  0  0  0  0  0  0  0  0
   -5.8280   -2.0343    0.0000 C   0  0  0  0  0  0  0  0  0
   -5.3934   -2.7355    0.0000 C   0  0  0  0  0  0  0  0  0
   -4.5688   -2.7098    0.0000 C   0  0  0  0  0  0  0  0  0
   -4.1342   -3.4110    0.0000 C   0  0  0  0  0  0  0  0  0
   -3.3096   -3.3852    0.0000 N   0  0  0  0  0  0  0  0  0
   -2.9196   -2.6582    0.0000 C   0  0  0  0  0  0  0  0  0
   -2.0950   -2.6325    0.0000 C   0  0  0  0  0  0  0  0  0
   -1.3938   -2.1979    0.0000 C   0  0  0  0  0  0  0  0  0
   -1.3680   -3.0225    0.0000 C   0  0  0  0  0  0  0  0  0
   -2.8750   -4.0865    0.0000 C   0  0  0  0  0  0  0  0  0
   -2.0504   -4.0607    0.0000 C   0  0  0  0  0  0  0  0  0
   -1.6158   -4.7620    0.0000 C   0  0  0  0  0  0  0  0  0
   -0.7912   -4.7362    0.0000 C   0  0  0  0  0  0  0  0  0
   -0.3566   -5.4374    0.0000 C   0  0  0  0  0  0  0  0  0
    0.4447   -5.2408    0.0000 C   0  0  0  0  0  0  0  0  0
    0.5052   -4.4180    0.0000 N   0  0  0  0  0  0  0  0  0
   -0.2585   -4.1062    0.0000 C   0  0  0  0  0  0  0  0  0
   -0.4552   -3.3049    0.0000 O   0  0  0  0  0  0  0  0  0
   -0.7465   -6.1644    0.0000 C   0  0  0  0  0  0  0  0  0
   -1.5711   -6.1902    0.0000 C   0  0  0  0  0  0  0  0  0
   -2.0058   -5.4890    0.0000 C   0  0  0  0  0  0  0  0  0
   -2.8303   -5.5147    0.0000 O   0  0  0  0  0  0  0  0  0
   -3.2650   -4.8135    0.0000 C   0  0  0  0  0  0  0  0  0
   -5.9999    0.0741    0.0000 C   0  0  0  0  0  0  0  0  0
   -5.2237    0.3534    0.0000 C   0  0  0  0  0  0  0  0  0
  1  2  1  0  0  0  0
  2  3  4  0  0  0  0
  2 32  4  0  0  0  0
  3  4  4  0  0  0  0
  4  5  4  0  0  0  0
  4  8  4  0  0  0  0
  5  6  4  0  0  0  0
  5 31  4  0  0  0  0
  6  7  4  0  0  0  0
  7  8  4  0  0  0  0
  8  9  1  0  0  0  0
  9 10  1  0  0  0  0
 10 11  1  0  0  0  0
 11 12  1  0  0  0  0
 12 13  1  0  0  0  0
 12 17  1  0  0  0  0
 13 14  1  0  0  0  0
 14 15  1  0  0  0  0
 14 16  1  0  0  0  0
 15 16  1  0  0  0  0
 17 18  1  0  0  0  0
 17 30  1  0  0  0  0
 18 19  1  0  0  0  0
 19 20  4  0  0  0  0
 19 28  4  0  0  0  0
 20 21  4  0  0  0  0
 20 24  1  0  0  0  0
 21 22  1  0  0  0  0
 21 26  4  0  0  0  0
 22 23  1  0  0  0  0
 23 24  1  0  0  0  0
 24 25  2  0  0  0  0
 26 27  4  0  0  0  0
 27 28  4  0  0  0  0
 28 29  1  0  0  0  0
 29 30  1  0  0  0  0
 31 32  4  0  0  0  0
M  STY  1   1 DAT
M  SAL   1  1   6
M  SDT   1 MRV_IMPLICIT_H                                        
M  SDD   1     0.0000    0.0000    DR    ALL  0       0  
M  SED   1 IMPL_H1
M  END
>  <Name_Molregno>
591046

>  <5-HT1A>
8.28

$$$$
591047
  Marvin  02231216192D 0   1.00000     0.00000     0

 32 37  0  0  1  0  0  0  0  0999 V2000
   -3.6255    0.0709    0.0000 F   0  0  0  0  0  0  0  0  0
   -4.4018   -0.2084    0.0000 C   0  0  0  0  0  0  0  0  0
   -4.5481   -1.0203    0.0000 C   0  0  0  0  0  0  0  0  0
   -5.3243   -1.2996    0.0000 C   0  0  0  0  0  0  0  0  0
   -5.9544   -0.7670    0.0000 C   0  0  0  0  0  0  0  0  0
   -6.6556   -1.2016    0.0000 N   0  0  0  0  0  0  0  0  0
   -6.4590   -2.0029    0.0000 C   0  0  0  0  0  0  0  0  0
   -5.6362   -2.0634    0.0000 C   0  0  0  0  0  0  0  0  0
   -5.2016   -2.7647    0.0000 C   0  0  0  0  0  0  0  0  0
   -4.3770   -2.7389    0.0000 C   0  0  0  0  0  0  0  0  0
   -3.9424   -3.4401    0.0000 C   0  0  0  0  0  0  0  0  0
   -3.1178   -3.4144    0.0000 N   0  0  0  0  0  0  0  0  0
   -2.7278   -2.6874    0.0000 C   0  0  0  0  0  0  0  0  0
   -2.9661   -1.8975    0.0000 C   0  0  0  0  0  0  0  0  0
   -2.1763   -1.6592    0.0000 C   0  0  0  0  0  0  0  0  0
   -1.9380   -2.4491    0.0000 C   0  0  0  0  0  0  0  0  0
   -2.6832   -4.1156    0.0000 C   0  0  0  0  0  0  0  0  0
   -1.8586   -4.0899    0.0000 C   0  0  0  0  0  0  0  0  0
   -1.4240   -4.7911    0.0000 C   0  0  0  0  0  0  0  0  0
   -0.5994   -4.7653    0.0000 C   0  0  0  0  0  0  0  0  0
   -0.1648   -5.4666    0.0000 C   0  0  0  0  0  0  0  0  0
    0.6365   -5.2699    0.0000 C   0  0  0  0  0  0  0  0  0
    0.6970   -4.4472    0.0000 N   0  0  0  0  0  0  0  0  0
   -0.0668   -4.1353    0.0000 C   0  0  0  0  0  0  0  0  0
   -0.2634   -3.3341    0.0000 O   0  0  0  0  0  0  0  0  0
   -0.5547   -6.1936    0.0000 C   0  0  0  0  0  0  0  0  0
   -1.3793   -6.2193    0.0000 C   0  0  0  0  0  0  0  0  0
   -1.8140   -5.5181    0.0000 C   0  0  0  0  0  0  0  0  0
   -2.6386   -5.5439    0.0000 O   0  0  0  0  0  0  0  0  0
   -3.0732   -4.8426    0.0000 C   0  0  0  0  0  0  0  0  0
   -5.8081    0.0449    0.0000 C   0  0  0  0  0  0  0  0  0
   -5.0319    0.3242    0.0000 C   0  0  0  0  0  0  0  0  0
  1  2  1  0  0  0  0
  2  3  4  0  0  0  0
  2 32  4  0  0  0  0
  3  4  4  0  0  0  0
  4  5  4  0  0  0  0
  4  8  4  0  0  0  0
  5  6  4  0  0  0  0
  5 31  4  0  0  0  0
  6  7  4  0  0  0  0
  7  8  4  0  0  0  0
  8  9  1  0  0  0  0
  9 10  1  0  0  0  0
 10 11  1  0  0  0  0
 11 12  1  0  0  0  0
 12 13  1  0  0  0  0
 12 17  1  0  0  0  0
 13 14  1  0  0  0  0
 13 16  1  0  0  0  0
 14 15  1  0  0  0  0
 15 16  1  0  0  0  0
 17 18  1  0  0  0  0
 17 30  1  0  0  0  0
 18 19  1  0  0  0  0
 19 20  4  0  0  0  0
 19 28  4  0  0  0  0
 20 21  4  0  0  0  0
 20 24  1  0  0  0  0
 21 22  1  0  0  0  0
 21 26  4  0  0  0  0
 22 23  1  0  0  0  0
 23 24  1  0  0  0  0
 24 25  2  0  0  0  0
 26 27  4  0  0  0  0
 27 28  4  0  0  0  0
 28 29  1  0  0  0  0
 29 30  1  0  0  0  0
 31 32  4  0  0  0  0
M  STY  1   1 DAT
M  SAL   1  1   6
M  SDT   1 MRV_IMPLICIT_H                                        
M  SDD   1     0.0000    0.0000    DR    ALL  0       0  
M  SED   1 IMPL_H1
M  END
>  <Name_Molregno>
591047

>  <5-HT1A>
7

$$$$
591127
  Marvin  02231216192D 0   1.00000     0.00000     0

 36 41  0  0  1  0  0  0  0  0999 V2000
   -5.6954    3.1209    0.0000 F   0  0  0  0  0  0  0  0  0
   -6.4716    2.8415    0.0000 C   0  0  0  0  0  0  0  0  0
   -6.6179    2.0296    0.0000 C   0  0  0  0  0  0  0  0  0
   -7.3941    1.7503    0.0000 C   0  0  0  0  0  0  0  0  0
   -8.0242    2.2829    0.0000 C   0  0  0  0  0  0  0  0  0
   -8.7254    1.8483    0.0000 N   0  0  0  0  0  0  0  0  0
   -8.5288    1.0471    0.0000 C   0  0  0  0  0  0  0  0  0
   -7.7060    0.9865    0.0000 C   0  0  0  0  0  0  0  0  0
   -7.2714    0.2853    0.0000 C   0  0  0  0  0  0  0  0  0
   -6.4468    0.3110    0.0000 C   0  0  0  0  0  0  0  0  0
   -6.0122   -0.3902    0.0000 C   0  0  0  0  0  0  0  0  0
   -5.1876   -0.3645    0.0000 N   0  0  0  0  0  0  0  0  0
   -4.7976    0.3625    0.0000 C   0  0  0  0  0  0  0  0  0
   -5.2322    1.0638    0.0000 O   0  0  0  0  0  0  0  0  0
   -3.9730    0.3883    0.0000 C   0  0  0  0  0  0  0  0  0
   -3.5830    1.1153    0.0000 C   0  0  0  0  0  0  0  0  0
   -2.7584    1.1411    0.0000 C   0  0  0  0  0  0  0  0  0
   -2.3238    0.4398    0.0000 C   0  0  0  0  0  0  0  0  0
   -2.7138   -0.2872    0.0000 C   0  0  0  0  0  0  0  0  0
   -3.5384   -0.3129    0.0000 C   0  0  0  0  0  0  0  0  0
   -4.7530   -1.0657    0.0000 C   0  0  0  0  0  0  0  0  0
   -3.9284   -1.0399    0.0000 C   0  0  0  0  0  0  0  0  0
   -3.4938   -1.7412    0.0000 C   0  0  0  0  0  0  0  0  0
   -2.6692   -1.7154    0.0000 C   0  0  0  0  0  0  0  0  0
   -2.2346   -2.4167    0.0000 C   0  0  0  0  0  0  0  0  0
   -1.4333   -2.2200    0.0000 C   0  0  0  0  0  0  0  0  0
   -1.3728   -1.3972    0.0000 N   0  0  0  0  0  0  0  0  0
   -2.1366   -1.0854    0.0000 C   0  0  0  0  0  0  0  0  0
   -2.3332   -0.2842    0.0000 O   0  0  0  0  0  0  0  0  0
   -2.6246   -3.1437    0.0000 C   0  0  0  0  0  0  0  0  0
   -3.4492   -3.1694    0.0000 C   0  0  0  0  0  0  0  0  0
   -3.8838   -2.4682    0.0000 C   0  0  0  0  0  0  0  0  0
   -4.7084   -2.4939    0.0000 O   0  0  0  0  0  0  0  0  0
   -5.1430   -1.7927    0.0000 C   0  0  0  0  0  0  0  0  0
   -7.8779    3.0948    0.0000 C   0  0  0  0  0  0  0  0  0
   -7.1017    3.3742    0.0000 C   0  0  0  0  0  0  0  0  0
  1  2  1  0  0  0  0
  2  3  4  0  0  0  0
  2 36  4  0  0  0  0
  3  4  4  0  0  0  0
  4  5  4  0  0  0  0
  4  8  4  0  0  0  0
  5  6  4  0  0  0  0
  5 35  4  0  0  0  0
  6  7  4  0  0  0  0
  7  8  4  0  0  0  0
  8  9  1  0  0  0  0
  9 10  1  0  0  0  0
 10 11  1  0  0  0  0
 11 12  1  0  0  0  0
 12 13  1  0  0  0  0
 12 21  1  0  0  0  0
 13 14  2  0  0  0  0
 13 15  1  0  0  0  0
 15 16  4  0  0  0  0
 15 20  4  0  0  0  0
 16 17  4  0  0  0  0
 17 18  4  0  0  0  0
 18 19  4  0  0  0  0
 19 20  4  0  0  0  0
 21 22  1  0  0  0  0
 21 34  1  0  0  0  0
 22 23  1  0  0  0  0
 23 24  4  0  0  0  0
 23 32  4  0  0  0  0
 24 25  4  0  0  0  0
 24 28  1  0  0  0  0
 25 26  1  0  0  0  0
 25 30  4  0  0  0  0
 26 27  1  0  0  0  0
 27 28  1  0  0  0  0
 28 29  2  0  0  0  0
 30 31  4  0  0  0  0
 31 32  4  0  0  0  0
 32 33  1  0  0  0  0
 33 34  1  0  0  0  0
 35 36  4  0  0  0  0
M  STY  1   1 DAT
M  SAL   1  1   6
M  SDT   1 MRV_IMPLICIT_H                                        
M  SDD   1     0.0000    0.0000    DR    ALL  0       0  
M  SED   1 IMPL_H1
M  END
>  <Name_Molregno>
591127

>  <5-HT1A>
7.07

$$$$
591128
  Marvin  02231216192D 0   1.00000     0.00000     0

 29 33  0  0  1  0  0  0  0  0999 V2000
    0.0917   -4.0171    0.0000 O   0  0  0  0  0  0  0  0  0
   -0.3429   -3.3159    0.0000 C   0  0  0  0  0  0  0  0  0
    0.0470   -2.5889    0.0000 C   0  0  0  0  0  0  0  0  0
   -0.3876   -1.8876    0.0000 N   0  0  0  0  0  0  0  0  0
   -1.2122   -1.9134    0.0000 C   0  0  0  0  0  0  0  0  0
   -1.6468   -1.2121    0.0000 C   0  0  0  0  0  0  0  0  0
   -2.4714   -1.2379    0.0000 C   0  0  0  0  0  0  0  0  0
   -2.9060   -0.5367    0.0000 C   0  0  0  0  0  0  0  0  0
   -3.7288   -0.4761    0.0000 C   0  0  0  0  0  0  0  0  0
   -4.3243   -1.0470    0.0000 C   0  0  0  0  0  0  0  0  0
   -5.1165   -0.8167    0.0000 C   0  0  0  0  0  0  0  0  0
   -5.3132   -0.0155    0.0000 C   0  0  0  0  0  0  0  0  0
   -4.7176    0.5554    0.0000 C   0  0  0  0  0  0  0  0  0
   -3.9254    0.3251    0.0000 C   0  0  0  0  0  0  0  0  0
   -3.2242    0.7597    0.0000 N   0  0  0  0  0  0  0  0  0
   -2.5941    0.2271    0.0000 C   0  0  0  0  0  0  0  0  0
   -5.7121   -1.3876    0.0000 C   0  0  0  0  0  0  0  0  0
   -6.3076   -1.9585    0.0000 N   0  0  0  0  0  0  0  0  0
    0.8716   -2.5631    0.0000 C   0  0  0  0  0  0  0  0  0
    1.3063   -3.2643    0.0000 C   0  0  0  0  0  0  0  0  0
    2.1309   -3.2386    0.0000 C   0  0  0  0  0  0  0  0  0
    2.5655   -3.9398    0.0000 C   0  0  0  0  0  0  0  0  0
    3.3667   -3.7432    0.0000 C   0  0  0  0  0  0  0  0  0
    3.4273   -2.9204    0.0000 N   0  0  0  0  0  0  0  0  0
    2.6635   -2.6085    0.0000 C   0  0  0  0  0  0  0  0  0
    2.4668   -1.8073    0.0000 O   0  0  0  0  0  0  0  0  0
    2.1755   -4.6668    0.0000 C   0  0  0  0  0  0  0  0  0
    1.3509   -4.6926    0.0000 C   0  0  0  0  0  0  0  0  0
    0.9163   -3.9913    0.0000 C   0  0  0  0  0  0  0  0  0
  1  2  1  0  0  0  0
  1 29  1  0  0  0  0
  2  3  1  0  0  0  0
  3  4  1  0  0  0  0
  3 19  1  0  0  0  0
  4  5  1  0  0  0  0
  5  6  1  0  0  0  0
  6  7  1  0  0  0  0
  7  8  1  0  0  0  0
  8  9  4  0  0  0  0
  8 16  4  0  0  0  0
  9 10  4  0  0  0  0
  9 14  4  0  0  0  0
 10 11  4  0  0  0  0
 11 12  4  0  0  0  0
 11 17  1  0  0  0  0
 12 13  4  0  0  0  0
 13 14  4  0  0  0  0
 14 15  4  0  0  0  0
 15 16  4  0  0  0  0
 17 18  3  0  0  0  0
 19 20  1  0  0  0  0
 20 21  4  0  0  0  0
 20 29  4  0  0  0  0
 21 22  4  0  0  0  0
 21 25  1  0  0  0  0
 22 23  1  0  0  0  0
 22 27  4  0  0  0  0
 23 24  1  0  0  0  0
 24 25  1  0  0  0  0
 25 26  2  0  0  0  0
 27 28  4  0  0  0  0
 28 29  4  0  0  0  0
M  STY  1   1 DAT
M  SAL   1  1  15
M  SDT   1 MRV_IMPLICIT_H                                        
M  SDD   1     0.0000    0.0000    DR    ALL  0       0  
M  SED   1 IMPL_H1
M  END
>  <Name_Molregno>
591128

>  <5-HT1A>
7.44

$$$$
591197
  Marvin  02231216192D 0   1.00000     0.00000     0

 34 39  0  0  1  0  0  0  0  0999 V2000
   -0.0925   -2.4656    0.0000 O   0  0  0  0  0  0  0  0  0
   -0.5271   -1.7644    0.0000 C   0  0  0  0  0  0  0  0  0
   -0.1371   -1.0374    0.0000 C   0  0  0  0  0  0  0  0  0
   -0.5717   -0.3361    0.0000 N   0  0  0  0  0  0  0  0  0
   -0.1817    0.3909    0.0000 C   0  0  0  0  0  0  0  0  0
    0.6429    0.4166    0.0000 C   0  0  0  0  0  0  0  0  0
    1.3441    0.8512    0.0000 C   0  0  0  0  0  0  0  0  0
    1.3699    0.0267    0.0000 C   0  0  0  0  0  0  0  0  0
   -1.3963   -0.3619    0.0000 C   0  0  0  0  0  0  0  0  0
   -1.8309    0.3393    0.0000 C   0  0  0  0  0  0  0  0  0
   -2.6555    0.3136    0.0000 C   0  0  0  0  0  0  0  0  0
   -3.0901    1.0148    0.0000 C   0  0  0  0  0  0  0  0  0
   -3.9147    0.9891    0.0000 C   0  0  0  0  0  0  0  0  0
   -4.3786    0.3068    0.0000 C   0  0  0  0  0  0  0  0  0
   -4.1819   -0.4944    0.0000 C   0  0  0  0  0  0  0  0  0
   -4.7775   -1.0653    0.0000 C   0  0  0  0  0  0  0  0  0
   -5.5697   -0.8350    0.0000 C   0  0  0  0  0  0  0  0  0
   -5.7663   -0.0338    0.0000 C   0  0  0  0  0  0  0  0  0
   -5.1708    0.5371    0.0000 C   0  0  0  0  0  0  0  0  0
   -5.1965    1.3617    0.0000 N   0  0  0  0  0  0  0  0  0
   -4.4202    1.6410    0.0000 C   0  0  0  0  0  0  0  0  0
   -4.5808   -1.8665    0.0000 C   0  0  0  0  0  0  0  0  0
   -4.3842   -2.6678    0.0000 N   0  0  0  0  0  0  0  0  0
    0.6875   -1.0116    0.0000 C   0  0  0  0  0  0  0  0  0
    1.1221   -1.7128    0.0000 C   0  0  0  0  0  0  0  0  0
    1.9467   -1.6871    0.0000 C   0  0  0  0  0  0  0  0  0
    2.3813   -2.3883    0.0000 C   0  0  0  0  0  0  0  0  0
    3.1825   -2.1917    0.0000 C   0  0  0  0  0  0  0  0  0
    3.2431   -1.3689    0.0000 N   0  0  0  0  0  0  0  0  0
    2.4793   -1.0571    0.0000 C   0  0  0  0  0  0  0  0  0
    2.2827   -0.2558    0.0000 O   0  0  0  0  0  0  0  0  0
    1.9913   -3.1153    0.0000 C   0  0  0  0  0  0  0  0  0
    1.1667   -3.1411    0.0000 C   0  0  0  0  0  0  0  0  0
    0.7321   -2.4399    0.0000 C   0  0  0  0  0  0  0  0  0
  1  2  1  0  0  0  0
  1 34  1  0  0  0  0
  2  3  1  0  0  0  0
  3  4  1  0  0  0  0
  3 24  1  0  0  0  0
  4  5  1  0  0  0  0
  4  9  1  0  0  0  0
  5  6  1  0  0  0  0
  6  7  1  0  0  0  0
  6  8  1  0  0  0  0
  7  8  1  0  0  0  0
  9 10  1  0  0  0  0
 10 11  1  0  0  0  0
 11 12  1  0  0  0  0
 12 13  1  0  0  0  0
 13 14  4  0  0  0  0
 13 21  4  0  0  0  0
 14 15  4  0  0  0  0
 14 19  4  0  0  0  0
 15 16  4  0  0  0  0
 16 17  4  0  0  0  0
 16 22  1  0  0  0  0
 17 18  4  0  0  0  0
 18 19  4  0  0  0  0
 19 20  4  0  0  0  0
 20 21  4  0  0  0  0
 22 23  3  0  0  0  0
 24 25  1  0  0  0  0
 25 26  4  0  0  0  0
 25 34  4  0  0  0  0
 26 27  4  0  0  0  0
 26 30  1  0  0  0  0
 27 28  1  0  0  0  0
 27 32  4  0  0  0  0
 28 29  1  0  0  0  0
 29 30  1  0  0  0  0
 30 31  2  0  0  0  0
 32 33  4  0  0  0  0
 33 34  4  0  0  0  0
M  STY  1   1 DAT
M  SAL   1  1  20
M  SDT   1 MRV_IMPLICIT_H                                        
M  SDD   1     0.0000    0.0000    DR    ALL  0       0  
M  SED   1 IMPL_H1
M  END
>  <Name_Molregno>
591197

>  <5-HT1A>
7.97

$$$$
591198
  Marvin  02231216192D 0   1.00000     0.00000     0

 29 33  0  0  1  0  0  0  0  0999 V2000
    1.6153    4.9031    0.0000 F   0  0  0  0  0  0  0  0  0
    1.4690    4.0912    0.0000 C   0  0  0  0  0  0  0  0  0
    2.0991    3.5585    0.0000 C   0  0  0  0  0  0  0  0  0
    1.9528    2.7466    0.0000 C   0  0  0  0  0  0  0  0  0
    1.1766    2.4673    0.0000 C   0  0  0  0  0  0  0  0  0
    1.2023    1.6427    0.0000 N   0  0  0  0  0  0  0  0  0
    1.9945    1.4124    0.0000 C   0  0  0  0  0  0  0  0  0
    2.4584    2.0946    0.0000 C   0  0  0  0  0  0  0  0  0
    3.2830    2.1204    0.0000 C   0  0  0  0  0  0  0  0  0
    3.7176    1.4192    0.0000 C   0  0  0  0  0  0  0  0  0
    4.5422    1.4449    0.0000 C   0  0  0  0  0  0  0  0  0
    4.9768    0.7437    0.0000 C   0  0  0  0  0  0  0  0  0
    5.8014    0.7694    0.0000 N   0  0  0  0  0  0  0  0  0
    6.2360    0.0682    0.0000 C   0  0  0  0  0  0  0  0  0
    7.0606    0.0940    0.0000 C   0  0  0  0  0  0  0  0  0
    7.4952   -0.6073    0.0000 C   0  0  0  0  0  0  0  0  0
    8.3198   -0.5815    0.0000 C   0  0  0  0  0  0  0  0  0
    8.7544   -1.2828    0.0000 C   0  0  0  0  0  0  0  0  0
    9.5556   -1.0861    0.0000 C   0  0  0  0  0  0  0  0  0
    9.6162   -0.2633    0.0000 N   0  0  0  0  0  0  0  0  0
    8.8524    0.0485    0.0000 C   0  0  0  0  0  0  0  0  0
    8.6558    0.8497    0.0000 O   0  0  0  0  0  0  0  0  0
    8.3644   -2.0098    0.0000 C   0  0  0  0  0  0  0  0  0
    7.5398   -2.0355    0.0000 C   0  0  0  0  0  0  0  0  0
    7.1052   -1.3343    0.0000 C   0  0  0  0  0  0  0  0  0
    6.2806   -1.3600    0.0000 O   0  0  0  0  0  0  0  0  0
    5.8460   -0.6588    0.0000 C   0  0  0  0  0  0  0  0  0
    0.5465    2.9999    0.0000 C   0  0  0  0  0  0  0  0  0
    0.6928    3.8118    0.0000 C   0  0  0  0  0  0  0  0  0
  1  2  1  0  0  0  0
  2  3  4  0  0  0  0
  2 29  4  0  0  0  0
  3  4  4  0  0  0  0
  4  5  4  0  0  0  0
  4  8  4  0  0  0  0
  5  6  4  0  0  0  0
  5 28  4  0  0  0  0
  6  7  4  0  0  0  0
  7  8  4  0  0  0  0
  8  9  1  0  0  0  0
  9 10  1  0  0  0  0
 10 11  1  0  0  0  0
 11 12  1  0  0  0  0
 12 13  1  0  0  0  0
 13 14  1  0  0  0  0
 14 15  1  0  0  0  0
 14 27  1  0  0  0  0
 15 16  1  0  0  0  0
 16 17  4  0  0  0  0
 16 25  4  0  0  0  0
 17 18  4  0  0  0  0
 17 21  1  0  0  0  0
 18 19  1  0  0  0  0
 18 23  4  0  0  0  0
 19 20  1  0  0  0  0
 20 21  1  0  0  0  0
 21 22  2  0  0  0  0
 23 24  4  0  0  0  0
 24 25  4  0  0  0  0
 25 26  1  0  0  0  0
 26 27  1  0  0  0  0
 28 29  4  0  0  0  0
M  STY  1   1 DAT
M  SAL   1  1   6
M  SDT   1 MRV_IMPLICIT_H                                        
M  SDD   1     0.0000    0.0000    DR    ALL  0       0  
M  SED   1 IMPL_H1
M  END
>  <Name_Molregno>
591198

>  <5-HT1A>
7.66

$$$$
593611
  Marvin  02231216192D 0   1.00000     0.00000     0

 23 25  0  0  1  0  0  0  0  0999 V2000
    2.4953   -1.7278    0.0000 O   0  0  0  0  0  0  0  0  0
    2.4953   -2.5528    0.0000 C   0  0  0  0  0  0  0  0  0
    1.7808   -2.9653    0.0000 C   0  0  0  0  0  0  0  0  0
    1.0664   -2.5528    0.0000 N   0  0  0  0  0  0  0  0  0
    1.0664   -1.7278    0.0000 C   0  0  0  0  0  0  0  0  0
    1.7808   -1.3153    0.0000 C   0  0  0  0  0  0  0  0  0
    1.7808   -0.4903    0.0000 C   0  0  0  0  0  0  0  0  0
    2.4953   -0.0778    0.0000 O   0  0  0  0  0  0  0  0  0
    2.4953    0.7472    0.0000 C   0  0  0  0  0  0  0  0  0
    1.7808    1.1597    0.0000 C   0  0  0  0  0  0  0  0  0
    1.7808    1.9847    0.0000 C   0  0  0  0  0  0  0  0  0
    2.4953    2.3972    0.0000 C   0  0  0  0  0  0  0  0  0
    3.2098    1.9847    0.0000 C   0  0  0  0  0  0  0  0  0
    3.2098    1.1597    0.0000 C   0  0  0  0  0  0  0  0  0
    3.9242    0.7472    0.0000 O   0  0  0  0  0  0  0  0  0
    3.9242   -0.0778    0.0000 C   0  0  0  0  0  0  0  0  0
    4.6387   -0.4903    0.0000 C   0  0  0  0  0  0  0  0  0
    1.0664   -0.0778    0.0000 C   0  0  0  0  0  0  0  0  0
    0.3519   -0.4903    0.0000 C   0  0  0  0  0  0  0  0  0
   -0.3626   -0.0778    0.0000 C   0  0  0  0  0  0  0  0  0
   -0.3626    0.7472    0.0000 C   0  0  0  0  0  0  0  0  0
    0.3519    1.1597    0.0000 C   0  0  0  0  0  0  0  0  0
    1.0664    0.7472    0.0000 C   0  0  0  0  0  0  0  0  0
  1  2  1  0  0  0  0
  1  6  1  0  0  0  0
  2  3  1  0  0  0  0
  3  4  1  0  0  0  0
  4  5  1  0  0  0  0
  5  6  1  0  0  0  0
  6  7  1  0  0  0  0
  7  8  1  0  0  0  0
  7 18  1  0  0  0  0
  8  9  1  0  0  0  0
  9 10  4  0  0  0  0
  9 14  4  0  0  0  0
 10 11  4  0  0  0  0
 11 12  4  0  0  0  0
 12 13  4  0  0  0  0
 13 14  4  0  0  0  0
 14 15  1  0  0  0  0
 15 16  1  0  0  0  0
 16 17  1  0  0  0  0
 18 19  4  0  0  0  0
 18 23  4  0  0  0  0
 19 20  4  0  0  0  0
 20 21  4  0  0  0  0
 21 22  4  0  0  0  0
 22 23  4  0  0  0  0
M  END
>  <Name_Molregno>
593611

>  <5-HT1A>
5

>  <5-HT1B>
5

>  <5-HT1D>
5

>  <5-HT2A>
5

>  <5-HT2C>
6.34

>  <Alpha-1A>
5

>  <Alpha-2A>
5

>  <DOPAMINE D2>
5

>  <DOPAMINE D3>
5

>  <Dopamine transporter>
5.12

>  <Norepinephrine transporter>
8.27

>  <Serotonin transporter>
6.28

$$$$
594448
  Marvin  02231216192D 0   1.00000     0.00000     0

 24 27  0  0  1  0  0  0  0  0999 V2000
   -0.1249   -0.5370    0.0000 O   0  0  0  0  0  0  0  0  0
    0.6852   -0.6929    0.0000 C   0  0  0  0  0  0  0  0  0
   -0.3950    0.2426    0.0000 C   0  0  0  0  0  0  0  0  0
   -1.2051    0.3985    0.0000 C   0  0  0  0  0  0  0  0  0
   -1.4751    1.1780    0.0000 C   0  0  0  0  0  0  0  0  0
   -2.2853    1.3340    0.0000 C   0  0  0  0  0  0  0  0  0
   -2.8254    0.7103    0.0000 C   0  0  0  0  0  0  0  0  0
   -2.5553   -0.0692    0.0000 N   0  0  0  0  0  0  0  0  0
   -1.7452   -0.2251    0.0000 C   0  0  0  0  0  0  0  0  0
   -3.0954   -0.6929    0.0000 C   0  0  0  0  0  0  0  0  0
   -3.9055   -0.5370    0.0000 C   0  0  0  0  0  0  0  0  0
   -4.1756    0.2426    0.0000 C   0  0  0  0  0  0  0  0  0
   -4.9857    0.3985    0.0000 C   0  0  0  0  0  0  0  0  0
   -5.2558    1.1780    0.0000 C   0  0  0  0  0  0  0  0  0
   -6.0659    1.3340    0.0000 O   0  0  0  0  0  0  0  0  0
   -6.6060    0.7103    0.0000 C   0  0  0  0  0  0  0  0  0
   -4.7157    1.8017    0.0000 C   0  0  0  0  0  0  0  0  0
   -4.9857    2.5812    0.0000 O   0  0  0  0  0  0  0  0  0
   -3.9055    1.6458    0.0000 C   0  0  0  0  0  0  0  0  0
   -3.6355    0.8662    0.0000 C   0  0  0  0  0  0  0  0  0
   -0.9351    1.8017    0.0000 C   0  0  0  0  0  0  0  0  0
   -0.1249    1.6458    0.0000 C   0  0  0  0  0  0  0  0  0
    0.1451    0.8662    0.0000 C   0  0  0  0  0  0  0  0  0
    0.9553    0.7103    0.0000 O   0  0  0  0  0  0  0  0  0
  1  2  1  0  0  0  0
  1  3  1  0  0  0  0
  3  4  4  0  0  0  0
  3 23  4  0  0  0  0
  4  5  4  0  0  0  0
  4  9  1  0  0  0  0
  5  6  1  0  0  0  0
  5 21  4  0  0  0  0
  6  7  1  0  0  0  0
  7  8  1  0  0  0  0
  7 20  1  0  0  0  0
  8  9  1  0  0  0  0
  8 10  1  0  0  0  0
 10 11  1  0  0  0  0
 11 12  1  0  0  0  0
 12 13  4  0  0  0  0
 12 20  4  0  0  0  0
 13 14  4  0  0  0  0
 14 15  1  0  0  0  0
 14 17  4  0  0  0  0
 15 16  1  0  0  0  0
 17 18  1  0  0  0  0
 17 19  4  0  0  0  0
 19 20  4  0  0  0  0
 21 22  4  0  0  0  0
 22 23  4  0  0  0  0
 23 24  1  0  0  0  0
M  END
>  <Name_Molregno>
594448

>  <5-HT1A>
6.84

>  <5-HT1B>
5.16

>  <5-HT1D>
5

>  <5-HT1E>
5

>  <5-HT2A>
5

>  <5-HT3>
5

>  <5-HT5>
5

>  <5-HT6>
5

>  <5-HT7>
5

>  <Alpha-1A>
5

>  <Alpha-1B>
5

>  <Alpha-2A>
5

>  <Alpha-2B>
5.16

>  <Alpha-2C>
6.67

>  <Beta-1>
5

>  <Beta-2>
5

>  <DOPAMINE D1>
8.23

>  <DOPAMINE D2>
6.01

>  <DOPAMINE D4>
5.43

>  <DOPAMINE D5>
8.36

>  <Dopamine transporter>
5

>  <HISTAMINE H1>
5

>  <HISTAMINE H2>
5

>  <HISTAMINE H4>
5

>  <Muscarinic acetylcholine receptor M2>
5

>  <Muscarinic acetylcholine receptor M5>
5

>  <Norepinephrine transporter>
5

>  <Serotonin transporter>
5

$$$$
594617
  Marvin  02231216192D 0   1.00000     0.00000     0

 26 29  0  0  1  0  0  0  0  0999 V2000
   -0.4854   -0.6621    0.0000 I   0  0  0  0  0  0  0  0  0
    0.2291   -1.0746    0.0000 C   0  0  0  0  0  0  0  0  0
    0.9436   -0.6621    0.0000 C   0  0  0  0  0  0  0  0  0
    1.6580   -1.0746    0.0000 C   0  0  0  0  0  0  0  0  0
    1.6580   -1.8996    0.0000 C   0  0  0  0  0  0  0  0  0
    0.9436   -2.3121    0.0000 C   0  0  0  0  0  0  0  0  0
    0.2291   -1.8996    0.0000 C   0  0  0  0  0  0  0  0  0
   -0.4854   -2.3121    0.0000 S   0  0  0  0  0  0  0  0  0
   -0.8979   -1.5976    0.0000 O   0  0  0  0  0  0  0  0  0
   -0.0729   -3.0266    0.0000 O   0  0  0  0  0  0  0  0  0
   -1.1998   -2.7246    0.0000 N   0  0  0  0  0  0  0  0  0
   -1.9143   -2.3121    0.0000 C   0  0  0  0  0  0  0  0  0
   -2.6288   -2.7246    0.0000 C   0  0  0  0  0  0  0  0  0
   -3.3433   -2.3121    0.0000 C   0  0  0  0  0  0  0  0  0
   -3.3433   -1.4871    0.0000 C   0  0  0  0  0  0  0  0  0
   -4.1279   -1.2321    0.0000 N   0  0  0  0  0  0  0  0  0
   -4.6128   -1.8996    0.0000 C   0  0  0  0  0  0  0  0  0
   -4.1279   -2.5670    0.0000 C   0  0  0  0  0  0  0  0  0
   -4.3828   -3.3516    0.0000 C   0  0  0  0  0  0  0  0  0
   -5.1898   -3.5232    0.0000 C   0  0  0  0  0  0  0  0  0
   -5.5254   -4.2768    0.0000 N   0  0  0  0  0  0  0  0  0
   -6.3458   -4.1906    0.0000 C   0  0  0  0  0  0  0  0  0
   -6.5174   -3.3836    0.0000 C   0  0  0  0  0  0  0  0  0
   -5.8029   -2.9711    0.0000 C   0  0  0  0  0  0  0  0  0
   -2.6288   -1.0746    0.0000 C   0  0  0  0  0  0  0  0  0
   -1.9143   -1.4871    0.0000 C   0  0  0  0  0  0  0  0  0
  1  2  1  0  0  0  0
  2  3  4  0  0  0  0
  2  7  4  0  0  0  0
  3  4  4  0  0  0  0
  4  5  4  0  0  0  0
  5  6  4  0  0  0  0
  6  7  4  0  0  0  0
  7  8  1  0  0  0  0
  8  9  2  0  0  0  0
  8 10  2  0  0  0  0
  8 11  1  0  0  0  0
 11 12  1  0  0  0  0
 12 13  4  0  0  0  0
 12 26  4  0  0  0  0
 13 14  4  0  0  0  0
 14 15  4  0  0  0  0
 14 18  4  0  0  0  0
 15 16  4  0  0  0  0
 15 25  4  0  0  0  0
 16 17  4  0  0  0  0
 17 18  4  0  0  0  0
 18 19  1  0  0  0  0
 19 20  1  0  0  0  0
 20 21  1  0  0  0  0
 20 24  1  0  0  0  0
 21 22  1  0  0  0  0
 22 23  1  0  0  0  0
 23 24  1  0  0  0  0
 25 26  4  0  0  0  0
M  STY  1   1 DAT
M  SAL   1  1  16
M  SDT   1 MRV_IMPLICIT_H                                        
M  SDD   1     0.0000    0.0000    DR    ALL  0       0  
M  SED   1 IMPL_H1
M  END
>  <Name_Molregno>
594617

>  <5-HT1A>
6.63

>  <5-HT1B>
8.03

>  <5-HT1D>
7.19

>  <5-HT2C>
6.63

>  <5-HT6>
9

>  <5-HT7>
6.48

>  <DOPAMINE D2>
5.7

>  <DOPAMINE D3>
5.3

>  <DOPAMINE D4>
5.3

$$$$
595162
  Marvin  02231216192D 0   1.00000     0.00000     0

 33 37  0  0  1  0  0  0  0  0999 V2000
   -0.2739   -1.0360    0.0000 F   0  0  0  0  0  0  0  0  0
    0.3392   -1.5880    0.0000 C   0  0  0  0  0  0  0  0  0
    1.1238   -1.3331    0.0000 C   0  0  0  0  0  0  0  0  0
    1.7369   -1.8851    0.0000 C   0  0  0  0  0  0  0  0  0
    1.5654   -2.6921    0.0000 C   0  0  0  0  0  0  0  0  0
    2.2799   -3.1046    0.0000 N   0  0  0  0  0  0  0  0  0
    2.8930   -2.5525    0.0000 C   0  0  0  0  0  0  0  0  0
    2.5574   -1.7989    0.0000 C   0  0  0  0  0  0  0  0  0
    2.9699   -1.0844    0.0000 C   0  0  0  0  0  0  0  0  0
    3.7949   -1.0844    0.0000 C   0  0  0  0  0  0  0  0  0
    4.2074   -0.3699    0.0000 C   0  0  0  0  0  0  0  0  0
    5.0324   -0.3699    0.0000 N   0  0  0  0  0  0  0  0  0
    5.4449   -1.0844    0.0000 C   0  0  0  0  0  0  0  0  0
    6.2699   -1.0844    0.0000 C   0  0  0  0  0  0  0  0  0
    6.6824   -0.3699    0.0000 C   0  0  0  0  0  0  0  0  0
    6.6824   -1.7989    0.0000 C   0  0  0  0  0  0  0  0  0
    5.4449    0.3445    0.0000 C   0  0  0  0  0  0  0  0  0
    6.2699    0.3445    0.0000 C   0  0  0  0  0  0  0  0  0
    6.6824    1.0590    0.0000 C   0  0  0  0  0  0  0  0  0
    7.5074    1.0590    0.0000 C   0  0  0  0  0  0  0  0  0
    7.9199    1.7735    0.0000 C   0  0  0  0  0  0  0  0  0
    8.7449    1.7735    0.0000 C   0  0  0  0  0  0  0  0  0
    9.1574    1.0590    0.0000 C   0  0  0  0  0  0  0  0  0
    8.7449    0.3445    0.0000 N   0  0  0  0  0  0  0  0  0
    7.9199    0.3445    0.0000 C   0  0  0  0  0  0  0  0  0
    7.5074   -0.3699    0.0000 O   0  0  0  0  0  0  0  0  0
    7.5074    2.4880    0.0000 C   0  0  0  0  0  0  0  0  0
    6.6824    2.4880    0.0000 C   0  0  0  0  0  0  0  0  0
    6.2699    1.7735    0.0000 C   0  0  0  0  0  0  0  0  0
    5.4449    1.7735    0.0000 O   0  0  0  0  0  0  0  0  0
    5.0324    1.0590    0.0000 C   0  0  0  0  0  0  0  0  0
    0.7808   -2.9470    0.0000 C   0  0  0  0  0  0  0  0  0
    0.1677   -2.3950    0.0000 C   0  0  0  0  0  0  0  0  0
  1  2  1  0  0  0  0
  2  3  4  0  0  0  0
  2 33  4  0  0  0  0
  3  4  4  0  0  0  0
  4  5  4  0  0  0  0
  4  8  4  0  0  0  0
  5  6  4  0  0  0  0
  5 32  4  0  0  0  0
  6  7  4  0  0  0  0
  7  8  4  0  0  0  0
  8  9  1  0  0  0  0
  9 10  1  0  0  0  0
 10 11  1  0  0  0  0
 11 12  1  0  0  0  0
 12 13  1  0  0  0  0
 12 17  1  0  0  0  0
 13 14  1  0  0  0  0
 14 15  1  0  0  0  0
 14 16  1  0  0  0  0
 17 18  1  0  0  0  0
 17 31  1  0  0  0  0
 18 19  1  0  0  0  0
 19 20  4  0  0  0  0
 19 29  4  0  0  0  0
 20 21  4  0  0  0  0
 20 25  1  0  0  0  0
 21 22  1  0  0  0  0
 21 27  4  0  0  0  0
 22 23  1  0  0  0  0
 23 24  1  0  0  0  0
 24 25  1  0  0  0  0
 25 26  2  0  0  0  0
 27 28  4  0  0  0  0
 28 29  4  0  0  0  0
 29 30  1  0  0  0  0
 30 31  1  0  0  0  0
 32 33  4  0  0  0  0
M  STY  1   1 DAT
M  SAL   1  1   6
M  SDT   1 MRV_IMPLICIT_H                                        
M  SDD   1     0.0000    0.0000    DR    ALL  0       0  
M  SED   1 IMPL_H1
M  END
>  <Name_Molregno>
595162

>  <5-HT1A>
6.03

$$$$
595171
  Marvin  02231216192D 0   1.00000     0.00000     0

 34 39  0  0  1  0  0  0  0  0999 V2000
    2.5076   -5.5070    0.0000 F   0  0  0  0  0  0  0  0  0
    2.0951   -4.7925    0.0000 C   0  0  0  0  0  0  0  0  0
    2.5076   -4.0781    0.0000 C   0  0  0  0  0  0  0  0  0
    3.3326   -4.0781    0.0000 O   0  0  0  0  0  0  0  0  0
    3.7451   -3.3636    0.0000 C   0  0  0  0  0  0  0  0  0
    3.3326   -2.6491    0.0000 C   0  0  0  0  0  0  0  0  0
    3.7451   -1.9347    0.0000 N   0  0  0  0  0  0  0  0  0
    3.3326   -1.2202    0.0000 C   0  0  0  0  0  0  0  0  0
    3.7451   -0.5057    0.0000 C   0  0  0  0  0  0  0  0  0
    3.7451    0.3193    0.0000 C   0  0  0  0  0  0  0  0  0
    4.4595   -0.0932    0.0000 C   0  0  0  0  0  0  0  0  0
    4.5701   -1.9347    0.0000 C   0  0  0  0  0  0  0  0  0
    4.9826   -1.2202    0.0000 C   0  0  0  0  0  0  0  0  0
    5.8076   -1.2202    0.0000 C   0  0  0  0  0  0  0  0  0
    6.2201   -0.5057    0.0000 C   0  0  0  0  0  0  0  0  0
    5.8845    0.2480    0.0000 C   0  0  0  0  0  0  0  0  0
    5.0999    0.5029    0.0000 C   0  0  0  0  0  0  0  0  0
    4.9284    1.3099    0.0000 C   0  0  0  0  0  0  0  0  0
    4.1437    1.5648    0.0000 F   0  0  0  0  0  0  0  0  0
    5.5415    1.8619    0.0000 C   0  0  0  0  0  0  0  0  0
    6.3261    1.6070    0.0000 C   0  0  0  0  0  0  0  0  0
    6.4976    0.8000    0.0000 C   0  0  0  0  0  0  0  0  0
    7.2121    0.3875    0.0000 N   0  0  0  0  0  0  0  0  0
    7.0406   -0.4195    0.0000 C   0  0  0  0  0  0  0  0  0
    2.5076   -2.6491    0.0000 C   0  0  0  0  0  0  0  0  0
    2.0951   -3.3636    0.0000 C   0  0  0  0  0  0  0  0  0
    1.2701   -3.3636    0.0000 C   0  0  0  0  0  0  0  0  0
    0.8576   -4.0781    0.0000 C   0  0  0  0  0  0  0  0  0
    1.2701   -4.7925    0.0000 C   0  0  0  0  0  0  0  0  0
    0.0326   -4.0781    0.0000 C   0  0  0  0  0  0  0  0  0
   -0.3799   -3.3636    0.0000 C   0  0  0  0  0  0  0  0  0
    0.0326   -2.6491    0.0000 N   0  0  0  0  0  0  0  0  0
    0.8576   -2.6491    0.0000 C   0  0  0  0  0  0  0  0  0
    1.2701   -1.9347    0.0000 O   0  0  0  0  0  0  0  0  0
  1  2  1  0  0  0  0
  2  3  4  0  0  0  0
  2 29  4  0  0  0  0
  3  4  1  0  0  0  0
  3 26  4  0  0  0  0
  4  5  1  0  0  0  0
  5  6  1  0  0  0  0
  6  7  1  0  0  0  0
  6 25  1  0  0  0  0
  7  8  1  0  0  0  0
  7 12  1  0  0  0  0
  8  9  1  0  0  0  0
  9 10  1  0  0  0  0
  9 11  1  0  0  0  0
 10 11  1  0  0  0  0
 12 13  1  0  0  0  0
 13 14  1  0  0  0  0
 14 15  1  0  0  0  0
 15 16  4  0  0  0  0
 15 24  4  0  0  0  0
 16 17  4  0  0  0  0
 16 22  4  0  0  0  0
 17 18  4  0  0  0  0
 18 19  1  0  0  0  0
 18 20  4  0  0  0  0
 20 21  4  0  0  0  0
 21 22  4  0  0  0  0
 22 23  4  0  0  0  0
 23 24  4  0  0  0  0
 25 26  1  0  0  0  0
 26 27  4  0  0  0  0
 27 28  4  0  0  0  0
 27 33  1  0  0  0  0
 28 29  4  0  0  0  0
 28 30  1  0  0  0  0
 30 31  1  0  0  0  0
 31 32  1  0  0  0  0
 32 33  1  0  0  0  0
 33 34  2  0  0  0  0
M  STY  1   1 DAT
M  SAL   1  1  23
M  SDT   1 MRV_IMPLICIT_H                                        
M  SDD   1     0.0000    0.0000    DR    ALL  0       0  
M  SED   1 IMPL_H1
M  END
>  <Name_Molregno>
595171

>  <5-HT1A>
7.3

$$$$
595173
  Marvin  02231216192D 0   1.00000     0.00000     0

 30 34  0  0  1  0  0  0  0  0999 V2000
   -2.4835   -6.8725    0.0000 F   0  0  0  0  0  0  0  0  0
   -2.8960   -6.1581    0.0000 C   0  0  0  0  0  0  0  0  0
   -2.4835   -5.4436    0.0000 C   0  0  0  0  0  0  0  0  0
   -1.6585   -5.4436    0.0000 O   0  0  0  0  0  0  0  0  0
   -1.2460   -4.7291    0.0000 C   0  0  0  0  0  0  0  0  0
   -1.6585   -4.0147    0.0000 C   0  0  0  0  0  0  0  0  0
   -1.2460   -3.3002    0.0000 N   0  0  0  0  0  0  0  0  0
   -0.4210   -3.3002    0.0000 C   0  0  0  0  0  0  0  0  0
   -0.0085   -2.5857    0.0000 C   0  0  0  0  0  0  0  0  0
    0.8165   -2.5857    0.0000 C   0  0  0  0  0  0  0  0  0
    1.2290   -1.8712    0.0000 C   0  0  0  0  0  0  0  0  0
    0.8934   -1.1176    0.0000 C   0  0  0  0  0  0  0  0  0
    0.1088   -0.8626    0.0000 C   0  0  0  0  0  0  0  0  0
   -0.0627   -0.0557    0.0000 C   0  0  0  0  0  0  0  0  0
   -0.8474    0.1993    0.0000 F   0  0  0  0  0  0  0  0  0
    0.5503    0.4964    0.0000 C   0  0  0  0  0  0  0  0  0
    1.3350    0.2414    0.0000 C   0  0  0  0  0  0  0  0  0
    1.5065   -0.5655    0.0000 C   0  0  0  0  0  0  0  0  0
    2.2210   -0.9780    0.0000 N   0  0  0  0  0  0  0  0  0
    2.0494   -1.7850    0.0000 C   0  0  0  0  0  0  0  0  0
   -2.4835   -4.0147    0.0000 C   0  0  0  0  0  0  0  0  0
   -2.8960   -4.7291    0.0000 C   0  0  0  0  0  0  0  0  0
   -3.7210   -4.7291    0.0000 C   0  0  0  0  0  0  0  0  0
   -4.1335   -5.4436    0.0000 C   0  0  0  0  0  0  0  0  0
   -3.7210   -6.1581    0.0000 C   0  0  0  0  0  0  0  0  0
   -4.9585   -5.4436    0.0000 C   0  0  0  0  0  0  0  0  0
   -5.3710   -4.7291    0.0000 C   0  0  0  0  0  0  0  0  0
   -4.9585   -4.0147    0.0000 N   0  0  0  0  0  0  0  0  0
   -4.1335   -4.0147    0.0000 C   0  0  0  0  0  0  0  0  0
   -3.7210   -3.3002    0.0000 O   0  0  0  0  0  0  0  0  0
  1  2  1  0  0  0  0
  2  3  4  0  0  0  0
  2 25  4  0  0  0  0
  3  4  1  0  0  0  0
  3 22  4  0  0  0  0
  4  5  1  0  0  0  0
  5  6  1  0  0  0  0
  6  7  1  0  0  0  0
  6 21  1  0  0  0  0
  7  8  1  0  0  0  0
  8  9  1  0  0  0  0
  9 10  1  0  0  0  0
 10 11  1  0  0  0  0
 11 12  4  0  0  0  0
 11 20  4  0  0  0  0
 12 13  4  0  0  0  0
 12 18  4  0  0  0  0
 13 14  4  0  0  0  0
 14 15  1  0  0  0  0
 14 16  4  0  0  0  0
 16 17  4  0  0  0  0
 17 18  4  0  0  0  0
 18 19  4  0  0  0  0
 19 20  4  0  0  0  0
 21 22  1  0  0  0  0
 22 23  4  0  0  0  0
 23 24  4  0  0  0  0
 23 29  1  0  0  0  0
 24 25  4  0  0  0  0
 24 26  1  0  0  0  0
 26 27  1  0  0  0  0
 27 28  1  0  0  0  0
 28 29  1  0  0  0  0
 29 30  2  0  0  0  0
M  STY  1   1 DAT
M  SAL   1  1  19
M  SDT   1 MRV_IMPLICIT_H                                        
M  SDD   1     0.0000    0.0000    DR    ALL  0       0  
M  SED   1 IMPL_H1
M  END
>  <Name_Molregno>
595173

>  <5-HT1A>
8.22

$$$$
595178
  Marvin  02231216192D 0   1.00000     0.00000     0

 29 33  0  0  1  0  0  0  0  0999 V2000
   -9.7955   -1.5945    0.0000 F   0  0  0  0  0  0  0  0  0
   -9.1824   -2.1465    0.0000 C   0  0  0  0  0  0  0  0  0
   -8.3978   -1.8915    0.0000 C   0  0  0  0  0  0  0  0  0
   -7.7847   -2.4436    0.0000 C   0  0  0  0  0  0  0  0  0
   -7.9562   -3.2506    0.0000 C   0  0  0  0  0  0  0  0  0
   -7.2417   -3.6631    0.0000 N   0  0  0  0  0  0  0  0  0
   -6.6286   -3.1110    0.0000 C   0  0  0  0  0  0  0  0  0
   -6.9642   -2.3573    0.0000 C   0  0  0  0  0  0  0  0  0
   -6.5517   -1.6429    0.0000 C   0  0  0  0  0  0  0  0  0
   -5.7267   -1.6429    0.0000 C   0  0  0  0  0  0  0  0  0
   -5.3142   -0.9284    0.0000 C   0  0  0  0  0  0  0  0  0
   -4.4892   -0.9284    0.0000 N   0  0  0  0  0  0  0  0  0
   -4.0767   -0.2139    0.0000 C   0  0  0  0  0  0  0  0  0
   -3.2517   -0.2139    0.0000 C   0  0  0  0  0  0  0  0  0
   -2.8392    0.5005    0.0000 C   0  0  0  0  0  0  0  0  0
   -2.0142    0.5005    0.0000 C   0  0  0  0  0  0  0  0  0
   -1.6017    1.2150    0.0000 C   0  0  0  0  0  0  0  0  0
   -0.7767    1.2150    0.0000 C   0  0  0  0  0  0  0  0  0
   -0.3642    0.5005    0.0000 C   0  0  0  0  0  0  0  0  0
   -0.7767   -0.2139    0.0000 N   0  0  0  0  0  0  0  0  0
   -1.6017   -0.2139    0.0000 C   0  0  0  0  0  0  0  0  0
   -2.0142   -0.9284    0.0000 O   0  0  0  0  0  0  0  0  0
   -2.0142    1.9295    0.0000 C   0  0  0  0  0  0  0  0  0
   -2.8392    1.9295    0.0000 C   0  0  0  0  0  0  0  0  0
   -3.2517    1.2150    0.0000 C   0  0  0  0  0  0  0  0  0
   -4.0767    1.2150    0.0000 O   0  0  0  0  0  0  0  0  0
   -4.4892    0.5005    0.0000 C   0  0  0  0  0  0  0  0  0
   -8.7408   -3.5055    0.0000 C   0  0  0  0  0  0  0  0  0
   -9.3539   -2.9535    0.0000 C   0  0  0  0  0  0  0  0  0
  1  2  1  0  0  0  0
  2  3  4  0  0  0  0
  2 29  4  0  0  0  0
  3  4  4  0  0  0  0
  4  5  4  0  0  0  0
  4  8  4  0  0  0  0
  5  6  4  0  0  0  0
  5 28  4  0  0  0  0
  6  7  4  0  0  0  0
  7  8  4  0  0  0  0
  8  9  1  0  0  0  0
  9 10  1  0  0  0  0
 10 11  1  0  0  0  0
 11 12  1  0  0  0  0
 12 13  1  0  0  0  0
 13 14  1  0  0  0  0
 13 27  1  0  0  0  0
 14 15  1  0  0  0  0
 15 16  4  0  0  0  0
 15 25  4  0  0  0  0
 16 17  4  0  0  0  0
 16 21  1  0  0  0  0
 17 18  1  0  0  0  0
 17 23  4  0  0  0  0
 18 19  1  0  0  0  0
 19 20  1  0  0  0  0
 20 21  1  0  0  0  0
 21 22  2  0  0  0  0
 23 24  4  0  0  0  0
 24 25  4  0  0  0  0
 25 26  1  0  0  0  0
 26 27  1  0  0  0  0
 28 29  4  0  0  0  0
M  STY  1   1 DAT
M  SAL   1  1   6
M  SDT   1 MRV_IMPLICIT_H                                        
M  SDD   1     0.0000    0.0000    DR    ALL  0       0  
M  SED   1 IMPL_H1
M  END
>  <Name_Molregno>
595178

>  <5-HT1A>
7.36

$$$$
595181
  Marvin  02231216192D 0   1.00000     0.00000     0

 32 36  0  0  1  0  0  0  0  0999 V2000
   -2.4630   -7.0126    0.0000 F   0  0  0  0  0  0  0  0  0
   -2.8755   -6.2981    0.0000 C   0  0  0  0  0  0  0  0  0
   -2.4630   -5.5836    0.0000 C   0  0  0  0  0  0  0  0  0
   -1.6380   -5.5836    0.0000 O   0  0  0  0  0  0  0  0  0
   -1.2255   -4.8692    0.0000 C   0  0  0  0  0  0  0  0  0
   -1.6380   -4.1547    0.0000 C   0  0  0  0  0  0  0  0  0
   -1.2255   -3.4402    0.0000 N   0  0  0  0  0  0  0  0  0
   -0.4005   -3.4402    0.0000 C   0  0  0  0  0  0  0  0  0
    0.0120   -2.7258    0.0000 C   0  0  0  0  0  0  0  0  0
    0.8370   -2.7258    0.0000 C   0  0  0  0  0  0  0  0  0
    1.2495   -2.0113    0.0000 C   0  0  0  0  0  0  0  0  0
    0.9140   -1.2576    0.0000 C   0  0  0  0  0  0  0  0  0
    0.1293   -1.0027    0.0000 C   0  0  0  0  0  0  0  0  0
   -0.0422   -0.1957    0.0000 C   0  0  0  0  0  0  0  0  0
   -0.8268    0.0592    0.0000 F   0  0  0  0  0  0  0  0  0
    0.5709    0.3563    0.0000 C   0  0  0  0  0  0  0  0  0
    1.3555    0.1014    0.0000 C   0  0  0  0  0  0  0  0  0
    1.5271   -0.7056    0.0000 C   0  0  0  0  0  0  0  0  0
    2.2415   -1.1181    0.0000 N   0  0  0  0  0  0  0  0  0
    2.0700   -1.9251    0.0000 C   0  0  0  0  0  0  0  0  0
   -1.6380   -2.7258    0.0000 C   0  0  0  0  0  0  0  0  0
   -1.2255   -2.0113    0.0000 C   0  0  0  0  0  0  0  0  0
   -2.4630   -4.1547    0.0000 C   0  0  0  0  0  0  0  0  0
   -2.8755   -4.8692    0.0000 C   0  0  0  0  0  0  0  0  0
   -3.7005   -4.8692    0.0000 C   0  0  0  0  0  0  0  0  0
   -4.1130   -5.5836    0.0000 C   0  0  0  0  0  0  0  0  0
   -3.7005   -6.2981    0.0000 C   0  0  0  0  0  0  0  0  0
   -4.9380   -5.5836    0.0000 C   0  0  0  0  0  0  0  0  0
   -5.3505   -4.8692    0.0000 C   0  0  0  0  0  0  0  0  0
   -4.9380   -4.1547    0.0000 N   0  0  0  0  0  0  0  0  0
   -4.1130   -4.1547    0.0000 C   0  0  0  0  0  0  0  0  0
   -3.7005   -3.4402    0.0000 O   0  0  0  0  0  0  0  0  0
  1  2  1  0  0  0  0
  2  3  4  0  0  0  0
  2 27  4  0  0  0  0
  3  4  1  0  0  0  0
  3 24  4  0  0  0  0
  4  5  1  0  0  0  0
  5  6  1  0  0  0  0
  6  7  1  0  0  0  0
  6 23  1  0  0  0  0
  7  8  1  0  0  0  0
  7 21  1  0  0  0  0
  8  9  1  0  0  0  0
  9 10  1  0  0  0  0
 10 11  1  0  0  0  0
 11 12  4  0  0  0  0
 11 20  4  0  0  0  0
 12 13  4  0  0  0  0
 12 18  4  0  0  0  0
 13 14  4  0  0  0  0
 14 15  1  0  0  0  0
 14 16  4  0  0  0  0
 16 17  4  0  0  0  0
 17 18  4  0  0  0  0
 18 19  4  0  0  0  0
 19 20  4  0  0  0  0
 21 22  1  0  0  0  0
 23 24  1  0  0  0  0
 24 25  4  0  0  0  0
 25 26  4  0  0  0  0
 25 31  1  0  0  0  0
 26 27  4  0  0  0  0
 26 28  1  0  0  0  0
 28 29  1  0  0  0  0
 29 30  1  0  0  0  0
 30 31  1  0  0  0  0
 31 32  2  0  0  0  0
M  STY  1   1 DAT
M  SAL   1  1  19
M  SDT   1 MRV_IMPLICIT_H                                        
M  SDD   1     0.0000    0.0000    DR    ALL  0       0  
M  SED   1 IMPL_H1
M  END
>  <Name_Molregno>
595181

>  <5-HT1A>
8.4

$$$$
595182
  Marvin  02231216192D 0   1.00000     0.00000     0

 30 34  0  0  1  0  0  0  0  0999 V2000
   -9.8361   -1.5950    0.0000 F   0  0  0  0  0  0  0  0  0
   -9.2230   -2.1470    0.0000 C   0  0  0  0  0  0  0  0  0
   -8.4384   -1.8921    0.0000 C   0  0  0  0  0  0  0  0  0
   -7.8253   -2.4441    0.0000 C   0  0  0  0  0  0  0  0  0
   -7.9968   -3.2511    0.0000 C   0  0  0  0  0  0  0  0  0
   -7.2823   -3.6636    0.0000 N   0  0  0  0  0  0  0  0  0
   -6.6692   -3.1115    0.0000 C   0  0  0  0  0  0  0  0  0
   -7.0048   -2.3579    0.0000 C   0  0  0  0  0  0  0  0  0
   -6.5923   -1.6434    0.0000 C   0  0  0  0  0  0  0  0  0
   -5.7673   -1.6434    0.0000 C   0  0  0  0  0  0  0  0  0
   -5.3548   -0.9289    0.0000 C   0  0  0  0  0  0  0  0  0
   -4.5298   -0.9289    0.0000 N   0  0  0  0  0  0  0  0  0
   -4.1173   -1.6434    0.0000 C   0  0  0  0  0  0  0  0  0
   -4.1173   -0.2145    0.0000 C   0  0  0  0  0  0  0  0  0
   -3.2923   -0.2145    0.0000 C   0  0  0  0  0  0  0  0  0
   -2.8798    0.5000    0.0000 C   0  0  0  0  0  0  0  0  0
   -2.0548    0.5000    0.0000 C   0  0  0  0  0  0  0  0  0
   -1.6423    1.2145    0.0000 C   0  0  0  0  0  0  0  0  0
   -0.8173    1.2145    0.0000 C   0  0  0  0  0  0  0  0  0
   -0.4048    0.5000    0.0000 C   0  0  0  0  0  0  0  0  0
   -0.8173   -0.2145    0.0000 N   0  0  0  0  0  0  0  0  0
   -1.6423   -0.2145    0.0000 C   0  0  0  0  0  0  0  0  0
   -2.0548   -0.9289    0.0000 O   0  0  0  0  0  0  0  0  0
   -2.0548    1.9290    0.0000 C   0  0  0  0  0  0  0  0  0
   -2.8798    1.9290    0.0000 C   0  0  0  0  0  0  0  0  0
   -3.2923    1.2145    0.0000 C   0  0  0  0  0  0  0  0  0
   -4.1173    1.2145    0.0000 O   0  0  0  0  0  0  0  0  0
   -4.5298    0.5000    0.0000 C   0  0  0  0  0  0  0  0  0
   -8.7814   -3.5060    0.0000 C   0  0  0  0  0  0  0  0  0
   -9.3945   -2.9540    0.0000 C   0  0  0  0  0  0  0  0  0
  1  2  1  0  0  0  0
  2  3  4  0  0  0  0
  2 30  4  0  0  0  0
  3  4  4  0  0  0  0
  4  5  4  0  0  0  0
  4  8  4  0  0  0  0
  5  6  4  0  0  0  0
  5 29  4  0  0  0  0
  6  7  4  0  0  0  0
  7  8  4  0  0  0  0
  8  9  1  0  0  0  0
  9 10  1  0  0  0  0
 10 11  1  0  0  0  0
 11 12  1  0  0  0  0
 12 13  1  0  0  0  0
 12 14  1  0  0  0  0
 14 15  1  0  0  0  0
 14 28  1  0  0  0  0
 15 16  1  0  0  0  0
 16 17  4  0  0  0  0
 16 26  4  0  0  0  0
 17 18  4  0  0  0  0
 17 22  1  0  0  0  0
 18 19  1  0  0  0  0
 18 24  4  0  0  0  0
 19 20  1  0  0  0  0
 20 21  1  0  0  0  0
 21 22  1  0  0  0  0
 22 23  2  0  0  0  0
 24 25  4  0  0  0  0
 25 26  4  0  0  0  0
 26 27  1  0  0  0  0
 27 28  1  0  0  0  0
 29 30  4  0  0  0  0
M  STY  1   1 DAT
M  SAL   1  1   6
M  SDT   1 MRV_IMPLICIT_H                                        
M  SDD   1     0.0000    0.0000    DR    ALL  0       0  
M  SED   1 IMPL_H1
M  END
>  <Name_Molregno>
595182

>  <5-HT1A>
7.64

$$$$
595186
  Marvin  02231216192D 0   1.00000     0.00000     0

 32 36  0  0  1  0  0  0  0  0999 V2000
   -0.1401    0.0442    0.0000 F   0  0  0  0  0  0  0  0  0
    0.4730   -0.5078    0.0000 C   0  0  0  0  0  0  0  0  0
    1.2576   -0.2529    0.0000 C   0  0  0  0  0  0  0  0  0
    1.8707   -0.8049    0.0000 C   0  0  0  0  0  0  0  0  0
    1.6992   -1.6119    0.0000 C   0  0  0  0  0  0  0  0  0
    2.4137   -2.0244    0.0000 N   0  0  0  0  0  0  0  0  0
    3.0268   -1.4724    0.0000 C   0  0  0  0  0  0  0  0  0
    2.6912   -0.7187    0.0000 C   0  0  0  0  0  0  0  0  0
    3.1037   -0.0042    0.0000 C   0  0  0  0  0  0  0  0  0
    3.9287   -0.0042    0.0000 C   0  0  0  0  0  0  0  0  0
    4.3412    0.7102    0.0000 C   0  0  0  0  0  0  0  0  0
    5.1662    0.7102    0.0000 N   0  0  0  0  0  0  0  0  0
    5.5787   -0.0042    0.0000 C   0  0  0  0  0  0  0  0  0
    6.4037   -0.0042    0.0000 C   0  0  0  0  0  0  0  0  0
    5.1662   -0.7187    0.0000 C   0  0  0  0  0  0  0  0  0
    5.5787    1.4247    0.0000 C   0  0  0  0  0  0  0  0  0
    6.4037    1.4247    0.0000 C   0  0  0  0  0  0  0  0  0
    6.8162    2.1392    0.0000 C   0  0  0  0  0  0  0  0  0
    7.6412    2.1392    0.0000 C   0  0  0  0  0  0  0  0  0
    8.0537    2.8537    0.0000 C   0  0  0  0  0  0  0  0  0
    8.8787    2.8537    0.0000 C   0  0  0  0  0  0  0  0  0
    9.2912    2.1392    0.0000 C   0  0  0  0  0  0  0  0  0
    8.8787    1.4247    0.0000 N   0  0  0  0  0  0  0  0  0
    8.0537    1.4247    0.0000 C   0  0  0  0  0  0  0  0  0
    7.6412    0.7102    0.0000 O   0  0  0  0  0  0  0  0  0
    7.6412    3.5681    0.0000 C   0  0  0  0  0  0  0  0  0
    6.8162    3.5681    0.0000 C   0  0  0  0  0  0  0  0  0
    6.4037    2.8537    0.0000 C   0  0  0  0  0  0  0  0  0
    5.5787    2.8537    0.0000 O   0  0  0  0  0  0  0  0  0
    5.1662    2.1392    0.0000 C   0  0  0  0  0  0  0  0  0
    0.9146   -1.8668    0.0000 C   0  0  0  0  0  0  0  0  0
    0.3015   -1.3148    0.0000 C   0  0  0  0  0  0  0  0  0
  1  2  1  0  0  0  0
  2  3  4  0  0  0  0
  2 32  4  0  0  0  0
  3  4  4  0  0  0  0
  4  5  4  0  0  0  0
  4  8  4  0  0  0  0
  5  6  4  0  0  0  0
  5 31  4  0  0  0  0
  6  7  4  0  0  0  0
  7  8  4  0  0  0  0
  8  9  1  0  0  0  0
  9 10  1  0  0  0  0
 10 11  1  0  0  0  0
 11 12  1  0  0  0  0
 12 13  1  0  0  0  0
 12 16  1  0  0  0  0
 13 14  1  0  0  0  0
 13 15  1  0  0  0  0
 16 17  1  0  0  0  0
 16 30  1  0  0  0  0
 17 18  1  0  0  0  0
 18 19  4  0  0  0  0
 18 28  4  0  0  0  0
 19 20  4  0  0  0  0
 19 24  1  0  0  0  0
 20 21  1  0  0  0  0
 20 26  4  0  0  0  0
 21 22  1  0  0  0  0
 22 23  1  0  0  0  0
 23 24  1  0  0  0  0
 24 25  2  0  0  0  0
 26 27  4  0  0  0  0
 27 28  4  0  0  0  0
 28 29  1  0  0  0  0
 29 30  1  0  0  0  0
 31 32  4  0  0  0  0
M  STY  1   1 DAT
M  SAL   1  1   6
M  SDT   1 MRV_IMPLICIT_H                                        
M  SDD   1     0.0000    0.0000    DR    ALL  0       0  
M  SED   1 IMPL_H1
M  END
>  <Name_Molregno>
595186

>  <5-HT1A>
6.89

$$$$
595189
  Marvin  02231216192D 0   1.00000     0.00000     0

 32 36  0  0  1  0  0  0  0  0999 V2000
   -1.4663   -2.9895    0.0000 F   0  0  0  0  0  0  0  0  0
   -0.8532   -3.5415    0.0000 C   0  0  0  0  0  0  0  0  0
   -0.0686   -3.2866    0.0000 C   0  0  0  0  0  0  0  0  0
    0.5445   -3.8386    0.0000 C   0  0  0  0  0  0  0  0  0
    0.3730   -4.6456    0.0000 C   0  0  0  0  0  0  0  0  0
    1.0874   -5.0581    0.0000 N   0  0  0  0  0  0  0  0  0
    1.7005   -4.5061    0.0000 C   0  0  0  0  0  0  0  0  0
    1.3650   -3.7524    0.0000 C   0  0  0  0  0  0  0  0  0
    1.7775   -3.0379    0.0000 C   0  0  0  0  0  0  0  0  0
    2.6025   -3.0379    0.0000 C   0  0  0  0  0  0  0  0  0
    3.0150   -2.3234    0.0000 C   0  0  0  0  0  0  0  0  0
    3.8400   -2.3234    0.0000 N   0  0  0  0  0  0  0  0  0
    4.2525   -3.0379    0.0000 C   0  0  0  0  0  0  0  0  0
    5.0775   -3.0379    0.0000 C   0  0  0  0  0  0  0  0  0
    5.4900   -3.7524    0.0000 C   0  0  0  0  0  0  0  0  0
    4.2525   -1.6090    0.0000 C   0  0  0  0  0  0  0  0  0
    5.0775   -1.6090    0.0000 C   0  0  0  0  0  0  0  0  0
    5.4900   -0.8945    0.0000 C   0  0  0  0  0  0  0  0  0
    6.3150   -0.8945    0.0000 C   0  0  0  0  0  0  0  0  0
    6.7275   -0.1800    0.0000 C   0  0  0  0  0  0  0  0  0
    7.5525   -0.1800    0.0000 C   0  0  0  0  0  0  0  0  0
    7.9650   -0.8945    0.0000 C   0  0  0  0  0  0  0  0  0
    7.5525   -1.6090    0.0000 N   0  0  0  0  0  0  0  0  0
    6.7275   -1.6090    0.0000 C   0  0  0  0  0  0  0  0  0
    6.3150   -2.3234    0.0000 O   0  0  0  0  0  0  0  0  0
    6.3150    0.5344    0.0000 C   0  0  0  0  0  0  0  0  0
    5.4900    0.5344    0.0000 C   0  0  0  0  0  0  0  0  0
    5.0775   -0.1800    0.0000 C   0  0  0  0  0  0  0  0  0
    4.2525   -0.1800    0.0000 O   0  0  0  0  0  0  0  0  0
    3.8400   -0.8945    0.0000 C   0  0  0  0  0  0  0  0  0
   -0.4117   -4.9005    0.0000 C   0  0  0  0  0  0  0  0  0
   -1.0248   -4.3485    0.0000 C   0  0  0  0  0  0  0  0  0
  1  2  1  0  0  0  0
  2  3  4  0  0  0  0
  2 32  4  0  0  0  0
  3  4  4  0  0  0  0
  4  5  4  0  0  0  0
  4  8  4  0  0  0  0
  5  6  4  0  0  0  0
  5 31  4  0  0  0  0
  6  7  4  0  0  0  0
  7  8  4  0  0  0  0
  8  9  1  0  0  0  0
  9 10  1  0  0  0  0
 10 11  1  0  0  0  0
 11 12  1  0  0  0  0
 12 13  1  0  0  0  0
 12 16  1  0  0  0  0
 13 14  1  0  0  0  0
 14 15  1  0  0  0  0
 16 17  1  0  0  0  0
 16 30  1  0  0  0  0
 17 18  1  0  0  0  0
 18 19  4  0  0  0  0
 18 28  4  0  0  0  0
 19 20  4  0  0  0  0
 19 24  1  0  0  0  0
 20 21  1  0  0  0  0
 20 26  4  0  0  0  0
 21 22  1  0  0  0  0
 22 23  1  0  0  0  0
 23 24  1  0  0  0  0
 24 25  2  0  0  0  0
 26 27  4  0  0  0  0
 27 28  4  0  0  0  0
 28 29  1  0  0  0  0
 29 30  1  0  0  0  0
 31 32  4  0  0  0  0
M  STY  1   1 DAT
M  SAL   1  1   6
M  SDT   1 MRV_IMPLICIT_H                                        
M  SDD   1     0.0000    0.0000    DR    ALL  0       0  
M  SED   1 IMPL_H1
M  END
>  <Name_Molregno>
595189

>  <5-HT1A>
7.89

$$$$
595190
  Marvin  02231216192D 0   1.00000     0.00000     0

 33 38  0  0  1  0  0  0  0  0999 V2000
   -8.6649   -3.0119    0.0000 F   0  0  0  0  0  0  0  0  0
   -8.0518   -3.5640    0.0000 C   0  0  0  0  0  0  0  0  0
   -7.2672   -3.3090    0.0000 C   0  0  0  0  0  0  0  0  0
   -6.6541   -3.8611    0.0000 C   0  0  0  0  0  0  0  0  0
   -6.8256   -4.6680    0.0000 C   0  0  0  0  0  0  0  0  0
   -6.1112   -5.0805    0.0000 N   0  0  0  0  0  0  0  0  0
   -5.4981   -4.5285    0.0000 C   0  0  0  0  0  0  0  0  0
   -5.8336   -3.7748    0.0000 C   0  0  0  0  0  0  0  0  0
   -5.4211   -3.0604    0.0000 C   0  0  0  0  0  0  0  0  0
   -4.5961   -3.0604    0.0000 C   0  0  0  0  0  0  0  0  0
   -4.1836   -2.3459    0.0000 C   0  0  0  0  0  0  0  0  0
   -3.3586   -2.3459    0.0000 N   0  0  0  0  0  0  0  0  0
   -2.9461   -3.0604    0.0000 C   0  0  0  0  0  0  0  0  0
   -2.1492   -3.2739    0.0000 C   0  0  0  0  0  0  0  0  0
   -2.3628   -4.0708    0.0000 C   0  0  0  0  0  0  0  0  0
   -3.1596   -3.8572    0.0000 C   0  0  0  0  0  0  0  0  0
   -2.9461   -1.6314    0.0000 C   0  0  0  0  0  0  0  0  0
   -2.1211   -1.6314    0.0000 C   0  0  0  0  0  0  0  0  0
   -1.7086   -0.9169    0.0000 C   0  0  0  0  0  0  0  0  0
   -0.8836   -0.9169    0.0000 C   0  0  0  0  0  0  0  0  0
   -0.4711   -0.2025    0.0000 C   0  0  0  0  0  0  0  0  0
    0.3539   -0.2025    0.0000 C   0  0  0  0  0  0  0  0  0
    0.7664   -0.9169    0.0000 C   0  0  0  0  0  0  0  0  0
    0.3539   -1.6314    0.0000 N   0  0  0  0  0  0  0  0  0
   -0.4711   -1.6314    0.0000 C   0  0  0  0  0  0  0  0  0
   -0.8836   -2.3459    0.0000 O   0  0  0  0  0  0  0  0  0
   -0.8836    0.5120    0.0000 C   0  0  0  0  0  0  0  0  0
   -1.7086    0.5120    0.0000 C   0  0  0  0  0  0  0  0  0
   -2.1211   -0.2025    0.0000 C   0  0  0  0  0  0  0  0  0
   -2.9461   -0.2025    0.0000 O   0  0  0  0  0  0  0  0  0
   -3.3586   -0.9169    0.0000 C   0  0  0  0  0  0  0  0  0
   -7.6102   -4.9230    0.0000 C   0  0  0  0  0  0  0  0  0
   -8.2233   -4.3709    0.0000 C   0  0  0  0  0  0  0  0  0
  1  2  1  0  0  0  0
  2  3  4  0  0  0  0
  2 33  4  0  0  0  0
  3  4  4  0  0  0  0
  4  5  4  0  0  0  0
  4  8  4  0  0  0  0
  5  6  4  0  0  0  0
  5 32  4  0  0  0  0
  6  7  4  0  0  0  0
  7  8  4  0  0  0  0
  8  9  1  0  0  0  0
  9 10  1  0  0  0  0
 10 11  1  0  0  0  0
 11 12  1  0  0  0  0
 12 13  1  0  0  0  0
 12 17  1  0  0  0  0
 13 14  1  0  0  0  0
 13 16  1  0  0  0  0
 14 15  1  0  0  0  0
 15 16  1  0  0  0  0
 17 18  1  0  0  0  0
 17 31  1  0  0  0  0
 18 19  1  0  0  0  0
 19 20  4  0  0  0  0
 19 29  4  0  0  0  0
 20 21  4  0  0  0  0
 20 25  1  0  0  0  0
 21 22  1  0  0  0  0
 21 27  4  0  0  0  0
 22 23  1  0  0  0  0
 23 24  1  0  0  0  0
 24 25  1  0  0  0  0
 25 26  2  0  0  0  0
 27 28  4  0  0  0  0
 28 29  4  0  0  0  0
 29 30  1  0  0  0  0
 30 31  1  0  0  0  0
 32 33  4  0  0  0  0
M  STY  1   1 DAT
M  SAL   1  1   6
M  SDT   1 MRV_IMPLICIT_H                                        
M  SDD   1     0.0000    0.0000    DR    ALL  0       0  
M  SED   1 IMPL_H1
M  END
>  <Name_Molregno>
595190

>  <5-HT1A>
7.02

$$$$
595198
  Marvin  02231216192D 0   1.00000     0.00000     0

 31 35  0  0  1  0  0  0  0  0999 V2000
   -0.1453   -1.5207    0.0000 F   0  0  0  0  0  0  0  0  0
    0.4678   -2.0727    0.0000 C   0  0  0  0  0  0  0  0  0
    1.2524   -1.8178    0.0000 C   0  0  0  0  0  0  0  0  0
    1.8655   -2.3698    0.0000 C   0  0  0  0  0  0  0  0  0
    1.6940   -3.1768    0.0000 C   0  0  0  0  0  0  0  0  0
    2.4085   -3.5893    0.0000 N   0  0  0  0  0  0  0  0  0
    3.0216   -3.0372    0.0000 C   0  0  0  0  0  0  0  0  0
    2.6860   -2.2836    0.0000 C   0  0  0  0  0  0  0  0  0
    3.0985   -1.5691    0.0000 C   0  0  0  0  0  0  0  0  0
    3.9235   -1.5691    0.0000 C   0  0  0  0  0  0  0  0  0
    4.3360   -0.8546    0.0000 C   0  0  0  0  0  0  0  0  0
    5.1610   -0.8546    0.0000 N   0  0  0  0  0  0  0  0  0
    5.5735   -1.5691    0.0000 C   0  0  0  0  0  0  0  0  0
    5.1610   -2.2836    0.0000 C   0  0  0  0  0  0  0  0  0
    5.5735   -0.1401    0.0000 C   0  0  0  0  0  0  0  0  0
    6.3985   -0.1401    0.0000 C   0  0  0  0  0  0  0  0  0
    6.8110    0.5743    0.0000 C   0  0  0  0  0  0  0  0  0
    7.6360    0.5743    0.0000 C   0  0  0  0  0  0  0  0  0
    8.0485    1.2888    0.0000 C   0  0  0  0  0  0  0  0  0
    8.8735    1.2888    0.0000 C   0  0  0  0  0  0  0  0  0
    9.2860    0.5743    0.0000 C   0  0  0  0  0  0  0  0  0
    8.8735   -0.1401    0.0000 N   0  0  0  0  0  0  0  0  0
    8.0485   -0.1401    0.0000 C   0  0  0  0  0  0  0  0  0
    7.6360   -0.8546    0.0000 O   0  0  0  0  0  0  0  0  0
    7.6360    2.0033    0.0000 C   0  0  0  0  0  0  0  0  0
    6.8110    2.0033    0.0000 C   0  0  0  0  0  0  0  0  0
    6.3985    1.2888    0.0000 C   0  0  0  0  0  0  0  0  0
    5.5735    1.2888    0.0000 O   0  0  0  0  0  0  0  0  0
    5.1610    0.5743    0.0000 C   0  0  0  0  0  0  0  0  0
    0.9094   -3.4317    0.0000 C   0  0  0  0  0  0  0  0  0
    0.2963   -2.8797    0.0000 C   0  0  0  0  0  0  0  0  0
  1  2  1  0  0  0  0
  2  3  4  0  0  0  0
  2 31  4  0  0  0  0
  3  4  4  0  0  0  0
  4  5  4  0  0  0  0
  4  8  4  0  0  0  0
  5  6  4  0  0  0  0
  5 30  4  0  0  0  0
  6  7  4  0  0  0  0
  7  8  4  0  0  0  0
  8  9  1  0  0  0  0
  9 10  1  0  0  0  0
 10 11  1  0  0  0  0
 11 12  1  0  0  0  0
 12 13  1  0  0  0  0
 12 15  1  0  0  0  0
 13 14  1  0  0  0  0
 15 16  1  0  0  0  0
 15 29  1  0  0  0  0
 16 17  1  0  0  0  0
 17 18  4  0  0  0  0
 17 27  4  0  0  0  0
 18 19  4  0  0  0  0
 18 23  1  0  0  0  0
 19 20  1  0  0  0  0
 19 25  4  0  0  0  0
 20 21  1  0  0  0  0
 21 22  1  0  0  0  0
 22 23  1  0  0  0  0
 23 24  2  0  0  0  0
 25 26  4  0  0  0  0
 26 27  4  0  0  0  0
 27 28  1  0  0  0  0
 28 29  1  0  0  0  0
 30 31  4  0  0  0  0
M  STY  1   1 DAT
M  SAL   1  1   6
M  SDT   1 MRV_IMPLICIT_H                                        
M  SDD   1     0.0000    0.0000    DR    ALL  0       0  
M  SED   1 IMPL_H1
M  END
>  <Name_Molregno>
595198

>  <5-HT1A>
8.22

$$$$
595199
  Marvin  02231216192D 0   1.00000     0.00000     0

 33 38  0  0  1  0  0  0  0  0999 V2000
   -0.1281   -0.9756    0.0000 F   0  0  0  0  0  0  0  0  0
    0.4850   -1.5276    0.0000 C   0  0  0  0  0  0  0  0  0
    1.2696   -1.2727    0.0000 C   0  0  0  0  0  0  0  0  0
    1.8827   -1.8247    0.0000 C   0  0  0  0  0  0  0  0  0
    1.7112   -2.6317    0.0000 C   0  0  0  0  0  0  0  0  0
    2.4257   -3.0442    0.0000 N   0  0  0  0  0  0  0  0  0
    3.0388   -2.4922    0.0000 C   0  0  0  0  0  0  0  0  0
    2.7032   -1.7385    0.0000 C   0  0  0  0  0  0  0  0  0
    3.1157   -1.0240    0.0000 C   0  0  0  0  0  0  0  0  0
    3.9407   -1.0240    0.0000 C   0  0  0  0  0  0  0  0  0
    4.3532   -0.3096    0.0000 C   0  0  0  0  0  0  0  0  0
    5.1782   -0.3096    0.0000 N   0  0  0  0  0  0  0  0  0
    5.5907   -1.0240    0.0000 C   0  0  0  0  0  0  0  0  0
    5.1782   -1.7385    0.0000 C   0  0  0  0  0  0  0  0  0
    5.1782   -2.5635    0.0000 C   0  0  0  0  0  0  0  0  0
    4.4638   -2.1510    0.0000 C   0  0  0  0  0  0  0  0  0
    5.5907    0.4049    0.0000 C   0  0  0  0  0  0  0  0  0
    6.4157    0.4049    0.0000 C   0  0  0  0  0  0  0  0  0
    6.8282    1.1194    0.0000 C   0  0  0  0  0  0  0  0  0
    7.6532    1.1194    0.0000 C   0  0  0  0  0  0  0  0  0
    8.0657    1.8339    0.0000 C   0  0  0  0  0  0  0  0  0
    8.8907    1.8339    0.0000 C   0  0  0  0  0  0  0  0  0
    9.3032    1.1194    0.0000 C   0  0  0  0  0  0  0  0  0
    8.8907    0.4049    0.0000 N   0  0  0  0  0  0  0  0  0
    8.0657    0.4049    0.0000 C   0  0  0  0  0  0  0  0  0
    7.6532   -0.3096    0.0000 O   0  0  0  0  0  0  0  0  0
    7.6532    2.5483    0.0000 C   0  0  0  0  0  0  0  0  0
    6.8282    2.5483    0.0000 C   0  0  0  0  0  0  0  0  0
    6.4157    1.8339    0.0000 C   0  0  0  0  0  0  0  0  0
    5.5907    1.8339    0.0000 O   0  0  0  0  0  0  0  0  0
    5.1782    1.1194    0.0000 C   0  0  0  0  0  0  0  0  0
    0.9266   -2.8866    0.0000 C   0  0  0  0  0  0  0  0  0
    0.3135   -2.3346    0.0000 C   0  0  0  0  0  0  0  0  0
  1  2  1  0  0  0  0
  2  3  4  0  0  0  0
  2 33  4  0  0  0  0
  3  4  4  0  0  0  0
  4  5  4  0  0  0  0
  4  8  4  0  0  0  0
  5  6  4  0  0  0  0
  5 32  4  0  0  0  0
  6  7  4  0  0  0  0
  7  8  4  0  0  0  0
  8  9  1  0  0  0  0
  9 10  1  0  0  0  0
 10 11  1  0  0  0  0
 11 12  1  0  0  0  0
 12 13  1  0  0  0  0
 12 17  1  0  0  0  0
 13 14  1  0  0  0  0
 14 15  1  0  0  0  0
 14 16  1  0  0  0  0
 15 16  1  0  0  0  0
 17 18  1  0  0  0  0
 17 31  1  0  0  0  0
 18 19  1  0  0  0  0
 19 20  4  0  0  0  0
 19 29  4  0  0  0  0
 20 21  4  0  0  0  0
 20 25  1  0  0  0  0
 21 22  1  0  0  0  0
 21 27  4  0  0  0  0
 22 23  1  0  0  0  0
 23 24  1  0  0  0  0
 24 25  1  0  0  0  0
 25 26  2  0  0  0  0
 27 28  4  0  0  0  0
 28 29  4  0  0  0  0
 29 30  1  0  0  0  0
 30 31  1  0  0  0  0
 32 33  4  0  0  0  0
M  STY  1   1 DAT
M  SAL   1  1   6
M  SDT   1 MRV_IMPLICIT_H                                        
M  SDD   1     0.0000    0.0000    DR    ALL  0       0  
M  SED   1 IMPL_H1
M  END
>  <Name_Molregno>
595199

>  <5-HT1A>
7.72

$$$$
595200
  Marvin  02231216192D 0   1.00000     0.00000     0

 35 39  0  0  1  0  0  0  0  0999 V2000
   -8.1412   -4.8023    0.0000 F   0  0  0  0  0  0  0  0  0
   -7.4349   -5.2286    0.0000 C   0  0  0  0  0  0  0  0  0
   -6.7125   -4.8299    0.0000 C   0  0  0  0  0  0  0  0  0
   -6.0062   -5.2562    0.0000 C   0  0  0  0  0  0  0  0  0
   -6.0221   -6.0810    0.0000 C   0  0  0  0  0  0  0  0  0
   -5.2426   -6.3511    0.0000 N   0  0  0  0  0  0  0  0  0
   -4.7448   -5.6931    0.0000 C   0  0  0  0  0  0  0  0  0
   -5.2168   -5.0164    0.0000 C   0  0  0  0  0  0  0  0  0
   -4.9467   -4.2369    0.0000 C   0  0  0  0  0  0  0  0  0
   -4.1366   -4.0810    0.0000 C   0  0  0  0  0  0  0  0  0
   -3.8666   -3.3014    0.0000 C   0  0  0  0  0  0  0  0  0
   -3.0564   -3.1455    0.0000 N   0  0  0  0  0  0  0  0  0
   -2.5163   -3.7691    0.0000 C   0  0  0  0  0  0  0  0  0
   -1.7062   -3.6132    0.0000 C   0  0  0  0  0  0  0  0  0
   -1.1661   -4.2369    0.0000 C   0  0  0  0  0  0  0  0  0
   -1.7898   -4.7770    0.0000 F   0  0  0  0  0  0  0  0  0
   -0.5425   -3.6968    0.0000 F   0  0  0  0  0  0  0  0  0
   -0.6260   -4.8605    0.0000 F   0  0  0  0  0  0  0  0  0
   -2.7864   -2.3659    0.0000 C   0  0  0  0  0  0  0  0  0
   -1.9762   -2.2100    0.0000 C   0  0  0  0  0  0  0  0  0
   -1.7062   -1.4305    0.0000 C   0  0  0  0  0  0  0  0  0
   -0.8961   -1.2746    0.0000 C   0  0  0  0  0  0  0  0  0
   -0.6260   -0.4950    0.0000 C   0  0  0  0  0  0  0  0  0
    0.1841   -0.3391    0.0000 C   0  0  0  0  0  0  0  0  0
    0.7242   -0.9628    0.0000 C   0  0  0  0  0  0  0  0  0
    0.4542   -1.7423    0.0000 N   0  0  0  0  0  0  0  0  0
   -0.3560   -1.8982    0.0000 C   0  0  0  0  0  0  0  0  0
   -0.6260   -2.6778    0.0000 O   0  0  0  0  0  0  0  0  0
   -1.1661    0.1286    0.0000 C   0  0  0  0  0  0  0  0  0
   -1.9762   -0.0273    0.0000 C   0  0  0  0  0  0  0  0  0
   -2.2463   -0.8068    0.0000 C   0  0  0  0  0  0  0  0  0
   -3.0564   -0.9628    0.0000 O   0  0  0  0  0  0  0  0  0
   -3.3265   -1.7423    0.0000 C   0  0  0  0  0  0  0  0  0
   -6.7444   -6.4796    0.0000 C   0  0  0  0  0  0  0  0  0
   -7.4508   -6.0534    0.0000 C   0  0  0  0  0  0  0  0  0
  1  2  1  0  0  0  0
  2  3  4  0  0  0  0
  2 35  4  0  0  0  0
  3  4  4  0  0  0  0
  4  5  4  0  0  0  0
  4  8  4  0  0  0  0
  5  6  4  0  0  0  0
  5 34  4  0  0  0  0
  6  7  4  0  0  0  0
  7  8  4  0  0  0  0
  8  9  1  0  0  0  0
  9 10  1  0  0  0  0
 10 11  1  0  0  0  0
 11 12  1  0  0  0  0
 12 13  1  0  0  0  0
 12 19  1  0  0  0  0
 13 14  1  0  0  0  0
 14 15  1  0  0  0  0
 15 16  1  0  0  0  0
 15 17  1  0  0  0  0
 15 18  1  0  0  0  0
 19 20  1  0  0  0  0
 19 33  1  0  0  0  0
 20 21  1  0  0  0  0
 21 22  4  0  0  0  0
 21 31  4  0  0  0  0
 22 23  4  0  0  0  0
 22 27  1  0  0  0  0
 23 24  1  0  0  0  0
 23 29  4  0  0  0  0
 24 25  1  0  0  0  0
 25 26  1  0  0  0  0
 26 27  1  0  0  0  0
 27 28  2  0  0  0  0
 29 30  4  0  0  0  0
 30 31  4  0  0  0  0
 31 32  1  0  0  0  0
 32 33  1  0  0  0  0
 34 35  4  0  0  0  0
M  STY  1   1 DAT
M  SAL   1  1   6
M  SDT   1 MRV_IMPLICIT_H                                        
M  SDD   1     0.0000    0.0000    DR    ALL  0       0  
M  SED   1 IMPL_H1
M  END
>  <Name_Molregno>
595200

>  <5-HT1A>
6.02

$$$$
599921
  Marvin  02231216192D 0   1.00000     0.00000     0

 21 23  0  0  0  0  0  0  0  0999 V2000
    3.5446    2.0785    0.0000 F   0  0  0  0  0  0  0  0  0
    3.5446    1.2535    0.0000 C   0  0  0  0  0  0  0  0  0
    4.2590    0.8410    0.0000 C   0  0  0  0  0  0  0  0  0
    4.2590    0.0160    0.0000 C   0  0  0  0  0  0  0  0  0
    3.5446   -0.3965    0.0000 C   0  0  0  0  0  0  0  0  0
    2.8301    0.0160    0.0000 C   0  0  0  0  0  0  0  0  0
    2.1156   -0.3965    0.0000 O   0  0  0  0  0  0  0  0  0
    2.1156   -1.2215    0.0000 C   0  0  0  0  0  0  0  0  0
    2.8301   -1.6340    0.0000 C   0  0  0  0  0  0  0  0  0
    2.8301   -2.4590    0.0000 C   0  0  0  0  0  0  0  0  0
    2.1156   -2.8715    0.0000 C   0  0  0  0  0  0  0  0  0
    1.4011   -2.4590    0.0000 C   0  0  0  0  0  0  0  0  0
    1.4011   -1.6340    0.0000 C   0  0  0  0  0  0  0  0  0
    0.6867   -1.2215    0.0000 F   0  0  0  0  0  0  0  0  0
    2.8301    0.8410    0.0000 C   0  0  0  0  0  0  0  0  0
    2.1156    1.2535    0.0000 C   0  0  0  0  0  0  0  0  0
    1.4011    0.8410    0.0000 C   0  0  0  0  0  0  0  0  0
    0.6867    1.2535    0.0000 C   0  0  0  0  0  0  0  0  0
    0.6867    2.0785    0.0000 N   0  0  0  0  0  0  0  0  0
    1.4011    2.4910    0.0000 C   0  0  0  0  0  0  0  0  0
    2.1156    2.0785    0.0000 C   0  0  0  0  0  0  0  0  0
  1  2  1  0  0  0  0
  2  3  4  0  0  0  0
  2 15  4  0  0  0  0
  3  4  4  0  0  0  0
  4  5  4  0  0  0  0
  5  6  4  0  0  0  0
  6  7  1  0  0  0  0
  6 15  4  0  0  0  0
  7  8  1  0  0  0  0
  8  9  4  0  0  0  0
  8 13  4  0  0  0  0
  9 10  4  0  0  0  0
 10 11  4  0  0  0  0
 11 12  4  0  0  0  0
 12 13  4  0  0  0  0
 13 14  1  0  0  0  0
 15 16  1  0  0  0  0
 16 17  1  0  0  0  0
 16 21  1  0  0  0  0
 17 18  1  0  0  0  0
 18 19  1  0  0  0  0
 19 20  1  0  0  0  0
 20 21  1  0  0  0  0
M  END
>  <Name_Molregno>
599921

>  <5-HT1A>
8.34

>  <Dopamine transporter>
6.56

>  <Norepinephrine transporter>
7.49

>  <Serotonin transporter>
5.9

$$$$
599922
  Marvin  02231216192D 0   1.00000     0.00000     0

 19 21  0  0  0  0  0  0  0  0999 V2000
   -0.1560    0.1727    0.0000 O   0  0  0  0  0  0  0  0  0
   -0.1560   -0.6523    0.0000 C   0  0  0  0  0  0  0  0  0
    0.5585   -1.0648    0.0000 N   0  0  0  0  0  0  0  0  0
    0.5585   -1.8898    0.0000 C   0  0  0  0  0  0  0  0  0
   -0.1560   -2.3023    0.0000 C   0  0  0  0  0  0  0  0  0
   -0.8704   -1.8898    0.0000 C   0  0  0  0  0  0  0  0  0
   -0.8704   -1.0648    0.0000 C   0  0  0  0  0  0  0  0  0
   -1.5849   -0.6523    0.0000 C   0  0  0  0  0  0  0  0  0
   -2.2994   -1.0648    0.0000 C   0  0  0  0  0  0  0  0  0
   -3.0139   -0.6523    0.0000 C   0  0  0  0  0  0  0  0  0
   -3.0139    0.1727    0.0000 N   0  0  0  0  0  0  0  0  0
   -2.2994    0.5852    0.0000 C   0  0  0  0  0  0  0  0  0
   -1.5849    0.1727    0.0000 C   0  0  0  0  0  0  0  0  0
    0.5585    0.5852    0.0000 C   0  0  0  0  0  0  0  0  0
    0.5585    1.4102    0.0000 C   0  0  0  0  0  0  0  0  0
    1.2730    1.8227    0.0000 C   0  0  0  0  0  0  0  0  0
    1.9874    1.4102    0.0000 C   0  0  0  0  0  0  0  0  0
    1.9874    0.5852    0.0000 C   0  0  0  0  0  0  0  0  0
    1.2730    0.1727    0.0000 C   0  0  0  0  0  0  0  0  0
  1  2  1  0  0  0  0
  1 14  1  0  0  0  0
  2  3  4  0  0  0  0
  2  7  4  0  0  0  0
  3  4  4  0  0  0  0
  4  5  4  0  0  0  0
  5  6  4  0  0  0  0
  6  7  4  0  0  0  0
  7  8  1  0  0  0  0
  8  9  1  0  0  0  0
  8 13  1  0  0  0  0
  9 10  1  0  0  0  0
 10 11  1  0  0  0  0
 11 12  1  0  0  0  0
 12 13  1  0  0  0  0
 14 15  4  0  0  0  0
 14 19  4  0  0  0  0
 15 16  4  0  0  0  0
 16 17  4  0  0  0  0
 17 18  4  0  0  0  0
 18 19  4  0  0  0  0
M  END
>  <Name_Molregno>
599922

>  <5-HT1A>
7

>  <Dopamine transporter>
5.37

>  <Norepinephrine transporter>
5.61

>  <Serotonin transporter>
5.72

$$$$
600000
  Marvin  02231216192D 0   1.00000     0.00000     0

 20 22  0  0  0  0  0  0  0  0999 V2000
    2.9065   -0.7508    0.0000 F   0  0  0  0  0  0  0  0  0
    2.9065   -1.5758    0.0000 C   0  0  0  0  0  0  0  0  0
    3.6209   -1.9883    0.0000 C   0  0  0  0  0  0  0  0  0
    3.6209   -2.8133    0.0000 C   0  0  0  0  0  0  0  0  0
    2.9065   -3.2258    0.0000 C   0  0  0  0  0  0  0  0  0
    2.1920   -2.8133    0.0000 C   0  0  0  0  0  0  0  0  0
    2.1920   -1.9883    0.0000 C   0  0  0  0  0  0  0  0  0
    1.4775   -1.5758    0.0000 O   0  0  0  0  0  0  0  0  0
    0.7631   -1.9883    0.0000 C   0  0  0  0  0  0  0  0  0
    0.7631   -2.8133    0.0000 N   0  0  0  0  0  0  0  0  0
    0.0486   -3.2258    0.0000 C   0  0  0  0  0  0  0  0  0
   -0.6659   -2.8133    0.0000 C   0  0  0  0  0  0  0  0  0
   -0.6659   -1.9883    0.0000 C   0  0  0  0  0  0  0  0  0
    0.0486   -1.5758    0.0000 C   0  0  0  0  0  0  0  0  0
    0.0486   -0.7508    0.0000 C   0  0  0  0  0  0  0  0  0
   -0.6659   -0.3383    0.0000 C   0  0  0  0  0  0  0  0  0
   -0.6659    0.4867    0.0000 C   0  0  0  0  0  0  0  0  0
    0.0486    0.8992    0.0000 N   0  0  0  0  0  0  0  0  0
    0.7631    0.4867    0.0000 C   0  0  0  0  0  0  0  0  0
    0.7631   -0.3383    0.0000 C   0  0  0  0  0  0  0  0  0
  1  2  1  0  0  0  0
  2  3  4  0  0  0  0
  2  7  4  0  0  0  0
  3  4  4  0  0  0  0
  4  5  4  0  0  0  0
  5  6  4  0  0  0  0
  6  7  4  0  0  0  0
  7  8  1  0  0  0  0
  8  9  1  0  0  0  0
  9 10  4  0  0  0  0
  9 14  4  0  0  0  0
 10 11  4  0  0  0  0
 11 12  4  0  0  0  0
 12 13  4  0  0  0  0
 13 14  4  0  0  0  0
 14 15  1  0  0  0  0
 15 16  1  0  0  0  0
 15 20  1  0  0  0  0
 16 17  1  0  0  0  0
 17 18  1  0  0  0  0
 18 19  1  0  0  0  0
 19 20  1  0  0  0  0
M  END
>  <Name_Molregno>
600000

>  <5-HT1A>
7.89

>  <Dopamine transporter>
5.21

>  <Norepinephrine transporter>
6.27

>  <Serotonin transporter>
6.14

$$$$
600001
  Marvin  02231216192D 0   1.00000     0.00000     0

 20 22  0  0  0  0  0  0  0  0999 V2000
    2.9065   -0.7508    0.0000 Cl  0  0  0  0  0  0  0  0  0
    2.9065   -1.5758    0.0000 C   0  0  0  0  0  0  0  0  0
    3.6209   -1.9883    0.0000 C   0  0  0  0  0  0  0  0  0
    3.6209   -2.8133    0.0000 C   0  0  0  0  0  0  0  0  0
    2.9065   -3.2258    0.0000 C   0  0  0  0  0  0  0  0  0
    2.1920   -2.8133    0.0000 C   0  0  0  0  0  0  0  0  0
    2.1920   -1.9883    0.0000 C   0  0  0  0  0  0  0  0  0
    1.4775   -1.5758    0.0000 O   0  0  0  0  0  0  0  0  0
    0.7631   -1.9883    0.0000 C   0  0  0  0  0  0  0  0  0
    0.7631   -2.8133    0.0000 N   0  0  0  0  0  0  0  0  0
    0.0486   -3.2258    0.0000 C   0  0  0  0  0  0  0  0  0
   -0.6659   -2.8133    0.0000 C   0  0  0  0  0  0  0  0  0
   -0.6659   -1.9883    0.0000 C   0  0  0  0  0  0  0  0  0
    0.0486   -1.5758    0.0000 C   0  0  0  0  0  0  0  0  0
    0.0486   -0.7508    0.0000 C   0  0  0  0  0  0  0  0  0
   -0.6659   -0.3383    0.0000 C   0  0  0  0  0  0  0  0  0
   -0.6659    0.4867    0.0000 C   0  0  0  0  0  0  0  0  0
    0.0486    0.8992    0.0000 N   0  0  0  0  0  0  0  0  0
    0.7631    0.4867    0.0000 C   0  0  0  0  0  0  0  0  0
    0.7631   -0.3383    0.0000 C   0  0  0  0  0  0  0  0  0
  1  2  1  0  0  0  0
  2  3  4  0  0  0  0
  2  7  4  0  0  0  0
  3  4  4  0  0  0  0
  4  5  4  0  0  0  0
  5  6  4  0  0  0  0
  6  7  4  0  0  0  0
  7  8  1  0  0  0  0
  8  9  1  0  0  0  0
  9 10  4  0  0  0  0
  9 14  4  0  0  0  0
 10 11  4  0  0  0  0
 11 12  4  0  0  0  0
 12 13  4  0  0  0  0
 13 14  4  0  0  0  0
 14 15  1  0  0  0  0
 15 16  1  0  0  0  0
 15 20  1  0  0  0  0
 16 17  1  0  0  0  0
 17 18  1  0  0  0  0
 18 19  1  0  0  0  0
 19 20  1  0  0  0  0
M  END
>  <Name_Molregno>
600001

>  <5-HT1A>
7.8

>  <Dopamine transporter>
5.29

>  <Norepinephrine transporter>
7.13

>  <Serotonin transporter>
7.24

$$$$
600002
  Marvin  02231216192D 0   1.00000     0.00000     0

 21 23  0  0  0  0  0  0  0  0999 V2000
    0.1253   -0.2872    0.0000 O   0  0  0  0  0  0  0  0  0
    0.1253   -1.1122    0.0000 C   0  0  0  0  0  0  0  0  0
    0.8398   -1.5247    0.0000 C   0  0  0  0  0  0  0  0  0
    0.8398   -2.3497    0.0000 C   0  0  0  0  0  0  0  0  0
    0.1253   -2.7622    0.0000 C   0  0  0  0  0  0  0  0  0
   -0.5891   -2.3497    0.0000 C   0  0  0  0  0  0  0  0  0
   -0.5891   -1.5247    0.0000 C   0  0  0  0  0  0  0  0  0
   -1.3036   -1.1122    0.0000 O   0  0  0  0  0  0  0  0  0
   -2.0181   -1.5247    0.0000 C   0  0  0  0  0  0  0  0  0
   -0.5891    0.1253    0.0000 C   0  0  0  0  0  0  0  0  0
   -1.3036   -0.2872    0.0000 N   0  0  0  0  0  0  0  0  0
   -2.0181    0.1253    0.0000 C   0  0  0  0  0  0  0  0  0
   -2.0181    0.9503    0.0000 C   0  0  0  0  0  0  0  0  0
   -1.3036    1.3628    0.0000 C   0  0  0  0  0  0  0  0  0
   -0.5891    0.9503    0.0000 C   0  0  0  0  0  0  0  0  0
    0.1253    1.3628    0.0000 C   0  0  0  0  0  0  0  0  0
    0.1253    2.1878    0.0000 C   0  0  0  0  0  0  0  0  0
    0.8398    2.6003    0.0000 C   0  0  0  0  0  0  0  0  0
    1.5543    2.1878    0.0000 N   0  0  0  0  0  0  0  0  0
    1.5543    1.3628    0.0000 C   0  0  0  0  0  0  0  0  0
    0.8398    0.9503    0.0000 C   0  0  0  0  0  0  0  0  0
  1  2  1  0  0  0  0
  1 10  1  0  0  0  0
  2  3  4  0  0  0  0
  2  7  4  0  0  0  0
  3  4  4  0  0  0  0
  4  5  4  0  0  0  0
  5  6  4  0  0  0  0
  6  7  4  0  0  0  0
  7  8  1  0  0  0  0
  8  9  1  0  0  0  0
 10 11  4  0  0  0  0
 10 15  4  0  0  0  0
 11 12  4  0  0  0  0
 12 13  4  0  0  0  0
 13 14  4  0  0  0  0
 14 15  4  0  0  0  0
 15 16  1  0  0  0  0
 16 17  1  0  0  0  0
 16 21  1  0  0  0  0
 17 18  1  0  0  0  0
 18 19  1  0  0  0  0
 19 20  1  0  0  0  0
 20 21  1  0  0  0  0
M  END
>  <Name_Molregno>
600002

>  <5-HT1A>
7.04

>  <Dopamine transporter>
5.19

>  <Norepinephrine transporter>
6.53

>  <Serotonin transporter>
6.21

$$$$
600003
  Marvin  02231216192D 0   1.00000     0.00000     0

 20 22  0  0  0  0  0  0  0  0999 V2000
   -0.0352   -0.4701    0.0000 O   0  0  0  0  0  0  0  0  0
   -0.0352   -1.2951    0.0000 C   0  0  0  0  0  0  0  0  0
    0.6793   -1.7076    0.0000 C   0  0  0  0  0  0  0  0  0
    0.6793   -2.5326    0.0000 C   0  0  0  0  0  0  0  0  0
   -0.0352   -2.9451    0.0000 C   0  0  0  0  0  0  0  0  0
   -0.7497   -2.5326    0.0000 C   0  0  0  0  0  0  0  0  0
   -0.7497   -1.7076    0.0000 C   0  0  0  0  0  0  0  0  0
   -1.4642   -1.2951    0.0000 C   0  0  0  0  0  0  0  0  0
   -0.7497   -0.0576    0.0000 C   0  0  0  0  0  0  0  0  0
   -1.4642   -0.4701    0.0000 N   0  0  0  0  0  0  0  0  0
   -2.1786   -0.0576    0.0000 C   0  0  0  0  0  0  0  0  0
   -2.1786    0.7674    0.0000 C   0  0  0  0  0  0  0  0  0
   -1.4642    1.1799    0.0000 C   0  0  0  0  0  0  0  0  0
   -0.7497    0.7674    0.0000 C   0  0  0  0  0  0  0  0  0
   -0.0352    1.1799    0.0000 C   0  0  0  0  0  0  0  0  0
   -0.0352    2.0049    0.0000 C   0  0  0  0  0  0  0  0  0
    0.6793    2.4174    0.0000 C   0  0  0  0  0  0  0  0  0
    1.3937    2.0049    0.0000 N   0  0  0  0  0  0  0  0  0
    1.3937    1.1799    0.0000 C   0  0  0  0  0  0  0  0  0
    0.6793    0.7674    0.0000 C   0  0  0  0  0  0  0  0  0
  1  2  1  0  0  0  0
  1  9  1  0  0  0  0
  2  3  4  0  0  0  0
  2  7  4  0  0  0  0
  3  4  4  0  0  0  0
  4  5  4  0  0  0  0
  5  6  4  0  0  0  0
  6  7  4  0  0  0  0
  7  8  1  0  0  0  0
  9 10  4  0  0  0  0
  9 14  4  0  0  0  0
 10 11  4  0  0  0  0
 11 12  4  0  0  0  0
 12 13  4  0  0  0  0
 13 14  4  0  0  0  0
 14 15  1  0  0  0  0
 15 16  1  0  0  0  0
 15 20  1  0  0  0  0
 16 17  1  0  0  0  0
 17 18  1  0  0  0  0
 18 19  1  0  0  0  0
 19 20  1  0  0  0  0
M  END
>  <Name_Molregno>
600003

>  <5-HT1A>
7.22

>  <Dopamine transporter>
5.21

>  <Norepinephrine transporter>
6.48

>  <Serotonin transporter>
6.53

$$$$
600004
  Marvin  02231216192D 0   1.00000     0.00000     0

 23 25  0  0  0  0  0  0  0  0999 V2000
    0.8420    2.0974    0.0000 F   0  0  0  0  0  0  0  0  0
    0.8420    1.2724    0.0000 C   0  0  0  0  0  0  0  0  0
    0.0170    1.2724    0.0000 F   0  0  0  0  0  0  0  0  0
    1.6670    1.2724    0.0000 F   0  0  0  0  0  0  0  0  0
    0.8420    0.4474    0.0000 C   0  0  0  0  0  0  0  0  0
    1.5565    0.0349    0.0000 C   0  0  0  0  0  0  0  0  0
    1.5565   -0.7901    0.0000 C   0  0  0  0  0  0  0  0  0
    0.8420   -1.2026    0.0000 C   0  0  0  0  0  0  0  0  0
    0.1275   -0.7901    0.0000 C   0  0  0  0  0  0  0  0  0
    0.1275    0.0349    0.0000 C   0  0  0  0  0  0  0  0  0
   -0.5869    0.4474    0.0000 O   0  0  0  0  0  0  0  0  0
   -1.3014    0.0349    0.0000 C   0  0  0  0  0  0  0  0  0
   -1.3014   -0.7901    0.0000 N   0  0  0  0  0  0  0  0  0
   -2.0159   -1.2026    0.0000 C   0  0  0  0  0  0  0  0  0
   -2.7304   -0.7901    0.0000 C   0  0  0  0  0  0  0  0  0
   -2.7304    0.0349    0.0000 C   0  0  0  0  0  0  0  0  0
   -2.0159    0.4474    0.0000 C   0  0  0  0  0  0  0  0  0
   -2.0159    1.2724    0.0000 C   0  0  0  0  0  0  0  0  0
   -2.7304    1.6849    0.0000 C   0  0  0  0  0  0  0  0  0
   -2.7304    2.5099    0.0000 C   0  0  0  0  0  0  0  0  0
   -2.0159    2.9224    0.0000 N   0  0  0  0  0  0  0  0  0
   -1.3014    2.5099    0.0000 C   0  0  0  0  0  0  0  0  0
   -1.3014    1.6849    0.0000 C   0  0  0  0  0  0  0  0  0
  1  2  1  0  0  0  0
  2  3  1  0  0  0  0
  2  4  1  0  0  0  0
  2  5  1  0  0  0  0
  5  6  4  0  0  0  0
  5 10  4  0  0  0  0
  6  7  4  0  0  0  0
  7  8  4  0  0  0  0
  8  9  4  0  0  0  0
  9 10  4  0  0  0  0
 10 11  1  0  0  0  0
 11 12  1  0  0  0  0
 12 13  4  0  0  0  0
 12 17  4  0  0  0  0
 13 14  4  0  0  0  0
 14 15  4  0  0  0  0
 15 16  4  0  0  0  0
 16 17  4  0  0  0  0
 17 18  1  0  0  0  0
 18 19  1  0  0  0  0
 18 23  1  0  0  0  0
 19 20  1  0  0  0  0
 20 21  1  0  0  0  0
 21 22  1  0  0  0  0
 22 23  1  0  0  0  0
M  END
>  <Name_Molregno>
600004

>  <5-HT1A>
7.15

>  <Dopamine transporter>
5.18

>  <Norepinephrine transporter>
6.85

>  <Serotonin transporter>
6.69

$$$$
600005
  Marvin  02231216192D 0   1.00000     0.00000     0

 21 23  0  0  0  0  0  0  0  0999 V2000
   -0.4432   -1.0321    0.0000 Cl  0  0  0  0  0  0  0  0  0
   -0.4432   -1.8571    0.0000 C   0  0  0  0  0  0  0  0  0
    0.2713   -2.2696    0.0000 C   0  0  0  0  0  0  0  0  0
    0.9858   -1.8571    0.0000 O   0  0  0  0  0  0  0  0  0
    0.9858   -1.0321    0.0000 C   0  0  0  0  0  0  0  0  0
    0.2713   -0.6196    0.0000 N   0  0  0  0  0  0  0  0  0
    0.2713    0.2054    0.0000 C   0  0  0  0  0  0  0  0  0
    0.9858    0.6179    0.0000 C   0  0  0  0  0  0  0  0  0
    1.7002    0.2054    0.0000 C   0  0  0  0  0  0  0  0  0
    1.7002   -0.6196    0.0000 C   0  0  0  0  0  0  0  0  0
    2.4147   -1.0321    0.0000 C   0  0  0  0  0  0  0  0  0
    3.1292   -0.6196    0.0000 C   0  0  0  0  0  0  0  0  0
    3.8436   -1.0321    0.0000 C   0  0  0  0  0  0  0  0  0
    3.8436   -1.8571    0.0000 N   0  0  0  0  0  0  0  0  0
    3.1292   -2.2696    0.0000 C   0  0  0  0  0  0  0  0  0
    2.4147   -1.8571    0.0000 C   0  0  0  0  0  0  0  0  0
    0.2713   -3.0946    0.0000 C   0  0  0  0  0  0  0  0  0
   -0.4432   -3.5071    0.0000 C   0  0  0  0  0  0  0  0  0
   -1.1576   -3.0946    0.0000 C   0  0  0  0  0  0  0  0  0
   -1.1576   -2.2696    0.0000 C   0  0  0  0  0  0  0  0  0
   -1.8721   -1.8571    0.0000 Cl  0  0  0  0  0  0  0  0  0
  1  2  1  0  0  0  0
  2  3  4  0  0  0  0
  2 20  4  0  0  0  0
  3  4  1  0  0  0  0
  3 17  4  0  0  0  0
  4  5  1  0  0  0  0
  5  6  4  0  0  0  0
  5 10  4  0  0  0  0
  6  7  4  0  0  0  0
  7  8  4  0  0  0  0
  8  9  4  0  0  0  0
  9 10  4  0  0  0  0
 10 11  1  0  0  0  0
 11 12  1  0  0  0  0
 11 16  1  0  0  0  0
 12 13  1  0  0  0  0
 13 14  1  0  0  0  0
 14 15  1  0  0  0  0
 15 16  1  0  0  0  0
 17 18  4  0  0  0  0
 18 19  4  0  0  0  0
 19 20  4  0  0  0  0
 20 21  1  0  0  0  0
M  END
>  <Name_Molregno>
600005

>  <5-HT1A>
7.43

>  <Dopamine transporter>
6.51

>  <Norepinephrine transporter>
7.6

>  <Serotonin transporter>
8.7

$$$$
600067
  Marvin  02231216192D 0   1.00000     0.00000     0

 21 23  0  0  0  0  0  0  0  0999 V2000
   -0.4432   -1.0321    0.0000 F   0  0  0  0  0  0  0  0  0
   -0.4432   -1.8571    0.0000 C   0  0  0  0  0  0  0  0  0
    0.2713   -2.2696    0.0000 C   0  0  0  0  0  0  0  0  0
    0.9858   -1.8571    0.0000 O   0  0  0  0  0  0  0  0  0
    0.9858   -1.0321    0.0000 C   0  0  0  0  0  0  0  0  0
    0.2713   -0.6196    0.0000 N   0  0  0  0  0  0  0  0  0
    0.2713    0.2054    0.0000 C   0  0  0  0  0  0  0  0  0
    0.9858    0.6179    0.0000 C   0  0  0  0  0  0  0  0  0
    1.7002    0.2054    0.0000 C   0  0  0  0  0  0  0  0  0
    1.7002   -0.6196    0.0000 C   0  0  0  0  0  0  0  0  0
    2.4147   -1.0321    0.0000 C   0  0  0  0  0  0  0  0  0
    3.1292   -0.6196    0.0000 C   0  0  0  0  0  0  0  0  0
    3.8436   -1.0321    0.0000 C   0  0  0  0  0  0  0  0  0
    3.8436   -1.8571    0.0000 N   0  0  0  0  0  0  0  0  0
    3.1292   -2.2696    0.0000 C   0  0  0  0  0  0  0  0  0
    2.4147   -1.8571    0.0000 C   0  0  0  0  0  0  0  0  0
    0.2713   -3.0946    0.0000 C   0  0  0  0  0  0  0  0  0
   -0.4432   -3.5071    0.0000 C   0  0  0  0  0  0  0  0  0
   -1.1576   -3.0946    0.0000 C   0  0  0  0  0  0  0  0  0
   -1.1576   -2.2696    0.0000 C   0  0  0  0  0  0  0  0  0
   -1.8721   -1.8571    0.0000 F   0  0  0  0  0  0  0  0  0
  1  2  1  0  0  0  0
  2  3  4  0  0  0  0
  2 20  4  0  0  0  0
  3  4  1  0  0  0  0
  3 17  4  0  0  0  0
  4  5  1  0  0  0  0
  5  6  4  0  0  0  0
  5 10  4  0  0  0  0
  6  7  4  0  0  0  0
  7  8  4  0  0  0  0
  8  9  4  0  0  0  0
  9 10  4  0  0  0  0
 10 11  1  0  0  0  0
 11 12  1  0  0  0  0
 11 16  1  0  0  0  0
 12 13  1  0  0  0  0
 13 14  1  0  0  0  0
 14 15  1  0  0  0  0
 15 16  1  0  0  0  0
 17 18  4  0  0  0  0
 18 19  4  0  0  0  0
 19 20  4  0  0  0  0
 20 21  1  0  0  0  0
M  END
>  <Name_Molregno>
600067

>  <5-HT1A>
6.76

>  <Dopamine transporter>
5.18

>  <Norepinephrine transporter>
5.74

>  <Serotonin transporter>
6.96

$$$$
600068
  Marvin  02231216192D 0   1.00000     0.00000     0

 21 23  0  0  0  0  0  0  0  0999 V2000
    2.5768   -0.6682    0.0000 F   0  0  0  0  0  0  0  0  0
    2.5768   -1.4932    0.0000 C   0  0  0  0  0  0  0  0  0
    3.2913   -1.9057    0.0000 C   0  0  0  0  0  0  0  0  0
    3.2913   -2.7307    0.0000 C   0  0  0  0  0  0  0  0  0
    2.5768   -3.1432    0.0000 C   0  0  0  0  0  0  0  0  0
    1.8623   -2.7307    0.0000 C   0  0  0  0  0  0  0  0  0
    1.8623   -1.9057    0.0000 C   0  0  0  0  0  0  0  0  0
    1.1479   -1.4932    0.0000 O   0  0  0  0  0  0  0  0  0
    0.4334   -1.9057    0.0000 C   0  0  0  0  0  0  0  0  0
    0.4334   -2.7307    0.0000 N   0  0  0  0  0  0  0  0  0
   -0.2811   -3.1432    0.0000 C   0  0  0  0  0  0  0  0  0
   -0.9956   -2.7307    0.0000 C   0  0  0  0  0  0  0  0  0
   -0.9956   -1.9057    0.0000 C   0  0  0  0  0  0  0  0  0
   -0.2811   -1.4932    0.0000 C   0  0  0  0  0  0  0  0  0
   -0.2811   -0.6682    0.0000 C   0  0  0  0  0  0  0  0  0
   -0.9956   -0.2557    0.0000 C   0  0  0  0  0  0  0  0  0
   -0.9956    0.5693    0.0000 C   0  0  0  0  0  0  0  0  0
   -0.2811    0.9818    0.0000 N   0  0  0  0  0  0  0  0  0
    0.4334    0.5693    0.0000 C   0  0  0  0  0  0  0  0  0
    0.4334   -0.2557    0.0000 C   0  0  0  0  0  0  0  0  0
    4.0057   -3.1432    0.0000 C   0  0  0  0  0  0  0  0  0
  1  2  1  0  0  0  0
  2  3  4  0  0  0  0
  2  7  4  0  0  0  0
  3  4  4  0  0  0  0
  4  5  4  0  0  0  0
  4 21  1  0  0  0  0
  5  6  4  0  0  0  0
  6  7  4  0  0  0  0
  7  8  1  0  0  0  0
  8  9  1  0  0  0  0
  9 10  4  0  0  0  0
  9 14  4  0  0  0  0
 10 11  4  0  0  0  0
 11 12  4  0  0  0  0
 12 13  4  0  0  0  0
 13 14  4  0  0  0  0
 14 15  1  0  0  0  0
 15 16  1  0  0  0  0
 15 20  1  0  0  0  0
 16 17  1  0  0  0  0
 17 18  1  0  0  0  0
 18 19  1  0  0  0  0
 19 20  1  0  0  0  0
M  END
>  <Name_Molregno>
600068

>  <5-HT1A>
8.26

>  <Dopamine transporter>
5.21

>  <Norepinephrine transporter>
6.04

>  <Serotonin transporter>
7.44

$$$$
600069
  Marvin  02231216192D 0   1.00000     0.00000     0

 21 23  0  0  0  0  0  0  0  0999 V2000
    2.5768   -0.6682    0.0000 Cl  0  0  0  0  0  0  0  0  0
    2.5768   -1.4932    0.0000 C   0  0  0  0  0  0  0  0  0
    3.2913   -1.9057    0.0000 C   0  0  0  0  0  0  0  0  0
    3.2913   -2.7307    0.0000 C   0  0  0  0  0  0  0  0  0
    4.0057   -3.1432    0.0000 Cl  0  0  0  0  0  0  0  0  0
    2.5768   -3.1432    0.0000 C   0  0  0  0  0  0  0  0  0
    1.8623   -2.7307    0.0000 C   0  0  0  0  0  0  0  0  0
    1.8623   -1.9057    0.0000 C   0  0  0  0  0  0  0  0  0
    1.1479   -1.4932    0.0000 O   0  0  0  0  0  0  0  0  0
    0.4334   -1.9057    0.0000 C   0  0  0  0  0  0  0  0  0
    0.4334   -2.7307    0.0000 N   0  0  0  0  0  0  0  0  0
   -0.2811   -3.1432    0.0000 C   0  0  0  0  0  0  0  0  0
   -0.9956   -2.7307    0.0000 C   0  0  0  0  0  0  0  0  0
   -0.9956   -1.9057    0.0000 C   0  0  0  0  0  0  0  0  0
   -0.2811   -1.4932    0.0000 C   0  0  0  0  0  0  0  0  0
   -0.2811   -0.6682    0.0000 C   0  0  0  0  0  0  0  0  0
   -0.9956   -0.2557    0.0000 C   0  0  0  0  0  0  0  0  0
   -0.9956    0.5693    0.0000 C   0  0  0  0  0  0  0  0  0
   -0.2811    0.9818    0.0000 N   0  0  0  0  0  0  0  0  0
    0.4334    0.5693    0.0000 C   0  0  0  0  0  0  0  0  0
    0.4334   -0.2557    0.0000 C   0  0  0  0  0  0  0  0  0
  1  2  1  0  0  0  0
  2  3  4  0  0  0  0
  2  8  4  0  0  0  0
  3  4  4  0  0  0  0
  4  5  1  0  0  0  0
  4  6  4  0  0  0  0
  6  7  4  0  0  0  0
  7  8  4  0  0  0  0
  8  9  1  0  0  0  0
  9 10  1  0  0  0  0
 10 11  4  0  0  0  0
 10 15  4  0  0  0  0
 11 12  4  0  0  0  0
 12 13  4  0  0  0  0
 13 14  4  0  0  0  0
 14 15  4  0  0  0  0
 15 16  1  0  0  0  0
 16 17  1  0  0  0  0
 16 21  1  0  0  0  0
 17 18  1  0  0  0  0
 18 19  1  0  0  0  0
 19 20  1  0  0  0  0
 20 21  1  0  0  0  0
M  END
>  <Name_Molregno>
600069

>  <5-HT1A>
7.43

>  <Dopamine transporter>
5.26

>  <Norepinephrine transporter>
6.38

>  <Serotonin transporter>
8.57

$$$$
600070
  Marvin  02231216192D 0   1.00000     0.00000     0

 21 23  0  0  0  0  0  0  0  0999 V2000
    2.5768   -0.6682    0.0000 F   0  0  0  0  0  0  0  0  0
    2.5768   -1.4932    0.0000 C   0  0  0  0  0  0  0  0  0
    3.2913   -1.9057    0.0000 C   0  0  0  0  0  0  0  0  0
    3.2913   -2.7307    0.0000 C   0  0  0  0  0  0  0  0  0
    4.0057   -3.1432    0.0000 F   0  0  0  0  0  0  0  0  0
    2.5768   -3.1432    0.0000 C   0  0  0  0  0  0  0  0  0
    1.8623   -2.7307    0.0000 C   0  0  0  0  0  0  0  0  0
    1.8623   -1.9057    0.0000 C   0  0  0  0  0  0  0  0  0
    1.1479   -1.4932    0.0000 O   0  0  0  0  0  0  0  0  0
    0.4334   -1.9057    0.0000 C   0  0  0  0  0  0  0  0  0
    0.4334   -2.7307    0.0000 N   0  0  0  0  0  0  0  0  0
   -0.2811   -3.1432    0.0000 C   0  0  0  0  0  0  0  0  0
   -0.9956   -2.7307    0.0000 C   0  0  0  0  0  0  0  0  0
   -0.9956   -1.9057    0.0000 C   0  0  0  0  0  0  0  0  0
   -0.2811   -1.4932    0.0000 C   0  0  0  0  0  0  0  0  0
   -0.2811   -0.6682    0.0000 C   0  0  0  0  0  0  0  0  0
   -0.9956   -0.2557    0.0000 C   0  0  0  0  0  0  0  0  0
   -0.9956    0.5693    0.0000 C   0  0  0  0  0  0  0  0  0
   -0.2811    0.9818    0.0000 N   0  0  0  0  0  0  0  0  0
    0.4334    0.5693    0.0000 C   0  0  0  0  0  0  0  0  0
    0.4334   -0.2557    0.0000 C   0  0  0  0  0  0  0  0  0
  1  2  1  0  0  0  0
  2  3  4  0  0  0  0
  2  8  4  0  0  0  0
  3  4  4  0  0  0  0
  4  5  1  0  0  0  0
  4  6  4  0  0  0  0
  6  7  4  0  0  0  0
  7  8  4  0  0  0  0
  8  9  1  0  0  0  0
  9 10  1  0  0  0  0
 10 11  4  0  0  0  0
 10 15  4  0  0  0  0
 11 12  4  0  0  0  0
 12 13  4  0  0  0  0
 13 14  4  0  0  0  0
 14 15  4  0  0  0  0
 15 16  1  0  0  0  0
 16 17  1  0  0  0  0
 16 21  1  0  0  0  0
 17 18  1  0  0  0  0
 18 19  1  0  0  0  0
 19 20  1  0  0  0  0
 20 21  1  0  0  0  0
M  END
>  <Name_Molregno>
600070

>  <5-HT1A>
7.54

>  <Dopamine transporter>
5.59

>  <Norepinephrine transporter>
6.84

>  <Serotonin transporter>
7.52

$$$$
600071
  Marvin  02231216192D 0   1.00000     0.00000     0

 21 23  0  0  0  0  0  0  0  0999 V2000
    2.6883   -0.6918    0.0000 Cl  0  0  0  0  0  0  0  0  0
    2.6883   -1.5168    0.0000 C   0  0  0  0  0  0  0  0  0
    3.4027   -1.9293    0.0000 C   0  0  0  0  0  0  0  0  0
    3.4027   -2.7543    0.0000 C   0  0  0  0  0  0  0  0  0
    2.6883   -3.1668    0.0000 C   0  0  0  0  0  0  0  0  0
    2.6883   -3.9918    0.0000 F   0  0  0  0  0  0  0  0  0
    1.9738   -2.7543    0.0000 C   0  0  0  0  0  0  0  0  0
    1.9738   -1.9293    0.0000 C   0  0  0  0  0  0  0  0  0
    1.2593   -1.5168    0.0000 O   0  0  0  0  0  0  0  0  0
    0.5449   -1.9293    0.0000 C   0  0  0  0  0  0  0  0  0
    0.5449   -2.7543    0.0000 N   0  0  0  0  0  0  0  0  0
   -0.1696   -3.1668    0.0000 C   0  0  0  0  0  0  0  0  0
   -0.8841   -2.7543    0.0000 C   0  0  0  0  0  0  0  0  0
   -0.8841   -1.9293    0.0000 C   0  0  0  0  0  0  0  0  0
   -0.1696   -1.5168    0.0000 C   0  0  0  0  0  0  0  0  0
   -0.1696   -0.6918    0.0000 C   0  0  0  0  0  0  0  0  0
   -0.8841   -0.2793    0.0000 C   0  0  0  0  0  0  0  0  0
   -0.8841    0.5457    0.0000 C   0  0  0  0  0  0  0  0  0
   -0.1696    0.9582    0.0000 N   0  0  0  0  0  0  0  0  0
    0.5449    0.5457    0.0000 C   0  0  0  0  0  0  0  0  0
    0.5449   -0.2793    0.0000 C   0  0  0  0  0  0  0  0  0
  1  2  1  0  0  0  0
  2  3  4  0  0  0  0
  2  8  4  0  0  0  0
  3  4  4  0  0  0  0
  4  5  4  0  0  0  0
  5  6  1  0  0  0  0
  5  7  4  0  0  0  0
  7  8  4  0  0  0  0
  8  9  1  0  0  0  0
  9 10  1  0  0  0  0
 10 11  4  0  0  0  0
 10 15  4  0  0  0  0
 11 12  4  0  0  0  0
 12 13  4  0  0  0  0
 13 14  4  0  0  0  0
 14 15  4  0  0  0  0
 15 16  1  0  0  0  0
 16 17  1  0  0  0  0
 16 21  1  0  0  0  0
 17 18  1  0  0  0  0
 18 19  1  0  0  0  0
 19 20  1  0  0  0  0
 20 21  1  0  0  0  0
M  END
>  <Name_Molregno>
600071

>  <5-HT1A>
7.77

>  <Dopamine transporter>
5.21

>  <Norepinephrine transporter>
6.61

>  <Serotonin transporter>
6.6

$$$$
600072
  Marvin  02231216192D 0   1.00000     0.00000     0

 22 24  0  0  0  0  0  0  0  0999 V2000
    1.5338   -0.6506    0.0000 F   0  0  0  0  0  0  0  0  0
    1.5338   -1.4756    0.0000 C   0  0  0  0  0  0  0  0  0
    2.2482   -1.8881    0.0000 C   0  0  0  0  0  0  0  0  0
    2.2482   -2.7131    0.0000 C   0  0  0  0  0  0  0  0  0
    1.5338   -3.1256    0.0000 C   0  0  0  0  0  0  0  0  0
    0.8193   -2.7131    0.0000 C   0  0  0  0  0  0  0  0  0
    0.1048   -3.1256    0.0000 O   0  0  0  0  0  0  0  0  0
    0.1048   -3.9506    0.0000 C   0  0  0  0  0  0  0  0  0
    0.8193   -1.8881    0.0000 C   0  0  0  0  0  0  0  0  0
    0.1048   -1.4756    0.0000 O   0  0  0  0  0  0  0  0  0
   -0.6096   -1.8881    0.0000 C   0  0  0  0  0  0  0  0  0
   -0.6096   -2.7131    0.0000 N   0  0  0  0  0  0  0  0  0
   -1.3241   -3.1256    0.0000 C   0  0  0  0  0  0  0  0  0
   -2.0386   -2.7131    0.0000 C   0  0  0  0  0  0  0  0  0
   -2.0386   -1.8881    0.0000 C   0  0  0  0  0  0  0  0  0
   -1.3241   -1.4756    0.0000 C   0  0  0  0  0  0  0  0  0
   -1.3241   -0.6506    0.0000 C   0  0  0  0  0  0  0  0  0
   -2.0386   -0.2381    0.0000 C   0  0  0  0  0  0  0  0  0
   -2.0386    0.5869    0.0000 C   0  0  0  0  0  0  0  0  0
   -1.3241    0.9994    0.0000 N   0  0  0  0  0  0  0  0  0
   -0.6096    0.5869    0.0000 C   0  0  0  0  0  0  0  0  0
   -0.6096   -0.2381    0.0000 C   0  0  0  0  0  0  0  0  0
  1  2  1  0  0  0  0
  2  3  4  0  0  0  0
  2  9  4  0  0  0  0
  3  4  4  0  0  0  0
  4  5  4  0  0  0  0
  5  6  4  0  0  0  0
  6  7  1  0  0  0  0
  6  9  4  0  0  0  0
  7  8  1  0  0  0  0
  9 10  1  0  0  0  0
 10 11  1  0  0  0  0
 11 12  4  0  0  0  0
 11 16  4  0  0  0  0
 12 13  4  0  0  0  0
 13 14  4  0  0  0  0
 14 15  4  0  0  0  0
 15 16  4  0  0  0  0
 16 17  1  0  0  0  0
 17 18  1  0  0  0  0
 17 22  1  0  0  0  0
 18 19  1  0  0  0  0
 19 20  1  0  0  0  0
 20 21  1  0  0  0  0
 21 22  1  0  0  0  0
M  END
>  <Name_Molregno>
600072

>  <5-HT1A>
7.62

>  <Dopamine transporter>
5.19

>  <Norepinephrine transporter>
6.56

>  <Serotonin transporter>
6.05

$$$$
600153
  Marvin  02231216192D 0   1.00000     0.00000     0

 21 23  0  0  0  0  0  0  0  0999 V2000
    2.8374   -0.7286    0.0000 Cl  0  0  0  0  0  0  0  0  0
    2.8374   -1.5536    0.0000 C   0  0  0  0  0  0  0  0  0
    3.5519   -1.9661    0.0000 C   0  0  0  0  0  0  0  0  0
    3.5519   -2.7911    0.0000 C   0  0  0  0  0  0  0  0  0
    2.8374   -3.2036    0.0000 C   0  0  0  0  0  0  0  0  0
    2.1229   -2.7911    0.0000 C   0  0  0  0  0  0  0  0  0
    1.4085   -3.2036    0.0000 F   0  0  0  0  0  0  0  0  0
    2.1229   -1.9661    0.0000 C   0  0  0  0  0  0  0  0  0
    1.4085   -1.5536    0.0000 O   0  0  0  0  0  0  0  0  0
    0.6940   -1.9661    0.0000 C   0  0  0  0  0  0  0  0  0
    0.6940   -2.7911    0.0000 N   0  0  0  0  0  0  0  0  0
   -0.0205   -3.2036    0.0000 C   0  0  0  0  0  0  0  0  0
   -0.7349   -2.7911    0.0000 C   0  0  0  0  0  0  0  0  0
   -0.7349   -1.9661    0.0000 C   0  0  0  0  0  0  0  0  0
   -0.0205   -1.5536    0.0000 C   0  0  0  0  0  0  0  0  0
   -0.0205   -0.7286    0.0000 C   0  0  0  0  0  0  0  0  0
   -0.7349   -0.3161    0.0000 C   0  0  0  0  0  0  0  0  0
   -0.7349    0.5089    0.0000 C   0  0  0  0  0  0  0  0  0
   -0.0205    0.9214    0.0000 N   0  0  0  0  0  0  0  0  0
    0.6940    0.5089    0.0000 C   0  0  0  0  0  0  0  0  0
    0.6940   -0.3161    0.0000 C   0  0  0  0  0  0  0  0  0
  1  2  1  0  0  0  0
  2  3  4  0  0  0  0
  2  8  4  0  0  0  0
  3  4  4  0  0  0  0
  4  5  4  0  0  0  0
  5  6  4  0  0  0  0
  6  7  1  0  0  0  0
  6  8  4  0  0  0  0
  8  9  1  0  0  0  0
  9 10  1  0  0  0  0
 10 11  4  0  0  0  0
 10 15  4  0  0  0  0
 11 12  4  0  0  0  0
 12 13  4  0  0  0  0
 13 14  4  0  0  0  0
 14 15  4  0  0  0  0
 15 16  1  0  0  0  0
 16 17  1  0  0  0  0
 16 21  1  0  0  0  0
 17 18  1  0  0  0  0
 18 19  1  0  0  0  0
 19 20  1  0  0  0  0
 20 21  1  0  0  0  0
M  END
>  <Name_Molregno>
600153

>  <5-HT1A>
7.96

>  <Dopamine transporter>
5.21

>  <Norepinephrine transporter>
7.48

>  <Serotonin transporter>
6.71

$$$$
600154
  Marvin  02231216192D 0   1.00000     0.00000     0

 21 23  0  0  0  0  0  0  0  0999 V2000
    2.8374   -0.7286    0.0000 F   0  0  0  0  0  0  0  0  0
    2.8374   -1.5536    0.0000 C   0  0  0  0  0  0  0  0  0
    3.5519   -1.9661    0.0000 C   0  0  0  0  0  0  0  0  0
    3.5519   -2.7911    0.0000 C   0  0  0  0  0  0  0  0  0
    2.8374   -3.2036    0.0000 C   0  0  0  0  0  0  0  0  0
    2.1229   -2.7911    0.0000 C   0  0  0  0  0  0  0  0  0
    1.4085   -3.2036    0.0000 F   0  0  0  0  0  0  0  0  0
    2.1229   -1.9661    0.0000 C   0  0  0  0  0  0  0  0  0
    1.4085   -1.5536    0.0000 O   0  0  0  0  0  0  0  0  0
    0.6940   -1.9661    0.0000 C   0  0  0  0  0  0  0  0  0
    0.6940   -2.7911    0.0000 N   0  0  0  0  0  0  0  0  0
   -0.0205   -3.2036    0.0000 C   0  0  0  0  0  0  0  0  0
   -0.7349   -2.7911    0.0000 C   0  0  0  0  0  0  0  0  0
   -0.7349   -1.9661    0.0000 C   0  0  0  0  0  0  0  0  0
   -0.0205   -1.5536    0.0000 C   0  0  0  0  0  0  0  0  0
   -0.0205   -0.7286    0.0000 C   0  0  0  0  0  0  0  0  0
   -0.7349   -0.3161    0.0000 C   0  0  0  0  0  0  0  0  0
   -0.7349    0.5089    0.0000 C   0  0  0  0  0  0  0  0  0
   -0.0205    0.9214    0.0000 N   0  0  0  0  0  0  0  0  0
    0.6940    0.5089    0.0000 C   0  0  0  0  0  0  0  0  0
    0.6940   -0.3161    0.0000 C   0  0  0  0  0  0  0  0  0
  1  2  1  0  0  0  0
  2  3  4  0  0  0  0
  2  8  4  0  0  0  0
  3  4  4  0  0  0  0
  4  5  4  0  0  0  0
  5  6  4  0  0  0  0
  6  7  1  0  0  0  0
  6  8  4  0  0  0  0
  8  9  1  0  0  0  0
  9 10  1  0  0  0  0
 10 11  4  0  0  0  0
 10 15  4  0  0  0  0
 11 12  4  0  0  0  0
 12 13  4  0  0  0  0
 13 14  4  0  0  0  0
 14 15  4  0  0  0  0
 15 16  1  0  0  0  0
 16 17  1  0  0  0  0
 16 21  1  0  0  0  0
 17 18  1  0  0  0  0
 18 19  1  0  0  0  0
 19 20  1  0  0  0  0
 20 21  1  0  0  0  0
M  END
>  <Name_Molregno>
600154

>  <5-HT1A>
8.14

>  <Dopamine transporter>
5.18

>  <Norepinephrine transporter>
6.74

>  <Serotonin transporter>
5.73

$$$$
600155
  Marvin  02231216192D 0   1.00000     0.00000     0

 21 23  0  0  0  0  0  0  0  0999 V2000
    2.8374   -0.7286    0.0000 F   0  0  0  0  0  0  0  0  0
    2.8374   -1.5536    0.0000 C   0  0  0  0  0  0  0  0  0
    3.5519   -1.9661    0.0000 C   0  0  0  0  0  0  0  0  0
    3.5519   -2.7911    0.0000 C   0  0  0  0  0  0  0  0  0
    2.8374   -3.2036    0.0000 C   0  0  0  0  0  0  0  0  0
    2.1229   -2.7911    0.0000 C   0  0  0  0  0  0  0  0  0
    1.4085   -3.2036    0.0000 C   0  0  0  0  0  0  0  0  0
    2.1229   -1.9661    0.0000 C   0  0  0  0  0  0  0  0  0
    1.4085   -1.5536    0.0000 O   0  0  0  0  0  0  0  0  0
    0.6940   -1.9661    0.0000 C   0  0  0  0  0  0  0  0  0
    0.6940   -2.7911    0.0000 N   0  0  0  0  0  0  0  0  0
   -0.0205   -3.2036    0.0000 C   0  0  0  0  0  0  0  0  0
   -0.7349   -2.7911    0.0000 C   0  0  0  0  0  0  0  0  0
   -0.7349   -1.9661    0.0000 C   0  0  0  0  0  0  0  0  0
   -0.0205   -1.5536    0.0000 C   0  0  0  0  0  0  0  0  0
   -0.0205   -0.7286    0.0000 C   0  0  0  0  0  0  0  0  0
   -0.7349   -0.3161    0.0000 C   0  0  0  0  0  0  0  0  0
   -0.7349    0.5089    0.0000 C   0  0  0  0  0  0  0  0  0
   -0.0205    0.9214    0.0000 N   0  0  0  0  0  0  0  0  0
    0.6940    0.5089    0.0000 C   0  0  0  0  0  0  0  0  0
    0.6940   -0.3161    0.0000 C   0  0  0  0  0  0  0  0  0
  1  2  1  0  0  0  0
  2  3  4  0  0  0  0
  2  8  4  0  0  0  0
  3  4  4  0  0  0  0
  4  5  4  0  0  0  0
  5  6  4  0  0  0  0
  6  7  1  0  0  0  0
  6  8  4  0  0  0  0
  8  9  1  0  0  0  0
  9 10  1  0  0  0  0
 10 11  4  0  0  0  0
 10 15  4  0  0  0  0
 11 12  4  0  0  0  0
 12 13  4  0  0  0  0
 13 14  4  0  0  0  0
 14 15  4  0  0  0  0
 15 16  1  0  0  0  0
 16 17  1  0  0  0  0
 16 21  1  0  0  0  0
 17 18  1  0  0  0  0
 18 19  1  0  0  0  0
 19 20  1  0  0  0  0
 20 21  1  0  0  0  0
M  END
>  <Name_Molregno>
600155

>  <5-HT1A>
8

>  <Dopamine transporter>
5.2

>  <Norepinephrine transporter>
7.57

>  <Serotonin transporter>
6.99

$$$$
600156
  Marvin  02231216192D 0   1.00000     0.00000     0

 20 22  0  0  0  0  0  0  0  0999 V2000
    2.9065   -0.7508    0.0000 Cl  0  0  0  0  0  0  0  0  0
    2.9065   -1.5758    0.0000 C   0  0  0  0  0  0  0  0  0
    3.6209   -1.9883    0.0000 C   0  0  0  0  0  0  0  0  0
    3.6209   -2.8133    0.0000 C   0  0  0  0  0  0  0  0  0
    2.9065   -3.2258    0.0000 C   0  0  0  0  0  0  0  0  0
    2.1920   -2.8133    0.0000 C   0  0  0  0  0  0  0  0  0
    2.1920   -1.9883    0.0000 C   0  0  0  0  0  0  0  0  0
    1.4775   -1.5758    0.0000 O   0  0  0  0  0  0  0  0  0
    0.7631   -1.9883    0.0000 C   0  0  0  0  0  0  0  0  0
    0.7631   -2.8133    0.0000 N   0  0  0  0  0  0  0  0  0
    0.0486   -3.2258    0.0000 C   0  0  0  0  0  0  0  0  0
   -0.6659   -2.8133    0.0000 C   0  0  0  0  0  0  0  0  0
   -0.6659   -1.9883    0.0000 C   0  0  0  0  0  0  0  0  0
    0.0486   -1.5758    0.0000 C   0  0  0  0  0  0  0  0  0
    0.0486   -0.7508    0.0000 N   0  0  0  0  0  0  0  0  0
   -0.6659   -0.3383    0.0000 C   0  0  0  0  0  0  0  0  0
   -0.6659    0.4867    0.0000 C   0  0  0  0  0  0  0  0  0
    0.0486    0.8992    0.0000 N   0  0  0  0  0  0  0  0  0
    0.7631    0.4867    0.0000 C   0  0  0  0  0  0  0  0  0
    0.7631   -0.3383    0.0000 C   0  0  0  0  0  0  0  0  0
  1  2  1  0  0  0  0
  2  3  4  0  0  0  0
  2  7  4  0  0  0  0
  3  4  4  0  0  0  0
  4  5  4  0  0  0  0
  5  6  4  0  0  0  0
  6  7  4  0  0  0  0
  7  8  1  0  0  0  0
  8  9  1  0  0  0  0
  9 10  4  0  0  0  0
  9 14  4  0  0  0  0
 10 11  4  0  0  0  0
 11 12  4  0  0  0  0
 12 13  4  0  0  0  0
 13 14  4  0  0  0  0
 14 15  1  0  0  0  0
 15 16  1  0  0  0  0
 15 20  1  0  0  0  0
 16 17  1  0  0  0  0
 17 18  1  0  0  0  0
 18 19  1  0  0  0  0
 19 20  1  0  0  0  0
M  END
>  <Name_Molregno>
600156

>  <5-HT1A>
8.35

>  <Dopamine transporter>
5.2

>  <Norepinephrine transporter>
6.13

>  <Serotonin transporter>
5.33

$$$$
600157
  Marvin  02231216192D 0   1.00000     0.00000     0

 21 23  0  0  0  0  0  0  0  0999 V2000
    2.8374   -0.7286    0.0000 Cl  0  0  0  0  0  0  0  0  0
    2.8374   -1.5536    0.0000 C   0  0  0  0  0  0  0  0  0
    3.5519   -1.9661    0.0000 C   0  0  0  0  0  0  0  0  0
    3.5519   -2.7911    0.0000 C   0  0  0  0  0  0  0  0  0
    2.8374   -3.2036    0.0000 C   0  0  0  0  0  0  0  0  0
    2.1229   -2.7911    0.0000 C   0  0  0  0  0  0  0  0  0
    1.4085   -3.2036    0.0000 F   0  0  0  0  0  0  0  0  0
    2.1229   -1.9661    0.0000 C   0  0  0  0  0  0  0  0  0
    1.4085   -1.5536    0.0000 O   0  0  0  0  0  0  0  0  0
    0.6940   -1.9661    0.0000 C   0  0  0  0  0  0  0  0  0
    0.6940   -2.7911    0.0000 N   0  0  0  0  0  0  0  0  0
   -0.0205   -3.2036    0.0000 C   0  0  0  0  0  0  0  0  0
   -0.7349   -2.7911    0.0000 C   0  0  0  0  0  0  0  0  0
   -0.7349   -1.9661    0.0000 C   0  0  0  0  0  0  0  0  0
   -0.0205   -1.5536    0.0000 C   0  0  0  0  0  0  0  0  0
   -0.0205   -0.7286    0.0000 N   0  0  0  0  0  0  0  0  0
   -0.7349   -0.3161    0.0000 C   0  0  0  0  0  0  0  0  0
   -0.7349    0.5089    0.0000 C   0  0  0  0  0  0  0  0  0
   -0.0205    0.9214    0.0000 N   0  0  0  0  0  0  0  0  0
    0.6940    0.5089    0.0000 C   0  0  0  0  0  0  0  0  0
    0.6940   -0.3161    0.0000 C   0  0  0  0  0  0  0  0  0
  1  2  1  0  0  0  0
  2  3  4  0  0  0  0
  2  8  4  0  0  0  0
  3  4  4  0  0  0  0
  4  5  4  0  0  0  0
  5  6  4  0  0  0  0
  6  7  1  0  0  0  0
  6  8  4  0  0  0  0
  8  9  1  0  0  0  0
  9 10  1  0  0  0  0
 10 11  4  0  0  0  0
 10 15  4  0  0  0  0
 11 12  4  0  0  0  0
 12 13  4  0  0  0  0
 13 14  4  0  0  0  0
 14 15  4  0  0  0  0
 15 16  1  0  0  0  0
 16 17  1  0  0  0  0
 16 21  1  0  0  0  0
 17 18  1  0  0  0  0
 18 19  1  0  0  0  0
 19 20  1  0  0  0  0
 20 21  1  0  0  0  0
M  END
>  <Name_Molregno>
600157

>  <5-HT1A>
8.43

>  <Dopamine transporter>
5.2

>  <Norepinephrine transporter>
6.18

>  <Serotonin transporter>
5.33

$$$$
600960
  Marvin  02231216192D 0   1.00000     0.00000     0

 29 33  0  0  0  0  0  0  0  0999 V2000
   -3.9251    3.0885    0.0000 F   0  0  0  0  0  0  0  0  0
   -4.7455    3.0023    0.0000 C   0  0  0  0  0  0  0  0  0
   -5.0811    2.2486    0.0000 C   0  0  0  0  0  0  0  0  0
   -5.9016    2.1624    0.0000 C   0  0  0  0  0  0  0  0  0
   -6.3865    2.8298    0.0000 C   0  0  0  0  0  0  0  0  0
   -7.1711    2.5749    0.0000 O   0  0  0  0  0  0  0  0  0
   -7.1711    1.7499    0.0000 C   0  0  0  0  0  0  0  0  0
   -6.3865    1.4949    0.0000 C   0  0  0  0  0  0  0  0  0
   -6.1316    0.7103    0.0000 C   0  0  0  0  0  0  0  0  0
   -5.3246    0.5388    0.0000 C   0  0  0  0  0  0  0  0  0
   -5.0696   -0.2458    0.0000 N   0  0  0  0  0  0  0  0  0
   -4.2627   -0.4174    0.0000 C   0  0  0  0  0  0  0  0  0
   -4.0077   -1.2020    0.0000 C   0  0  0  0  0  0  0  0  0
   -4.5598   -1.8151    0.0000 C   0  0  0  0  0  0  0  0  0
   -5.3667   -1.6436    0.0000 C   0  0  0  0  0  0  0  0  0
   -5.6217   -0.8589    0.0000 C   0  0  0  0  0  0  0  0  0
   -4.3048   -2.5997    0.0000 C   0  0  0  0  0  0  0  0  0
   -3.5202   -2.8547    0.0000 C   0  0  0  0  0  0  0  0  0
   -2.8057   -2.4422    0.0000 C   0  0  0  0  0  0  0  0  0
   -2.0913   -2.8547    0.0000 C   0  0  0  0  0  0  0  0  0
   -2.0913   -3.6797    0.0000 C   0  0  0  0  0  0  0  0  0
   -2.8057   -4.0922    0.0000 C   0  0  0  0  0  0  0  0  0
   -3.5202   -3.6797    0.0000 C   0  0  0  0  0  0  0  0  0
   -4.3048   -3.9346    0.0000 N   0  0  0  0  0  0  0  0  0
   -4.7897   -3.2672    0.0000 C   0  0  0  0  0  0  0  0  0
   -1.3768   -2.4422    0.0000 C   0  0  0  0  0  0  0  0  0
   -0.6623   -2.0297    0.0000 N   0  0  0  0  0  0  0  0  0
   -6.0509    3.5835    0.0000 C   0  0  0  0  0  0  0  0  0
   -5.2305    3.6697    0.0000 C   0  0  0  0  0  0  0  0  0
  1  2  1  0  0  0  0
  2  3  4  0  0  0  0
  2 29  4  0  0  0  0
  3  4  4  0  0  0  0
  4  5  4  0  0  0  0
  4  8  4  0  0  0  0
  5  6  4  0  0  0  0
  5 28  4  0  0  0  0
  6  7  4  0  0  0  0
  7  8  4  0  0  0  0
  8  9  1  0  0  0  0
  9 10  1  0  0  0  0
 10 11  1  0  0  0  0
 11 12  1  0  0  0  0
 11 16  1  0  0  0  0
 12 13  1  0  0  0  0
 13 14  1  0  0  0  0
 14 15  2  0  0  0  0
 14 17  1  0  0  0  0
 15 16  1  0  0  0  0
 17 18  4  0  0  0  0
 17 25  4  0  0  0  0
 18 19  4  0  0  0  0
 18 23  4  0  0  0  0
 19 20  4  0  0  0  0
 20 21  4  0  0  0  0
 20 26  1  0  0  0  0
 21 22  4  0  0  0  0
 22 23  4  0  0  0  0
 23 24  4  0  0  0  0
 24 25  4  0  0  0  0
 26 27  3  0  0  0  0
 28 29  4  0  0  0  0
M  STY  1   1 DAT
M  SAL   1  1  24
M  SDT   1 MRV_IMPLICIT_H                                        
M  SDD   1     0.0000    0.0000    DR    ALL  0       0  
M  SED   1 IMPL_H1
M  END
>  <Name_Molregno>
600960

>  <5-HT1A>
7.38

$$$$
600961
  Marvin  02231216192D 0   1.00000     0.00000     0

 28 32  0  0  0  0  0  0  0  0999 V2000
   -3.2970    3.1319    0.0000 F   0  0  0  0  0  0  0  0  0
   -4.1175    3.0457    0.0000 C   0  0  0  0  0  0  0  0  0
   -4.4530    2.2920    0.0000 C   0  0  0  0  0  0  0  0  0
   -5.2735    2.2057    0.0000 C   0  0  0  0  0  0  0  0  0
   -5.7584    2.8732    0.0000 C   0  0  0  0  0  0  0  0  0
   -6.5430    2.6182    0.0000 N   0  0  0  0  0  0  0  0  0
   -6.5430    1.7932    0.0000 C   0  0  0  0  0  0  0  0  0
   -5.7584    1.5383    0.0000 C   0  0  0  0  0  0  0  0  0
   -5.5035    0.7537    0.0000 C   0  0  0  0  0  0  0  0  0
   -4.6965    0.5822    0.0000 C   0  0  0  0  0  0  0  0  0
   -4.4416   -0.2025    0.0000 C   0  0  0  0  0  0  0  0  0
   -4.9936   -0.8156    0.0000 N   0  0  0  0  0  0  0  0  0
   -5.8006   -0.6440    0.0000 C   0  0  0  0  0  0  0  0  0
   -6.0555    0.1406    0.0000 C   0  0  0  0  0  0  0  0  0
   -4.7387   -1.6002    0.0000 C   0  0  0  0  0  0  0  0  0
   -3.9317   -1.7717    0.0000 C   0  0  0  0  0  0  0  0  0
   -3.6767   -2.5563    0.0000 C   0  0  0  0  0  0  0  0  0
   -2.8921   -2.8113    0.0000 C   0  0  0  0  0  0  0  0  0
   -2.1777   -2.3988    0.0000 C   0  0  0  0  0  0  0  0  0
   -1.4632   -2.8113    0.0000 C   0  0  0  0  0  0  0  0  0
   -0.7487   -2.3988    0.0000 F   0  0  0  0  0  0  0  0  0
   -1.4632   -3.6363    0.0000 C   0  0  0  0  0  0  0  0  0
   -2.1777   -4.0488    0.0000 C   0  0  0  0  0  0  0  0  0
   -2.8921   -3.6363    0.0000 C   0  0  0  0  0  0  0  0  0
   -3.6767   -3.8912    0.0000 O   0  0  0  0  0  0  0  0  0
   -4.1617   -3.2238    0.0000 C   0  0  0  0  0  0  0  0  0
   -5.4229    3.6269    0.0000 C   0  0  0  0  0  0  0  0  0
   -4.6024    3.7131    0.0000 C   0  0  0  0  0  0  0  0  0
  1  2  1  0  0  0  0
  2  3  4  0  0  0  0
  2 28  4  0  0  0  0
  3  4  4  0  0  0  0
  4  5  4  0  0  0  0
  4  8  4  0  0  0  0
  5  6  4  0  0  0  0
  5 27  4  0  0  0  0
  6  7  4  0  0  0  0
  7  8  4  0  0  0  0
  8  9  1  0  0  0  0
  9 10  1  0  0  0  0
  9 14  2  0  0  0  0
 10 11  1  0  0  0  0
 11 12  1  0  0  0  0
 12 13  1  0  0  0  0
 12 15  1  0  0  0  0
 13 14  1  0  0  0  0
 15 16  1  0  0  0  0
 16 17  1  0  0  0  0
 17 18  4  0  0  0  0
 17 26  4  0  0  0  0
 18 19  4  0  0  0  0
 18 24  4  0  0  0  0
 19 20  4  0  0  0  0
 20 21  1  0  0  0  0
 20 22  4  0  0  0  0
 22 23  4  0  0  0  0
 23 24  4  0  0  0  0
 24 25  4  0  0  0  0
 25 26  4  0  0  0  0
 27 28  4  0  0  0  0
M  STY  1   1 DAT
M  SAL   1  1   6
M  SDT   1 MRV_IMPLICIT_H                                        
M  SDD   1     0.0000    0.0000    DR    ALL  0       0  
M  SED   1 IMPL_H1
M  END
>  <Name_Molregno>
600961

>  <5-HT1A>
6.52

$$$$
601040
  Marvin  02231216192D 0   1.00000     0.00000     0

 28 32  0  0  0  0  0  0  0  0999 V2000
    3.0994   -2.9077    0.0000 O   0  0  0  0  0  0  0  0  0
    3.5843   -2.2402    0.0000 C   0  0  0  0  0  0  0  0  0
    3.0994   -1.5728    0.0000 C   0  0  0  0  0  0  0  0  0
    2.3148   -1.8277    0.0000 C   0  0  0  0  0  0  0  0  0
    2.3148   -2.6527    0.0000 C   0  0  0  0  0  0  0  0  0
    1.6003   -3.0652    0.0000 C   0  0  0  0  0  0  0  0  0
    0.8858   -2.6527    0.0000 C   0  0  0  0  0  0  0  0  0
    0.1714   -3.0652    0.0000 O   0  0  0  0  0  0  0  0  0
   -0.5431   -2.6527    0.0000 C   0  0  0  0  0  0  0  0  0
    0.8858   -1.8277    0.0000 C   0  0  0  0  0  0  0  0  0
    1.6003   -1.4152    0.0000 C   0  0  0  0  0  0  0  0  0
    3.3543   -0.7882    0.0000 C   0  0  0  0  0  0  0  0  0
    2.8023   -0.1751    0.0000 C   0  0  0  0  0  0  0  0  0
    3.0572    0.6095    0.0000 N   0  0  0  0  0  0  0  0  0
    2.5052    1.2226    0.0000 C   0  0  0  0  0  0  0  0  0
    2.7601    2.0073    0.0000 C   0  0  0  0  0  0  0  0  0
    3.5671    2.1788    0.0000 C   0  0  0  0  0  0  0  0  0
    4.1191    1.5657    0.0000 C   0  0  0  0  0  0  0  0  0
    3.8642    0.7811    0.0000 C   0  0  0  0  0  0  0  0  0
    3.8221    2.9634    0.0000 C   0  0  0  0  0  0  0  0  0
    4.6067    3.2183    0.0000 C   0  0  0  0  0  0  0  0  0
    4.6067    4.0433    0.0000 C   0  0  0  0  0  0  0  0  0
    3.8221    4.2983    0.0000 N   0  0  0  0  0  0  0  0  0
    3.3371    3.6308    0.0000 C   0  0  0  0  0  0  0  0  0
    5.3211    4.4558    0.0000 C   0  0  0  0  0  0  0  0  0
    6.0356    4.0433    0.0000 C   0  0  0  0  0  0  0  0  0
    6.0356    3.2183    0.0000 C   0  0  0  0  0  0  0  0  0
    5.3211    2.8058    0.0000 C   0  0  0  0  0  0  0  0  0
  1  2  4  0  0  0  0
  1  5  4  0  0  0  0
  2  3  4  0  0  0  0
  3  4  4  0  0  0  0
  3 12  1  0  0  0  0
  4  5  4  0  0  0  0
  4 11  4  0  0  0  0
  5  6  4  0  0  0  0
  6  7  4  0  0  0  0
  7  8  1  0  0  0  0
  7 10  4  0  0  0  0
  8  9  1  0  0  0  0
 10 11  4  0  0  0  0
 12 13  1  0  0  0  0
 13 14  1  0  0  0  0
 14 15  1  0  0  0  0
 14 19  1  0  0  0  0
 15 16  1  0  0  0  0
 16 17  1  0  0  0  0
 17 18  2  0  0  0  0
 17 20  1  0  0  0  0
 18 19  1  0  0  0  0
 20 21  4  0  0  0  0
 20 24  4  0  0  0  0
 21 22  4  0  0  0  0
 21 28  4  0  0  0  0
 22 23  4  0  0  0  0
 22 25  4  0  0  0  0
 23 24  4  0  0  0  0
 25 26  4  0  0  0  0
 26 27  4  0  0  0  0
 27 28  4  0  0  0  0
M  STY  1   1 DAT
M  SAL   1  1  23
M  SDT   1 MRV_IMPLICIT_H                                        
M  SDD   1     0.0000    0.0000    DR    ALL  0       0  
M  SED   1 IMPL_H1
M  END
>  <Name_Molregno>
601040

>  <5-HT1A>
7.25

$$$$
601041
  Marvin  02231216192D 0   1.00000     0.00000     0

 29 33  0  0  0  0  0  0  0  0999 V2000
   -8.4290   -2.3117    0.0000 F   0  0  0  0  0  0  0  0  0
   -7.7145   -2.7242    0.0000 C   0  0  0  0  0  0  0  0  0
   -7.0000   -2.3117    0.0000 C   0  0  0  0  0  0  0  0  0
   -6.2855   -2.7242    0.0000 C   0  0  0  0  0  0  0  0  0
   -6.2855   -3.5492    0.0000 C   0  0  0  0  0  0  0  0  0
   -5.5009   -3.8042    0.0000 N   0  0  0  0  0  0  0  0  0
   -5.0160   -3.1367    0.0000 C   0  0  0  0  0  0  0  0  0
   -5.5009   -2.4693    0.0000 C   0  0  0  0  0  0  0  0  0
   -5.2460   -1.6847    0.0000 C   0  0  0  0  0  0  0  0  0
   -5.7980   -1.0716    0.0000 C   0  0  0  0  0  0  0  0  0
   -5.5431   -0.2870    0.0000 C   0  0  0  0  0  0  0  0  0
   -4.7361   -0.1154    0.0000 N   0  0  0  0  0  0  0  0  0
   -4.1841   -0.7285    0.0000 C   0  0  0  0  0  0  0  0  0
   -4.4390   -1.5131    0.0000 C   0  0  0  0  0  0  0  0  0
   -4.4812    0.6692    0.0000 C   0  0  0  0  0  0  0  0  0
   -3.6742    0.8407    0.0000 C   0  0  0  0  0  0  0  0  0
   -3.4193    1.6253    0.0000 C   0  0  0  0  0  0  0  0  0
   -2.6346    1.8803    0.0000 C   0  0  0  0  0  0  0  0  0
   -2.6346    2.7053    0.0000 C   0  0  0  0  0  0  0  0  0
   -3.4193    2.9602    0.0000 O   0  0  0  0  0  0  0  0  0
   -3.9042    2.2928    0.0000 C   0  0  0  0  0  0  0  0  0
   -1.9202    3.1178    0.0000 C   0  0  0  0  0  0  0  0  0
   -1.2057    2.7053    0.0000 C   0  0  0  0  0  0  0  0  0
   -0.4912    3.1178    0.0000 O   0  0  0  0  0  0  0  0  0
   -0.4912    3.9428    0.0000 C   0  0  0  0  0  0  0  0  0
   -1.2057    1.8803    0.0000 C   0  0  0  0  0  0  0  0  0
   -1.9202    1.4678    0.0000 C   0  0  0  0  0  0  0  0  0
   -7.0000   -3.9617    0.0000 C   0  0  0  0  0  0  0  0  0
   -7.7145   -3.5492    0.0000 C   0  0  0  0  0  0  0  0  0
  1  2  1  0  0  0  0
  2  3  4  0  0  0  0
  2 29  4  0  0  0  0
  3  4  4  0  0  0  0
  4  5  4  0  0  0  0
  4  8  4  0  0  0  0
  5  6  4  0  0  0  0
  5 28  4  0  0  0  0
  6  7  4  0  0  0  0
  7  8  4  0  0  0  0
  8  9  1  0  0  0  0
  9 10  1  0  0  0  0
  9 14  2  0  0  0  0
 10 11  1  0  0  0  0
 11 12  1  0  0  0  0
 12 13  1  0  0  0  0
 12 15  1  0  0  0  0
 13 14  1  0  0  0  0
 15 16  1  0  0  0  0
 16 17  1  0  0  0  0
 17 18  4  0  0  0  0
 17 21  4  0  0  0  0
 18 19  4  0  0  0  0
 18 27  4  0  0  0  0
 19 20  4  0  0  0  0
 19 22  4  0  0  0  0
 20 21  4  0  0  0  0
 22 23  4  0  0  0  0
 23 24  1  0  0  0  0
 23 26  4  0  0  0  0
 24 25  1  0  0  0  0
 26 27  4  0  0  0  0
 28 29  4  0  0  0  0
M  STY  1   1 DAT
M  SAL   1  1   6
M  SDT   1 MRV_IMPLICIT_H                                        
M  SDD   1     0.0000    0.0000    DR    ALL  0       0  
M  SED   1 IMPL_H1
M  END
>  <Name_Molregno>
601041

>  <5-HT1A>
7.18

$$$$
601042
  Marvin  02231216192D 0   1.00000     0.00000     0

 29 33  0  0  0  0  0  0  0  0999 V2000
    5.0954   -5.5390    0.0000 F   0  0  0  0  0  0  0  0  0
    4.7598   -4.7853    0.0000 C   0  0  0  0  0  0  0  0  0
    3.9393   -4.6991    0.0000 C   0  0  0  0  0  0  0  0  0
    3.6038   -3.9454    0.0000 C   0  0  0  0  0  0  0  0  0
    2.8192   -3.6904    0.0000 N   0  0  0  0  0  0  0  0  0
    2.8192   -2.8654    0.0000 C   0  0  0  0  0  0  0  0  0
    3.6038   -2.6105    0.0000 C   0  0  0  0  0  0  0  0  0
    4.0887   -3.2779    0.0000 C   0  0  0  0  0  0  0  0  0
    4.9092   -3.3642    0.0000 C   0  0  0  0  0  0  0  0  0
    5.2447   -4.1179    0.0000 C   0  0  0  0  0  0  0  0  0
    3.8587   -1.8259    0.0000 C   0  0  0  0  0  0  0  0  0
    3.3067   -1.2128    0.0000 C   0  0  0  0  0  0  0  0  0
    3.5616   -0.4282    0.0000 C   0  0  0  0  0  0  0  0  0
    4.3686   -0.2566    0.0000 N   0  0  0  0  0  0  0  0  0
    4.9206   -0.8697    0.0000 C   0  0  0  0  0  0  0  0  0
    4.6657   -1.6544    0.0000 C   0  0  0  0  0  0  0  0  0
    4.6235    0.5280    0.0000 C   0  0  0  0  0  0  0  0  0
    5.4305    0.6995    0.0000 C   0  0  0  0  0  0  0  0  0
    5.6855    1.4841    0.0000 C   0  0  0  0  0  0  0  0  0
    6.4701    1.7391    0.0000 C   0  0  0  0  0  0  0  0  0
    6.4701    2.5641    0.0000 C   0  0  0  0  0  0  0  0  0
    5.6855    2.8190    0.0000 O   0  0  0  0  0  0  0  0  0
    5.2005    2.1516    0.0000 C   0  0  0  0  0  0  0  0  0
    7.1845    2.9766    0.0000 C   0  0  0  0  0  0  0  0  0
    7.8990    2.5641    0.0000 C   0  0  0  0  0  0  0  0  0
    8.6135    2.9766    0.0000 O   0  0  0  0  0  0  0  0  0
    8.6135    3.8016    0.0000 C   0  0  0  0  0  0  0  0  0
    7.8990    1.7391    0.0000 C   0  0  0  0  0  0  0  0  0
    7.1845    1.3266    0.0000 C   0  0  0  0  0  0  0  0  0
  1  2  1  0  0  0  0
  2  3  4  0  0  0  0
  2 10  4  0  0  0  0
  3  4  4  0  0  0  0
  4  5  4  0  0  0  0
  4  8  4  0  0  0  0
  5  6  4  0  0  0  0
  6  7  4  0  0  0  0
  7  8  4  0  0  0  0
  7 11  1  0  0  0  0
  8  9  4  0  0  0  0
  9 10  4  0  0  0  0
 11 12  1  0  0  0  0
 11 16  2  0  0  0  0
 12 13  1  0  0  0  0
 13 14  1  0  0  0  0
 14 15  1  0  0  0  0
 14 17  1  0  0  0  0
 15 16  1  0  0  0  0
 17 18  1  0  0  0  0
 18 19  1  0  0  0  0
 19 20  4  0  0  0  0
 19 23  4  0  0  0  0
 20 21  4  0  0  0  0
 20 29  4  0  0  0  0
 21 22  4  0  0  0  0
 21 24  4  0  0  0  0
 22 23  4  0  0  0  0
 24 25  4  0  0  0  0
 25 26  1  0  0  0  0
 25 28  4  0  0  0  0
 26 27  1  0  0  0  0
 28 29  4  0  0  0  0
M  STY  1   1 DAT
M  SAL   1  1   5
M  SDT   1 MRV_IMPLICIT_H                                        
M  SDD   1     0.0000    0.0000    DR    ALL  0       0  
M  SED   1 IMPL_H1
M  END
>  <Name_Molregno>
601042

>  <5-HT1A>
8.48

$$$$
601106
  Marvin  02231216192D 0   1.00000     0.00000     0

 30 34  0  0  0  0  0  0  0  0999 V2000
    0.5807    3.8124    0.0000 O   0  0  0  0  0  0  0  0  0
    0.5807    2.9874    0.0000 C   0  0  0  0  0  0  0  0  0
    1.3653    2.7324    0.0000 C   0  0  0  0  0  0  0  0  0
    1.8502    3.3999    0.0000 C   0  0  0  0  0  0  0  0  0
    1.3653    4.0673    0.0000 C   0  0  0  0  0  0  0  0  0
    1.7008    4.8210    0.0000 C   0  0  0  0  0  0  0  0  0
    2.5213    4.9072    0.0000 C   0  0  0  0  0  0  0  0  0
    2.8569    5.6609    0.0000 O   0  0  0  0  0  0  0  0  0
    3.6774    5.7471    0.0000 C   0  0  0  0  0  0  0  0  0
    3.0062    4.2398    0.0000 C   0  0  0  0  0  0  0  0  0
    2.6707    3.4861    0.0000 C   0  0  0  0  0  0  0  0  0
    1.6202    1.9478    0.0000 C   0  0  0  0  0  0  0  0  0
    2.4272    1.7763    0.0000 C   0  0  0  0  0  0  0  0  0
    2.6821    0.9917    0.0000 N   0  0  0  0  0  0  0  0  0
    3.4891    0.8201    0.0000 C   0  0  0  0  0  0  0  0  0
    3.7440    0.0355    0.0000 C   0  0  0  0  0  0  0  0  0
    3.1920   -0.5776    0.0000 C   0  0  0  0  0  0  0  0  0
    2.3850   -0.4061    0.0000 C   0  0  0  0  0  0  0  0  0
    2.1301    0.3786    0.0000 C   0  0  0  0  0  0  0  0  0
    3.4469   -1.3622    0.0000 C   0  0  0  0  0  0  0  0  0
    4.2316   -1.6171    0.0000 C   0  0  0  0  0  0  0  0  0
    4.9460   -1.2046    0.0000 C   0  0  0  0  0  0  0  0  0
    5.6605   -1.6171    0.0000 C   0  0  0  0  0  0  0  0  0
    5.6605   -2.4421    0.0000 C   0  0  0  0  0  0  0  0  0
    4.9460   -2.8546    0.0000 C   0  0  0  0  0  0  0  0  0
    4.2316   -2.4421    0.0000 C   0  0  0  0  0  0  0  0  0
    3.4469   -2.6971    0.0000 N   0  0  0  0  0  0  0  0  0
    2.9620   -2.0296    0.0000 C   0  0  0  0  0  0  0  0  0
    6.3750   -1.2046    0.0000 C   0  0  0  0  0  0  0  0  0
    7.0894   -0.7921    0.0000 N   0  0  0  0  0  0  0  0  0
  1  2  4  0  0  0  0
  1  5  4  0  0  0  0
  2  3  4  0  0  0  0
  3  4  4  0  0  0  0
  3 12  1  0  0  0  0
  4  5  4  0  0  0  0
  4 11  4  0  0  0  0
  5  6  4  0  0  0  0
  6  7  4  0  0  0  0
  7  8  1  0  0  0  0
  7 10  4  0  0  0  0
  8  9  1  0  0  0  0
 10 11  4  0  0  0  0
 12 13  1  0  0  0  0
 13 14  1  0  0  0  0
 14 15  1  0  0  0  0
 14 19  1  0  0  0  0
 15 16  1  0  0  0  0
 16 17  1  0  0  0  0
 17 18  2  0  0  0  0
 17 20  1  0  0  0  0
 18 19  1  0  0  0  0
 20 21  4  0  0  0  0
 20 28  4  0  0  0  0
 21 22  4  0  0  0  0
 21 26  4  0  0  0  0
 22 23  4  0  0  0  0
 23 24  4  0  0  0  0
 23 29  1  0  0  0  0
 24 25  4  0  0  0  0
 25 26  4  0  0  0  0
 26 27  4  0  0  0  0
 27 28  4  0  0  0  0
 29 30  3  0  0  0  0
M  STY  1   1 DAT
M  SAL   1  1  27
M  SDT   1 MRV_IMPLICIT_H                                        
M  SDD   1     0.0000    0.0000    DR    ALL  0       0  
M  SED   1 IMPL_H1
M  END
>  <Name_Molregno>
601106

>  <5-HT1A>
7.9

$$$$
601107
  Marvin  02231216192D 0   1.00000     0.00000     0

 28 32  0  0  0  0  0  0  0  0999 V2000
   -4.5893   -2.5183    0.0000 O   0  0  0  0  0  0  0  0  0
   -3.8047   -2.7732    0.0000 C   0  0  0  0  0  0  0  0  0
   -3.3198   -2.1058    0.0000 C   0  0  0  0  0  0  0  0  0
   -2.4993   -2.1920    0.0000 C   0  0  0  0  0  0  0  0  0
   -2.1637   -2.9457    0.0000 C   0  0  0  0  0  0  0  0  0
   -2.6487   -3.6132    0.0000 C   0  0  0  0  0  0  0  0  0
   -3.4691   -3.5269    0.0000 C   0  0  0  0  0  0  0  0  0
   -3.9541   -4.1944    0.0000 O   0  0  0  0  0  0  0  0  0
   -3.6185   -4.9480    0.0000 C   0  0  0  0  0  0  0  0  0
   -3.8047   -1.4384    0.0000 C   0  0  0  0  0  0  0  0  0
   -4.5893   -1.6933    0.0000 C   0  0  0  0  0  0  0  0  0
   -3.5498   -0.6537    0.0000 C   0  0  0  0  0  0  0  0  0
   -4.1018   -0.0407    0.0000 C   0  0  0  0  0  0  0  0  0
   -3.8469    0.7440    0.0000 N   0  0  0  0  0  0  0  0  0
   -4.3989    1.3571    0.0000 C   0  0  0  0  0  0  0  0  0
   -4.1439    2.1417    0.0000 C   0  0  0  0  0  0  0  0  0
   -3.3370    2.3132    0.0000 C   0  0  0  0  0  0  0  0  0
   -2.7849    1.7001    0.0000 C   0  0  0  0  0  0  0  0  0
   -3.0399    0.9155    0.0000 C   0  0  0  0  0  0  0  0  0
   -3.0820    3.0978    0.0000 C   0  0  0  0  0  0  0  0  0
   -2.2974    3.3528    0.0000 C   0  0  0  0  0  0  0  0  0
   -2.2974    4.1778    0.0000 C   0  0  0  0  0  0  0  0  0
   -3.0820    4.4327    0.0000 N   0  0  0  0  0  0  0  0  0
   -3.5670    3.7653    0.0000 C   0  0  0  0  0  0  0  0  0
   -1.5829    4.5903    0.0000 C   0  0  0  0  0  0  0  0  0
   -0.8685    4.1778    0.0000 C   0  0  0  0  0  0  0  0  0
   -0.8685    3.3528    0.0000 C   0  0  0  0  0  0  0  0  0
   -1.5829    2.9403    0.0000 C   0  0  0  0  0  0  0  0  0
  1  2  4  0  0  0  0
  1 11  4  0  0  0  0
  2  3  4  0  0  0  0
  2  7  4  0  0  0  0
  3  4  4  0  0  0  0
  3 10  4  0  0  0  0
  4  5  4  0  0  0  0
  5  6  4  0  0  0  0
  6  7  4  0  0  0  0
  7  8  1  0  0  0  0
  8  9  1  0  0  0  0
 10 11  4  0  0  0  0
 10 12  1  0  0  0  0
 12 13  1  0  0  0  0
 13 14  1  0  0  0  0
 14 15  1  0  0  0  0
 14 19  1  0  0  0  0
 15 16  1  0  0  0  0
 16 17  1  0  0  0  0
 17 18  2  0  0  0  0
 17 20  1  0  0  0  0
 18 19  1  0  0  0  0
 20 21  4  0  0  0  0
 20 24  4  0  0  0  0
 21 22  4  0  0  0  0
 21 28  4  0  0  0  0
 22 23  4  0  0  0  0
 22 25  4  0  0  0  0
 23 24  4  0  0  0  0
 25 26  4  0  0  0  0
 26 27  4  0  0  0  0
 27 28  4  0  0  0  0
M  STY  1   1 DAT
M  SAL   1  1  23
M  SDT   1 MRV_IMPLICIT_H                                        
M  SDD   1     0.0000    0.0000    DR    ALL  0       0  
M  SED   1 IMPL_H1
M  END
>  <Name_Molregno>
601107

>  <5-HT1A>
8.07

$$$$
601108
  Marvin  02231216192D 0   1.00000     0.00000     0

 29 33  0  0  0  0  0  0  0  0999 V2000
    5.2089   -5.5381    0.0000 F   0  0  0  0  0  0  0  0  0
    4.8734   -4.7844    0.0000 C   0  0  0  0  0  0  0  0  0
    4.0529   -4.6982    0.0000 C   0  0  0  0  0  0  0  0  0
    3.7173   -3.9445    0.0000 C   0  0  0  0  0  0  0  0  0
    2.9327   -3.6896    0.0000 N   0  0  0  0  0  0  0  0  0
    2.9327   -2.8646    0.0000 C   0  0  0  0  0  0  0  0  0
    3.7173   -2.6096    0.0000 C   0  0  0  0  0  0  0  0  0
    4.2023   -3.2771    0.0000 C   0  0  0  0  0  0  0  0  0
    5.0227   -3.3633    0.0000 C   0  0  0  0  0  0  0  0  0
    5.3583   -4.1170    0.0000 C   0  0  0  0  0  0  0  0  0
    3.9723   -1.8250    0.0000 C   0  0  0  0  0  0  0  0  0
    3.4202   -1.2119    0.0000 C   0  0  0  0  0  0  0  0  0
    3.6752   -0.4273    0.0000 C   0  0  0  0  0  0  0  0  0
    4.4821   -0.2558    0.0000 N   0  0  0  0  0  0  0  0  0
    5.0342   -0.8689    0.0000 C   0  0  0  0  0  0  0  0  0
    4.7792   -1.6535    0.0000 C   0  0  0  0  0  0  0  0  0
    4.7371    0.5289    0.0000 C   0  0  0  0  0  0  0  0  0
    5.5441    0.7004    0.0000 C   0  0  0  0  0  0  0  0  0
    5.7990    1.4850    0.0000 C   0  0  0  0  0  0  0  0  0
    6.5836    1.7399    0.0000 C   0  0  0  0  0  0  0  0  0
    6.5836    2.5649    0.0000 C   0  0  0  0  0  0  0  0  0
    5.7990    2.8199    0.0000 O   0  0  0  0  0  0  0  0  0
    5.3141    2.1524    0.0000 C   0  0  0  0  0  0  0  0  0
    7.2981    2.9774    0.0000 C   0  0  0  0  0  0  0  0  0
    7.2981    3.8024    0.0000 O   0  0  0  0  0  0  0  0  0
    6.5836    4.2149    0.0000 C   0  0  0  0  0  0  0  0  0
    8.0126    2.5649    0.0000 C   0  0  0  0  0  0  0  0  0
    8.0126    1.7399    0.0000 C   0  0  0  0  0  0  0  0  0
    7.2981    1.3274    0.0000 C   0  0  0  0  0  0  0  0  0
  1  2  1  0  0  0  0
  2  3  4  0  0  0  0
  2 10  4  0  0  0  0
  3  4  4  0  0  0  0
  4  5  4  0  0  0  0
  4  8  4  0  0  0  0
  5  6  4  0  0  0  0
  6  7  4  0  0  0  0
  7  8  4  0  0  0  0
  7 11  1  0  0  0  0
  8  9  4  0  0  0  0
  9 10  4  0  0  0  0
 11 12  1  0  0  0  0
 11 16  2  0  0  0  0
 12 13  1  0  0  0  0
 13 14  1  0  0  0  0
 14 15  1  0  0  0  0
 14 17  1  0  0  0  0
 15 16  1  0  0  0  0
 17 18  1  0  0  0  0
 18 19  1  0  0  0  0
 19 20  4  0  0  0  0
 19 23  4  0  0  0  0
 20 21  4  0  0  0  0
 20 29  4  0  0  0  0
 21 22  4  0  0  0  0
 21 24  4  0  0  0  0
 22 23  4  0  0  0  0
 24 25  1  0  0  0  0
 24 27  4  0  0  0  0
 25 26  1  0  0  0  0
 27 28  4  0  0  0  0
 28 29  4  0  0  0  0
M  STY  1   1 DAT
M  SAL   1  1   5
M  SDT   1 MRV_IMPLICIT_H                                        
M  SDD   1     0.0000    0.0000    DR    ALL  0       0  
M  SED   1 IMPL_H1
M  END
>  <Name_Molregno>
601108

>  <5-HT1A>
7.96

$$$$
601109
  Marvin  02231216192D 0   1.00000     0.00000     0

 29 33  0  0  0  0  0  0  0  0999 V2000
   -8.2635   -2.2417    0.0000 F   0  0  0  0  0  0  0  0  0
   -7.5491   -2.6542    0.0000 C   0  0  0  0  0  0  0  0  0
   -6.8346   -2.2417    0.0000 C   0  0  0  0  0  0  0  0  0
   -6.1201   -2.6542    0.0000 C   0  0  0  0  0  0  0  0  0
   -6.1201   -3.4792    0.0000 C   0  0  0  0  0  0  0  0  0
   -5.3355   -3.7342    0.0000 N   0  0  0  0  0  0  0  0  0
   -4.8506   -3.0667    0.0000 C   0  0  0  0  0  0  0  0  0
   -5.3355   -2.3993    0.0000 C   0  0  0  0  0  0  0  0  0
   -5.0806   -1.6147    0.0000 C   0  0  0  0  0  0  0  0  0
   -5.6326   -1.0016    0.0000 C   0  0  0  0  0  0  0  0  0
   -5.3776   -0.2170    0.0000 C   0  0  0  0  0  0  0  0  0
   -4.5707   -0.0454    0.0000 N   0  0  0  0  0  0  0  0  0
   -4.0186   -0.6585    0.0000 C   0  0  0  0  0  0  0  0  0
   -4.2736   -1.4432    0.0000 C   0  0  0  0  0  0  0  0  0
   -4.3157    0.7392    0.0000 C   0  0  0  0  0  0  0  0  0
   -3.5088    0.9107    0.0000 C   0  0  0  0  0  0  0  0  0
   -3.2538    1.6953    0.0000 C   0  0  0  0  0  0  0  0  0
   -2.4692    1.9503    0.0000 C   0  0  0  0  0  0  0  0  0
   -2.4692    2.7753    0.0000 C   0  0  0  0  0  0  0  0  0
   -3.2538    3.0302    0.0000 O   0  0  0  0  0  0  0  0  0
   -3.7387    2.3628    0.0000 C   0  0  0  0  0  0  0  0  0
   -1.7547    3.1878    0.0000 C   0  0  0  0  0  0  0  0  0
   -1.7547    4.0128    0.0000 O   0  0  0  0  0  0  0  0  0
   -2.4692    4.4253    0.0000 C   0  0  0  0  0  0  0  0  0
   -1.0403    2.7753    0.0000 C   0  0  0  0  0  0  0  0  0
   -1.0403    1.9503    0.0000 C   0  0  0  0  0  0  0  0  0
   -1.7547    1.5378    0.0000 C   0  0  0  0  0  0  0  0  0
   -6.8346   -3.8917    0.0000 C   0  0  0  0  0  0  0  0  0
   -7.5491   -3.4792    0.0000 C   0  0  0  0  0  0  0  0  0
  1  2  1  0  0  0  0
  2  3  4  0  0  0  0
  2 29  4  0  0  0  0
  3  4  4  0  0  0  0
  4  5  4  0  0  0  0
  4  8  4  0  0  0  0
  5  6  4  0  0  0  0
  5 28  4  0  0  0  0
  6  7  4  0  0  0  0
  7  8  4  0  0  0  0
  8  9  1  0  0  0  0
  9 10  1  0  0  0  0
  9 14  2  0  0  0  0
 10 11  1  0  0  0  0
 11 12  1  0  0  0  0
 12 13  1  0  0  0  0
 12 15  1  0  0  0  0
 13 14  1  0  0  0  0
 15 16  1  0  0  0  0
 16 17  1  0  0  0  0
 17 18  4  0  0  0  0
 17 21  4  0  0  0  0
 18 19  4  0  0  0  0
 18 27  4  0  0  0  0
 19 20  4  0  0  0  0
 19 22  4  0  0  0  0
 20 21  4  0  0  0  0
 22 23  1  0  0  0  0
 22 25  4  0  0  0  0
 23 24  1  0  0  0  0
 25 26  4  0  0  0  0
 26 27  4  0  0  0  0
 28 29  4  0  0  0  0
M  STY  1   1 DAT
M  SAL   1  1   6
M  SDT   1 MRV_IMPLICIT_H                                        
M  SDD   1     0.0000    0.0000    DR    ALL  0       0  
M  SED   1 IMPL_H1
M  END
>  <Name_Molregno>
601109

>  <5-HT1A>
8

$$$$
601178
  Marvin  02231216192D 0   1.00000     0.00000     0

 30 34  0  0  0  0  0  0  0  0999 V2000
   -4.4357    2.3126    0.0000 O   0  0  0  0  0  0  0  0  0
   -5.2204    2.0577    0.0000 C   0  0  0  0  0  0  0  0  0
   -5.2204    1.2327    0.0000 C   0  0  0  0  0  0  0  0  0
   -5.9348    0.8202    0.0000 C   0  0  0  0  0  0  0  0  0
   -6.6493    1.2327    0.0000 C   0  0  0  0  0  0  0  0  0
   -6.6493    2.0577    0.0000 C   0  0  0  0  0  0  0  0  0
   -5.9348    2.4702    0.0000 C   0  0  0  0  0  0  0  0  0
   -5.9348    3.2952    0.0000 O   0  0  0  0  0  0  0  0  0
   -6.6493    3.7077    0.0000 C   0  0  0  0  0  0  0  0  0
   -4.4357    0.9777    0.0000 C   0  0  0  0  0  0  0  0  0
   -3.9508    1.6452    0.0000 C   0  0  0  0  0  0  0  0  0
   -4.1808    0.1931    0.0000 C   0  0  0  0  0  0  0  0  0
   -3.3738    0.0216    0.0000 C   0  0  0  0  0  0  0  0  0
   -3.1189   -0.7630    0.0000 N   0  0  0  0  0  0  0  0  0
   -2.3119   -0.9346    0.0000 C   0  0  0  0  0  0  0  0  0
   -2.0570   -1.7192    0.0000 C   0  0  0  0  0  0  0  0  0
   -2.6090   -2.3323    0.0000 C   0  0  0  0  0  0  0  0  0
   -3.4160   -2.1607    0.0000 C   0  0  0  0  0  0  0  0  0
   -3.6709   -1.3761    0.0000 C   0  0  0  0  0  0  0  0  0
   -2.3541   -3.1169    0.0000 C   0  0  0  0  0  0  0  0  0
   -1.5695   -3.3718    0.0000 C   0  0  0  0  0  0  0  0  0
   -0.8550   -2.9593    0.0000 C   0  0  0  0  0  0  0  0  0
   -0.1405   -3.3718    0.0000 C   0  0  0  0  0  0  0  0  0
   -0.1405   -4.1968    0.0000 C   0  0  0  0  0  0  0  0  0
   -0.8550   -4.6093    0.0000 C   0  0  0  0  0  0  0  0  0
   -1.5695   -4.1968    0.0000 C   0  0  0  0  0  0  0  0  0
   -2.3541   -4.4518    0.0000 N   0  0  0  0  0  0  0  0  0
   -2.8390   -3.7843    0.0000 C   0  0  0  0  0  0  0  0  0
    0.5740   -2.9593    0.0000 C   0  0  0  0  0  0  0  0  0
    1.2884   -2.5468    0.0000 N   0  0  0  0  0  0  0  0  0
  1  2  4  0  0  0  0
  1 11  4  0  0  0  0
  2  3  4  0  0  0  0
  2  7  4  0  0  0  0
  3  4  4  0  0  0  0
  3 10  4  0  0  0  0
  4  5  4  0  0  0  0
  5  6  4  0  0  0  0
  6  7  4  0  0  0  0
  7  8  1  0  0  0  0
  8  9  1  0  0  0  0
 10 11  4  0  0  0  0
 10 12  1  0  0  0  0
 12 13  1  0  0  0  0
 13 14  1  0  0  0  0
 14 15  1  0  0  0  0
 14 19  1  0  0  0  0
 15 16  1  0  0  0  0
 16 17  1  0  0  0  0
 17 18  2  0  0  0  0
 17 20  1  0  0  0  0
 18 19  1  0  0  0  0
 20 21  4  0  0  0  0
 20 28  4  0  0  0  0
 21 22  4  0  0  0  0
 21 26  4  0  0  0  0
 22 23  4  0  0  0  0
 23 24  4  0  0  0  0
 23 29  1  0  0  0  0
 24 25  4  0  0  0  0
 25 26  4  0  0  0  0
 26 27  4  0  0  0  0
 27 28  4  0  0  0  0
 29 30  3  0  0  0  0
M  STY  1   1 DAT
M  SAL   1  1  27
M  SDT   1 MRV_IMPLICIT_H                                        
M  SDD   1     0.0000    0.0000    DR    ALL  0       0  
M  SED   1 IMPL_H1
M  END
>  <Name_Molregno>
601178

>  <5-HT1A>
8.29

$$$$
601179
  Marvin  02231216192D 0   1.00000     0.00000     0

 29 33  0  0  1  0  0  0  0  0999 V2000
   -4.5738   -2.4471    0.0000 O   0  0  0  0  0  0  0  0  0
   -3.7892   -2.7020    0.0000 C   0  0  0  0  0  0  0  0  0
   -3.3042   -2.0346    0.0000 C   0  0  0  0  0  0  0  0  0
   -2.4838   -2.1208    0.0000 C   0  0  0  0  0  0  0  0  0
   -2.1482   -2.8745    0.0000 C   0  0  0  0  0  0  0  0  0
   -2.6331   -3.5420    0.0000 C   0  0  0  0  0  0  0  0  0
   -3.4536   -3.4557    0.0000 C   0  0  0  0  0  0  0  0  0
   -3.9385   -4.1232    0.0000 O   0  0  0  0  0  0  0  0  0
   -3.6030   -4.8768    0.0000 C   0  0  0  0  0  0  0  0  0
   -3.7892   -1.3672    0.0000 C   0  0  0  0  0  0  0  0  0
   -4.5738   -1.6221    0.0000 C   0  0  0  0  0  0  0  0  0
   -3.5342   -0.5825    0.0000 C   0  0  0  0  0  0  0  0  0
   -4.0863    0.0305    0.0000 C   0  0  0  0  0  0  0  0  0
   -3.8313    0.8152    0.0000 N   0  0  0  0  0  0  0  0  0
   -4.3833    1.4283    0.0000 C   0  0  0  0  0  0  0  0  0
   -4.1284    2.2129    0.0000 C   0  0  0  0  0  0  0  0  0
   -3.3214    2.3844    0.0000 C   0  0  0  0  0  0  0  0  0
   -2.7694    1.7713    0.0000 C   0  0  0  0  0  0  0  0  0
   -3.0243    0.9867    0.0000 C   0  0  0  0  0  0  0  0  0
   -3.0665    3.1690    0.0000 C   0  0  0  0  0  0  0  0  0
   -2.2819    3.4240    0.0000 C   0  0  0  0  0  0  0  0  0
   -2.2819    4.2490    0.0000 C   0  0  0  0  0  0  0  0  0
   -3.0665    4.5039    0.0000 N   0  0  0  0  0  0  0  0  0
   -3.5514    3.8365    0.0000 C   0  0  0  0  0  0  0  0  0
   -1.5674    4.6615    0.0000 C   0  0  0  0  0  0  0  0  0
   -0.8529    4.2490    0.0000 C   0  0  0  0  0  0  0  0  0
   -0.8529    3.4240    0.0000 C   0  0  0  0  0  0  0  0  0
   -1.5674    3.0115    0.0000 C   0  0  0  0  0  0  0  0  0
   -2.7273   -0.4110    0.0000 C   0  0  0  0  0  0  0  0  0
  1  2  4  0  0  0  0
  1 11  4  0  0  0  0
  2  3  4  0  0  0  0
  2  7  4  0  0  0  0
  3  4  4  0  0  0  0
  3 10  4  0  0  0  0
  4  5  4  0  0  0  0
  5  6  4  0  0  0  0
  6  7  4  0  0  0  0
  7  8  1  0  0  0  0
  8  9  1  0  0  0  0
 10 11  4  0  0  0  0
 10 12  1  0  0  0  0
 12 13  1  0  0  0  0
 12 29  1  0  0  0  0
 13 14  1  0  0  0  0
 14 15  1  0  0  0  0
 14 19  1  0  0  0  0
 15 16  1  0  0  0  0
 16 17  1  0  0  0  0
 17 18  2  0  0  0  0
 17 20  1  0  0  0  0
 18 19  1  0  0  0  0
 20 21  4  0  0  0  0
 20 24  4  0  0  0  0
 21 22  4  0  0  0  0
 21 28  4  0  0  0  0
 22 23  4  0  0  0  0
 22 25  4  0  0  0  0
 23 24  4  0  0  0  0
 25 26  4  0  0  0  0
 26 27  4  0  0  0  0
 27 28  4  0  0  0  0
M  STY  1   1 DAT
M  SAL   1  1  23
M  SDT   1 MRV_IMPLICIT_H                                        
M  SDD   1     0.0000    0.0000    DR    ALL  0       0  
M  SED   1 IMPL_H1
M  END
>  <Name_Molregno>
601179

>  <5-HT1A>
7.53

$$$$
601909
  Marvin  02231216192D 0   1.00000     0.00000     0

 26 30  0  0  0  0  0  0  0  0999 V2000
    3.1763   -3.3112    0.0000 O   0  0  0  0  0  0  0  0  0
    3.6613   -2.6438    0.0000 C   0  0  0  0  0  0  0  0  0
    3.1763   -1.9763    0.0000 C   0  0  0  0  0  0  0  0  0
    2.3917   -2.2313    0.0000 C   0  0  0  0  0  0  0  0  0
    2.3917   -3.0563    0.0000 C   0  0  0  0  0  0  0  0  0
    1.6772   -3.4688    0.0000 C   0  0  0  0  0  0  0  0  0
    0.9628   -3.0563    0.0000 C   0  0  0  0  0  0  0  0  0
    0.9628   -2.2313    0.0000 C   0  0  0  0  0  0  0  0  0
    1.6772   -1.8188    0.0000 C   0  0  0  0  0  0  0  0  0
    3.4313   -1.1917    0.0000 C   0  0  0  0  0  0  0  0  0
    2.8792   -0.5786    0.0000 C   0  0  0  0  0  0  0  0  0
    3.1342    0.2060    0.0000 N   0  0  0  0  0  0  0  0  0
    2.5821    0.8191    0.0000 C   0  0  0  0  0  0  0  0  0
    2.8371    1.6037    0.0000 C   0  0  0  0  0  0  0  0  0
    3.6441    1.7752    0.0000 C   0  0  0  0  0  0  0  0  0
    4.1961    1.1621    0.0000 C   0  0  0  0  0  0  0  0  0
    3.9411    0.3775    0.0000 C   0  0  0  0  0  0  0  0  0
    3.8990    2.5599    0.0000 C   0  0  0  0  0  0  0  0  0
    4.6836    2.8148    0.0000 C   0  0  0  0  0  0  0  0  0
    4.6836    3.6398    0.0000 C   0  0  0  0  0  0  0  0  0
    3.8990    3.8947    0.0000 N   0  0  0  0  0  0  0  0  0
    3.4141    3.2273    0.0000 C   0  0  0  0  0  0  0  0  0
    5.3981    4.0523    0.0000 C   0  0  0  0  0  0  0  0  0
    6.1126    3.6398    0.0000 C   0  0  0  0  0  0  0  0  0
    6.1126    2.8148    0.0000 C   0  0  0  0  0  0  0  0  0
    5.3981    2.4023    0.0000 C   0  0  0  0  0  0  0  0  0
  1  2  4  0  0  0  0
  1  5  4  0  0  0  0
  2  3  4  0  0  0  0
  3  4  4  0  0  0  0
  3 10  1  0  0  0  0
  4  5  4  0  0  0  0
  4  9  4  0  0  0  0
  5  6  4  0  0  0  0
  6  7  4  0  0  0  0
  7  8  4  0  0  0  0
  8  9  4  0  0  0  0
 10 11  1  0  0  0  0
 11 12  1  0  0  0  0
 12 13  1  0  0  0  0
 12 17  1  0  0  0  0
 13 14  1  0  0  0  0
 14 15  1  0  0  0  0
 15 16  2  0  0  0  0
 15 18  1  0  0  0  0
 16 17  1  0  0  0  0
 18 19  4  0  0  0  0
 18 22  4  0  0  0  0
 19 20  4  0  0  0  0
 19 26  4  0  0  0  0
 20 21  4  0  0  0  0
 20 23  4  0  0  0  0
 21 22  4  0  0  0  0
 23 24  4  0  0  0  0
 24 25  4  0  0  0  0
 25 26  4  0  0  0  0
M  STY  1   1 DAT
M  SAL   1  1  21
M  SDT   1 MRV_IMPLICIT_H                                        
M  SDD   1     0.0000    0.0000    DR    ALL  0       0  
M  SED   1 IMPL_H1
M  END
>  <Name_Molregno>
601909

>  <5-HT1A>
7.44

$$$$
602003
  Marvin  02231216192D 0   1.00000     0.00000     0

 27 31  0  0  0  0  0  0  0  0999 V2000
    4.9563   -5.2455    0.0000 F   0  0  0  0  0  0  0  0  0
    4.6208   -4.4918    0.0000 C   0  0  0  0  0  0  0  0  0
    3.8003   -4.4056    0.0000 C   0  0  0  0  0  0  0  0  0
    3.4647   -3.6519    0.0000 C   0  0  0  0  0  0  0  0  0
    2.6801   -3.3970    0.0000 N   0  0  0  0  0  0  0  0  0
    2.6801   -2.5720    0.0000 C   0  0  0  0  0  0  0  0  0
    3.4647   -2.3171    0.0000 C   0  0  0  0  0  0  0  0  0
    3.9497   -2.9845    0.0000 C   0  0  0  0  0  0  0  0  0
    4.7701   -3.0707    0.0000 C   0  0  0  0  0  0  0  0  0
    5.1057   -3.8244    0.0000 C   0  0  0  0  0  0  0  0  0
    3.7197   -1.5324    0.0000 C   0  0  0  0  0  0  0  0  0
    3.1676   -0.9193    0.0000 C   0  0  0  0  0  0  0  0  0
    3.4226   -0.1347    0.0000 C   0  0  0  0  0  0  0  0  0
    4.2296    0.0368    0.0000 N   0  0  0  0  0  0  0  0  0
    4.7816   -0.5763    0.0000 C   0  0  0  0  0  0  0  0  0
    4.5266   -1.3609    0.0000 C   0  0  0  0  0  0  0  0  0
    4.4845    0.8214    0.0000 C   0  0  0  0  0  0  0  0  0
    5.2915    0.9930    0.0000 C   0  0  0  0  0  0  0  0  0
    5.5464    1.7776    0.0000 C   0  0  0  0  0  0  0  0  0
    6.3310    2.0325    0.0000 C   0  0  0  0  0  0  0  0  0
    6.3310    2.8575    0.0000 C   0  0  0  0  0  0  0  0  0
    5.5464    3.1125    0.0000 O   0  0  0  0  0  0  0  0  0
    5.0615    2.4450    0.0000 C   0  0  0  0  0  0  0  0  0
    7.0455    3.2700    0.0000 C   0  0  0  0  0  0  0  0  0
    7.7600    2.8575    0.0000 C   0  0  0  0  0  0  0  0  0
    7.7600    2.0325    0.0000 C   0  0  0  0  0  0  0  0  0
    7.0455    1.6200    0.0000 C   0  0  0  0  0  0  0  0  0
  1  2  1  0  0  0  0
  2  3  4  0  0  0  0
  2 10  4  0  0  0  0
  3  4  4  0  0  0  0
  4  5  4  0  0  0  0
  4  8  4  0  0  0  0
  5  6  4  0  0  0  0
  6  7  4  0  0  0  0
  7  8  4  0  0  0  0
  7 11  1  0  0  0  0
  8  9  4  0  0  0  0
  9 10  4  0  0  0  0
 11 12  1  0  0  0  0
 11 16  2  0  0  0  0
 12 13  1  0  0  0  0
 13 14  1  0  0  0  0
 14 15  1  0  0  0  0
 14 17  1  0  0  0  0
 15 16  1  0  0  0  0
 17 18  1  0  0  0  0
 18 19  1  0  0  0  0
 19 20  4  0  0  0  0
 19 23  4  0  0  0  0
 20 21  4  0  0  0  0
 20 27  4  0  0  0  0
 21 22  4  0  0  0  0
 21 24  4  0  0  0  0
 22 23  4  0  0  0  0
 24 25  4  0  0  0  0
 25 26  4  0  0  0  0
 26 27  4  0  0  0  0
M  STY  1   1 DAT
M  SAL   1  1   5
M  SDT   1 MRV_IMPLICIT_H                                        
M  SDD   1     0.0000    0.0000    DR    ALL  0       0  
M  SED   1 IMPL_H1
M  END
>  <Name_Molregno>
602003

>  <5-HT1A>
7.25

$$$$
602005
  Marvin  02231216192D 0   1.00000     0.00000     0

 27 31  0  0  0  0  0  0  0  0999 V2000
   -7.7589   -2.0791    0.0000 F   0  0  0  0  0  0  0  0  0
   -7.0444   -2.4916    0.0000 C   0  0  0  0  0  0  0  0  0
   -6.3299   -2.0791    0.0000 C   0  0  0  0  0  0  0  0  0
   -5.6154   -2.4916    0.0000 C   0  0  0  0  0  0  0  0  0
   -5.6154   -3.3166    0.0000 C   0  0  0  0  0  0  0  0  0
   -4.8308   -3.5716    0.0000 N   0  0  0  0  0  0  0  0  0
   -4.3459   -2.9041    0.0000 C   0  0  0  0  0  0  0  0  0
   -4.8308   -2.2367    0.0000 C   0  0  0  0  0  0  0  0  0
   -4.5759   -1.4521    0.0000 C   0  0  0  0  0  0  0  0  0
   -5.1279   -0.8390    0.0000 C   0  0  0  0  0  0  0  0  0
   -4.8730   -0.0544    0.0000 C   0  0  0  0  0  0  0  0  0
   -4.0660    0.1172    0.0000 N   0  0  0  0  0  0  0  0  0
   -3.5140   -0.4959    0.0000 C   0  0  0  0  0  0  0  0  0
   -3.7689   -1.2806    0.0000 C   0  0  0  0  0  0  0  0  0
   -3.8111    0.9018    0.0000 C   0  0  0  0  0  0  0  0  0
   -3.0041    1.0733    0.0000 C   0  0  0  0  0  0  0  0  0
   -2.7492    1.8579    0.0000 C   0  0  0  0  0  0  0  0  0
   -1.9645    2.1129    0.0000 C   0  0  0  0  0  0  0  0  0
   -1.9645    2.9379    0.0000 C   0  0  0  0  0  0  0  0  0
   -2.7492    3.1928    0.0000 O   0  0  0  0  0  0  0  0  0
   -3.2341    2.5254    0.0000 C   0  0  0  0  0  0  0  0  0
   -1.2501    3.3504    0.0000 C   0  0  0  0  0  0  0  0  0
   -0.5356    2.9379    0.0000 C   0  0  0  0  0  0  0  0  0
   -0.5356    2.1129    0.0000 C   0  0  0  0  0  0  0  0  0
   -1.2501    1.7004    0.0000 C   0  0  0  0  0  0  0  0  0
   -6.3299   -3.7291    0.0000 C   0  0  0  0  0  0  0  0  0
   -7.0444   -3.3166    0.0000 C   0  0  0  0  0  0  0  0  0
  1  2  1  0  0  0  0
  2  3  4  0  0  0  0
  2 27  4  0  0  0  0
  3  4  4  0  0  0  0
  4  5  4  0  0  0  0
  4  8  4  0  0  0  0
  5  6  4  0  0  0  0
  5 26  4  0  0  0  0
  6  7  4  0  0  0  0
  7  8  4  0  0  0  0
  8  9  1  0  0  0  0
  9 10  1  0  0  0  0
  9 14  2  0  0  0  0
 10 11  1  0  0  0  0
 11 12  1  0  0  0  0
 12 13  1  0  0  0  0
 12 15  1  0  0  0  0
 13 14  1  0  0  0  0
 15 16  1  0  0  0  0
 16 17  1  0  0  0  0
 17 18  4  0  0  0  0
 17 21  4  0  0  0  0
 18 19  4  0  0  0  0
 18 25  4  0  0  0  0
 19 20  4  0  0  0  0
 19 22  4  0  0  0  0
 20 21  4  0  0  0  0
 22 23  4  0  0  0  0
 23 24  4  0  0  0  0
 24 25  4  0  0  0  0
 26 27  4  0  0  0  0
M  STY  1   1 DAT
M  SAL   1  1   6
M  SDT   1 MRV_IMPLICIT_H                                        
M  SDD   1     0.0000    0.0000    DR    ALL  0       0  
M  SED   1 IMPL_H1
M  END
>  <Name_Molregno>
602005

>  <5-HT1A>
6.61

$$$$
602072
  Marvin  02231216192D 0   1.00000     0.00000     0

 27 31  0  0  0  0  0  0  0  0999 V2000
   -7.2978   -2.4926    0.0000 F   0  0  0  0  0  0  0  0  0
   -6.5834   -2.9051    0.0000 C   0  0  0  0  0  0  0  0  0
   -5.8689   -2.4926    0.0000 C   0  0  0  0  0  0  0  0  0
   -5.1544   -2.9051    0.0000 C   0  0  0  0  0  0  0  0  0
   -5.1544   -3.7301    0.0000 C   0  0  0  0  0  0  0  0  0
   -4.3698   -3.9850    0.0000 O   0  0  0  0  0  0  0  0  0
   -3.8849   -3.3176    0.0000 C   0  0  0  0  0  0  0  0  0
   -4.3698   -2.6502    0.0000 C   0  0  0  0  0  0  0  0  0
   -4.1149   -1.8655    0.0000 C   0  0  0  0  0  0  0  0  0
   -4.6669   -1.2524    0.0000 C   0  0  0  0  0  0  0  0  0
   -4.4119   -0.4678    0.0000 N   0  0  0  0  0  0  0  0  0
   -4.9640    0.1453    0.0000 C   0  0  0  0  0  0  0  0  0
   -4.7090    0.9299    0.0000 C   0  0  0  0  0  0  0  0  0
   -3.9021    1.1014    0.0000 C   0  0  0  0  0  0  0  0  0
   -3.3500    0.4883    0.0000 C   0  0  0  0  0  0  0  0  0
   -3.6050   -0.2963    0.0000 C   0  0  0  0  0  0  0  0  0
   -3.6471    1.8860    0.0000 C   0  0  0  0  0  0  0  0  0
   -2.8625    2.1410    0.0000 C   0  0  0  0  0  0  0  0  0
   -2.8625    2.9660    0.0000 C   0  0  0  0  0  0  0  0  0
   -3.6471    3.2209    0.0000 N   0  0  0  0  0  0  0  0  0
   -4.1321    2.5535    0.0000 C   0  0  0  0  0  0  0  0  0
   -2.1480    3.3785    0.0000 C   0  0  0  0  0  0  0  0  0
   -1.4336    2.9660    0.0000 C   0  0  0  0  0  0  0  0  0
   -1.4336    2.1410    0.0000 C   0  0  0  0  0  0  0  0  0
   -2.1480    1.7285    0.0000 C   0  0  0  0  0  0  0  0  0
   -5.8689   -4.1426    0.0000 C   0  0  0  0  0  0  0  0  0
   -6.5834   -3.7301    0.0000 C   0  0  0  0  0  0  0  0  0
  1  2  1  0  0  0  0
  2  3  4  0  0  0  0
  2 27  4  0  0  0  0
  3  4  4  0  0  0  0
  4  5  4  0  0  0  0
  4  8  4  0  0  0  0
  5  6  4  0  0  0  0
  5 26  4  0  0  0  0
  6  7  4  0  0  0  0
  7  8  4  0  0  0  0
  8  9  1  0  0  0  0
  9 10  1  0  0  0  0
 10 11  1  0  0  0  0
 11 12  1  0  0  0  0
 11 16  1  0  0  0  0
 12 13  1  0  0  0  0
 13 14  1  0  0  0  0
 14 15  2  0  0  0  0
 14 17  1  0  0  0  0
 15 16  1  0  0  0  0
 17 18  4  0  0  0  0
 17 21  4  0  0  0  0
 18 19  4  0  0  0  0
 18 25  4  0  0  0  0
 19 20  4  0  0  0  0
 19 22  4  0  0  0  0
 20 21  4  0  0  0  0
 22 23  4  0  0  0  0
 23 24  4  0  0  0  0
 24 25  4  0  0  0  0
 26 27  4  0  0  0  0
M  STY  1   1 DAT
M  SAL   1  1  20
M  SDT   1 MRV_IMPLICIT_H                                        
M  SDD   1     0.0000    0.0000    DR    ALL  0       0  
M  SED   1 IMPL_H1
M  END
>  <Name_Molregno>
602072

>  <5-HT1A>
6.72

$$$$
608576
  Marvin  02231216192D 0   1.00000     0.00000     0

 26 29  0  0  1  0  0  0  0  0999 V2000
    0.8469   -3.8121    0.0000 S   0  0  0  0  0  0  0  0  0
    1.5614   -3.3996    0.0000 C   0  0  0  0  0  0  0  0  0
    1.5614   -2.5746    0.0000 C   0  0  0  0  0  0  0  0  0
    0.8469   -2.1621    0.0000 N   0  0  0  0  0  0  0  0  0
    0.1324   -2.5746    0.0000 C   0  0  0  0  0  0  0  0  0
    0.1324   -3.3996    0.0000 C   0  0  0  0  0  0  0  0  0
   -0.5820   -3.8121    0.0000 C   0  0  0  0  0  0  0  0  0
   -1.2965   -3.3996    0.0000 C   0  0  0  0  0  0  0  0  0
   -1.2965   -2.5746    0.0000 C   0  0  0  0  0  0  0  0  0
   -0.5820   -2.1621    0.0000 C   0  0  0  0  0  0  0  0  0
    0.8469   -1.3371    0.0000 C   0  0  0  0  0  0  0  0  0
    0.1324   -0.9246    0.0000 C   0  0  0  0  0  0  0  0  0
    0.1324   -0.0996    0.0000 C   0  0  0  0  0  0  0  0  0
   -0.5820    0.3129    0.0000 N   0  0  0  0  0  0  0  0  0
   -0.5820    1.1379    0.0000 C   0  0  0  0  0  0  0  0  0
    0.1324    1.5504    0.0000 C   0  0  0  0  0  0  0  0  0
    0.8469    1.1379    0.0000 C   0  0  0  0  0  0  0  0  0
    0.8469    0.3129    0.0000 C   0  0  0  0  0  0  0  0  0
   -1.2965   -0.0996    0.0000 C   0  0  0  0  0  0  0  0  0
    2.2758   -2.1621    0.0000 C   0  0  0  0  0  0  0  0  0
    2.9903   -2.5746    0.0000 C   0  0  0  0  0  0  0  0  0
    3.7048   -2.1621    0.0000 S   0  0  0  0  0  0  0  0  0
    3.7048   -1.3371    0.0000 O   0  0  0  0  0  0  0  0  0
    4.4193   -2.5746    0.0000 C   0  0  0  0  0  0  0  0  0
    2.9903   -3.3996    0.0000 C   0  0  0  0  0  0  0  0  0
    2.2758   -3.8121    0.0000 C   0  0  0  0  0  0  0  0  0
  1  2  1  0  0  0  0
  1  6  1  0  0  0  0
  2  3  4  0  0  0  0
  2 26  4  0  0  0  0
  3  4  1  0  0  0  0
  3 20  4  0  0  0  0
  4  5  1  0  0  0  0
  4 11  1  0  0  0  0
  5  6  4  0  0  0  0
  5 10  4  0  0  0  0
  6  7  4  0  0  0  0
  7  8  4  0  0  0  0
  8  9  4  0  0  0  0
  9 10  4  0  0  0  0
 11 12  1  0  0  0  0
 12 13  1  0  0  0  0
 13 14  1  0  0  0  0
 13 18  1  0  0  0  0
 14 15  1  0  0  0  0
 14 19  1  0  0  0  0
 15 16  1  0  0  0  0
 16 17  1  0  0  0  0
 17 18  1  0  0  0  0
 20 21  4  0  0  0  0
 21 22  1  0  0  0  0
 21 25  4  0  0  0  0
 22 23  2  0  0  0  0
 22 24  1  0  0  0  0
 25 26  4  0  0  0  0
M  END
>  <Name_Molregno>
608576

>  <5-HT1A>
6.76

>  <5-HT2A>
8.12

>  <5-HT2C>
6.8

>  <5-HT6>
6.42

>  <DOPAMINE D1>
6.35

>  <DOPAMINE D2>
7.31

>  <DOPAMINE D3>
7.51

>  <DOPAMINE D4>
8.04

>  <HISTAMINE H1>
8.74

>  <Muscarinic acetylcholine receptor M1>
8

>  <Muscarinic acetylcholine receptor M2>
7.82

>  <Muscarinic acetylcholine receptor M3>
7.05

>  <Muscarinic acetylcholine receptor M4>
7.72

>  <Muscarinic acetylcholine receptor M5>
7.22

$$$$
609001
  Marvin  02231216192D 0   1.00000     0.00000     0

 26 29  0  0  1  0  0  0  0  0999 V2000
   -0.4854   -0.6621    0.0000 Cl  0  0  0  0  0  0  0  0  0
    0.2291   -1.0746    0.0000 C   0  0  0  0  0  0  0  0  0
    0.9436   -0.6621    0.0000 C   0  0  0  0  0  0  0  0  0
    1.6580   -1.0746    0.0000 C   0  0  0  0  0  0  0  0  0
    1.6580   -1.8996    0.0000 C   0  0  0  0  0  0  0  0  0
    0.9436   -2.3121    0.0000 C   0  0  0  0  0  0  0  0  0
    0.2291   -1.8996    0.0000 C   0  0  0  0  0  0  0  0  0
   -0.4854   -2.3121    0.0000 S   0  0  0  0  0  0  0  0  0
   -0.8979   -1.5976    0.0000 O   0  0  0  0  0  0  0  0  0
   -0.0729   -3.0266    0.0000 O   0  0  0  0  0  0  0  0  0
   -1.1998   -2.7246    0.0000 N   0  0  0  0  0  0  0  0  0
   -1.9143   -2.3121    0.0000 C   0  0  0  0  0  0  0  0  0
   -2.6288   -2.7246    0.0000 C   0  0  0  0  0  0  0  0  0
   -3.3433   -2.3121    0.0000 C   0  0  0  0  0  0  0  0  0
   -3.3433   -1.4871    0.0000 C   0  0  0  0  0  0  0  0  0
   -4.1279   -1.2321    0.0000 N   0  0  0  0  0  0  0  0  0
   -4.6128   -1.8996    0.0000 C   0  0  0  0  0  0  0  0  0
   -4.1279   -2.5670    0.0000 C   0  0  0  0  0  0  0  0  0
   -4.3828   -3.3516    0.0000 C   0  0  0  0  0  0  0  0  0
   -5.1898   -3.5232    0.0000 C   0  0  0  0  0  0  0  0  0
   -5.5254   -4.2768    0.0000 N   0  0  0  0  0  0  0  0  0
   -6.3458   -4.1906    0.0000 C   0  0  0  0  0  0  0  0  0
   -6.5174   -3.3836    0.0000 C   0  0  0  0  0  0  0  0  0
   -5.8029   -2.9711    0.0000 C   0  0  0  0  0  0  0  0  0
   -2.6288   -1.0746    0.0000 C   0  0  0  0  0  0  0  0  0
   -1.9143   -1.4871    0.0000 C   0  0  0  0  0  0  0  0  0
  1  2  1  0  0  0  0
  2  3  4  0  0  0  0
  2  7  4  0  0  0  0
  3  4  4  0  0  0  0
  4  5  4  0  0  0  0
  5  6  4  0  0  0  0
  6  7  4  0  0  0  0
  7  8  1  0  0  0  0
  8  9  2  0  0  0  0
  8 10  2  0  0  0  0
  8 11  1  0  0  0  0
 11 12  1  0  0  0  0
 12 13  4  0  0  0  0
 12 26  4  0  0  0  0
 13 14  4  0  0  0  0
 14 15  4  0  0  0  0
 14 18  4  0  0  0  0
 15 16  4  0  0  0  0
 15 25  4  0  0  0  0
 16 17  4  0  0  0  0
 17 18  4  0  0  0  0
 18 19  1  0  0  0  0
 19 20  1  0  0  0  0
 20 21  1  0  0  0  0
 20 24  1  0  0  0  0
 21 22  1  0  0  0  0
 22 23  1  0  0  0  0
 23 24  1  0  0  0  0
 25 26  4  0  0  0  0
M  STY  1   1 DAT
M  SAL   1  1  16
M  SDT   1 MRV_IMPLICIT_H                                        
M  SDD   1     0.0000    0.0000    DR    ALL  0       0  
M  SED   1 IMPL_H1
M  END
>  <Name_Molregno>
609001

>  <5-HT1A>
6.26

>  <5-HT1B>
7.06

>  <5-HT1D>
6

>  <5-HT2C>
6.25

>  <5-HT6>
8.52

>  <DOPAMINE D2>
5.3

>  <DOPAMINE D3>
5.3

>  <DOPAMINE D4>
5.3

$$$$
610059
  Marvin  02231216192D 0   1.00000     0.00000     0

 27 30  0  0  1  0  0  0  0  0999 V2000
   -0.5134   -0.5339    0.0000 Cl  0  0  0  0  0  0  0  0  0
    0.2011   -0.9464    0.0000 C   0  0  0  0  0  0  0  0  0
    0.9155   -0.5339    0.0000 C   0  0  0  0  0  0  0  0  0
    1.6300   -0.9464    0.0000 C   0  0  0  0  0  0  0  0  0
    1.6300   -1.7714    0.0000 C   0  0  0  0  0  0  0  0  0
    0.9155   -2.1839    0.0000 C   0  0  0  0  0  0  0  0  0
    0.2011   -1.7714    0.0000 C   0  0  0  0  0  0  0  0  0
   -0.5134   -2.1839    0.0000 S   0  0  0  0  0  0  0  0  0
   -0.9259   -1.4694    0.0000 O   0  0  0  0  0  0  0  0  0
   -0.1009   -2.8983    0.0000 O   0  0  0  0  0  0  0  0  0
   -1.2279   -2.5964    0.0000 N   0  0  0  0  0  0  0  0  0
   -1.9424   -2.1839    0.0000 C   0  0  0  0  0  0  0  0  0
   -2.6568   -2.5964    0.0000 C   0  0  0  0  0  0  0  0  0
   -3.3713   -2.1839    0.0000 C   0  0  0  0  0  0  0  0  0
   -3.3713   -1.3589    0.0000 C   0  0  0  0  0  0  0  0  0
   -4.1559   -1.1039    0.0000 N   0  0  0  0  0  0  0  0  0
   -4.6408   -1.7714    0.0000 C   0  0  0  0  0  0  0  0  0
   -4.1559   -2.4388    0.0000 C   0  0  0  0  0  0  0  0  0
   -4.4109   -3.2234    0.0000 C   0  0  0  0  0  0  0  0  0
   -5.2178   -3.3950    0.0000 C   0  0  0  0  0  0  0  0  0
   -5.5534   -4.1486    0.0000 N   0  0  0  0  0  0  0  0  0
   -6.3739   -4.0624    0.0000 C   0  0  0  0  0  0  0  0  0
   -6.5454   -3.2554    0.0000 C   0  0  0  0  0  0  0  0  0
   -5.8309   -2.8429    0.0000 C   0  0  0  0  0  0  0  0  0
   -5.1409   -4.8631    0.0000 C   0  0  0  0  0  0  0  0  0
   -2.6568   -0.9464    0.0000 C   0  0  0  0  0  0  0  0  0
   -1.9424   -1.3589    0.0000 C   0  0  0  0  0  0  0  0  0
  1  2  1  0  0  0  0
  2  3  4  0  0  0  0
  2  7  4  0  0  0  0
  3  4  4  0  0  0  0
  4  5  4  0  0  0  0
  5  6  4  0  0  0  0
  6  7  4  0  0  0  0
  7  8  1  0  0  0  0
  8  9  2  0  0  0  0
  8 10  2  0  0  0  0
  8 11  1  0  0  0  0
 11 12  1  0  0  0  0
 12 13  4  0  0  0  0
 12 27  4  0  0  0  0
 13 14  4  0  0  0  0
 14 15  4  0  0  0  0
 14 18  4  0  0  0  0
 15 16  4  0  0  0  0
 15 26  4  0  0  0  0
 16 17  4  0  0  0  0
 17 18  4  0  0  0  0
 18 19  1  0  0  0  0
 19 20  1  0  0  0  0
 20 21  1  0  0  0  0
 20 24  1  0  0  0  0
 21 22  1  0  0  0  0
 21 25  1  0  0  0  0
 22 23  1  0  0  0  0
 23 24  1  0  0  0  0
 26 27  4  0  0  0  0
M  STY  1   1 DAT
M  SAL   1  1  16
M  SDT   1 MRV_IMPLICIT_H                                        
M  SDD   1     0.0000    0.0000    DR    ALL  0       0  
M  SED   1 IMPL_H1
M  END
>  <Name_Molregno>
610059

>  <5-HT1A>
6.77

>  <5-HT1B>
7.82

>  <5-HT1D>
7.53

>  <5-HT2A>
6.44

>  <5-HT2C>
6.54

>  <5-HT6>
8.33

>  <5-HT7>
7.13

>  <DOPAMINE D2>
5.7

>  <DOPAMINE D3>
6

>  <DOPAMINE D4>
5.3

$$$$
610060
  Marvin  02231216192D 0   1.00000     0.00000     0

 27 30  0  0  1  0  0  0  0  0999 V2000
    9.2263   -0.0100    0.0000 Cl  0  0  0  0  0  0  0  0  0
    8.5119    0.4025    0.0000 C   0  0  0  0  0  0  0  0  0
    7.7974   -0.0100    0.0000 C   0  0  0  0  0  0  0  0  0
    7.0829    0.4025    0.0000 C   0  0  0  0  0  0  0  0  0
    6.3685   -0.0100    0.0000 S   0  0  0  0  0  0  0  0  0
    5.9560    0.7045    0.0000 O   0  0  0  0  0  0  0  0  0
    6.7810   -0.7245    0.0000 O   0  0  0  0  0  0  0  0  0
    5.6540   -0.4225    0.0000 N   0  0  0  0  0  0  0  0  0
    4.9395   -0.0100    0.0000 C   0  0  0  0  0  0  0  0  0
    4.2250   -0.4225    0.0000 C   0  0  0  0  0  0  0  0  0
    3.5106   -0.0100    0.0000 C   0  0  0  0  0  0  0  0  0
    3.5106    0.8150    0.0000 C   0  0  0  0  0  0  0  0  0
    2.7260    1.0699    0.0000 N   0  0  0  0  0  0  0  0  0
    2.2410    0.4025    0.0000 C   0  0  0  0  0  0  0  0  0
    2.7260   -0.2649    0.0000 C   0  0  0  0  0  0  0  0  0
    2.4710   -1.0496    0.0000 C   0  0  0  0  0  0  0  0  0
    1.6640   -1.2211    0.0000 C   0  0  0  0  0  0  0  0  0
    1.3285   -1.9748    0.0000 N   0  0  0  0  0  0  0  0  0
    0.5080   -1.8885    0.0000 C   0  0  0  0  0  0  0  0  0
    0.3365   -1.0816    0.0000 C   0  0  0  0  0  0  0  0  0
    1.0509   -0.6691    0.0000 C   0  0  0  0  0  0  0  0  0
    1.7410   -2.6892    0.0000 C   0  0  0  0  0  0  0  0  0
    4.2250    1.2275    0.0000 C   0  0  0  0  0  0  0  0  0
    4.9395    0.8150    0.0000 C   0  0  0  0  0  0  0  0  0
    7.0829    1.2275    0.0000 C   0  0  0  0  0  0  0  0  0
    7.7974    1.6400    0.0000 C   0  0  0  0  0  0  0  0  0
    8.5119    1.2275    0.0000 C   0  0  0  0  0  0  0  0  0
  1  2  1  0  0  0  0
  2  3  4  0  0  0  0
  2 27  4  0  0  0  0
  3  4  4  0  0  0  0
  4  5  1  0  0  0  0
  4 25  4  0  0  0  0
  5  6  2  0  0  0  0
  5  7  2  0  0  0  0
  5  8  1  0  0  0  0
  8  9  1  0  0  0  0
  9 10  4  0  0  0  0
  9 24  4  0  0  0  0
 10 11  4  0  0  0  0
 11 12  4  0  0  0  0
 11 15  4  0  0  0  0
 12 13  4  0  0  0  0
 12 23  4  0  0  0  0
 13 14  4  0  0  0  0
 14 15  4  0  0  0  0
 15 16  1  0  0  0  0
 16 17  1  0  0  0  0
 17 18  1  0  0  0  0
 17 21  1  0  0  0  0
 18 19  1  0  0  0  0
 18 22  1  0  0  0  0
 19 20  1  0  0  0  0
 20 21  1  0  0  0  0
 23 24  4  0  0  0  0
 25 26  4  0  0  0  0
 26 27  4  0  0  0  0
M  STY  1   1 DAT
M  SAL   1  1  13
M  SDT   1 MRV_IMPLICIT_H                                        
M  SDD   1     0.0000    0.0000    DR    ALL  0       0  
M  SED   1 IMPL_H1
M  END
>  <Name_Molregno>
610060

>  <5-HT1A>
6.7

>  <5-HT1B>
8.37

>  <5-HT1D>
8.33

>  <5-HT2A>
6.57

>  <5-HT2C>
6.64

>  <5-HT6>
8.68

>  <5-HT7>
7.62

>  <DOPAMINE D2>
5.7

>  <DOPAMINE D3>
6.03

>  <DOPAMINE D4>
5.3

$$$$
615397
  Marvin  02231216192D 0   1.00000     0.00000     0

 30 33  0  0  1  0  0  0  0  0999 V2000
    0.0454    0.1393    0.0000 S   0  0  0  0  0  0  0  0  0
   -0.5066    0.7524    0.0000 C   0  0  0  0  0  0  0  0  0
   -0.0941    1.4669    0.0000 S   0  0  0  0  0  0  0  0  0
    0.7128    1.2954    0.0000 C   0  0  0  0  0  0  0  0  0
    0.7991    0.4749    0.0000 C   0  0  0  0  0  0  0  0  0
    1.5136    0.0624    0.0000 C   0  0  0  0  0  0  0  0  0
    2.2280    0.4749    0.0000 N   0  0  0  0  0  0  0  0  0
    2.9425    0.0624    0.0000 C   0  0  0  0  0  0  0  0  0
    3.6570    0.4749    0.0000 C   0  0  0  0  0  0  0  0  0
    4.3714    0.0624    0.0000 O   0  0  0  0  0  0  0  0  0
    5.0859    0.4749    0.0000 C   0  0  0  0  0  0  0  0  0
    5.0859    1.2999    0.0000 C   0  0  0  0  0  0  0  0  0
    5.8004    1.7124    0.0000 C   0  0  0  0  0  0  0  0  0
    6.5149    1.2999    0.0000 C   0  0  0  0  0  0  0  0  0
    6.5149    0.4749    0.0000 C   0  0  0  0  0  0  0  0  0
    5.8004    0.0624    0.0000 C   0  0  0  0  0  0  0  0  0
    5.8004   -0.7626    0.0000 O   0  0  0  0  0  0  0  0  0
    6.5149   -1.1751    0.0000 C   0  0  0  0  0  0  0  0  0
   -0.9985    0.0901    0.0000 C   0  0  0  0  0  0  0  0  0
   -0.6709   -0.6671    0.0000 C   0  0  0  0  0  0  0  0  0
   -1.1627   -1.3294    0.0000 C   0  0  0  0  0  0  0  0  0
   -1.9823   -1.2346    0.0000 C   0  0  0  0  0  0  0  0  0
   -2.3099   -0.4774    0.0000 C   0  0  0  0  0  0  0  0  0
   -1.8180    0.1849    0.0000 C   0  0  0  0  0  0  0  0  0
   -1.2638    1.0801    0.0000 C   0  0  0  0  0  0  0  0  0
   -1.9261    0.5882    0.0000 C   0  0  0  0  0  0  0  0  0
   -2.6832    0.9158    0.0000 C   0  0  0  0  0  0  0  0  0
   -2.7781    1.7354    0.0000 C   0  0  0  0  0  0  0  0  0
   -2.1157    2.2272    0.0000 C   0  0  0  0  0  0  0  0  0
   -1.3586    1.8996    0.0000 C   0  0  0  0  0  0  0  0  0
  1  2  1  0  0  0  0
  1  5  1  0  0  0  0
  2  3  1  0  0  0  0
  2 19  1  0  0  0  0
  2 25  1  0  0  0  0
  3  4  1  0  0  0  0
  4  5  1  0  0  0  0
  5  6  1  0  0  0  0
  6  7  1  0  0  0  0
  7  8  1  0  0  0  0
  8  9  1  0  0  0  0
  9 10  1  0  0  0  0
 10 11  1  0  0  0  0
 11 12  4  0  0  0  0
 11 16  4  0  0  0  0
 12 13  4  0  0  0  0
 13 14  4  0  0  0  0
 14 15  4  0  0  0  0
 15 16  4  0  0  0  0
 16 17  1  0  0  0  0
 17 18  1  0  0  0  0
 19 20  4  0  0  0  0
 19 24  4  0  0  0  0
 20 21  4  0  0  0  0
 21 22  4  0  0  0  0
 22 23  4  0  0  0  0
 23 24  4  0  0  0  0
 25 26  4  0  0  0  0
 25 30  4  0  0  0  0
 26 27  4  0  0  0  0
 27 28  4  0  0  0  0
 28 29  4  0  0  0  0
 29 30  4  0  0  0  0
M  END
>  <Name_Molregno>
615397

>  <5-HT1A>
9.89

>  <Alpha-1A>
7.45

>  <Alpha-1B>
6.93

$$$$
615508
  Marvin  02231216192D 0   1.00000     0.00000     0

 32 35  0  0  1  0  0  0  0  0999 V2000
    0.0146   -0.9525    0.0000 O   0  0  0  0  0  0  0  0  0
   -0.5375   -0.3394    0.0000 C   0  0  0  0  0  0  0  0  0
   -0.1250    0.3751    0.0000 O   0  0  0  0  0  0  0  0  0
    0.6820    0.2036    0.0000 C   0  0  0  0  0  0  0  0  0
    0.7682   -0.6169    0.0000 C   0  0  0  0  0  0  0  0  0
    1.4827   -1.0294    0.0000 C   0  0  0  0  0  0  0  0  0
    2.1972   -0.6169    0.0000 N   0  0  0  0  0  0  0  0  0
    2.9116   -1.0294    0.0000 C   0  0  0  0  0  0  0  0  0
    3.6261   -0.6169    0.0000 C   0  0  0  0  0  0  0  0  0
    4.3406   -1.0294    0.0000 O   0  0  0  0  0  0  0  0  0
    5.0551   -0.6169    0.0000 C   0  0  0  0  0  0  0  0  0
    5.0551    0.2081    0.0000 C   0  0  0  0  0  0  0  0  0
    4.3406    0.6206    0.0000 O   0  0  0  0  0  0  0  0  0
    4.3406    1.4456    0.0000 C   0  0  0  0  0  0  0  0  0
    5.7695    0.6206    0.0000 C   0  0  0  0  0  0  0  0  0
    6.4840    0.2081    0.0000 C   0  0  0  0  0  0  0  0  0
    6.4840   -0.6169    0.0000 C   0  0  0  0  0  0  0  0  0
    5.7695   -1.0294    0.0000 C   0  0  0  0  0  0  0  0  0
    5.7695   -1.8544    0.0000 O   0  0  0  0  0  0  0  0  0
    6.4840   -2.2669    0.0000 C   0  0  0  0  0  0  0  0  0
   -1.0294   -1.0017    0.0000 C   0  0  0  0  0  0  0  0  0
   -0.7017   -1.7589    0.0000 C   0  0  0  0  0  0  0  0  0
   -1.1936   -2.4212    0.0000 C   0  0  0  0  0  0  0  0  0
   -2.0131   -2.3264    0.0000 C   0  0  0  0  0  0  0  0  0
   -2.3408   -1.5692    0.0000 C   0  0  0  0  0  0  0  0  0
   -1.8489   -0.9069    0.0000 C   0  0  0  0  0  0  0  0  0
   -1.2946   -0.0117    0.0000 C   0  0  0  0  0  0  0  0  0
   -1.9569   -0.5036    0.0000 C   0  0  0  0  0  0  0  0  0
   -2.7141   -0.1760    0.0000 C   0  0  0  0  0  0  0  0  0
   -2.8089    0.6436    0.0000 C   0  0  0  0  0  0  0  0  0
   -2.1466    1.1354    0.0000 C   0  0  0  0  0  0  0  0  0
   -1.3894    0.8078    0.0000 C   0  0  0  0  0  0  0  0  0
  1  2  1  0  0  0  0
  1  5  1  0  0  0  0
  2  3  1  0  0  0  0
  2 21  1  0  0  0  0
  2 27  1  0  0  0  0
  3  4  1  0  0  0  0
  4  5  1  0  0  0  0
  5  6  1  0  0  0  0
  6  7  1  0  0  0  0
  7  8  1  0  0  0  0
  8  9  1  0  0  0  0
  9 10  1  0  0  0  0
 10 11  1  0  0  0  0
 11 12  4  0  0  0  0
 11 18  4  0  0  0  0
 12 13  1  0  0  0  0
 12 15  4  0  0  0  0
 13 14  1  0  0  0  0
 15 16  4  0  0  0  0
 16 17  4  0  0  0  0
 17 18  4  0  0  0  0
 18 19  1  0  0  0  0
 19 20  1  0  0  0  0
 21 22  4  0  0  0  0
 21 26  4  0  0  0  0
 22 23  4  0  0  0  0
 23 24  4  0  0  0  0
 24 25  4  0  0  0  0
 25 26  4  0  0  0  0
 27 28  4  0  0  0  0
 27 32  4  0  0  0  0
 28 29  4  0  0  0  0
 29 30  4  0  0  0  0
 30 31  4  0  0  0  0
 31 32  4  0  0  0  0
M  END
>  <Name_Molregno>
615508

>  <5-HT1A>
7.27

>  <Alpha-1A>
7

>  <Alpha-1B>
7.12

$$$$
615510
  Marvin  02231216192D 0   1.00000     0.00000     0

 30 33  0  0  1  0  0  0  0  0999 V2000
    0.1323   -0.0134    0.0000 O   0  0  0  0  0  0  0  0  0
   -0.4197    0.5997    0.0000 C   0  0  0  0  0  0  0  0  0
   -0.0072    1.3142    0.0000 O   0  0  0  0  0  0  0  0  0
    0.7997    1.1426    0.0000 C   0  0  0  0  0  0  0  0  0
    0.8860    0.3222    0.0000 C   0  0  0  0  0  0  0  0  0
    1.6004   -0.0903    0.0000 C   0  0  0  0  0  0  0  0  0
    2.3149    0.3222    0.0000 N   0  0  0  0  0  0  0  0  0
    3.0294   -0.0903    0.0000 C   0  0  0  0  0  0  0  0  0
    3.7438    0.3222    0.0000 C   0  0  0  0  0  0  0  0  0
    4.4583   -0.0903    0.0000 O   0  0  0  0  0  0  0  0  0
    5.1728    0.3222    0.0000 C   0  0  0  0  0  0  0  0  0
    5.1728    1.1472    0.0000 C   0  0  0  0  0  0  0  0  0
    5.8873    1.5597    0.0000 C   0  0  0  0  0  0  0  0  0
    5.8873    2.3847    0.0000 O   0  0  0  0  0  0  0  0  0
    6.6017    2.7972    0.0000 C   0  0  0  0  0  0  0  0  0
    6.6017    1.1472    0.0000 C   0  0  0  0  0  0  0  0  0
    6.6017    0.3222    0.0000 C   0  0  0  0  0  0  0  0  0
    5.8873   -0.0903    0.0000 C   0  0  0  0  0  0  0  0  0
   -0.9116   -0.0626    0.0000 C   0  0  0  0  0  0  0  0  0
   -0.5840   -0.8198    0.0000 C   0  0  0  0  0  0  0  0  0
   -1.0759   -1.4821    0.0000 C   0  0  0  0  0  0  0  0  0
   -1.8954   -1.3873    0.0000 C   0  0  0  0  0  0  0  0  0
   -2.2231   -0.6301    0.0000 C   0  0  0  0  0  0  0  0  0
   -1.7312    0.0322    0.0000 C   0  0  0  0  0  0  0  0  0
   -1.1769    0.9273    0.0000 C   0  0  0  0  0  0  0  0  0
   -1.8392    0.4355    0.0000 C   0  0  0  0  0  0  0  0  0
   -2.5964    0.7631    0.0000 C   0  0  0  0  0  0  0  0  0
   -2.6912    1.5826    0.0000 C   0  0  0  0  0  0  0  0  0
   -2.0289    2.0745    0.0000 C   0  0  0  0  0  0  0  0  0
   -1.2717    1.7469    0.0000 C   0  0  0  0  0  0  0  0  0
  1  2  1  0  0  0  0
  1  5  1  0  0  0  0
  2  3  1  0  0  0  0
  2 19  1  0  0  0  0
  2 25  1  0  0  0  0
  3  4  1  0  0  0  0
  4  5  1  0  0  0  0
  5  6  1  0  0  0  0
  6  7  1  0  0  0  0
  7  8  1  0  0  0  0
  8  9  1  0  0  0  0
  9 10  1  0  0  0  0
 10 11  1  0  0  0  0
 11 12  4  0  0  0  0
 11 18  4  0  0  0  0
 12 13  4  0  0  0  0
 13 14  1  0  0  0  0
 13 16  4  0  0  0  0
 14 15  1  0  0  0  0
 16 17  4  0  0  0  0
 17 18  4  0  0  0  0
 19 20  4  0  0  0  0
 19 24  4  0  0  0  0
 20 21  4  0  0  0  0
 21 22  4  0  0  0  0
 22 23  4  0  0  0  0
 23 24  4  0  0  0  0
 25 26  4  0  0  0  0
 25 30  4  0  0  0  0
 26 27  4  0  0  0  0
 27 28  4  0  0  0  0
 28 29  4  0  0  0  0
 29 30  4  0  0  0  0
M  END
>  <Name_Molregno>
615510

>  <5-HT1A>
8.58

>  <Alpha-1A>
7.04

>  <Alpha-1B>
7.23

$$$$
615511
  Marvin  02231216192D 0   1.00000     0.00000     0

 30 33  0  0  1  0  0  0  0  0999 V2000
    0.0454    0.1393    0.0000 O   0  0  0  0  0  0  0  0  0
   -0.5066    0.7524    0.0000 C   0  0  0  0  0  0  0  0  0
   -0.0941    1.4669    0.0000 O   0  0  0  0  0  0  0  0  0
    0.7128    1.2954    0.0000 C   0  0  0  0  0  0  0  0  0
    0.7991    0.4749    0.0000 C   0  0  0  0  0  0  0  0  0
    1.5136    0.0624    0.0000 C   0  0  0  0  0  0  0  0  0
    2.2280    0.4749    0.0000 N   0  0  0  0  0  0  0  0  0
    2.9425    0.0624    0.0000 C   0  0  0  0  0  0  0  0  0
    3.6570    0.4749    0.0000 C   0  0  0  0  0  0  0  0  0
    4.3714    0.0624    0.0000 C   0  0  0  0  0  0  0  0  0
    5.0859    0.4749    0.0000 C   0  0  0  0  0  0  0  0  0
    5.0859    1.2999    0.0000 C   0  0  0  0  0  0  0  0  0
    5.8004    1.7124    0.0000 C   0  0  0  0  0  0  0  0  0
    6.5149    1.2999    0.0000 C   0  0  0  0  0  0  0  0  0
    6.5149    0.4749    0.0000 C   0  0  0  0  0  0  0  0  0
    5.8004    0.0624    0.0000 C   0  0  0  0  0  0  0  0  0
    5.8004   -0.7626    0.0000 O   0  0  0  0  0  0  0  0  0
    6.5149   -1.1751    0.0000 C   0  0  0  0  0  0  0  0  0
   -0.9985    0.0901    0.0000 C   0  0  0  0  0  0  0  0  0
   -0.6709   -0.6671    0.0000 C   0  0  0  0  0  0  0  0  0
   -1.1627   -1.3294    0.0000 C   0  0  0  0  0  0  0  0  0
   -1.9823   -1.2346    0.0000 C   0  0  0  0  0  0  0  0  0
   -2.3099   -0.4774    0.0000 C   0  0  0  0  0  0  0  0  0
   -1.8180    0.1849    0.0000 C   0  0  0  0  0  0  0  0  0
   -1.2638    1.0801    0.0000 C   0  0  0  0  0  0  0  0  0
   -1.9261    0.5882    0.0000 C   0  0  0  0  0  0  0  0  0
   -2.6832    0.9158    0.0000 C   0  0  0  0  0  0  0  0  0
   -2.7781    1.7354    0.0000 C   0  0  0  0  0  0  0  0  0
   -2.1157    2.2272    0.0000 C   0  0  0  0  0  0  0  0  0
   -1.3586    1.8996    0.0000 C   0  0  0  0  0  0  0  0  0
  1  2  1  0  0  0  0
  1  5  1  0  0  0  0
  2  3  1  0  0  0  0
  2 19  1  0  0  0  0
  2 25  1  0  0  0  0
  3  4  1  0  0  0  0
  4  5  1  0  0  0  0
  5  6  1  0  0  0  0
  6  7  1  0  0  0  0
  7  8  1  0  0  0  0
  8  9  1  0  0  0  0
  9 10  1  0  0  0  0
 10 11  1  0  0  0  0
 11 12  4  0  0  0  0
 11 16  4  0  0  0  0
 12 13  4  0  0  0  0
 13 14  4  0  0  0  0
 14 15  4  0  0  0  0
 15 16  4  0  0  0  0
 16 17  1  0  0  0  0
 17 18  1  0  0  0  0
 19 20  4  0  0  0  0
 19 24  4  0  0  0  0
 20 21  4  0  0  0  0
 21 22  4  0  0  0  0
 22 23  4  0  0  0  0
 23 24  4  0  0  0  0
 25 26  4  0  0  0  0
 25 30  4  0  0  0  0
 26 27  4  0  0  0  0
 27 28  4  0  0  0  0
 28 29  4  0  0  0  0
 29 30  4  0  0  0  0
M  END
>  <Name_Molregno>
615511

>  <5-HT1A>
8.1

>  <Alpha-1A>
7.31

>  <Alpha-1B>
7.38

$$$$
615585
  Marvin  02231216192D 0   1.00000     0.00000     0

 29 32  0  0  1  0  0  0  0  0999 V2000
    0.0414    0.1652    0.0000 O   0  0  0  0  0  0  0  0  0
   -0.5106    0.7783    0.0000 C   0  0  0  0  0  0  0  0  0
   -0.0981    1.4928    0.0000 O   0  0  0  0  0  0  0  0  0
    0.7088    1.3212    0.0000 C   0  0  0  0  0  0  0  0  0
    0.7951    0.5008    0.0000 C   0  0  0  0  0  0  0  0  0
    1.5095    0.0883    0.0000 C   0  0  0  0  0  0  0  0  0
    2.2240    0.5008    0.0000 N   0  0  0  0  0  0  0  0  0
    2.9385    0.0883    0.0000 C   0  0  0  0  0  0  0  0  0
    3.6529    0.5008    0.0000 C   0  0  0  0  0  0  0  0  0
    4.3674    0.0883    0.0000 O   0  0  0  0  0  0  0  0  0
    5.0819    0.5008    0.0000 C   0  0  0  0  0  0  0  0  0
    5.0819    1.3258    0.0000 C   0  0  0  0  0  0  0  0  0
    5.7964    1.7383    0.0000 C   0  0  0  0  0  0  0  0  0
    6.5108    1.3258    0.0000 C   0  0  0  0  0  0  0  0  0
    6.5108    0.5008    0.0000 C   0  0  0  0  0  0  0  0  0
    5.7964    0.0883    0.0000 C   0  0  0  0  0  0  0  0  0
    5.7964   -0.7367    0.0000 C   0  0  0  0  0  0  0  0  0
   -1.0025    0.1160    0.0000 C   0  0  0  0  0  0  0  0  0
   -0.6749   -0.6412    0.0000 C   0  0  0  0  0  0  0  0  0
   -1.1668   -1.3035    0.0000 C   0  0  0  0  0  0  0  0  0
   -1.9863   -1.2087    0.0000 C   0  0  0  0  0  0  0  0  0
   -2.3140   -0.4515    0.0000 C   0  0  0  0  0  0  0  0  0
   -1.8221    0.2108    0.0000 C   0  0  0  0  0  0  0  0  0
   -1.2678    1.1059    0.0000 C   0  0  0  0  0  0  0  0  0
   -1.9301    0.6141    0.0000 C   0  0  0  0  0  0  0  0  0
   -2.6873    0.9417    0.0000 C   0  0  0  0  0  0  0  0  0
   -2.7821    1.7612    0.0000 C   0  0  0  0  0  0  0  0  0
   -2.1198    2.2531    0.0000 C   0  0  0  0  0  0  0  0  0
   -1.3626    1.9255    0.0000 C   0  0  0  0  0  0  0  0  0
  1  2  1  0  0  0  0
  1  5  1  0  0  0  0
  2  3  1  0  0  0  0
  2 18  1  0  0  0  0
  2 24  1  0  0  0  0
  3  4  1  0  0  0  0
  4  5  1  0  0  0  0
  5  6  1  0  0  0  0
  6  7  1  0  0  0  0
  7  8  1  0  0  0  0
  8  9  1  0  0  0  0
  9 10  1  0  0  0  0
 10 11  1  0  0  0  0
 11 12  4  0  0  0  0
 11 16  4  0  0  0  0
 12 13  4  0  0  0  0
 13 14  4  0  0  0  0
 14 15  4  0  0  0  0
 15 16  4  0  0  0  0
 16 17  1  0  0  0  0
 18 19  4  0  0  0  0
 18 23  4  0  0  0  0
 19 20  4  0  0  0  0
 20 21  4  0  0  0  0
 21 22  4  0  0  0  0
 22 23  4  0  0  0  0
 24 25  4  0  0  0  0
 24 29  4  0  0  0  0
 25 26  4  0  0  0  0
 26 27  4  0  0  0  0
 27 28  4  0  0  0  0
 28 29  4  0  0  0  0
M  END
>  <Name_Molregno>
615585

>  <5-HT1A>
8.08

>  <Alpha-1A>
6.93

>  <Alpha-1B>
6.62

$$$$
615586
  Marvin  02231216192D 0   1.00000     0.00000     0

 30 33  0  0  1  0  0  0  0  0999 V2000
    0.0454    0.1393    0.0000 O   0  0  0  0  0  0  0  0  0
   -0.5066    0.7524    0.0000 C   0  0  0  0  0  0  0  0  0
   -0.0941    1.4669    0.0000 O   0  0  0  0  0  0  0  0  0
    0.7128    1.2954    0.0000 C   0  0  0  0  0  0  0  0  0
    0.7991    0.4749    0.0000 C   0  0  0  0  0  0  0  0  0
    1.5136    0.0624    0.0000 C   0  0  0  0  0  0  0  0  0
    2.2280    0.4749    0.0000 N   0  0  0  0  0  0  0  0  0
    2.9425    0.0624    0.0000 C   0  0  0  0  0  0  0  0  0
    3.6570    0.4749    0.0000 C   0  0  0  0  0  0  0  0  0
    4.3714    0.0624    0.0000 O   0  0  0  0  0  0  0  0  0
    5.0859    0.4749    0.0000 C   0  0  0  0  0  0  0  0  0
    5.0859    1.2999    0.0000 C   0  0  0  0  0  0  0  0  0
    5.8004    1.7124    0.0000 C   0  0  0  0  0  0  0  0  0
    6.5149    1.2999    0.0000 C   0  0  0  0  0  0  0  0  0
    6.5149    0.4749    0.0000 C   0  0  0  0  0  0  0  0  0
    5.8004    0.0624    0.0000 C   0  0  0  0  0  0  0  0  0
    5.8004   -0.7626    0.0000 O   0  0  0  0  0  0  0  0  0
    6.5149   -1.1751    0.0000 C   0  0  0  0  0  0  0  0  0
   -0.9985    0.0901    0.0000 C   0  0  0  0  0  0  0  0  0
   -0.6709   -0.6671    0.0000 C   0  0  0  0  0  0  0  0  0
   -1.1627   -1.3294    0.0000 C   0  0  0  0  0  0  0  0  0
   -1.9823   -1.2346    0.0000 C   0  0  0  0  0  0  0  0  0
   -2.3099   -0.4774    0.0000 C   0  0  0  0  0  0  0  0  0
   -1.8180    0.1849    0.0000 C   0  0  0  0  0  0  0  0  0
   -1.2638    1.0801    0.0000 C   0  0  0  0  0  0  0  0  0
   -1.9261    0.5882    0.0000 C   0  0  0  0  0  0  0  0  0
   -2.6832    0.9158    0.0000 C   0  0  0  0  0  0  0  0  0
   -2.7781    1.7354    0.0000 C   0  0  0  0  0  0  0  0  0
   -2.1157    2.2272    0.0000 C   0  0  0  0  0  0  0  0  0
   -1.3586    1.8996    0.0000 C   0  0  0  0  0  0  0  0  0
  1  2  1  0  0  0  0
  1  5  1  0  0  0  0
  2  3  1  0  0  0  0
  2 19  1  0  0  0  0
  2 25  1  0  0  0  0
  3  4  1  0  0  0  0
  4  5  1  0  0  0  0
  5  6  1  0  0  0  0
  6  7  1  0  0  0  0
  7  8  1  0  0  0  0
  8  9  1  0  0  0  0
  9 10  1  0  0  0  0
 10 11  1  0  0  0  0
 11 12  4  0  0  0  0
 11 16  4  0  0  0  0
 12 13  4  0  0  0  0
 13 14  4  0  0  0  0
 14 15  4  0  0  0  0
 15 16  4  0  0  0  0
 16 17  1  0  0  0  0
 17 18  1  0  0  0  0
 19 20  4  0  0  0  0
 19 24  4  0  0  0  0
 20 21  4  0  0  0  0
 21 22  4  0  0  0  0
 22 23  4  0  0  0  0
 23 24  4  0  0  0  0
 25 26  4  0  0  0  0
 25 30  4  0  0  0  0
 26 27  4  0  0  0  0
 27 28  4  0  0  0  0
 28 29  4  0  0  0  0
 29 30  4  0  0  0  0
M  END
>  <Name_Molregno>
615586

>  <5-HT1A>
9.22

>  <Alpha-1A>
7.71

>  <Alpha-1B>
7.33

$$$$
615587
  Marvin  02231216192D 0   1.00000     0.00000     0

 28 31  0  0  1  0  0  0  0  0999 V2000
    0.1139   -0.9352    0.0000 O   0  0  0  0  0  0  0  0  0
   -0.4381   -0.3221    0.0000 C   0  0  0  0  0  0  0  0  0
   -0.0256    0.3924    0.0000 O   0  0  0  0  0  0  0  0  0
    0.7814    0.2209    0.0000 C   0  0  0  0  0  0  0  0  0
    0.8676   -0.5996    0.0000 C   0  0  0  0  0  0  0  0  0
    1.5821   -1.0121    0.0000 C   0  0  0  0  0  0  0  0  0
    2.2965   -0.5996    0.0000 N   0  0  0  0  0  0  0  0  0
    3.0110   -1.0121    0.0000 C   0  0  0  0  0  0  0  0  0
    3.7255   -0.5996    0.0000 C   0  0  0  0  0  0  0  0  0
    4.4399   -1.0121    0.0000 O   0  0  0  0  0  0  0  0  0
    5.1544   -0.5996    0.0000 C   0  0  0  0  0  0  0  0  0
    5.1544    0.2254    0.0000 C   0  0  0  0  0  0  0  0  0
    5.8689    0.6379    0.0000 C   0  0  0  0  0  0  0  0  0
    6.5834    0.2254    0.0000 C   0  0  0  0  0  0  0  0  0
    6.5834   -0.5996    0.0000 C   0  0  0  0  0  0  0  0  0
    5.8689   -1.0121    0.0000 C   0  0  0  0  0  0  0  0  0
   -0.9300   -0.9844    0.0000 C   0  0  0  0  0  0  0  0  0
   -0.6024   -1.7415    0.0000 C   0  0  0  0  0  0  0  0  0
   -1.0942   -2.4039    0.0000 C   0  0  0  0  0  0  0  0  0
   -1.9138   -2.3090    0.0000 C   0  0  0  0  0  0  0  0  0
   -2.2414   -1.5519    0.0000 C   0  0  0  0  0  0  0  0  0
   -1.7495   -0.8896    0.0000 C   0  0  0  0  0  0  0  0  0
   -1.1953    0.0056    0.0000 C   0  0  0  0  0  0  0  0  0
   -1.8576   -0.4863    0.0000 C   0  0  0  0  0  0  0  0  0
   -2.6147   -0.1587    0.0000 C   0  0  0  0  0  0  0  0  0
   -2.7096    0.6609    0.0000 C   0  0  0  0  0  0  0  0  0
   -2.0472    1.1528    0.0000 C   0  0  0  0  0  0  0  0  0
   -1.2901    0.8251    0.0000 C   0  0  0  0  0  0  0  0  0
  1  2  1  0  0  0  0
  1  5  1  0  0  0  0
  2  3  1  0  0  0  0
  2 17  1  0  0  0  0
  2 23  1  0  0  0  0
  3  4  1  0  0  0  0
  4  5  1  0  0  0  0
  5  6  1  0  0  0  0
  6  7  1  0  0  0  0
  7  8  1  0  0  0  0
  8  9  1  0  0  0  0
  9 10  1  0  0  0  0
 10 11  1  0  0  0  0
 11 12  4  0  0  0  0
 11 16  4  0  0  0  0
 12 13  4  0  0  0  0
 13 14  4  0  0  0  0
 14 15  4  0  0  0  0
 15 16  4  0  0  0  0
 17 18  4  0  0  0  0
 17 22  4  0  0  0  0
 18 19  4  0  0  0  0
 19 20  4  0  0  0  0
 20 21  4  0  0  0  0
 21 22  4  0  0  0  0
 23 24  4  0  0  0  0
 23 28  4  0  0  0  0
 24 25  4  0  0  0  0
 25 26  4  0  0  0  0
 26 27  4  0  0  0  0
 27 28  4  0  0  0  0
M  END
>  <Name_Molregno>
615587

>  <5-HT1A>
8.45

>  <Alpha-1A>
7.43

>  <Alpha-1B>
7.2

$$$$
615588
  Marvin  02231216192D 0   1.00000     0.00000     0

 30 33  0  0  1  0  0  0  0  0999 V2000
   -3.8929    0.0290    0.0000 S   0  0  0  0  0  0  0  0  0
   -3.3408    0.6421    0.0000 C   0  0  0  0  0  0  0  0  0
   -2.5871    0.3066    0.0000 C   0  0  0  0  0  0  0  0  0
   -2.6734   -0.5139    0.0000 O   0  0  0  0  0  0  0  0  0
   -3.4804   -0.6854    0.0000 C   0  0  0  0  0  0  0  0  0
   -3.1527   -1.4426    0.0000 C   0  0  0  0  0  0  0  0  0
   -2.3332   -1.5374    0.0000 C   0  0  0  0  0  0  0  0  0
   -2.0055   -2.2946    0.0000 C   0  0  0  0  0  0  0  0  0
   -2.4974   -2.9569    0.0000 C   0  0  0  0  0  0  0  0  0
   -3.3169   -2.8621    0.0000 C   0  0  0  0  0  0  0  0  0
   -3.6446   -2.1049    0.0000 C   0  0  0  0  0  0  0  0  0
   -4.1427   -1.1773    0.0000 C   0  0  0  0  0  0  0  0  0
   -4.0479   -1.9969    0.0000 C   0  0  0  0  0  0  0  0  0
   -4.7102   -2.4888    0.0000 C   0  0  0  0  0  0  0  0  0
   -5.4673   -2.1611    0.0000 C   0  0  0  0  0  0  0  0  0
   -5.5622   -1.3416    0.0000 C   0  0  0  0  0  0  0  0  0
   -4.8998   -0.8497    0.0000 C   0  0  0  0  0  0  0  0  0
   -1.8727    0.7191    0.0000 C   0  0  0  0  0  0  0  0  0
   -1.1582    0.3066    0.0000 N   0  0  0  0  0  0  0  0  0
   -0.4437    0.7191    0.0000 C   0  0  0  0  0  0  0  0  0
    0.2707    0.3066    0.0000 C   0  0  0  0  0  0  0  0  0
    0.9852    0.7191    0.0000 O   0  0  0  0  0  0  0  0  0
    1.6997    0.3066    0.0000 C   0  0  0  0  0  0  0  0  0
    2.4141    0.7191    0.0000 C   0  0  0  0  0  0  0  0  0
    3.1286    0.3066    0.0000 C   0  0  0  0  0  0  0  0  0
    3.1286   -0.5184    0.0000 C   0  0  0  0  0  0  0  0  0
    2.4141   -0.9309    0.0000 C   0  0  0  0  0  0  0  0  0
    1.6997   -0.5184    0.0000 C   0  0  0  0  0  0  0  0  0
    0.9852   -0.9309    0.0000 O   0  0  0  0  0  0  0  0  0
    0.9852   -1.7559    0.0000 C   0  0  0  0  0  0  0  0  0
  1  2  1  0  0  0  0
  1  5  1  0  0  0  0
  2  3  1  0  0  0  0
  3  4  1  0  0  0  0
  3 18  1  0  0  0  0
  4  5  1  0  0  0  0
  5  6  1  0  0  0  0
  5 12  1  0  0  0  0
  6  7  4  0  0  0  0
  6 11  4  0  0  0  0
  7  8  4  0  0  0  0
  8  9  4  0  0  0  0
  9 10  4  0  0  0  0
 10 11  4  0  0  0  0
 12 13  4  0  0  0  0
 12 17  4  0  0  0  0
 13 14  4  0  0  0  0
 14 15  4  0  0  0  0
 15 16  4  0  0  0  0
 16 17  4  0  0  0  0
 18 19  1  0  0  0  0
 19 20  1  0  0  0  0
 20 21  1  0  0  0  0
 21 22  1  0  0  0  0
 22 23  1  0  0  0  0
 23 24  4  0  0  0  0
 23 28  4  0  0  0  0
 24 25  4  0  0  0  0
 25 26  4  0  0  0  0
 26 27  4  0  0  0  0
 27 28  4  0  0  0  0
 28 29  1  0  0  0  0
 29 30  1  0  0  0  0
M  END
>  <Name_Molregno>
615588

>  <5-HT1A>
8.99

>  <Alpha-1A>
7.68

>  <Alpha-1B>
7

$$$$
616482
  Marvin  02231216192D 0   1.00000     0.00000     0

 34 38  0  0  1  0  0  0  0  0999 V2000
    1.8637    1.9604    0.0000 O   0  0  0  0  0  0  0  0  0
    2.5311    2.4453    0.0000 C   0  0  0  0  0  0  0  0  0
    3.1986    1.9604    0.0000 O   0  0  0  0  0  0  0  0  0
    2.9436    1.1758    0.0000 C   0  0  0  0  0  0  0  0  0
    2.1186    1.1758    0.0000 C   0  0  0  0  0  0  0  0  0
    1.6337    0.5084    0.0000 C   0  0  0  0  0  0  0  0  0
    1.9693   -0.2453    0.0000 N   0  0  0  0  0  0  0  0  0
    1.4843   -0.9128    0.0000 C   0  0  0  0  0  0  0  0  0
    1.8199   -1.6664    0.0000 C   0  0  0  0  0  0  0  0  0
    1.3350   -2.3339    0.0000 O   0  0  0  0  0  0  0  0  0
    1.6705   -3.0875    0.0000 C   0  0  0  0  0  0  0  0  0
    2.4910   -3.1738    0.0000 C   0  0  0  0  0  0  0  0  0
    2.8266   -3.9275    0.0000 C   0  0  0  0  0  0  0  0  0
    2.3416   -4.5949    0.0000 C   0  0  0  0  0  0  0  0  0
    1.5212   -4.5087    0.0000 C   0  0  0  0  0  0  0  0  0
    1.1856   -3.7550    0.0000 C   0  0  0  0  0  0  0  0  0
    2.6772   -5.3486    0.0000 C   0  0  0  0  0  0  0  0  0
    3.4977   -5.4348    0.0000 C   0  0  0  0  0  0  0  0  0
    3.8332   -6.1885    0.0000 C   0  0  0  0  0  0  0  0  0
    3.3483   -6.8559    0.0000 C   0  0  0  0  0  0  0  0  0
    2.5278   -6.7697    0.0000 C   0  0  0  0  0  0  0  0  0
    2.1923   -6.0160    0.0000 C   0  0  0  0  0  0  0  0  0
    1.9238    3.0038    0.0000 C   0  0  0  0  0  0  0  0  0
    1.1366    2.7571    0.0000 C   0  0  0  0  0  0  0  0  0
    0.5293    3.3155    0.0000 C   0  0  0  0  0  0  0  0  0
    0.7093    4.1206    0.0000 C   0  0  0  0  0  0  0  0  0
    1.4965    4.3673    0.0000 C   0  0  0  0  0  0  0  0  0
    2.1038    3.8089    0.0000 C   0  0  0  0  0  0  0  0  0
    2.9361    3.1641    0.0000 C   0  0  0  0  0  0  0  0  0
    2.5162    3.8742    0.0000 C   0  0  0  0  0  0  0  0  0
    2.9212    4.5930    0.0000 C   0  0  0  0  0  0  0  0  0
    3.7461    4.6016    0.0000 C   0  0  0  0  0  0  0  0  0
    4.1661    3.8915    0.0000 C   0  0  0  0  0  0  0  0  0
    3.7611    3.1727    0.0000 C   0  0  0  0  0  0  0  0  0
  1  2  1  0  0  0  0
  1  5  1  0  0  0  0
  2  3  1  0  0  0  0
  2 23  1  0  0  0  0
  2 29  1  0  0  0  0
  3  4  1  0  0  0  0
  4  5  1  0  0  0  0
  5  6  1  0  0  0  0
  6  7  1  0  0  0  0
  7  8  1  0  0  0  0
  8  9  1  0  0  0  0
  9 10  1  0  0  0  0
 10 11  1  0  0  0  0
 11 12  4  0  0  0  0
 11 16  4  0  0  0  0
 12 13  4  0  0  0  0
 13 14  4  0  0  0  0
 14 15  4  0  0  0  0
 14 17  1  0  0  0  0
 15 16  4  0  0  0  0
 17 18  4  0  0  0  0
 17 22  4  0  0  0  0
 18 19  4  0  0  0  0
 19 20  4  0  0  0  0
 20 21  4  0  0  0  0
 21 22  4  0  0  0  0
 23 24  4  0  0  0  0
 23 28  4  0  0  0  0
 24 25  4  0  0  0  0
 25 26  4  0  0  0  0
 26 27  4  0  0  0  0
 27 28  4  0  0  0  0
 29 30  4  0  0  0  0
 29 34  4  0  0  0  0
 30 31  4  0  0  0  0
 31 32  4  0  0  0  0
 32 33  4  0  0  0  0
 33 34  4  0  0  0  0
M  END
>  <Name_Molregno>
616482

>  <5-HT1A>
6

>  <Alpha-1A>
6

>  <Alpha-1B>
6

$$$$
616483
  Marvin  02231216192D 0   1.00000     0.00000     0

 34 38  0  0  1  0  0  0  0  0999 V2000
    1.1924    1.7193    0.0000 O   0  0  0  0  0  0  0  0  0
    1.8598    2.2042    0.0000 C   0  0  0  0  0  0  0  0  0
    2.5273    1.7193    0.0000 O   0  0  0  0  0  0  0  0  0
    2.2723    0.9347    0.0000 C   0  0  0  0  0  0  0  0  0
    1.4473    0.9347    0.0000 C   0  0  0  0  0  0  0  0  0
    0.9624    0.2672    0.0000 C   0  0  0  0  0  0  0  0  0
    1.2980   -0.4864    0.0000 N   0  0  0  0  0  0  0  0  0
    0.8130   -1.1539    0.0000 C   0  0  0  0  0  0  0  0  0
    1.1486   -1.9075    0.0000 C   0  0  0  0  0  0  0  0  0
    0.6637   -2.5750    0.0000 O   0  0  0  0  0  0  0  0  0
    0.9992   -3.3287    0.0000 C   0  0  0  0  0  0  0  0  0
    1.8197   -3.4149    0.0000 C   0  0  0  0  0  0  0  0  0
    2.1553   -4.1686    0.0000 C   0  0  0  0  0  0  0  0  0
    1.6704   -4.8360    0.0000 C   0  0  0  0  0  0  0  0  0
    0.8499   -4.7498    0.0000 C   0  0  0  0  0  0  0  0  0
    0.5143   -3.9961    0.0000 C   0  0  0  0  0  0  0  0  0
    2.9758   -4.2548    0.0000 C   0  0  0  0  0  0  0  0  0
    3.4607   -3.5874    0.0000 C   0  0  0  0  0  0  0  0  0
    4.2812   -3.6736    0.0000 C   0  0  0  0  0  0  0  0  0
    4.6167   -4.4273    0.0000 C   0  0  0  0  0  0  0  0  0
    4.1318   -5.0947    0.0000 C   0  0  0  0  0  0  0  0  0
    3.3113   -5.0085    0.0000 C   0  0  0  0  0  0  0  0  0
    1.2526    2.7627    0.0000 C   0  0  0  0  0  0  0  0  0
    0.4653    2.5159    0.0000 C   0  0  0  0  0  0  0  0  0
   -0.1420    3.0744    0.0000 C   0  0  0  0  0  0  0  0  0
    0.0380    3.8795    0.0000 C   0  0  0  0  0  0  0  0  0
    0.8252    4.1262    0.0000 C   0  0  0  0  0  0  0  0  0
    1.4325    3.5678    0.0000 C   0  0  0  0  0  0  0  0  0
    2.2648    2.9230    0.0000 C   0  0  0  0  0  0  0  0  0
    1.8449    3.6331    0.0000 C   0  0  0  0  0  0  0  0  0
    2.2499    4.3518    0.0000 C   0  0  0  0  0  0  0  0  0
    3.0748    4.3605    0.0000 C   0  0  0  0  0  0  0  0  0
    3.4948    3.6504    0.0000 C   0  0  0  0  0  0  0  0  0
    3.0898    2.9316    0.0000 C   0  0  0  0  0  0  0  0  0
  1  2  1  0  0  0  0
  1  5  1  0  0  0  0
  2  3  1  0  0  0  0
  2 23  1  0  0  0  0
  2 29  1  0  0  0  0
  3  4  1  0  0  0  0
  4  5  1  0  0  0  0
  5  6  1  0  0  0  0
  6  7  1  0  0  0  0
  7  8  1  0  0  0  0
  8  9  1  0  0  0  0
  9 10  1  0  0  0  0
 10 11  1  0  0  0  0
 11 12  4  0  0  0  0
 11 16  4  0  0  0  0
 12 13  4  0  0  0  0
 13 14  4  0  0  0  0
 13 17  1  0  0  0  0
 14 15  4  0  0  0  0
 15 16  4  0  0  0  0
 17 18  4  0  0  0  0
 17 22  4  0  0  0  0
 18 19  4  0  0  0  0
 19 20  4  0  0  0  0
 20 21  4  0  0  0  0
 21 22  4  0  0  0  0
 23 24  4  0  0  0  0
 23 28  4  0  0  0  0
 24 25  4  0  0  0  0
 25 26  4  0  0  0  0
 26 27  4  0  0  0  0
 27 28  4  0  0  0  0
 29 30  4  0  0  0  0
 29 34  4  0  0  0  0
 30 31  4  0  0  0  0
 31 32  4  0  0  0  0
 32 33  4  0  0  0  0
 33 34  4  0  0  0  0
M  END
>  <Name_Molregno>
616483

>  <5-HT1A>
7.54

>  <Alpha-1A>
6

>  <Alpha-1B>
6

$$$$
616484
  Marvin  02231216192D 0   1.00000     0.00000     0

 34 38  0  0  1  0  0  0  0  0999 V2000
    1.9680    1.5052    0.0000 O   0  0  0  0  0  0  0  0  0
    2.6354    1.9901    0.0000 C   0  0  0  0  0  0  0  0  0
    3.3028    1.5052    0.0000 O   0  0  0  0  0  0  0  0  0
    3.0479    0.7206    0.0000 C   0  0  0  0  0  0  0  0  0
    2.2229    0.7206    0.0000 C   0  0  0  0  0  0  0  0  0
    1.7380    0.0532    0.0000 C   0  0  0  0  0  0  0  0  0
    2.0735   -0.7005    0.0000 N   0  0  0  0  0  0  0  0  0
    1.5886   -1.3680    0.0000 C   0  0  0  0  0  0  0  0  0
    1.9242   -2.1216    0.0000 C   0  0  0  0  0  0  0  0  0
    1.4392   -2.7891    0.0000 O   0  0  0  0  0  0  0  0  0
    1.7748   -3.5427    0.0000 C   0  0  0  0  0  0  0  0  0
    2.5953   -3.6290    0.0000 C   0  0  0  0  0  0  0  0  0
    2.9308   -4.3827    0.0000 C   0  0  0  0  0  0  0  0  0
    2.4459   -5.0501    0.0000 C   0  0  0  0  0  0  0  0  0
    1.6254   -4.9639    0.0000 C   0  0  0  0  0  0  0  0  0
    1.2899   -4.2102    0.0000 C   0  0  0  0  0  0  0  0  0
    0.4694   -4.1239    0.0000 C   0  0  0  0  0  0  0  0  0
   -0.0155   -4.7914    0.0000 C   0  0  0  0  0  0  0  0  0
   -0.8360   -4.7051    0.0000 C   0  0  0  0  0  0  0  0  0
   -1.1716   -3.9515    0.0000 C   0  0  0  0  0  0  0  0  0
   -0.6866   -3.2840    0.0000 C   0  0  0  0  0  0  0  0  0
    0.1338   -3.3703    0.0000 C   0  0  0  0  0  0  0  0  0
    2.0281    2.5486    0.0000 C   0  0  0  0  0  0  0  0  0
    1.2409    2.3019    0.0000 C   0  0  0  0  0  0  0  0  0
    0.6336    2.8603    0.0000 C   0  0  0  0  0  0  0  0  0
    0.8136    3.6654    0.0000 C   0  0  0  0  0  0  0  0  0
    1.6008    3.9121    0.0000 C   0  0  0  0  0  0  0  0  0
    2.2081    3.3537    0.0000 C   0  0  0  0  0  0  0  0  0
    3.0404    2.7089    0.0000 C   0  0  0  0  0  0  0  0  0
    2.6204    3.4190    0.0000 C   0  0  0  0  0  0  0  0  0
    3.0254    4.1378    0.0000 C   0  0  0  0  0  0  0  0  0
    3.8504    4.1464    0.0000 C   0  0  0  0  0  0  0  0  0
    4.2703    3.4363    0.0000 C   0  0  0  0  0  0  0  0  0
    3.8653    2.7175    0.0000 C   0  0  0  0  0  0  0  0  0
  1  2  1  0  0  0  0
  1  5  1  0  0  0  0
  2  3  1  0  0  0  0
  2 23  1  0  0  0  0
  2 29  1  0  0  0  0
  3  4  1  0  0  0  0
  4  5  1  0  0  0  0
  5  6  1  0  0  0  0
  6  7  1  0  0  0  0
  7  8  1  0  0  0  0
  8  9  1  0  0  0  0
  9 10  1  0  0  0  0
 10 11  1  0  0  0  0
 11 12  4  0  0  0  0
 11 16  4  0  0  0  0
 12 13  4  0  0  0  0
 13 14  4  0  0  0  0
 14 15  4  0  0  0  0
 15 16  4  0  0  0  0
 16 17  1  0  0  0  0
 17 18  4  0  0  0  0
 17 22  4  0  0  0  0
 18 19  4  0  0  0  0
 19 20  4  0  0  0  0
 20 21  4  0  0  0  0
 21 22  4  0  0  0  0
 23 24  4  0  0  0  0
 23 28  4  0  0  0  0
 24 25  4  0  0  0  0
 25 26  4  0  0  0  0
 26 27  4  0  0  0  0
 27 28  4  0  0  0  0
 29 30  4  0  0  0  0
 29 34  4  0  0  0  0
 30 31  4  0  0  0  0
 31 32  4  0  0  0  0
 32 33  4  0  0  0  0
 33 34  4  0  0  0  0
M  END
>  <Name_Molregno>
616484

>  <5-HT1A>
8.66

>  <Alpha-1A>
6.31

>  <Alpha-1B>
6

$$$$
616485
  Marvin  02231216192D 0   1.00000     0.00000     0

 32 35  0  0  1  0  0  0  0  0999 V2000
    0.0328    0.1366    0.0000 O   0  0  0  0  0  0  0  0  0
   -0.5192    0.7497    0.0000 C   0  0  0  0  0  0  0  0  0
   -0.1067    1.4641    0.0000 O   0  0  0  0  0  0  0  0  0
    0.7003    1.2926    0.0000 C   0  0  0  0  0  0  0  0  0
    0.7865    0.4721    0.0000 C   0  0  0  0  0  0  0  0  0
    1.5010    0.0596    0.0000 C   0  0  0  0  0  0  0  0  0
    2.2155    0.4721    0.0000 N   0  0  0  0  0  0  0  0  0
    2.9299    0.0596    0.0000 C   0  0  0  0  0  0  0  0  0
    3.6444    0.4721    0.0000 C   0  0  0  0  0  0  0  0  0
    4.3589    0.0596    0.0000 O   0  0  0  0  0  0  0  0  0
    5.0733    0.4721    0.0000 C   0  0  0  0  0  0  0  0  0
    5.0733    1.2971    0.0000 C   0  0  0  0  0  0  0  0  0
    5.7878    1.7096    0.0000 C   0  0  0  0  0  0  0  0  0
    6.5023    1.2971    0.0000 C   0  0  0  0  0  0  0  0  0
    6.5023    0.4721    0.0000 C   0  0  0  0  0  0  0  0  0
    5.7878    0.0596    0.0000 C   0  0  0  0  0  0  0  0  0
    5.7878   -0.7654    0.0000 O   0  0  0  0  0  0  0  0  0
    6.5023   -1.1779    0.0000 C   0  0  0  0  0  0  0  0  0
    6.5023   -2.0029    0.0000 C   0  0  0  0  0  0  0  0  0
    7.2168   -0.7654    0.0000 C   0  0  0  0  0  0  0  0  0
   -1.0111    0.0873    0.0000 C   0  0  0  0  0  0  0  0  0
   -0.6834   -0.6698    0.0000 C   0  0  0  0  0  0  0  0  0
   -1.1753   -1.3321    0.0000 C   0  0  0  0  0  0  0  0  0
   -1.9948   -1.2373    0.0000 C   0  0  0  0  0  0  0  0  0
   -2.3225   -0.4802    0.0000 C   0  0  0  0  0  0  0  0  0
   -1.8306    0.1821    0.0000 C   0  0  0  0  0  0  0  0  0
   -1.2763    1.0773    0.0000 C   0  0  0  0  0  0  0  0  0
   -1.9387    0.5854    0.0000 C   0  0  0  0  0  0  0  0  0
   -2.6958    0.9131    0.0000 C   0  0  0  0  0  0  0  0  0
   -2.7906    1.7326    0.0000 C   0  0  0  0  0  0  0  0  0
   -2.1283    2.2245    0.0000 C   0  0  0  0  0  0  0  0  0
   -1.3712    1.8968    0.0000 C   0  0  0  0  0  0  0  0  0
  1  2  1  0  0  0  0
  1  5  1  0  0  0  0
  2  3  1  0  0  0  0
  2 21  1  0  0  0  0
  2 27  1  0  0  0  0
  3  4  1  0  0  0  0
  4  5  1  0  0  0  0
  5  6  1  0  0  0  0
  6  7  1  0  0  0  0
  7  8  1  0  0  0  0
  8  9  1  0  0  0  0
  9 10  1  0  0  0  0
 10 11  1  0  0  0  0
 11 12  4  0  0  0  0
 11 16  4  0  0  0  0
 12 13  4  0  0  0  0
 13 14  4  0  0  0  0
 14 15  4  0  0  0  0
 15 16  4  0  0  0  0
 16 17  1  0  0  0  0
 17 18  1  0  0  0  0
 18 19  1  0  0  0  0
 18 20  1  0  0  0  0
 21 22  4  0  0  0  0
 21 26  4  0  0  0  0
 22 23  4  0  0  0  0
 23 24  4  0  0  0  0
 24 25  4  0  0  0  0
 25 26  4  0  0  0  0
 27 28  4  0  0  0  0
 27 32  4  0  0  0  0
 28 29  4  0  0  0  0
 29 30  4  0  0  0  0
 30 31  4  0  0  0  0
 31 32  4  0  0  0  0
M  END
>  <Name_Molregno>
616485

>  <5-HT1A>
8.77

>  <Alpha-1A>
8.68

>  <Alpha-1B>
7.7

$$$$
616565
  Marvin  02231216192D 0   1.00000     0.00000     0

 31 34  0  0  1  0  0  0  0  0999 V2000
    0.0375    0.1464    0.0000 O   0  0  0  0  0  0  0  0  0
   -0.5145    0.7595    0.0000 C   0  0  0  0  0  0  0  0  0
   -0.1020    1.4740    0.0000 O   0  0  0  0  0  0  0  0  0
    0.7050    1.3024    0.0000 C   0  0  0  0  0  0  0  0  0
    0.7912    0.4820    0.0000 C   0  0  0  0  0  0  0  0  0
    1.5057    0.0695    0.0000 C   0  0  0  0  0  0  0  0  0
    2.2201    0.4820    0.0000 N   0  0  0  0  0  0  0  0  0
    2.9346    0.0695    0.0000 C   0  0  0  0  0  0  0  0  0
    3.6491    0.4820    0.0000 C   0  0  0  0  0  0  0  0  0
    4.3635    0.0695    0.0000 O   0  0  0  0  0  0  0  0  0
    5.0780    0.4820    0.0000 C   0  0  0  0  0  0  0  0  0
    5.0780    1.3070    0.0000 C   0  0  0  0  0  0  0  0  0
    5.7925    1.7195    0.0000 C   0  0  0  0  0  0  0  0  0
    6.5070    1.3070    0.0000 C   0  0  0  0  0  0  0  0  0
    6.5070    0.4820    0.0000 C   0  0  0  0  0  0  0  0  0
    5.7925    0.0695    0.0000 C   0  0  0  0  0  0  0  0  0
    5.7925   -0.7555    0.0000 O   0  0  0  0  0  0  0  0  0
    6.5070   -1.1680    0.0000 C   0  0  0  0  0  0  0  0  0
    6.5070   -1.9930    0.0000 C   0  0  0  0  0  0  0  0  0
   -1.0064    0.0972    0.0000 C   0  0  0  0  0  0  0  0  0
   -0.6788   -0.6600    0.0000 C   0  0  0  0  0  0  0  0  0
   -1.1706   -1.3223    0.0000 C   0  0  0  0  0  0  0  0  0
   -1.9902   -1.2275    0.0000 C   0  0  0  0  0  0  0  0  0
   -2.3178   -0.4703    0.0000 C   0  0  0  0  0  0  0  0  0
   -1.8259    0.1920    0.0000 C   0  0  0  0  0  0  0  0  0
   -1.2717    1.0872    0.0000 C   0  0  0  0  0  0  0  0  0
   -1.9340    0.5953    0.0000 C   0  0  0  0  0  0  0  0  0
   -2.6911    0.9229    0.0000 C   0  0  0  0  0  0  0  0  0
   -2.7860    1.7424    0.0000 C   0  0  0  0  0  0  0  0  0
   -2.1236    2.2343    0.0000 C   0  0  0  0  0  0  0  0  0
   -1.3665    1.9067    0.0000 C   0  0  0  0  0  0  0  0  0
  1  2  1  0  0  0  0
  1  5  1  0  0  0  0
  2  3  1  0  0  0  0
  2 20  1  0  0  0  0
  2 26  1  0  0  0  0
  3  4  1  0  0  0  0
  4  5  1  0  0  0  0
  5  6  1  0  0  0  0
  6  7  1  0  0  0  0
  7  8  1  0  0  0  0
  8  9  1  0  0  0  0
  9 10  1  0  0  0  0
 10 11  1  0  0  0  0
 11 12  4  0  0  0  0
 11 16  4  0  0  0  0
 12 13  4  0  0  0  0
 13 14  4  0  0  0  0
 14 15  4  0  0  0  0
 15 16  4  0  0  0  0
 16 17  1  0  0  0  0
 17 18  1  0  0  0  0
 18 19  1  0  0  0  0
 20 21  4  0  0  0  0
 20 25  4  0  0  0  0
 21 22  4  0  0  0  0
 22 23  4  0  0  0  0
 23 24  4  0  0  0  0
 24 25  4  0  0  0  0
 26 27  4  0  0  0  0
 26 31  4  0  0  0  0
 27 28  4  0  0  0  0
 28 29  4  0  0  0  0
 29 30  4  0  0  0  0
 30 31  4  0  0  0  0
M  END
>  <Name_Molregno>
616565

>  <5-HT1A>
9.05

>  <Alpha-1A>
8.18

>  <Alpha-1B>
7.27

$$$$
616566
  Marvin  02231216192D 0   1.00000     0.00000     0

 32 35  0  0  1  0  0  0  0  0999 V2000
    0.0464    0.1773    0.0000 O   0  0  0  0  0  0  0  0  0
   -0.5056    0.7903    0.0000 C   0  0  0  0  0  0  0  0  0
   -0.0931    1.5048    0.0000 O   0  0  0  0  0  0  0  0  0
    0.7138    1.3333    0.0000 C   0  0  0  0  0  0  0  0  0
    0.8001    0.5128    0.0000 C   0  0  0  0  0  0  0  0  0
    1.5146    0.1003    0.0000 C   0  0  0  0  0  0  0  0  0
    2.2290    0.5128    0.0000 N   0  0  0  0  0  0  0  0  0
    2.9435    0.1003    0.0000 C   0  0  0  0  0  0  0  0  0
    3.6580    0.5128    0.0000 C   0  0  0  0  0  0  0  0  0
    4.3724    0.1003    0.0000 O   0  0  0  0  0  0  0  0  0
    5.0869    0.5128    0.0000 C   0  0  0  0  0  0  0  0  0
    5.0869    1.3378    0.0000 C   0  0  0  0  0  0  0  0  0
    5.8014    1.7503    0.0000 C   0  0  0  0  0  0  0  0  0
    5.8014    2.5753    0.0000 O   0  0  0  0  0  0  0  0  0
    6.5158    2.9878    0.0000 C   0  0  0  0  0  0  0  0  0
    6.5158    1.3378    0.0000 C   0  0  0  0  0  0  0  0  0
    6.5158    0.5128    0.0000 C   0  0  0  0  0  0  0  0  0
    7.2303    0.1003    0.0000 O   0  0  0  0  0  0  0  0  0
    7.2303   -0.7247    0.0000 C   0  0  0  0  0  0  0  0  0
    5.8014    0.1003    0.0000 C   0  0  0  0  0  0  0  0  0
   -0.9975    0.1280    0.0000 C   0  0  0  0  0  0  0  0  0
   -0.6699   -0.6291    0.0000 C   0  0  0  0  0  0  0  0  0
   -1.1618   -1.2914    0.0000 C   0  0  0  0  0  0  0  0  0
   -1.9813   -1.1966    0.0000 C   0  0  0  0  0  0  0  0  0
   -2.3089   -0.4395    0.0000 C   0  0  0  0  0  0  0  0  0
   -1.8170    0.2228    0.0000 C   0  0  0  0  0  0  0  0  0
   -1.2628    1.1180    0.0000 C   0  0  0  0  0  0  0  0  0
   -1.9251    0.6261    0.0000 C   0  0  0  0  0  0  0  0  0
   -2.6822    0.9538    0.0000 C   0  0  0  0  0  0  0  0  0
   -2.7771    1.7733    0.0000 C   0  0  0  0  0  0  0  0  0
   -2.1147    2.2652    0.0000 C   0  0  0  0  0  0  0  0  0
   -1.3576    1.9375    0.0000 C   0  0  0  0  0  0  0  0  0
  1  2  1  0  0  0  0
  1  5  1  0  0  0  0
  2  3  1  0  0  0  0
  2 21  1  0  0  0  0
  2 27  1  0  0  0  0
  3  4  1  0  0  0  0
  4  5  1  0  0  0  0
  5  6  1  0  0  0  0
  6  7  1  0  0  0  0
  7  8  1  0  0  0  0
  8  9  1  0  0  0  0
  9 10  1  0  0  0  0
 10 11  1  0  0  0  0
 11 12  4  0  0  0  0
 11 20  4  0  0  0  0
 12 13  4  0  0  0  0
 13 14  1  0  0  0  0
 13 16  4  0  0  0  0
 14 15  1  0  0  0  0
 16 17  4  0  0  0  0
 17 18  1  0  0  0  0
 17 20  4  0  0  0  0
 18 19  1  0  0  0  0
 21 22  4  0  0  0  0
 21 26  4  0  0  0  0
 22 23  4  0  0  0  0
 23 24  4  0  0  0  0
 24 25  4  0  0  0  0
 25 26  4  0  0  0  0
 27 28  4  0  0  0  0
 27 32  4  0  0  0  0
 28 29  4  0  0  0  0
 29 30  4  0  0  0  0
 30 31  4  0  0  0  0
 31 32  4  0  0  0  0
M  END
>  <Name_Molregno>
616566

>  <5-HT1A>
6

>  <Alpha-1A>
6.52

>  <Alpha-1B>
6.35

$$$$
616567
  Marvin  02231216192D 0   1.00000     0.00000     0

 32 35  0  0  1  0  0  0  0  0999 V2000
    0.0748   -1.0812    0.0000 O   0  0  0  0  0  0  0  0  0
   -0.4773   -0.4681    0.0000 C   0  0  0  0  0  0  0  0  0
   -0.0648    0.2464    0.0000 O   0  0  0  0  0  0  0  0  0
    0.7422    0.0748    0.0000 C   0  0  0  0  0  0  0  0  0
    0.8284   -0.7456    0.0000 C   0  0  0  0  0  0  0  0  0
    1.5429   -1.1581    0.0000 C   0  0  0  0  0  0  0  0  0
    2.2574   -0.7456    0.0000 N   0  0  0  0  0  0  0  0  0
    2.9719   -1.1581    0.0000 C   0  0  0  0  0  0  0  0  0
    3.6863   -0.7456    0.0000 C   0  0  0  0  0  0  0  0  0
    4.4008   -1.1581    0.0000 O   0  0  0  0  0  0  0  0  0
    5.1153   -0.7456    0.0000 C   0  0  0  0  0  0  0  0  0
    5.1153    0.0794    0.0000 C   0  0  0  0  0  0  0  0  0
    5.8297    0.4919    0.0000 C   0  0  0  0  0  0  0  0  0
    5.8297    1.3169    0.0000 O   0  0  0  0  0  0  0  0  0
    6.5442    1.7294    0.0000 C   0  0  0  0  0  0  0  0  0
    6.5442    0.0794    0.0000 C   0  0  0  0  0  0  0  0  0
    7.2587    0.4919    0.0000 O   0  0  0  0  0  0  0  0  0
    7.9732    0.0794    0.0000 C   0  0  0  0  0  0  0  0  0
    6.5442   -0.7456    0.0000 C   0  0  0  0  0  0  0  0  0
    5.8297   -1.1581    0.0000 C   0  0  0  0  0  0  0  0  0
   -0.9691   -1.1304    0.0000 C   0  0  0  0  0  0  0  0  0
   -0.6415   -1.8876    0.0000 C   0  0  0  0  0  0  0  0  0
   -1.1334   -2.5499    0.0000 C   0  0  0  0  0  0  0  0  0
   -1.9529   -2.4551    0.0000 C   0  0  0  0  0  0  0  0  0
   -2.2806   -1.6979    0.0000 C   0  0  0  0  0  0  0  0  0
   -1.7887   -1.0356    0.0000 C   0  0  0  0  0  0  0  0  0
   -1.2344   -0.1404    0.0000 C   0  0  0  0  0  0  0  0  0
   -1.8967   -0.6323    0.0000 C   0  0  0  0  0  0  0  0  0
   -2.6539   -0.3047    0.0000 C   0  0  0  0  0  0  0  0  0
   -2.7487    0.5148    0.0000 C   0  0  0  0  0  0  0  0  0
   -2.0864    1.0067    0.0000 C   0  0  0  0  0  0  0  0  0
   -1.3292    0.6791    0.0000 C   0  0  0  0  0  0  0  0  0
  1  2  1  0  0  0  0
  1  5  1  0  0  0  0
  2  3  1  0  0  0  0
  2 21  1  0  0  0  0
  2 27  1  0  0  0  0
  3  4  1  0  0  0  0
  4  5  1  0  0  0  0
  5  6  1  0  0  0  0
  6  7  1  0  0  0  0
  7  8  1  0  0  0  0
  8  9  1  0  0  0  0
  9 10  1  0  0  0  0
 10 11  1  0  0  0  0
 11 12  4  0  0  0  0
 11 20  4  0  0  0  0
 12 13  4  0  0  0  0
 13 14  1  0  0  0  0
 13 16  4  0  0  0  0
 14 15  1  0  0  0  0
 16 17  1  0  0  0  0
 16 19  4  0  0  0  0
 17 18  1  0  0  0  0
 19 20  4  0  0  0  0
 21 22  4  0  0  0  0
 21 26  4  0  0  0  0
 22 23  4  0  0  0  0
 23 24  4  0  0  0  0
 24 25  4  0  0  0  0
 25 26  4  0  0  0  0
 27 28  4  0  0  0  0
 27 32  4  0  0  0  0
 28 29  4  0  0  0  0
 29 30  4  0  0  0  0
 30 31  4  0  0  0  0
 31 32  4  0  0  0  0
M  END
>  <Name_Molregno>
616567

>  <5-HT1A>
7.01

>  <Alpha-1A>
6

>  <Alpha-1B>
6.86

$$$$
616568
  Marvin  02231216192D 0   1.00000     0.00000     0

 32 35  0  0  1  0  0  0  0  0999 V2000
    0.0315    0.1307    0.0000 O   0  0  0  0  0  0  0  0  0
   -0.5206    0.7438    0.0000 C   0  0  0  0  0  0  0  0  0
   -0.1081    1.4582    0.0000 O   0  0  0  0  0  0  0  0  0
    0.6989    1.2867    0.0000 C   0  0  0  0  0  0  0  0  0
    0.7852    0.4662    0.0000 C   0  0  0  0  0  0  0  0  0
    1.4996    0.0537    0.0000 C   0  0  0  0  0  0  0  0  0
    2.2141    0.4662    0.0000 N   0  0  0  0  0  0  0  0  0
    2.9286    0.0537    0.0000 C   0  0  0  0  0  0  0  0  0
    3.6430    0.4662    0.0000 C   0  0  0  0  0  0  0  0  0
    4.3575    0.0537    0.0000 O   0  0  0  0  0  0  0  0  0
    5.0720    0.4662    0.0000 C   0  0  0  0  0  0  0  0  0
    5.0720    1.2912    0.0000 C   0  0  0  0  0  0  0  0  0
    5.7865    1.7037    0.0000 C   0  0  0  0  0  0  0  0  0
    6.5009    1.2912    0.0000 C   0  0  0  0  0  0  0  0  0
    6.5009    0.4662    0.0000 C   0  0  0  0  0  0  0  0  0
    7.2154    0.0537    0.0000 O   0  0  0  0  0  0  0  0  0
    7.9299    0.4662    0.0000 C   0  0  0  0  0  0  0  0  0
    5.7865    0.0537    0.0000 C   0  0  0  0  0  0  0  0  0
    5.7865   -0.7713    0.0000 O   0  0  0  0  0  0  0  0  0
    6.5009   -1.1838    0.0000 C   0  0  0  0  0  0  0  0  0
   -1.0124    0.0815    0.0000 C   0  0  0  0  0  0  0  0  0
   -0.6848   -0.6757    0.0000 C   0  0  0  0  0  0  0  0  0
   -1.1767   -1.3380    0.0000 C   0  0  0  0  0  0  0  0  0
   -1.9962   -1.2432    0.0000 C   0  0  0  0  0  0  0  0  0
   -2.3239   -0.4861    0.0000 C   0  0  0  0  0  0  0  0  0
   -1.8320    0.1763    0.0000 C   0  0  0  0  0  0  0  0  0
   -1.2777    1.0714    0.0000 C   0  0  0  0  0  0  0  0  0
   -1.9400    0.5795    0.0000 C   0  0  0  0  0  0  0  0  0
   -2.6972    0.9072    0.0000 C   0  0  0  0  0  0  0  0  0
   -2.7920    1.7267    0.0000 C   0  0  0  0  0  0  0  0  0
   -2.1297    2.2186    0.0000 C   0  0  0  0  0  0  0  0  0
   -1.3725    1.8910    0.0000 C   0  0  0  0  0  0  0  0  0
  1  2  1  0  0  0  0
  1  5  1  0  0  0  0
  2  3  1  0  0  0  0
  2 21  1  0  0  0  0
  2 27  1  0  0  0  0
  3  4  1  0  0  0  0
  4  5  1  0  0  0  0
  5  6  1  0  0  0  0
  6  7  1  0  0  0  0
  7  8  1  0  0  0  0
  8  9  1  0  0  0  0
  9 10  1  0  0  0  0
 10 11  1  0  0  0  0
 11 12  4  0  0  0  0
 11 18  4  0  0  0  0
 12 13  4  0  0  0  0
 13 14  4  0  0  0  0
 14 15  4  0  0  0  0
 15 16  1  0  0  0  0
 15 18  4  0  0  0  0
 16 17  1  0  0  0  0
 18 19  1  0  0  0  0
 19 20  1  0  0  0  0
 21 22  4  0  0  0  0
 21 26  4  0  0  0  0
 22 23  4  0  0  0  0
 23 24  4  0  0  0  0
 24 25  4  0  0  0  0
 25 26  4  0  0  0  0
 27 28  4  0  0  0  0
 27 32  4  0  0  0  0
 28 29  4  0  0  0  0
 29 30  4  0  0  0  0
 30 31  4  0  0  0  0
 31 32  4  0  0  0  0
M  END
>  <Name_Molregno>
616568

>  <5-HT1A>
8.12

>  <Alpha-1A>
7.07

>  <Alpha-1B>
6.76

$$$$
627837
  Marvin  02231216192D 0   1.00000     0.00000     0

 35 40  0  0  0  0  0  0  0  0999 V2000
   -6.0502   -6.0848    0.0000 Br  0  0  0  0  0  0  0  0  0
   -5.3358   -5.6723    0.0000 C   0  0  0  0  0  0  0  0  0
   -5.3358   -4.8473    0.0000 C   0  0  0  0  0  0  0  0  0
   -4.6213   -4.4348    0.0000 C   0  0  0  0  0  0  0  0  0
   -4.6213   -3.6098    0.0000 N   0  0  0  0  0  0  0  0  0
   -5.3358   -3.1973    0.0000 C   0  0  0  0  0  0  0  0  0
   -5.3358   -2.3723    0.0000 C   0  0  0  0  0  0  0  0  0
   -4.6213   -1.9598    0.0000 C   0  0  0  0  0  0  0  0  0
   -4.6213   -1.1348    0.0000 N   0  0  0  0  0  0  0  0  0
   -5.3358   -0.7223    0.0000 C   0  0  0  0  0  0  0  0  0
   -5.3358    0.1027    0.0000 C   0  0  0  0  0  0  0  0  0
   -4.6213    0.5152    0.0000 N   0  0  0  0  0  0  0  0  0
   -3.9068    0.1027    0.0000 C   0  0  0  0  0  0  0  0  0
   -3.9068   -0.7223    0.0000 C   0  0  0  0  0  0  0  0  0
   -4.6213    1.3402    0.0000 C   0  0  0  0  0  0  0  0  0
   -3.9068    1.7527    0.0000 C   0  0  0  0  0  0  0  0  0
   -3.9068    2.5777    0.0000 C   0  0  0  0  0  0  0  0  0
   -3.1923    2.9902    0.0000 O   0  0  0  0  0  0  0  0  0
   -3.1923    3.8152    0.0000 C   0  0  0  0  0  0  0  0  0
   -4.6213    2.9902    0.0000 C   0  0  0  0  0  0  0  0  0
   -5.3358    2.5777    0.0000 C   0  0  0  0  0  0  0  0  0
   -5.3358    1.7527    0.0000 C   0  0  0  0  0  0  0  0  0
   -6.0502    1.3402    0.0000 N   0  0  0  0  0  0  0  0  0
   -6.7647    1.7527    0.0000 C   0  0  0  0  0  0  0  0  0
   -6.7647    2.5777    0.0000 C   0  0  0  0  0  0  0  0  0
   -6.0502    2.9902    0.0000 C   0  0  0  0  0  0  0  0  0
   -3.9068   -2.3723    0.0000 C   0  0  0  0  0  0  0  0  0
   -3.9068   -3.1973    0.0000 C   0  0  0  0  0  0  0  0  0
   -3.9068   -4.8473    0.0000 C   0  0  0  0  0  0  0  0  0
   -3.1923   -4.4348    0.0000 N   0  0  0  0  0  0  0  0  0
   -2.4779   -4.8473    0.0000 C   0  0  0  0  0  0  0  0  0
   -2.4779   -5.6723    0.0000 C   0  0  0  0  0  0  0  0  0
   -3.1923   -6.0848    0.0000 C   0  0  0  0  0  0  0  0  0
   -3.9068   -5.6723    0.0000 C   0  0  0  0  0  0  0  0  0
   -4.6213   -6.0848    0.0000 C   0  0  0  0  0  0  0  0  0
  1  2  1  0  0  0  0
  2  3  4  0  0  0  0
  2 35  4  0  0  0  0
  3  4  4  0  0  0  0
  4  5  1  0  0  0  0
  4 29  4  0  0  0  0
  5  6  1  0  0  0  0
  5 28  1  0  0  0  0
  6  7  1  0  0  0  0
  7  8  1  0  0  0  0
  8  9  1  0  0  0  0
  8 27  1  0  0  0  0
  9 10  1  0  0  0  0
  9 14  1  0  0  0  0
 10 11  1  0  0  0  0
 11 12  1  0  0  0  0
 12 13  1  0  0  0  0
 12 15  1  0  0  0  0
 13 14  1  0  0  0  0
 15 16  4  0  0  0  0
 15 22  4  0  0  0  0
 16 17  4  0  0  0  0
 17 18  1  0  0  0  0
 17 20  4  0  0  0  0
 18 19  1  0  0  0  0
 20 21  4  0  0  0  0
 21 22  4  0  0  0  0
 21 26  4  0  0  0  0
 22 23  4  0  0  0  0
 23 24  4  0  0  0  0
 24 25  4  0  0  0  0
 25 26  4  0  0  0  0
 27 28  1  0  0  0  0
 29 30  4  0  0  0  0
 29 34  4  0  0  0  0
 30 31  4  0  0  0  0
 31 32  4  0  0  0  0
 32 33  4  0  0  0  0
 33 34  4  0  0  0  0
 34 35  4  0  0  0  0
M  END
>  <Name_Molregno>
627837

>  <5-HT1A>
9.21

$$$$
627838
  Marvin  02231216192D 0   1.00000     0.00000     0

 35 40  0  0  0  0  0  0  0  0999 V2000
    4.4734    1.6479    0.0000 F   0  0  0  0  0  0  0  0  0
    3.7589    2.0604    0.0000 C   0  0  0  0  0  0  0  0  0
    3.7589    2.8854    0.0000 C   0  0  0  0  0  0  0  0  0
    3.0445    3.2979    0.0000 C   0  0  0  0  0  0  0  0  0
    2.3300    2.8854    0.0000 C   0  0  0  0  0  0  0  0  0
    2.3300    2.0604    0.0000 C   0  0  0  0  0  0  0  0  0
    1.6155    1.6479    0.0000 N   0  0  0  0  0  0  0  0  0
    0.9011    2.0604    0.0000 C   0  0  0  0  0  0  0  0  0
    0.9011    2.8854    0.0000 C   0  0  0  0  0  0  0  0  0
    1.6155    3.2979    0.0000 C   0  0  0  0  0  0  0  0  0
    3.0445    1.6479    0.0000 C   0  0  0  0  0  0  0  0  0
    3.0445    0.8229    0.0000 N   0  0  0  0  0  0  0  0  0
    3.7589    0.4104    0.0000 C   0  0  0  0  0  0  0  0  0
    3.7589   -0.4146    0.0000 C   0  0  0  0  0  0  0  0  0
    3.0445   -0.8271    0.0000 C   0  0  0  0  0  0  0  0  0
    3.0445   -1.6521    0.0000 N   0  0  0  0  0  0  0  0  0
    3.7589   -2.0646    0.0000 C   0  0  0  0  0  0  0  0  0
    3.7589   -2.8896    0.0000 C   0  0  0  0  0  0  0  0  0
    3.0445   -3.3021    0.0000 N   0  0  0  0  0  0  0  0  0
    2.3300   -2.8896    0.0000 C   0  0  0  0  0  0  0  0  0
    2.3300   -2.0646    0.0000 C   0  0  0  0  0  0  0  0  0
    3.0445   -4.1271    0.0000 C   0  0  0  0  0  0  0  0  0
    2.3300   -4.5396    0.0000 C   0  0  0  0  0  0  0  0  0
    2.3300   -5.3646    0.0000 C   0  0  0  0  0  0  0  0  0
    1.6155   -5.7771    0.0000 O   0  0  0  0  0  0  0  0  0
    1.6155   -6.6021    0.0000 C   0  0  0  0  0  0  0  0  0
    3.0445   -5.7771    0.0000 C   0  0  0  0  0  0  0  0  0
    3.7589   -5.3646    0.0000 C   0  0  0  0  0  0  0  0  0
    3.7589   -4.5396    0.0000 C   0  0  0  0  0  0  0  0  0
    4.4734   -4.1271    0.0000 N   0  0  0  0  0  0  0  0  0
    5.1879   -4.5396    0.0000 C   0  0  0  0  0  0  0  0  0
    5.1879   -5.3646    0.0000 C   0  0  0  0  0  0  0  0  0
    4.4734   -5.7771    0.0000 C   0  0  0  0  0  0  0  0  0
    2.3300   -0.4146    0.0000 C   0  0  0  0  0  0  0  0  0
    2.3300    0.4104    0.0000 C   0  0  0  0  0  0  0  0  0
  1  2  1  0  0  0  0
  2  3  4  0  0  0  0
  2 11  4  0  0  0  0
  3  4  4  0  0  0  0
  4  5  4  0  0  0  0
  5  6  4  0  0  0  0
  5 10  4  0  0  0  0
  6  7  4  0  0  0  0
  6 11  4  0  0  0  0
  7  8  4  0  0  0  0
  8  9  4  0  0  0  0
  9 10  4  0  0  0  0
 11 12  1  0  0  0  0
 12 13  1  0  0  0  0
 12 35  1  0  0  0  0
 13 14  1  0  0  0  0
 14 15  1  0  0  0  0
 15 16  1  0  0  0  0
 15 34  1  0  0  0  0
 16 17  1  0  0  0  0
 16 21  1  0  0  0  0
 17 18  1  0  0  0  0
 18 19  1  0  0  0  0
 19 20  1  0  0  0  0
 19 22  1  0  0  0  0
 20 21  1  0  0  0  0
 22 23  4  0  0  0  0
 22 29  4  0  0  0  0
 23 24  4  0  0  0  0
 24 25  1  0  0  0  0
 24 27  4  0  0  0  0
 25 26  1  0  0  0  0
 27 28  4  0  0  0  0
 28 29  4  0  0  0  0
 28 33  4  0  0  0  0
 29 30  4  0  0  0  0
 30 31  4  0  0  0  0
 31 32  4  0  0  0  0
 32 33  4  0  0  0  0
 34 35  1  0  0  0  0
M  END
>  <Name_Molregno>
627838

>  <5-HT1A>
6.56

$$$$
627839
  Marvin  02231216192D 0   1.00000     0.00000     0

 35 40  0  0  0  0  0  0  0  0999 V2000
   -5.5006   -5.5331    0.0000 O   0  0  0  0  0  0  0  0  0
   -5.5006   -6.3581    0.0000 C   0  0  0  0  0  0  0  0  0
   -4.7862   -5.1206    0.0000 C   0  0  0  0  0  0  0  0  0
   -4.7862   -4.2956    0.0000 C   0  0  0  0  0  0  0  0  0
   -4.0717   -3.8831    0.0000 C   0  0  0  0  0  0  0  0  0
   -4.0717   -3.0581    0.0000 N   0  0  0  0  0  0  0  0  0
   -4.7862   -2.6456    0.0000 C   0  0  0  0  0  0  0  0  0
   -4.7862   -1.8206    0.0000 C   0  0  0  0  0  0  0  0  0
   -4.0717   -1.4081    0.0000 N   0  0  0  0  0  0  0  0  0
   -3.3572   -1.8206    0.0000 C   0  0  0  0  0  0  0  0  0
   -3.3572   -2.6456    0.0000 C   0  0  0  0  0  0  0  0  0
   -4.0717   -0.5831    0.0000 C   0  0  0  0  0  0  0  0  0
   -4.7862   -0.1706    0.0000 C   0  0  0  0  0  0  0  0  0
   -4.7862    0.6544    0.0000 C   0  0  0  0  0  0  0  0  0
   -4.0717    1.0669    0.0000 N   0  0  0  0  0  0  0  0  0
   -3.3572    0.6544    0.0000 C   0  0  0  0  0  0  0  0  0
   -3.3572   -0.1706    0.0000 C   0  0  0  0  0  0  0  0  0
   -4.0717    1.8919    0.0000 C   0  0  0  0  0  0  0  0  0
   -4.7862    2.3044    0.0000 C   0  0  0  0  0  0  0  0  0
   -5.5006    1.8919    0.0000 N   0  0  0  0  0  0  0  0  0
   -6.2151    2.3044    0.0000 C   0  0  0  0  0  0  0  0  0
   -6.2151    3.1294    0.0000 C   0  0  0  0  0  0  0  0  0
   -5.5006    3.5419    0.0000 C   0  0  0  0  0  0  0  0  0
   -4.7862    3.1294    0.0000 C   0  0  0  0  0  0  0  0  0
   -4.0717    3.5419    0.0000 C   0  0  0  0  0  0  0  0  0
   -3.3572    3.1294    0.0000 C   0  0  0  0  0  0  0  0  0
   -3.3572    2.3044    0.0000 C   0  0  0  0  0  0  0  0  0
   -6.9296    1.8919    0.0000 C   0  0  0  0  0  0  0  0  0
   -3.3572   -4.2956    0.0000 C   0  0  0  0  0  0  0  0  0
   -2.6427   -3.8831    0.0000 N   0  0  0  0  0  0  0  0  0
   -1.9283   -4.2956    0.0000 C   0  0  0  0  0  0  0  0  0
   -1.9283   -5.1206    0.0000 C   0  0  0  0  0  0  0  0  0
   -2.6427   -5.5331    0.0000 C   0  0  0  0  0  0  0  0  0
   -3.3572   -5.1206    0.0000 C   0  0  0  0  0  0  0  0  0
   -4.0717   -5.5331    0.0000 C   0  0  0  0  0  0  0  0  0
  1  2  1  0  0  0  0
  1  3  1  0  0  0  0
  3  4  4  0  0  0  0
  3 35  4  0  0  0  0
  4  5  4  0  0  0  0
  5  6  1  0  0  0  0
  5 29  4  0  0  0  0
  6  7  1  0  0  0  0
  6 11  1  0  0  0  0
  7  8  1  0  0  0  0
  8  9  1  0  0  0  0
  9 10  1  0  0  0  0
  9 12  1  0  0  0  0
 10 11  1  0  0  0  0
 12 13  1  0  0  0  0
 12 17  1  0  0  0  0
 13 14  1  0  0  0  0
 14 15  1  0  0  0  0
 15 16  1  0  0  0  0
 15 18  1  0  0  0  0
 16 17  1  0  0  0  0
 18 19  4  0  0  0  0
 18 27  4  0  0  0  0
 19 20  4  0  0  0  0
 19 24  4  0  0  0  0
 20 21  4  0  0  0  0
 21 22  4  0  0  0  0
 21 28  1  0  0  0  0
 22 23  4  0  0  0  0
 23 24  4  0  0  0  0
 24 25  4  0  0  0  0
 25 26  4  0  0  0  0
 26 27  4  0  0  0  0
 29 30  4  0  0  0  0
 29 34  4  0  0  0  0
 30 31  4  0  0  0  0
 31 32  4  0  0  0  0
 32 33  4  0  0  0  0
 33 34  4  0  0  0  0
 34 35  4  0  0  0  0
M  END
>  <Name_Molregno>
627839

>  <5-HT1A>
9.27

$$$$
627840
  Marvin  02231216192D 0   1.00000     0.00000     0

 38 43  0  0  0  0  0  0  0  0999 V2000
   -5.9855    3.1141    0.0000 F   0  0  0  0  0  0  0  0  0
   -5.2710    3.5266    0.0000 C   0  0  0  0  0  0  0  0  0
   -4.8585    2.8121    0.0000 F   0  0  0  0  0  0  0  0  0
   -5.6835    4.2410    0.0000 F   0  0  0  0  0  0  0  0  0
   -4.5566    3.9391    0.0000 C   0  0  0  0  0  0  0  0  0
   -3.8421    3.5266    0.0000 N   0  0  0  0  0  0  0  0  0
   -3.1276    3.9391    0.0000 C   0  0  0  0  0  0  0  0  0
   -3.1276    4.7641    0.0000 C   0  0  0  0  0  0  0  0  0
   -3.8421    5.1766    0.0000 C   0  0  0  0  0  0  0  0  0
   -4.5566    4.7641    0.0000 C   0  0  0  0  0  0  0  0  0
   -2.4131    5.1766    0.0000 C   0  0  0  0  0  0  0  0  0
   -1.6987    4.7641    0.0000 C   0  0  0  0  0  0  0  0  0
   -1.6987    3.9391    0.0000 C   0  0  0  0  0  0  0  0  0
   -2.4131    3.5266    0.0000 C   0  0  0  0  0  0  0  0  0
   -2.4131    2.7016    0.0000 N   0  0  0  0  0  0  0  0  0
   -1.6987    2.2891    0.0000 C   0  0  0  0  0  0  0  0  0
   -1.6987    1.4641    0.0000 C   0  0  0  0  0  0  0  0  0
   -2.4131    1.0516    0.0000 C   0  0  0  0  0  0  0  0  0
   -2.4131    0.2266    0.0000 N   0  0  0  0  0  0  0  0  0
   -1.6987   -0.1859    0.0000 C   0  0  0  0  0  0  0  0  0
   -1.6987   -1.0109    0.0000 C   0  0  0  0  0  0  0  0  0
   -2.4131   -1.4234    0.0000 N   0  0  0  0  0  0  0  0  0
   -3.1276   -1.0109    0.0000 C   0  0  0  0  0  0  0  0  0
   -3.1276   -0.1859    0.0000 C   0  0  0  0  0  0  0  0  0
   -2.4131   -2.2484    0.0000 C   0  0  0  0  0  0  0  0  0
   -3.1276   -2.6609    0.0000 C   0  0  0  0  0  0  0  0  0
   -3.1276   -3.4859    0.0000 C   0  0  0  0  0  0  0  0  0
   -3.8421   -3.8984    0.0000 O   0  0  0  0  0  0  0  0  0
   -3.8421   -4.7234    0.0000 C   0  0  0  0  0  0  0  0  0
   -2.4131   -3.8984    0.0000 C   0  0  0  0  0  0  0  0  0
   -1.6987   -3.4859    0.0000 C   0  0  0  0  0  0  0  0  0
   -1.6987   -2.6609    0.0000 C   0  0  0  0  0  0  0  0  0
   -0.9842   -2.2484    0.0000 N   0  0  0  0  0  0  0  0  0
   -0.2697   -2.6609    0.0000 C   0  0  0  0  0  0  0  0  0
   -0.2697   -3.4859    0.0000 C   0  0  0  0  0  0  0  0  0
   -0.9842   -3.8984    0.0000 C   0  0  0  0  0  0  0  0  0
   -3.1276    1.4641    0.0000 C   0  0  0  0  0  0  0  0  0
   -3.1276    2.2891    0.0000 C   0  0  0  0  0  0  0  0  0
  1  2  1  0  0  0  0
  2  3  1  0  0  0  0
  2  4  1  0  0  0  0
  2  5  1  0  0  0  0
  5  6  4  0  0  0  0
  5 10  4  0  0  0  0
  6  7  4  0  0  0  0
  7  8  4  0  0  0  0
  7 14  4  0  0  0  0
  8  9  4  0  0  0  0
  8 11  4  0  0  0  0
  9 10  4  0  0  0  0
 11 12  4  0  0  0  0
 12 13  4  0  0  0  0
 13 14  4  0  0  0  0
 14 15  1  0  0  0  0
 15 16  1  0  0  0  0
 15 38  1  0  0  0  0
 16 17  1  0  0  0  0
 17 18  1  0  0  0  0
 18 19  1  0  0  0  0
 18 37  1  0  0  0  0
 19 20  1  0  0  0  0
 19 24  1  0  0  0  0
 20 21  1  0  0  0  0
 21 22  1  0  0  0  0
 22 23  1  0  0  0  0
 22 25  1  0  0  0  0
 23 24  1  0  0  0  0
 25 26  4  0  0  0  0
 25 32  4  0  0  0  0
 26 27  4  0  0  0  0
 27 28  1  0  0  0  0
 27 30  4  0  0  0  0
 28 29  1  0  0  0  0
 30 31  4  0  0  0  0
 31 32  4  0  0  0  0
 31 36  4  0  0  0  0
 32 33  4  0  0  0  0
 33 34  4  0  0  0  0
 34 35  4  0  0  0  0
 35 36  4  0  0  0  0
 37 38  1  0  0  0  0
M  END
>  <Name_Molregno>
627840

>  <5-HT1A>
8.74

$$$$
627889
  Marvin  02231216192D 0   1.00000     0.00000     0

 35 40  0  0  0  0  0  0  0  0999 V2000
   -2.8195    4.6927    0.0000 F   0  0  0  0  0  0  0  0  0
   -3.5339    4.2802    0.0000 C   0  0  0  0  0  0  0  0  0
   -4.2484    4.6927    0.0000 C   0  0  0  0  0  0  0  0  0
   -4.9629    4.2802    0.0000 C   0  0  0  0  0  0  0  0  0
   -4.9629    3.4552    0.0000 C   0  0  0  0  0  0  0  0  0
   -4.2484    3.0427    0.0000 N   0  0  0  0  0  0  0  0  0
   -3.5339    3.4552    0.0000 C   0  0  0  0  0  0  0  0  0
   -5.6773    3.0427    0.0000 C   0  0  0  0  0  0  0  0  0
   -5.6773    2.2177    0.0000 N   0  0  0  0  0  0  0  0  0
   -4.9629    1.8052    0.0000 C   0  0  0  0  0  0  0  0  0
   -4.9629    0.9802    0.0000 C   0  0  0  0  0  0  0  0  0
   -5.6773    0.5677    0.0000 C   0  0  0  0  0  0  0  0  0
   -5.6773   -0.2573    0.0000 N   0  0  0  0  0  0  0  0  0
   -4.9629   -0.6698    0.0000 C   0  0  0  0  0  0  0  0  0
   -4.9629   -1.4948    0.0000 C   0  0  0  0  0  0  0  0  0
   -5.6773   -1.9073    0.0000 N   0  0  0  0  0  0  0  0  0
   -6.3918   -1.4948    0.0000 C   0  0  0  0  0  0  0  0  0
   -6.3918   -0.6698    0.0000 C   0  0  0  0  0  0  0  0  0
   -5.6773   -2.7323    0.0000 C   0  0  0  0  0  0  0  0  0
   -6.3918   -3.1448    0.0000 C   0  0  0  0  0  0  0  0  0
   -6.3918   -3.9698    0.0000 C   0  0  0  0  0  0  0  0  0
   -7.1063   -4.3823    0.0000 O   0  0  0  0  0  0  0  0  0
   -7.1063   -5.2073    0.0000 C   0  0  0  0  0  0  0  0  0
   -5.6773   -4.3823    0.0000 C   0  0  0  0  0  0  0  0  0
   -4.9629   -3.9698    0.0000 C   0  0  0  0  0  0  0  0  0
   -4.9629   -3.1448    0.0000 C   0  0  0  0  0  0  0  0  0
   -4.2484   -2.7323    0.0000 N   0  0  0  0  0  0  0  0  0
   -3.5339   -3.1448    0.0000 C   0  0  0  0  0  0  0  0  0
   -3.5339   -3.9698    0.0000 C   0  0  0  0  0  0  0  0  0
   -4.2484   -4.3823    0.0000 C   0  0  0  0  0  0  0  0  0
   -6.3918    0.9802    0.0000 C   0  0  0  0  0  0  0  0  0
   -6.3918    1.8052    0.0000 C   0  0  0  0  0  0  0  0  0
   -6.3918    3.4552    0.0000 C   0  0  0  0  0  0  0  0  0
   -6.3918    4.2802    0.0000 C   0  0  0  0  0  0  0  0  0
   -5.6773    4.6927    0.0000 C   0  0  0  0  0  0  0  0  0
  1  2  1  0  0  0  0
  2  3  4  0  0  0  0
  2  7  4  0  0  0  0
  3  4  4  0  0  0  0
  4  5  4  0  0  0  0
  4 35  4  0  0  0  0
  5  6  4  0  0  0  0
  5  8  4  0  0  0  0
  6  7  4  0  0  0  0
  8  9  1  0  0  0  0
  8 33  4  0  0  0  0
  9 10  1  0  0  0  0
  9 32  1  0  0  0  0
 10 11  1  0  0  0  0
 11 12  1  0  0  0  0
 12 13  1  0  0  0  0
 12 31  1  0  0  0  0
 13 14  1  0  0  0  0
 13 18  1  0  0  0  0
 14 15  1  0  0  0  0
 15 16  1  0  0  0  0
 16 17  1  0  0  0  0
 16 19  1  0  0  0  0
 17 18  1  0  0  0  0
 19 20  4  0  0  0  0
 19 26  4  0  0  0  0
 20 21  4  0  0  0  0
 21 22  1  0  0  0  0
 21 24  4  0  0  0  0
 22 23  1  0  0  0  0
 24 25  4  0  0  0  0
 25 26  4  0  0  0  0
 25 30  4  0  0  0  0
 26 27  4  0  0  0  0
 27 28  4  0  0  0  0
 28 29  4  0  0  0  0
 29 30  4  0  0  0  0
 31 32  1  0  0  0  0
 33 34  4  0  0  0  0
 34 35  4  0  0  0  0
M  END
>  <Name_Molregno>
627889

>  <5-HT1A>
9.1

$$$$
627890
  Marvin  02231216192D 0   1.00000     0.00000     0

 35 40  0  0  0  0  0  0  0  0999 V2000
   -5.5383   -5.6094    0.0000 O   0  0  0  0  0  0  0  0  0
   -5.5383   -6.4344    0.0000 C   0  0  0  0  0  0  0  0  0
   -4.8238   -5.1969    0.0000 C   0  0  0  0  0  0  0  0  0
   -4.8238   -4.3719    0.0000 C   0  0  0  0  0  0  0  0  0
   -4.1093   -3.9594    0.0000 C   0  0  0  0  0  0  0  0  0
   -4.1093   -3.1344    0.0000 N   0  0  0  0  0  0  0  0  0
   -4.8238   -2.7219    0.0000 C   0  0  0  0  0  0  0  0  0
   -4.8238   -1.8969    0.0000 C   0  0  0  0  0  0  0  0  0
   -4.1093   -1.4844    0.0000 N   0  0  0  0  0  0  0  0  0
   -3.3948   -1.8969    0.0000 C   0  0  0  0  0  0  0  0  0
   -3.3948   -2.7219    0.0000 C   0  0  0  0  0  0  0  0  0
   -4.1093   -0.6594    0.0000 C   0  0  0  0  0  0  0  0  0
   -4.8238   -0.2469    0.0000 C   0  0  0  0  0  0  0  0  0
   -4.8238    0.5781    0.0000 C   0  0  0  0  0  0  0  0  0
   -4.1093    0.9906    0.0000 N   0  0  0  0  0  0  0  0  0
   -3.3948    0.5781    0.0000 C   0  0  0  0  0  0  0  0  0
   -3.3948   -0.2469    0.0000 C   0  0  0  0  0  0  0  0  0
   -4.1093    1.8156    0.0000 C   0  0  0  0  0  0  0  0  0
   -4.8238    2.2281    0.0000 C   0  0  0  0  0  0  0  0  0
   -5.5383    1.8156    0.0000 N   0  0  0  0  0  0  0  0  0
   -6.2527    2.2281    0.0000 C   0  0  0  0  0  0  0  0  0
   -6.2527    3.0531    0.0000 C   0  0  0  0  0  0  0  0  0
   -5.5383    3.4656    0.0000 C   0  0  0  0  0  0  0  0  0
   -4.8238    3.0531    0.0000 C   0  0  0  0  0  0  0  0  0
   -4.1093    3.4656    0.0000 C   0  0  0  0  0  0  0  0  0
   -3.3948    3.0531    0.0000 C   0  0  0  0  0  0  0  0  0
   -3.3948    2.2281    0.0000 C   0  0  0  0  0  0  0  0  0
   -6.9672    3.4656    0.0000 C   0  0  0  0  0  0  0  0  0
   -3.3948   -4.3719    0.0000 C   0  0  0  0  0  0  0  0  0
   -2.6804   -3.9594    0.0000 N   0  0  0  0  0  0  0  0  0
   -1.9659   -4.3719    0.0000 C   0  0  0  0  0  0  0  0  0
   -1.9659   -5.1969    0.0000 C   0  0  0  0  0  0  0  0  0
   -2.6804   -5.6094    0.0000 C   0  0  0  0  0  0  0  0  0
   -3.3948   -5.1969    0.0000 C   0  0  0  0  0  0  0  0  0
   -4.1093   -5.6094    0.0000 C   0  0  0  0  0  0  0  0  0
  1  2  1  0  0  0  0
  1  3  1  0  0  0  0
  3  4  4  0  0  0  0
  3 35  4  0  0  0  0
  4  5  4  0  0  0  0
  5  6  1  0  0  0  0
  5 29  4  0  0  0  0
  6  7  1  0  0  0  0
  6 11  1  0  0  0  0
  7  8  1  0  0  0  0
  8  9  1  0  0  0  0
  9 10  1  0  0  0  0
  9 12  1  0  0  0  0
 10 11  1  0  0  0  0
 12 13  1  0  0  0  0
 12 17  1  0  0  0  0
 13 14  1  0  0  0  0
 14 15  1  0  0  0  0
 15 16  1  0  0  0  0
 15 18  1  0  0  0  0
 16 17  1  0  0  0  0
 18 19  4  0  0  0  0
 18 27  4  0  0  0  0
 19 20  4  0  0  0  0
 19 24  4  0  0  0  0
 20 21  4  0  0  0  0
 21 22  4  0  0  0  0
 22 23  4  0  0  0  0
 22 28  1  0  0  0  0
 23 24  4  0  0  0  0
 24 25  4  0  0  0  0
 25 26  4  0  0  0  0
 26 27  4  0  0  0  0
 29 30  4  0  0  0  0
 29 34  4  0  0  0  0
 30 31  4  0  0  0  0
 31 32  4  0  0  0  0
 32 33  4  0  0  0  0
 33 34  4  0  0  0  0
 34 35  4  0  0  0  0
M  END
>  <Name_Molregno>
627890

>  <5-HT1A>
9.34

$$$$
627891
  Marvin  02231216192D 0   1.00000     0.00000     0

 38 43  0  0  0  0  0  0  0  0999 V2000
   -1.4708    3.9825    0.0000 F   0  0  0  0  0  0  0  0  0
   -2.1852    3.5700    0.0000 C   0  0  0  0  0  0  0  0  0
   -2.5977    4.2845    0.0000 F   0  0  0  0  0  0  0  0  0
   -1.7727    2.8555    0.0000 F   0  0  0  0  0  0  0  0  0
   -2.8997    3.1575    0.0000 C   0  0  0  0  0  0  0  0  0
   -3.6142    3.5700    0.0000 C   0  0  0  0  0  0  0  0  0
   -4.3287    3.1575    0.0000 C   0  0  0  0  0  0  0  0  0
   -4.3287    2.3325    0.0000 C   0  0  0  0  0  0  0  0  0
   -3.6142    1.9200    0.0000 N   0  0  0  0  0  0  0  0  0
   -2.8997    2.3325    0.0000 C   0  0  0  0  0  0  0  0  0
   -5.0431    1.9200    0.0000 C   0  0  0  0  0  0  0  0  0
   -5.0431    1.0950    0.0000 N   0  0  0  0  0  0  0  0  0
   -4.3287    0.6825    0.0000 C   0  0  0  0  0  0  0  0  0
   -4.3287   -0.1425    0.0000 C   0  0  0  0  0  0  0  0  0
   -5.0431   -0.5550    0.0000 C   0  0  0  0  0  0  0  0  0
   -5.0431   -1.3800    0.0000 N   0  0  0  0  0  0  0  0  0
   -4.3287   -1.7925    0.0000 C   0  0  0  0  0  0  0  0  0
   -4.3287   -2.6175    0.0000 C   0  0  0  0  0  0  0  0  0
   -5.0431   -3.0300    0.0000 N   0  0  0  0  0  0  0  0  0
   -5.7576   -2.6175    0.0000 C   0  0  0  0  0  0  0  0  0
   -5.7576   -1.7925    0.0000 C   0  0  0  0  0  0  0  0  0
   -5.0431   -3.8550    0.0000 C   0  0  0  0  0  0  0  0  0
   -5.7576   -4.2675    0.0000 C   0  0  0  0  0  0  0  0  0
   -5.7576   -5.0925    0.0000 C   0  0  0  0  0  0  0  0  0
   -6.4721   -5.5050    0.0000 O   0  0  0  0  0  0  0  0  0
   -6.4721   -6.3300    0.0000 C   0  0  0  0  0  0  0  0  0
   -5.0431   -5.5050    0.0000 C   0  0  0  0  0  0  0  0  0
   -4.3287   -5.0925    0.0000 C   0  0  0  0  0  0  0  0  0
   -4.3287   -4.2675    0.0000 C   0  0  0  0  0  0  0  0  0
   -3.6142   -3.8550    0.0000 N   0  0  0  0  0  0  0  0  0
   -2.8997   -4.2675    0.0000 C   0  0  0  0  0  0  0  0  0
   -2.8997   -5.0925    0.0000 C   0  0  0  0  0  0  0  0  0
   -3.6142   -5.5050    0.0000 C   0  0  0  0  0  0  0  0  0
   -5.7576   -0.1425    0.0000 C   0  0  0  0  0  0  0  0  0
   -5.7576    0.6825    0.0000 C   0  0  0  0  0  0  0  0  0
   -5.7576    2.3325    0.0000 C   0  0  0  0  0  0  0  0  0
   -5.7576    3.1575    0.0000 C   0  0  0  0  0  0  0  0  0
   -5.0431    3.5700    0.0000 C   0  0  0  0  0  0  0  0  0
  1  2  1  0  0  0  0
  2  3  1  0  0  0  0
  2  4  1  0  0  0  0
  2  5  1  0  0  0  0
  5  6  4  0  0  0  0
  5 10  4  0  0  0  0
  6  7  4  0  0  0  0
  7  8  4  0  0  0  0
  7 38  4  0  0  0  0
  8  9  4  0  0  0  0
  8 11  4  0  0  0  0
  9 10  4  0  0  0  0
 11 12  1  0  0  0  0
 11 36  4  0  0  0  0
 12 13  1  0  0  0  0
 12 35  1  0  0  0  0
 13 14  1  0  0  0  0
 14 15  1  0  0  0  0
 15 16  1  0  0  0  0
 15 34  1  0  0  0  0
 16 17  1  0  0  0  0
 16 21  1  0  0  0  0
 17 18  1  0  0  0  0
 18 19  1  0  0  0  0
 19 20  1  0  0  0  0
 19 22  1  0  0  0  0
 20 21  1  0  0  0  0
 22 23  4  0  0  0  0
 22 29  4  0  0  0  0
 23 24  4  0  0  0  0
 24 25  1  0  0  0  0
 24 27  4  0  0  0  0
 25 26  1  0  0  0  0
 27 28  4  0  0  0  0
 28 29  4  0  0  0  0
 28 33  4  0  0  0  0
 29 30  4  0  0  0  0
 30 31  4  0  0  0  0
 31 32  4  0  0  0  0
 32 33  4  0  0  0  0
 34 35  1  0  0  0  0
 36 37  4  0  0  0  0
 37 38  4  0  0  0  0
M  END
>  <Name_Molregno>
627891

>  <5-HT1A>
8.92

$$$$
627892
  Marvin  02231216192D 0   1.00000     0.00000     0

 35 40  0  0  0  0  0  0  0  0999 V2000
   -5.6067   -5.6569    0.0000 O   0  0  0  0  0  0  0  0  0
   -5.6067   -6.4819    0.0000 C   0  0  0  0  0  0  0  0  0
   -4.8922   -5.2444    0.0000 C   0  0  0  0  0  0  0  0  0
   -4.8922   -4.4194    0.0000 C   0  0  0  0  0  0  0  0  0
   -4.1778   -4.0069    0.0000 C   0  0  0  0  0  0  0  0  0
   -4.1778   -3.1819    0.0000 N   0  0  0  0  0  0  0  0  0
   -4.8922   -2.7694    0.0000 C   0  0  0  0  0  0  0  0  0
   -4.8922   -1.9444    0.0000 C   0  0  0  0  0  0  0  0  0
   -4.1778   -1.5319    0.0000 N   0  0  0  0  0  0  0  0  0
   -3.4633   -1.9444    0.0000 C   0  0  0  0  0  0  0  0  0
   -3.4633   -2.7694    0.0000 C   0  0  0  0  0  0  0  0  0
   -4.1778   -0.7069    0.0000 C   0  0  0  0  0  0  0  0  0
   -4.8922   -0.2944    0.0000 C   0  0  0  0  0  0  0  0  0
   -4.8922    0.5306    0.0000 C   0  0  0  0  0  0  0  0  0
   -4.1778    0.9431    0.0000 N   0  0  0  0  0  0  0  0  0
   -3.4633    0.5306    0.0000 C   0  0  0  0  0  0  0  0  0
   -3.4633   -0.2944    0.0000 C   0  0  0  0  0  0  0  0  0
   -4.1778    1.7681    0.0000 C   0  0  0  0  0  0  0  0  0
   -4.8922    2.1806    0.0000 C   0  0  0  0  0  0  0  0  0
   -5.6067    1.7681    0.0000 N   0  0  0  0  0  0  0  0  0
   -6.3212    2.1806    0.0000 C   0  0  0  0  0  0  0  0  0
   -6.3212    3.0056    0.0000 C   0  0  0  0  0  0  0  0  0
   -5.6067    3.4181    0.0000 C   0  0  0  0  0  0  0  0  0
   -4.8922    3.0056    0.0000 C   0  0  0  0  0  0  0  0  0
   -4.1778    3.4181    0.0000 C   0  0  0  0  0  0  0  0  0
   -3.4633    3.0056    0.0000 C   0  0  0  0  0  0  0  0  0
   -3.4633    2.1806    0.0000 C   0  0  0  0  0  0  0  0  0
   -5.6067    4.2431    0.0000 C   0  0  0  0  0  0  0  0  0
   -3.4633   -4.4194    0.0000 C   0  0  0  0  0  0  0  0  0
   -2.7488   -4.0069    0.0000 N   0  0  0  0  0  0  0  0  0
   -2.0344   -4.4194    0.0000 C   0  0  0  0  0  0  0  0  0
   -2.0344   -5.2444    0.0000 C   0  0  0  0  0  0  0  0  0
   -2.7488   -5.6569    0.0000 C   0  0  0  0  0  0  0  0  0
   -3.4633   -5.2444    0.0000 C   0  0  0  0  0  0  0  0  0
   -4.1778   -5.6569    0.0000 C   0  0  0  0  0  0  0  0  0
  1  2  1  0  0  0  0
  1  3  1  0  0  0  0
  3  4  4  0  0  0  0
  3 35  4  0  0  0  0
  4  5  4  0  0  0  0
  5  6  1  0  0  0  0
  5 29  4  0  0  0  0
  6  7  1  0  0  0  0
  6 11  1  0  0  0  0
  7  8  1  0  0  0  0
  8  9  1  0  0  0  0
  9 10  1  0  0  0  0
  9 12  1  0  0  0  0
 10 11  1  0  0  0  0
 12 13  1  0  0  0  0
 12 17  1  0  0  0  0
 13 14  1  0  0  0  0
 14 15  1  0  0  0  0
 15 16  1  0  0  0  0
 15 18  1  0  0  0  0
 16 17  1  0  0  0  0
 18 19  4  0  0  0  0
 18 27  4  0  0  0  0
 19 20  4  0  0  0  0
 19 24  4  0  0  0  0
 20 21  4  0  0  0  0
 21 22  4  0  0  0  0
 22 23  4  0  0  0  0
 23 24  4  0  0  0  0
 23 28  1  0  0  0  0
 24 25  4  0  0  0  0
 25 26  4  0  0  0  0
 26 27  4  0  0  0  0
 29 30  4  0  0  0  0
 29 34  4  0  0  0  0
 30 31  4  0  0  0  0
 31 32  4  0  0  0  0
 32 33  4  0  0  0  0
 33 34  4  0  0  0  0
 34 35  4  0  0  0  0
M  END
>  <Name_Molregno>
627892

>  <5-HT1A>
9.21

$$$$
627938
  Marvin  02231216192D 0   1.00000     0.00000     0

 36 41  0  0  0  0  0  0  0  0999 V2000
   -5.6079   -5.6810    0.0000 O   0  0  0  0  0  0  0  0  0
   -5.6079   -6.5060    0.0000 C   0  0  0  0  0  0  0  0  0
   -4.8935   -5.2685    0.0000 C   0  0  0  0  0  0  0  0  0
   -4.8935   -4.4435    0.0000 C   0  0  0  0  0  0  0  0  0
   -4.1790   -4.0310    0.0000 C   0  0  0  0  0  0  0  0  0
   -4.1790   -3.2060    0.0000 N   0  0  0  0  0  0  0  0  0
   -4.8935   -2.7935    0.0000 C   0  0  0  0  0  0  0  0  0
   -4.8935   -1.9685    0.0000 C   0  0  0  0  0  0  0  0  0
   -4.1790   -1.5560    0.0000 N   0  0  0  0  0  0  0  0  0
   -3.4645   -1.9685    0.0000 C   0  0  0  0  0  0  0  0  0
   -3.4645   -2.7935    0.0000 C   0  0  0  0  0  0  0  0  0
   -4.1790   -0.7310    0.0000 C   0  0  0  0  0  0  0  0  0
   -4.8935   -0.3185    0.0000 C   0  0  0  0  0  0  0  0  0
   -4.8935    0.5065    0.0000 C   0  0  0  0  0  0  0  0  0
   -4.1790    0.9190    0.0000 N   0  0  0  0  0  0  0  0  0
   -3.4645    0.5065    0.0000 C   0  0  0  0  0  0  0  0  0
   -3.4645   -0.3185    0.0000 C   0  0  0  0  0  0  0  0  0
   -4.1790    1.7440    0.0000 C   0  0  0  0  0  0  0  0  0
   -4.8935    2.1565    0.0000 C   0  0  0  0  0  0  0  0  0
   -5.6079    1.7440    0.0000 N   0  0  0  0  0  0  0  0  0
   -6.3224    2.1565    0.0000 C   0  0  0  0  0  0  0  0  0
   -6.3224    2.9815    0.0000 C   0  0  0  0  0  0  0  0  0
   -5.6079    3.3940    0.0000 C   0  0  0  0  0  0  0  0  0
   -4.8935    2.9815    0.0000 C   0  0  0  0  0  0  0  0  0
   -4.1790    3.3940    0.0000 C   0  0  0  0  0  0  0  0  0
   -3.4645    2.9815    0.0000 C   0  0  0  0  0  0  0  0  0
   -3.4645    2.1565    0.0000 C   0  0  0  0  0  0  0  0  0
   -5.6079    4.2190    0.0000 C   0  0  0  0  0  0  0  0  0
   -7.0369    1.7440    0.0000 C   0  0  0  0  0  0  0  0  0
   -3.4645   -4.4435    0.0000 C   0  0  0  0  0  0  0  0  0
   -2.7501   -4.0310    0.0000 N   0  0  0  0  0  0  0  0  0
   -2.0356   -4.4435    0.0000 C   0  0  0  0  0  0  0  0  0
   -2.0356   -5.2685    0.0000 C   0  0  0  0  0  0  0  0  0
   -2.7501   -5.6810    0.0000 C   0  0  0  0  0  0  0  0  0
   -3.4645   -5.2685    0.0000 C   0  0  0  0  0  0  0  0  0
   -4.1790   -5.6810    0.0000 C   0  0  0  0  0  0  0  0  0
  1  2  1  0  0  0  0
  1  3  1  0  0  0  0
  3  4  4  0  0  0  0
  3 36  4  0  0  0  0
  4  5  4  0  0  0  0
  5  6  1  0  0  0  0
  5 30  4  0  0  0  0
  6  7  1  0  0  0  0
  6 11  1  0  0  0  0
  7  8  1  0  0  0  0
  8  9  1  0  0  0  0
  9 10  1  0  0  0  0
  9 12  1  0  0  0  0
 10 11  1  0  0  0  0
 12 13  1  0  0  0  0
 12 17  1  0  0  0  0
 13 14  1  0  0  0  0
 14 15  1  0  0  0  0
 15 16  1  0  0  0  0
 15 18  1  0  0  0  0
 16 17  1  0  0  0  0
 18 19  4  0  0  0  0
 18 27  4  0  0  0  0
 19 20  4  0  0  0  0
 19 24  4  0  0  0  0
 20 21  4  0  0  0  0
 21 22  4  0  0  0  0
 21 29  1  0  0  0  0
 22 23  4  0  0  0  0
 23 24  4  0  0  0  0
 23 28  1  0  0  0  0
 24 25  4  0  0  0  0
 25 26  4  0  0  0  0
 26 27  4  0  0  0  0
 30 31  4  0  0  0  0
 30 35  4  0  0  0  0
 31 32  4  0  0  0  0
 32 33  4  0  0  0  0
 33 34  4  0  0  0  0
 34 35  4  0  0  0  0
 35 36  4  0  0  0  0
M  END
>  <Name_Molregno>
627938

>  <5-HT1A>
9.2

$$$$
627939
  Marvin  02231216192D 0   1.00000     0.00000     0

 40 45  0  0  0  0  0  0  0  0999 V2000
   -5.6396    2.9462    0.0000 F   0  0  0  0  0  0  0  0  0
   -4.9251    3.3587    0.0000 C   0  0  0  0  0  0  0  0  0
   -4.5126    2.6442    0.0000 F   0  0  0  0  0  0  0  0  0
   -5.3376    4.0731    0.0000 F   0  0  0  0  0  0  0  0  0
   -4.2106    3.7712    0.0000 C   0  0  0  0  0  0  0  0  0
   -3.4961    3.3587    0.0000 N   0  0  0  0  0  0  0  0  0
   -2.7817    3.7712    0.0000 C   0  0  0  0  0  0  0  0  0
   -2.7817    4.5962    0.0000 C   0  0  0  0  0  0  0  0  0
   -2.0672    5.0087    0.0000 C   0  0  0  0  0  0  0  0  0
   -1.3527    4.5962    0.0000 C   0  0  0  0  0  0  0  0  0
   -1.3527    3.7712    0.0000 C   0  0  0  0  0  0  0  0  0
   -2.0672    3.3587    0.0000 C   0  0  0  0  0  0  0  0  0
   -2.0672    2.5337    0.0000 N   0  0  0  0  0  0  0  0  0
   -1.3527    2.1212    0.0000 C   0  0  0  0  0  0  0  0  0
   -1.3527    1.2962    0.0000 C   0  0  0  0  0  0  0  0  0
   -2.0672    0.8837    0.0000 C   0  0  0  0  0  0  0  0  0
   -2.0672    0.0587    0.0000 N   0  0  0  0  0  0  0  0  0
   -1.3527   -0.3538    0.0000 C   0  0  0  0  0  0  0  0  0
   -1.3527   -1.1788    0.0000 C   0  0  0  0  0  0  0  0  0
   -2.0672   -1.5913    0.0000 N   0  0  0  0  0  0  0  0  0
   -2.7817   -1.1788    0.0000 C   0  0  0  0  0  0  0  0  0
   -2.7817   -0.3538    0.0000 C   0  0  0  0  0  0  0  0  0
   -2.0672   -2.4163    0.0000 C   0  0  0  0  0  0  0  0  0
   -2.7817   -2.8288    0.0000 C   0  0  0  0  0  0  0  0  0
   -2.7817   -3.6538    0.0000 C   0  0  0  0  0  0  0  0  0
   -3.4961   -4.0663    0.0000 O   0  0  0  0  0  0  0  0  0
   -3.4961   -4.8913    0.0000 C   0  0  0  0  0  0  0  0  0
   -2.0672   -4.0663    0.0000 C   0  0  0  0  0  0  0  0  0
   -1.3527   -3.6538    0.0000 C   0  0  0  0  0  0  0  0  0
   -1.3527   -2.8288    0.0000 C   0  0  0  0  0  0  0  0  0
   -0.6383   -2.4163    0.0000 N   0  0  0  0  0  0  0  0  0
    0.0762   -2.8288    0.0000 C   0  0  0  0  0  0  0  0  0
    0.0762   -3.6538    0.0000 C   0  0  0  0  0  0  0  0  0
   -0.6383   -4.0663    0.0000 C   0  0  0  0  0  0  0  0  0
   -2.7817    1.2962    0.0000 C   0  0  0  0  0  0  0  0  0
   -2.7817    2.1212    0.0000 C   0  0  0  0  0  0  0  0  0
   -3.4961    5.0087    0.0000 C   0  0  0  0  0  0  0  0  0
   -3.4961    5.8337    0.0000 O   0  0  0  0  0  0  0  0  0
   -4.2106    6.2462    0.0000 C   0  0  0  0  0  0  0  0  0
   -4.2106    4.5962    0.0000 C   0  0  0  0  0  0  0  0  0
  1  2  1  0  0  0  0
  2  3  1  0  0  0  0
  2  4  1  0  0  0  0
  2  5  1  0  0  0  0
  5  6  4  0  0  0  0
  5 40  4  0  0  0  0
  6  7  4  0  0  0  0
  7  8  4  0  0  0  0
  7 12  4  0  0  0  0
  8  9  4  0  0  0  0
  8 37  4  0  0  0  0
  9 10  4  0  0  0  0
 10 11  4  0  0  0  0
 11 12  4  0  0  0  0
 12 13  1  0  0  0  0
 13 14  1  0  0  0  0
 13 36  1  0  0  0  0
 14 15  1  0  0  0  0
 15 16  1  0  0  0  0
 16 17  1  0  0  0  0
 16 35  1  0  0  0  0
 17 18  1  0  0  0  0
 17 22  1  0  0  0  0
 18 19  1  0  0  0  0
 19 20  1  0  0  0  0
 20 21  1  0  0  0  0
 20 23  1  0  0  0  0
 21 22  1  0  0  0  0
 23 24  4  0  0  0  0
 23 30  4  0  0  0  0
 24 25  4  0  0  0  0
 25 26  1  0  0  0  0
 25 28  4  0  0  0  0
 26 27  1  0  0  0  0
 28 29  4  0  0  0  0
 29 30  4  0  0  0  0
 29 34  4  0  0  0  0
 30 31  4  0  0  0  0
 31 32  4  0  0  0  0
 32 33  4  0  0  0  0
 33 34  4  0  0  0  0
 35 36  1  0  0  0  0
 37 38  1  0  0  0  0
 37 40  4  0  0  0  0
 38 39  1  0  0  0  0
M  END
>  <Name_Molregno>
627939

>  <5-HT1A>
8.68

$$$$
627940
  Marvin  02231216192D 0   1.00000     0.00000     0

 39 44  0  0  0  0  0  0  0  0999 V2000
    5.4421    5.5811    0.0000 F   0  0  0  0  0  0  0  0  0
    5.4421    4.7561    0.0000 C   0  0  0  0  0  0  0  0  0
    4.7277    4.3436    0.0000 C   0  0  0  0  0  0  0  0  0
    4.7277    3.5186    0.0000 C   0  0  0  0  0  0  0  0  0
    4.0132    3.1061    0.0000 N   0  0  0  0  0  0  0  0  0
    3.2987    3.5186    0.0000 C   0  0  0  0  0  0  0  0  0
    3.2987    4.3436    0.0000 C   0  0  0  0  0  0  0  0  0
    4.0132    4.7561    0.0000 C   0  0  0  0  0  0  0  0  0
    2.5842    3.1061    0.0000 C   0  0  0  0  0  0  0  0  0
    1.8698    2.6936    0.0000 F   0  0  0  0  0  0  0  0  0
    2.9967    2.3916    0.0000 F   0  0  0  0  0  0  0  0  0
    2.1717    3.8205    0.0000 F   0  0  0  0  0  0  0  0  0
    5.4421    3.1061    0.0000 C   0  0  0  0  0  0  0  0  0
    5.4421    2.2811    0.0000 N   0  0  0  0  0  0  0  0  0
    6.1566    1.8686    0.0000 C   0  0  0  0  0  0  0  0  0
    6.1566    1.0436    0.0000 C   0  0  0  0  0  0  0  0  0
    5.4421    0.6311    0.0000 C   0  0  0  0  0  0  0  0  0
    5.4421   -0.1939    0.0000 N   0  0  0  0  0  0  0  0  0
    6.1566   -0.6064    0.0000 C   0  0  0  0  0  0  0  0  0
    6.1566   -1.4314    0.0000 C   0  0  0  0  0  0  0  0  0
    5.4421   -1.8439    0.0000 N   0  0  0  0  0  0  0  0  0
    4.7277   -1.4314    0.0000 C   0  0  0  0  0  0  0  0  0
    4.7277   -0.6064    0.0000 C   0  0  0  0  0  0  0  0  0
    5.4421   -2.6689    0.0000 C   0  0  0  0  0  0  0  0  0
    4.7277   -3.0814    0.0000 C   0  0  0  0  0  0  0  0  0
    4.7277   -3.9064    0.0000 C   0  0  0  0  0  0  0  0  0
    4.0132   -4.3189    0.0000 O   0  0  0  0  0  0  0  0  0
    4.0132   -5.1439    0.0000 C   0  0  0  0  0  0  0  0  0
    5.4421   -4.3189    0.0000 C   0  0  0  0  0  0  0  0  0
    6.1566   -3.9064    0.0000 C   0  0  0  0  0  0  0  0  0
    6.1566   -3.0814    0.0000 C   0  0  0  0  0  0  0  0  0
    6.8711   -2.6689    0.0000 N   0  0  0  0  0  0  0  0  0
    7.5855   -3.0814    0.0000 C   0  0  0  0  0  0  0  0  0
    7.5855   -3.9064    0.0000 C   0  0  0  0  0  0  0  0  0
    6.8711   -4.3189    0.0000 C   0  0  0  0  0  0  0  0  0
    4.7277    1.0436    0.0000 C   0  0  0  0  0  0  0  0  0
    4.7277    1.8686    0.0000 C   0  0  0  0  0  0  0  0  0
    6.1566    3.5186    0.0000 C   0  0  0  0  0  0  0  0  0
    6.1566    4.3436    0.0000 C   0  0  0  0  0  0  0  0  0
  1  2  1  0  0  0  0
  2  3  4  0  0  0  0
  2 39  4  0  0  0  0
  3  4  4  0  0  0  0
  3  8  4  0  0  0  0
  4  5  4  0  0  0  0
  4 13  4  0  0  0  0
  5  6  4  0  0  0  0
  6  7  4  0  0  0  0
  6  9  1  0  0  0  0
  7  8  4  0  0  0  0
  9 10  1  0  0  0  0
  9 11  1  0  0  0  0
  9 12  1  0  0  0  0
 13 14  1  0  0  0  0
 13 38  4  0  0  0  0
 14 15  1  0  0  0  0
 14 37  1  0  0  0  0
 15 16  1  0  0  0  0
 16 17  1  0  0  0  0
 17 18  1  0  0  0  0
 17 36  1  0  0  0  0
 18 19  1  0  0  0  0
 18 23  1  0  0  0  0
 19 20  1  0  0  0  0
 20 21  1  0  0  0  0
 21 22  1  0  0  0  0
 21 24  1  0  0  0  0
 22 23  1  0  0  0  0
 24 25  4  0  0  0  0
 24 31  4  0  0  0  0
 25 26  4  0  0  0  0
 26 27  1  0  0  0  0
 26 29  4  0  0  0  0
 27 28  1  0  0  0  0
 29 30  4  0  0  0  0
 30 31  4  0  0  0  0
 30 35  4  0  0  0  0
 31 32  4  0  0  0  0
 32 33  4  0  0  0  0
 33 34  4  0  0  0  0
 34 35  4  0  0  0  0
 36 37  1  0  0  0  0
 38 39  4  0  0  0  0
M  END
>  <Name_Molregno>
627940

>  <5-HT1A>
8.44

$$$$
627984
  Marvin  02231216192D 0   1.00000     0.00000     0

 39 44  0  0  0  0  0  0  0  0999 V2000
    5.2565    5.3930    0.0000 F   0  0  0  0  0  0  0  0  0
    5.2565    4.5680    0.0000 C   0  0  0  0  0  0  0  0  0
    4.5420    4.1555    0.0000 C   0  0  0  0  0  0  0  0  0
    4.5420    3.3305    0.0000 C   0  0  0  0  0  0  0  0  0
    3.8275    2.9180    0.0000 N   0  0  0  0  0  0  0  0  0
    3.1131    3.3305    0.0000 C   0  0  0  0  0  0  0  0  0
    3.1131    4.1555    0.0000 C   0  0  0  0  0  0  0  0  0
    3.8275    4.5680    0.0000 C   0  0  0  0  0  0  0  0  0
    2.3986    4.5680    0.0000 C   0  0  0  0  0  0  0  0  0
    1.6841    4.9805    0.0000 F   0  0  0  0  0  0  0  0  0
    1.9861    3.8535    0.0000 F   0  0  0  0  0  0  0  0  0
    2.8111    5.2825    0.0000 F   0  0  0  0  0  0  0  0  0
    5.2565    2.9180    0.0000 C   0  0  0  0  0  0  0  0  0
    5.2565    2.0930    0.0000 N   0  0  0  0  0  0  0  0  0
    5.9709    1.6805    0.0000 C   0  0  0  0  0  0  0  0  0
    5.9709    0.8555    0.0000 C   0  0  0  0  0  0  0  0  0
    5.2565    0.4430    0.0000 C   0  0  0  0  0  0  0  0  0
    5.2565   -0.3820    0.0000 N   0  0  0  0  0  0  0  0  0
    5.9709   -0.7945    0.0000 C   0  0  0  0  0  0  0  0  0
    5.9709   -1.6195    0.0000 C   0  0  0  0  0  0  0  0  0
    5.2565   -2.0320    0.0000 N   0  0  0  0  0  0  0  0  0
    4.5420   -1.6195    0.0000 C   0  0  0  0  0  0  0  0  0
    4.5420   -0.7945    0.0000 C   0  0  0  0  0  0  0  0  0
    5.2565   -2.8570    0.0000 C   0  0  0  0  0  0  0  0  0
    4.5420   -3.2695    0.0000 C   0  0  0  0  0  0  0  0  0
    4.5420   -4.0945    0.0000 C   0  0  0  0  0  0  0  0  0
    3.8275   -4.5070    0.0000 O   0  0  0  0  0  0  0  0  0
    3.8275   -5.3320    0.0000 C   0  0  0  0  0  0  0  0  0
    5.2565   -4.5070    0.0000 C   0  0  0  0  0  0  0  0  0
    5.9709   -4.0945    0.0000 C   0  0  0  0  0  0  0  0  0
    5.9709   -3.2695    0.0000 C   0  0  0  0  0  0  0  0  0
    6.6854   -2.8570    0.0000 N   0  0  0  0  0  0  0  0  0
    7.3999   -3.2695    0.0000 C   0  0  0  0  0  0  0  0  0
    7.3999   -4.0945    0.0000 C   0  0  0  0  0  0  0  0  0
    6.6854   -4.5070    0.0000 C   0  0  0  0  0  0  0  0  0
    4.5420    0.8555    0.0000 C   0  0  0  0  0  0  0  0  0
    4.5420    1.6805    0.0000 C   0  0  0  0  0  0  0  0  0
    5.9709    3.3305    0.0000 C   0  0  0  0  0  0  0  0  0
    5.9709    4.1555    0.0000 C   0  0  0  0  0  0  0  0  0
  1  2  1  0  0  0  0
  2  3  4  0  0  0  0
  2 39  4  0  0  0  0
  3  4  4  0  0  0  0
  3  8  4  0  0  0  0
  4  5  4  0  0  0  0
  4 13  4  0  0  0  0
  5  6  4  0  0  0  0
  6  7  4  0  0  0  0
  7  8  4  0  0  0  0
  7  9  1  0  0  0  0
  9 10  1  0  0  0  0
  9 11  1  0  0  0  0
  9 12  1  0  0  0  0
 13 14  1  0  0  0  0
 13 38  4  0  0  0  0
 14 15  1  0  0  0  0
 14 37  1  0  0  0  0
 15 16  1  0  0  0  0
 16 17  1  0  0  0  0
 17 18  1  0  0  0  0
 17 36  1  0  0  0  0
 18 19  1  0  0  0  0
 18 23  1  0  0  0  0
 19 20  1  0  0  0  0
 20 21  1  0  0  0  0
 21 22  1  0  0  0  0
 21 24  1  0  0  0  0
 22 23  1  0  0  0  0
 24 25  4  0  0  0  0
 24 31  4  0  0  0  0
 25 26  4  0  0  0  0
 26 27  1  0  0  0  0
 26 29  4  0  0  0  0
 27 28  1  0  0  0  0
 29 30  4  0  0  0  0
 30 31  4  0  0  0  0
 30 35  4  0  0  0  0
 31 32  4  0  0  0  0
 32 33  4  0  0  0  0
 33 34  4  0  0  0  0
 34 35  4  0  0  0  0
 36 37  1  0  0  0  0
 38 39  4  0  0  0  0
M  END
>  <Name_Molregno>
627984

>  <5-HT1A>
9.06

$$$$
627985
  Marvin  02231216192D 0   1.00000     0.00000     0

 36 41  0  0  0  0  0  0  0  0999 V2000
    5.3818    5.5241    0.0000 F   0  0  0  0  0  0  0  0  0
    5.3818    4.6991    0.0000 C   0  0  0  0  0  0  0  0  0
    4.6673    4.2866    0.0000 C   0  0  0  0  0  0  0  0  0
    4.6673    3.4616    0.0000 C   0  0  0  0  0  0  0  0  0
    3.9529    3.0491    0.0000 N   0  0  0  0  0  0  0  0  0
    3.2384    3.4616    0.0000 C   0  0  0  0  0  0  0  0  0
    3.2384    4.2866    0.0000 C   0  0  0  0  0  0  0  0  0
    2.5239    4.6991    0.0000 F   0  0  0  0  0  0  0  0  0
    3.9529    4.6991    0.0000 C   0  0  0  0  0  0  0  0  0
    5.3818    3.0491    0.0000 C   0  0  0  0  0  0  0  0  0
    5.3818    2.2241    0.0000 N   0  0  0  0  0  0  0  0  0
    6.0963    1.8116    0.0000 C   0  0  0  0  0  0  0  0  0
    6.0963    0.9866    0.0000 C   0  0  0  0  0  0  0  0  0
    5.3818    0.5741    0.0000 C   0  0  0  0  0  0  0  0  0
    5.3818   -0.2509    0.0000 N   0  0  0  0  0  0  0  0  0
    6.0963   -0.6634    0.0000 C   0  0  0  0  0  0  0  0  0
    6.0963   -1.4884    0.0000 C   0  0  0  0  0  0  0  0  0
    5.3818   -1.9009    0.0000 N   0  0  0  0  0  0  0  0  0
    4.6673   -1.4884    0.0000 C   0  0  0  0  0  0  0  0  0
    4.6673   -0.6634    0.0000 C   0  0  0  0  0  0  0  0  0
    5.3818   -2.7259    0.0000 C   0  0  0  0  0  0  0  0  0
    4.6673   -3.1384    0.0000 C   0  0  0  0  0  0  0  0  0
    4.6673   -3.9634    0.0000 C   0  0  0  0  0  0  0  0  0
    3.9529   -4.3759    0.0000 O   0  0  0  0  0  0  0  0  0
    3.9529   -5.2009    0.0000 C   0  0  0  0  0  0  0  0  0
    5.3818   -4.3759    0.0000 C   0  0  0  0  0  0  0  0  0
    6.0963   -3.9634    0.0000 C   0  0  0  0  0  0  0  0  0
    6.0963   -3.1384    0.0000 C   0  0  0  0  0  0  0  0  0
    6.8107   -2.7259    0.0000 N   0  0  0  0  0  0  0  0  0
    7.5252   -3.1384    0.0000 C   0  0  0  0  0  0  0  0  0
    7.5252   -3.9634    0.0000 C   0  0  0  0  0  0  0  0  0
    6.8107   -4.3759    0.0000 C   0  0  0  0  0  0  0  0  0
    4.6673    0.9866    0.0000 C   0  0  0  0  0  0  0  0  0
    4.6673    1.8116    0.0000 C   0  0  0  0  0  0  0  0  0
    6.0963    3.4616    0.0000 C   0  0  0  0  0  0  0  0  0
    6.0963    4.2866    0.0000 C   0  0  0  0  0  0  0  0  0
  1  2  1  0  0  0  0
  2  3  4  0  0  0  0
  2 36  4  0  0  0  0
  3  4  4  0  0  0  0
  3  9  4  0  0  0  0
  4  5  4  0  0  0  0
  4 10  4  0  0  0  0
  5  6  4  0  0  0  0
  6  7  4  0  0  0  0
  7  8  1  0  0  0  0
  7  9  4  0  0  0  0
 10 11  1  0  0  0  0
 10 35  4  0  0  0  0
 11 12  1  0  0  0  0
 11 34  1  0  0  0  0
 12 13  1  0  0  0  0
 13 14  1  0  0  0  0
 14 15  1  0  0  0  0
 14 33  1  0  0  0  0
 15 16  1  0  0  0  0
 15 20  1  0  0  0  0
 16 17  1  0  0  0  0
 17 18  1  0  0  0  0
 18 19  1  0  0  0  0
 18 21  1  0  0  0  0
 19 20  1  0  0  0  0
 21 22  4  0  0  0  0
 21 28  4  0  0  0  0
 22 23  4  0  0  0  0
 23 24  1  0  0  0  0
 23 26  4  0  0  0  0
 24 25  1  0  0  0  0
 26 27  4  0  0  0  0
 27 28  4  0  0  0  0
 27 32  4  0  0  0  0
 28 29  4  0  0  0  0
 29 30  4  0  0  0  0
 30 31  4  0  0  0  0
 31 32  4  0  0  0  0
 33 34  1  0  0  0  0
 35 36  4  0  0  0  0
M  END
>  <Name_Molregno>
627985

>  <5-HT1A>
9.33

$$$$
627986
  Marvin  02231216192D 0   1.00000     0.00000     0

 37 42  0  0  0  0  0  0  0  0999 V2000
    5.3183    5.4585    0.0000 F   0  0  0  0  0  0  0  0  0
    5.3183    4.6335    0.0000 C   0  0  0  0  0  0  0  0  0
    4.6038    4.2210    0.0000 C   0  0  0  0  0  0  0  0  0
    4.6038    3.3960    0.0000 C   0  0  0  0  0  0  0  0  0
    3.8894    2.9835    0.0000 N   0  0  0  0  0  0  0  0  0
    3.1749    3.3960    0.0000 C   0  0  0  0  0  0  0  0  0
    3.1749    4.2210    0.0000 C   0  0  0  0  0  0  0  0  0
    3.8894    4.6335    0.0000 C   0  0  0  0  0  0  0  0  0
    3.8894    5.4585    0.0000 C   0  0  0  0  0  0  0  0  0
    2.4604    2.9835    0.0000 C   0  0  0  0  0  0  0  0  0
    5.3183    2.9835    0.0000 C   0  0  0  0  0  0  0  0  0
    5.3183    2.1585    0.0000 N   0  0  0  0  0  0  0  0  0
    6.0328    1.7460    0.0000 C   0  0  0  0  0  0  0  0  0
    6.0328    0.9210    0.0000 C   0  0  0  0  0  0  0  0  0
    5.3183    0.5085    0.0000 C   0  0  0  0  0  0  0  0  0
    5.3183   -0.3165    0.0000 N   0  0  0  0  0  0  0  0  0
    6.0328   -0.7290    0.0000 C   0  0  0  0  0  0  0  0  0
    6.0328   -1.5540    0.0000 C   0  0  0  0  0  0  0  0  0
    5.3183   -1.9665    0.0000 N   0  0  0  0  0  0  0  0  0
    4.6038   -1.5540    0.0000 C   0  0  0  0  0  0  0  0  0
    4.6038   -0.7290    0.0000 C   0  0  0  0  0  0  0  0  0
    5.3183   -2.7915    0.0000 C   0  0  0  0  0  0  0  0  0
    4.6038   -3.2040    0.0000 C   0  0  0  0  0  0  0  0  0
    4.6038   -4.0290    0.0000 C   0  0  0  0  0  0  0  0  0
    3.8894   -4.4415    0.0000 O   0  0  0  0  0  0  0  0  0
    3.8894   -5.2665    0.0000 C   0  0  0  0  0  0  0  0  0
    5.3183   -4.4415    0.0000 C   0  0  0  0  0  0  0  0  0
    6.0328   -4.0290    0.0000 C   0  0  0  0  0  0  0  0  0
    6.0328   -3.2040    0.0000 C   0  0  0  0  0  0  0  0  0
    6.7472   -2.7915    0.0000 N   0  0  0  0  0  0  0  0  0
    7.4617   -3.2040    0.0000 C   0  0  0  0  0  0  0  0  0
    7.4617   -4.0290    0.0000 C   0  0  0  0  0  0  0  0  0
    6.7472   -4.4415    0.0000 C   0  0  0  0  0  0  0  0  0
    4.6038    0.9210    0.0000 C   0  0  0  0  0  0  0  0  0
    4.6038    1.7460    0.0000 C   0  0  0  0  0  0  0  0  0
    6.0328    3.3960    0.0000 C   0  0  0  0  0  0  0  0  0
    6.0328    4.2210    0.0000 C   0  0  0  0  0  0  0  0  0
  1  2  1  0  0  0  0
  2  3  4  0  0  0  0
  2 37  4  0  0  0  0
  3  4  4  0  0  0  0
  3  8  4  0  0  0  0
  4  5  4  0  0  0  0
  4 11  4  0  0  0  0
  5  6  4  0  0  0  0
  6  7  4  0  0  0  0
  6 10  1  0  0  0  0
  7  8  4  0  0  0  0
  8  9  1  0  0  0  0
 11 12  1  0  0  0  0
 11 36  4  0  0  0  0
 12 13  1  0  0  0  0
 12 35  1  0  0  0  0
 13 14  1  0  0  0  0
 14 15  1  0  0  0  0
 15 16  1  0  0  0  0
 15 34  1  0  0  0  0
 16 17  1  0  0  0  0
 16 21  1  0  0  0  0
 17 18  1  0  0  0  0
 18 19  1  0  0  0  0
 19 20  1  0  0  0  0
 19 22  1  0  0  0  0
 20 21  1  0  0  0  0
 22 23  4  0  0  0  0
 22 29  4  0  0  0  0
 23 24  4  0  0  0  0
 24 25  1  0  0  0  0
 24 27  4  0  0  0  0
 25 26  1  0  0  0  0
 27 28  4  0  0  0  0
 28 29  4  0  0  0  0
 28 33  4  0  0  0  0
 29 30  4  0  0  0  0
 30 31  4  0  0  0  0
 31 32  4  0  0  0  0
 32 33  4  0  0  0  0
 34 35  1  0  0  0  0
 36 37  4  0  0  0  0
M  END
>  <Name_Molregno>
627986

>  <5-HT1A>
6.75

$$$$
627987
  Marvin  02231216192D 0   1.00000     0.00000     0

 41 46  0  0  0  0  0  0  0  0999 V2000
    5.2576    5.3408    0.0000 F   0  0  0  0  0  0  0  0  0
    5.2576    4.5158    0.0000 C   0  0  0  0  0  0  0  0  0
    4.5432    4.1033    0.0000 C   0  0  0  0  0  0  0  0  0
    4.5432    3.2783    0.0000 C   0  0  0  0  0  0  0  0  0
    3.8287    2.8658    0.0000 N   0  0  0  0  0  0  0  0  0
    3.1142    3.2783    0.0000 C   0  0  0  0  0  0  0  0  0
    3.1142    4.1033    0.0000 C   0  0  0  0  0  0  0  0  0
    3.8287    4.5158    0.0000 C   0  0  0  0  0  0  0  0  0
    3.8287    5.3408    0.0000 O   0  0  0  0  0  0  0  0  0
    3.1142    5.7533    0.0000 C   0  0  0  0  0  0  0  0  0
    2.3998    2.8658    0.0000 C   0  0  0  0  0  0  0  0  0
    1.6853    2.4533    0.0000 F   0  0  0  0  0  0  0  0  0
    1.9873    3.5802    0.0000 F   0  0  0  0  0  0  0  0  0
    2.8123    2.1513    0.0000 F   0  0  0  0  0  0  0  0  0
    5.2576    2.8658    0.0000 C   0  0  0  0  0  0  0  0  0
    5.2576    2.0408    0.0000 N   0  0  0  0  0  0  0  0  0
    5.9721    1.6283    0.0000 C   0  0  0  0  0  0  0  0  0
    5.9721    0.8033    0.0000 C   0  0  0  0  0  0  0  0  0
    5.2576    0.3908    0.0000 C   0  0  0  0  0  0  0  0  0
    5.2576   -0.4342    0.0000 N   0  0  0  0  0  0  0  0  0
    5.9721   -0.8467    0.0000 C   0  0  0  0  0  0  0  0  0
    5.9721   -1.6717    0.0000 C   0  0  0  0  0  0  0  0  0
    5.2576   -2.0842    0.0000 N   0  0  0  0  0  0  0  0  0
    4.5432   -1.6717    0.0000 C   0  0  0  0  0  0  0  0  0
    4.5432   -0.8467    0.0000 C   0  0  0  0  0  0  0  0  0
    5.2576   -2.9092    0.0000 C   0  0  0  0  0  0  0  0  0
    4.5432   -3.3217    0.0000 C   0  0  0  0  0  0  0  0  0
    4.5432   -4.1467    0.0000 C   0  0  0  0  0  0  0  0  0
    3.8287   -4.5592    0.0000 O   0  0  0  0  0  0  0  0  0
    3.8287   -5.3842    0.0000 C   0  0  0  0  0  0  0  0  0
    5.2576   -4.5592    0.0000 C   0  0  0  0  0  0  0  0  0
    5.9721   -4.1467    0.0000 C   0  0  0  0  0  0  0  0  0
    5.9721   -3.3217    0.0000 C   0  0  0  0  0  0  0  0  0
    6.6866   -2.9092    0.0000 N   0  0  0  0  0  0  0  0  0
    7.4011   -3.3217    0.0000 C   0  0  0  0  0  0  0  0  0
    7.4011   -4.1467    0.0000 C   0  0  0  0  0  0  0  0  0
    6.6866   -4.5592    0.0000 C   0  0  0  0  0  0  0  0  0
    4.5432    0.8033    0.0000 C   0  0  0  0  0  0  0  0  0
    4.5432    1.6283    0.0000 C   0  0  0  0  0  0  0  0  0
    5.9721    3.2783    0.0000 C   0  0  0  0  0  0  0  0  0
    5.9721    4.1033    0.0000 C   0  0  0  0  0  0  0  0  0
  1  2  1  0  0  0  0
  2  3  4  0  0  0  0
  2 41  4  0  0  0  0
  3  4  4  0  0  0  0
  3  8  4  0  0  0  0
  4  5  4  0  0  0  0
  4 15  4  0  0  0  0
  5  6  4  0  0  0  0
  6  7  4  0  0  0  0
  6 11  1  0  0  0  0
  7  8  4  0  0  0  0
  8  9  1  0  0  0  0
  9 10  1  0  0  0  0
 11 12  1  0  0  0  0
 11 13  1  0  0  0  0
 11 14  1  0  0  0  0
 15 16  1  0  0  0  0
 15 40  4  0  0  0  0
 16 17  1  0  0  0  0
 16 39  1  0  0  0  0
 17 18  1  0  0  0  0
 18 19  1  0  0  0  0
 19 20  1  0  0  0  0
 19 38  1  0  0  0  0
 20 21  1  0  0  0  0
 20 25  1  0  0  0  0
 21 22  1  0  0  0  0
 22 23  1  0  0  0  0
 23 24  1  0  0  0  0
 23 26  1  0  0  0  0
 24 25  1  0  0  0  0
 26 27  4  0  0  0  0
 26 33  4  0  0  0  0
 27 28  4  0  0  0  0
 28 29  1  0  0  0  0
 28 31  4  0  0  0  0
 29 30  1  0  0  0  0
 31 32  4  0  0  0  0
 32 33  4  0  0  0  0
 32 37  4  0  0  0  0
 33 34  4  0  0  0  0
 34 35  4  0  0  0  0
 35 36  4  0  0  0  0
 36 37  4  0  0  0  0
 38 39  1  0  0  0  0
 40 41  4  0  0  0  0
M  END
>  <Name_Molregno>
627987

>  <5-HT1A>
8.7

$$$$
628654
  Marvin  02231216192D 0   1.00000     0.00000     0

 34 39  0  0  0  0  0  0  0  0999 V2000
   -5.4783   -5.5644    0.0000 O   0  0  0  0  0  0  0  0  0
   -5.4783   -6.3894    0.0000 C   0  0  0  0  0  0  0  0  0
   -4.7638   -5.1519    0.0000 C   0  0  0  0  0  0  0  0  0
   -4.7638   -4.3269    0.0000 C   0  0  0  0  0  0  0  0  0
   -4.0493   -3.9144    0.0000 C   0  0  0  0  0  0  0  0  0
   -4.0493   -3.0894    0.0000 N   0  0  0  0  0  0  0  0  0
   -4.7638   -2.6769    0.0000 C   0  0  0  0  0  0  0  0  0
   -4.7638   -1.8519    0.0000 C   0  0  0  0  0  0  0  0  0
   -4.0493   -1.4394    0.0000 N   0  0  0  0  0  0  0  0  0
   -3.3349   -1.8519    0.0000 C   0  0  0  0  0  0  0  0  0
   -3.3349   -2.6769    0.0000 C   0  0  0  0  0  0  0  0  0
   -4.0493   -0.6144    0.0000 C   0  0  0  0  0  0  0  0  0
   -4.7638   -0.2019    0.0000 C   0  0  0  0  0  0  0  0  0
   -4.7638    0.6231    0.0000 C   0  0  0  0  0  0  0  0  0
   -4.0493    1.0356    0.0000 N   0  0  0  0  0  0  0  0  0
   -3.3349    0.6231    0.0000 C   0  0  0  0  0  0  0  0  0
   -3.3349   -0.2019    0.0000 C   0  0  0  0  0  0  0  0  0
   -4.0493    1.8606    0.0000 C   0  0  0  0  0  0  0  0  0
   -4.7638    2.2731    0.0000 C   0  0  0  0  0  0  0  0  0
   -5.4783    1.8606    0.0000 N   0  0  0  0  0  0  0  0  0
   -6.1927    2.2731    0.0000 C   0  0  0  0  0  0  0  0  0
   -6.1927    3.0981    0.0000 C   0  0  0  0  0  0  0  0  0
   -5.4783    3.5106    0.0000 C   0  0  0  0  0  0  0  0  0
   -4.7638    3.0981    0.0000 C   0  0  0  0  0  0  0  0  0
   -4.0493    3.5106    0.0000 C   0  0  0  0  0  0  0  0  0
   -3.3349    3.0981    0.0000 C   0  0  0  0  0  0  0  0  0
   -3.3349    2.2731    0.0000 C   0  0  0  0  0  0  0  0  0
   -3.3349   -4.3269    0.0000 C   0  0  0  0  0  0  0  0  0
   -2.6204   -3.9144    0.0000 N   0  0  0  0  0  0  0  0  0
   -1.9059   -4.3269    0.0000 C   0  0  0  0  0  0  0  0  0
   -1.9059   -5.1519    0.0000 C   0  0  0  0  0  0  0  0  0
   -2.6204   -5.5644    0.0000 C   0  0  0  0  0  0  0  0  0
   -3.3349   -5.1519    0.0000 C   0  0  0  0  0  0  0  0  0
   -4.0493   -5.5644    0.0000 C   0  0  0  0  0  0  0  0  0
  1  2  1  0  0  0  0
  1  3  1  0  0  0  0
  3  4  4  0  0  0  0
  3 34  4  0  0  0  0
  4  5  4  0  0  0  0
  5  6  1  0  0  0  0
  5 28  4  0  0  0  0
  6  7  1  0  0  0  0
  6 11  1  0  0  0  0
  7  8  1  0  0  0  0
  8  9  1  0  0  0  0
  9 10  1  0  0  0  0
  9 12  1  0  0  0  0
 10 11  1  0  0  0  0
 12 13  1  0  0  0  0
 12 17  1  0  0  0  0
 13 14  1  0  0  0  0
 14 15  1  0  0  0  0
 15 16  1  0  0  0  0
 15 18  1  0  0  0  0
 16 17  1  0  0  0  0
 18 19  4  0  0  0  0
 18 27  4  0  0  0  0
 19 20  4  0  0  0  0
 19 24  4  0  0  0  0
 20 21  4  0  0  0  0
 21 22  4  0  0  0  0
 22 23  4  0  0  0  0
 23 24  4  0  0  0  0
 24 25  4  0  0  0  0
 25 26  4  0  0  0  0
 26 27  4  0  0  0  0
 28 29  4  0  0  0  0
 28 33  4  0  0  0  0
 29 30  4  0  0  0  0
 30 31  4  0  0  0  0
 31 32  4  0  0  0  0
 32 33  4  0  0  0  0
 33 34  4  0  0  0  0
M  END
>  <Name_Molregno>
628654

>  <5-HT1A>
9.4

$$$$
628655
  Marvin  02231216192D 0   1.00000     0.00000     0

 35 40  0  0  0  0  0  0  0  0999 V2000
    5.4304    5.6111    0.0000 F   0  0  0  0  0  0  0  0  0
    5.4304    4.7861    0.0000 C   0  0  0  0  0  0  0  0  0
    4.7159    4.3736    0.0000 C   0  0  0  0  0  0  0  0  0
    4.7159    3.5486    0.0000 C   0  0  0  0  0  0  0  0  0
    4.0014    3.1361    0.0000 N   0  0  0  0  0  0  0  0  0
    3.2870    3.5486    0.0000 C   0  0  0  0  0  0  0  0  0
    3.2870    4.3736    0.0000 C   0  0  0  0  0  0  0  0  0
    4.0014    4.7861    0.0000 C   0  0  0  0  0  0  0  0  0
    5.4304    3.1361    0.0000 C   0  0  0  0  0  0  0  0  0
    5.4304    2.3111    0.0000 N   0  0  0  0  0  0  0  0  0
    6.1448    1.8986    0.0000 C   0  0  0  0  0  0  0  0  0
    6.1448    1.0736    0.0000 C   0  0  0  0  0  0  0  0  0
    5.4304    0.6611    0.0000 C   0  0  0  0  0  0  0  0  0
    5.4304   -0.1639    0.0000 N   0  0  0  0  0  0  0  0  0
    6.1448   -0.5764    0.0000 C   0  0  0  0  0  0  0  0  0
    6.1448   -1.4014    0.0000 C   0  0  0  0  0  0  0  0  0
    5.4304   -1.8139    0.0000 N   0  0  0  0  0  0  0  0  0
    4.7159   -1.4014    0.0000 C   0  0  0  0  0  0  0  0  0
    4.7159   -0.5764    0.0000 C   0  0  0  0  0  0  0  0  0
    5.4304   -2.6389    0.0000 C   0  0  0  0  0  0  0  0  0
    4.7159   -3.0514    0.0000 C   0  0  0  0  0  0  0  0  0
    4.7159   -3.8764    0.0000 C   0  0  0  0  0  0  0  0  0
    4.0014   -4.2889    0.0000 O   0  0  0  0  0  0  0  0  0
    4.0014   -5.1139    0.0000 C   0  0  0  0  0  0  0  0  0
    5.4304   -4.2889    0.0000 C   0  0  0  0  0  0  0  0  0
    6.1448   -3.8764    0.0000 C   0  0  0  0  0  0  0  0  0
    6.1448   -3.0514    0.0000 C   0  0  0  0  0  0  0  0  0
    6.8593   -2.6389    0.0000 N   0  0  0  0  0  0  0  0  0
    7.5738   -3.0514    0.0000 C   0  0  0  0  0  0  0  0  0
    7.5738   -3.8764    0.0000 C   0  0  0  0  0  0  0  0  0
    6.8593   -4.2889    0.0000 C   0  0  0  0  0  0  0  0  0
    4.7159    1.0736    0.0000 C   0  0  0  0  0  0  0  0  0
    4.7159    1.8986    0.0000 C   0  0  0  0  0  0  0  0  0
    6.1448    3.5486    0.0000 C   0  0  0  0  0  0  0  0  0
    6.1448    4.3736    0.0000 C   0  0  0  0  0  0  0  0  0
  1  2  1  0  0  0  0
  2  3  4  0  0  0  0
  2 35  4  0  0  0  0
  3  4  4  0  0  0  0
  3  8  4  0  0  0  0
  4  5  4  0  0  0  0
  4  9  4  0  0  0  0
  5  6  4  0  0  0  0
  6  7  4  0  0  0  0
  7  8  4  0  0  0  0
  9 10  1  0  0  0  0
  9 34  4  0  0  0  0
 10 11  1  0  0  0  0
 10 33  1  0  0  0  0
 11 12  1  0  0  0  0
 12 13  1  0  0  0  0
 13 14  1  0  0  0  0
 13 32  1  0  0  0  0
 14 15  1  0  0  0  0
 14 19  1  0  0  0  0
 15 16  1  0  0  0  0
 16 17  1  0  0  0  0
 17 18  1  0  0  0  0
 17 20  1  0  0  0  0
 18 19  1  0  0  0  0
 20 21  4  0  0  0  0
 20 27  4  0  0  0  0
 21 22  4  0  0  0  0
 22 23  1  0  0  0  0
 22 25  4  0  0  0  0
 23 24  1  0  0  0  0
 25 26  4  0  0  0  0
 26 27  4  0  0  0  0
 26 31  4  0  0  0  0
 27 28  4  0  0  0  0
 28 29  4  0  0  0  0
 29 30  4  0  0  0  0
 30 31  4  0  0  0  0
 32 33  1  0  0  0  0
 34 35  4  0  0  0  0
M  END
>  <Name_Molregno>
628655

>  <5-HT1A>
9.4

$$$$
628656
  Marvin  02231216192D 0   1.00000     0.00000     0

 35 40  0  0  0  0  0  0  0  0999 V2000
   -6.0502   -6.0848    0.0000 F   0  0  0  0  0  0  0  0  0
   -5.3358   -5.6723    0.0000 C   0  0  0  0  0  0  0  0  0
   -5.3358   -4.8473    0.0000 C   0  0  0  0  0  0  0  0  0
   -4.6213   -4.4348    0.0000 C   0  0  0  0  0  0  0  0  0
   -4.6213   -3.6098    0.0000 N   0  0  0  0  0  0  0  0  0
   -5.3358   -3.1973    0.0000 C   0  0  0  0  0  0  0  0  0
   -5.3358   -2.3723    0.0000 C   0  0  0  0  0  0  0  0  0
   -4.6213   -1.9598    0.0000 C   0  0  0  0  0  0  0  0  0
   -4.6213   -1.1348    0.0000 N   0  0  0  0  0  0  0  0  0
   -5.3358   -0.7223    0.0000 C   0  0  0  0  0  0  0  0  0
   -5.3358    0.1027    0.0000 C   0  0  0  0  0  0  0  0  0
   -4.6213    0.5152    0.0000 N   0  0  0  0  0  0  0  0  0
   -3.9068    0.1027    0.0000 C   0  0  0  0  0  0  0  0  0
   -3.9068   -0.7223    0.0000 C   0  0  0  0  0  0  0  0  0
   -4.6213    1.3402    0.0000 C   0  0  0  0  0  0  0  0  0
   -3.9068    1.7527    0.0000 C   0  0  0  0  0  0  0  0  0
   -3.9068    2.5777    0.0000 C   0  0  0  0  0  0  0  0  0
   -3.1923    2.9902    0.0000 O   0  0  0  0  0  0  0  0  0
   -3.1923    3.8152    0.0000 C   0  0  0  0  0  0  0  0  0
   -4.6213    2.9902    0.0000 C   0  0  0  0  0  0  0  0  0
   -5.3358    2.5777    0.0000 C   0  0  0  0  0  0  0  0  0
   -5.3358    1.7527    0.0000 C   0  0  0  0  0  0  0  0  0
   -6.0502    1.3402    0.0000 N   0  0  0  0  0  0  0  0  0
   -6.7647    1.7527    0.0000 C   0  0  0  0  0  0  0  0  0
   -6.7647    2.5777    0.0000 C   0  0  0  0  0  0  0  0  0
   -6.0502    2.9902    0.0000 C   0  0  0  0  0  0  0  0  0
   -3.9068   -2.3723    0.0000 C   0  0  0  0  0  0  0  0  0
   -3.9068   -3.1973    0.0000 C   0  0  0  0  0  0  0  0  0
   -3.9068   -4.8473    0.0000 C   0  0  0  0  0  0  0  0  0
   -3.1923   -4.4348    0.0000 N   0  0  0  0  0  0  0  0  0
   -2.4779   -4.8473    0.0000 C   0  0  0  0  0  0  0  0  0
   -2.4779   -5.6723    0.0000 C   0  0  0  0  0  0  0  0  0
   -3.1923   -6.0848    0.0000 C   0  0  0  0  0  0  0  0  0
   -3.9068   -5.6723    0.0000 C   0  0  0  0  0  0  0  0  0
   -4.6213   -6.0848    0.0000 C   0  0  0  0  0  0  0  0  0
  1  2  1  0  0  0  0
  2  3  4  0  0  0  0
  2 35  4  0  0  0  0
  3  4  4  0  0  0  0
  4  5  1  0  0  0  0
  4 29  4  0  0  0  0
  5  6  1  0  0  0  0
  5 28  1  0  0  0  0
  6  7  1  0  0  0  0
  7  8  1  0  0  0  0
  8  9  1  0  0  0  0
  8 27  1  0  0  0  0
  9 10  1  0  0  0  0
  9 14  1  0  0  0  0
 10 11  1  0  0  0  0
 11 12  1  0  0  0  0
 12 13  1  0  0  0  0
 12 15  1  0  0  0  0
 13 14  1  0  0  0  0
 15 16  4  0  0  0  0
 15 22  4  0  0  0  0
 16 17  4  0  0  0  0
 17 18  1  0  0  0  0
 17 20  4  0  0  0  0
 18 19  1  0  0  0  0
 20 21  4  0  0  0  0
 21 22  4  0  0  0  0
 21 26  4  0  0  0  0
 22 23  4  0  0  0  0
 23 24  4  0  0  0  0
 24 25  4  0  0  0  0
 25 26  4  0  0  0  0
 27 28  1  0  0  0  0
 29 30  4  0  0  0  0
 29 34  4  0  0  0  0
 30 31  4  0  0  0  0
 31 32  4  0  0  0  0
 32 33  4  0  0  0  0
 33 34  4  0  0  0  0
 34 35  4  0  0  0  0
M  END
>  <Name_Molregno>
628656

>  <5-HT1A>
8.47

$$$$
677167
  Marvin  02231216192D 0   1.00000     0.00000     0

 35 38  0  0  0  0  0  0  0  0999 V2000
    9.9674    2.7171    0.0000 S   0  0  0  0  0  0  0  0  0
    9.5549    2.0027    0.0000 O   0  0  0  0  0  0  0  0  0
   10.3799    3.4316    0.0000 O   0  0  0  0  0  0  0  0  0
    9.2529    3.1296    0.0000 N   0  0  0  0  0  0  0  0  0
    8.5384    2.7171    0.0000 C   0  0  0  0  0  0  0  0  0
    8.5384    1.8921    0.0000 C   0  0  0  0  0  0  0  0  0
    7.8239    1.4796    0.0000 C   0  0  0  0  0  0  0  0  0
    7.1095    1.8921    0.0000 C   0  0  0  0  0  0  0  0  0
    6.3950    1.4796    0.0000 N   0  0  0  0  0  0  0  0  0
    6.3950    0.6546    0.0000 C   0  0  0  0  0  0  0  0  0
    5.6805    0.2421    0.0000 C   0  0  0  0  0  0  0  0  0
    4.9661    0.6546    0.0000 N   0  0  0  0  0  0  0  0  0
    4.9661    1.4796    0.0000 C   0  0  0  0  0  0  0  0  0
    5.6805    1.8921    0.0000 C   0  0  0  0  0  0  0  0  0
    4.2516    0.2421    0.0000 C   0  0  0  0  0  0  0  0  0
    4.2516   -0.5829    0.0000 O   0  0  0  0  0  0  0  0  0
    3.5371    0.6546    0.0000 C   0  0  0  0  0  0  0  0  0
    2.8226    0.2421    0.0000 O   0  0  0  0  0  0  0  0  0
    2.1082    0.6546    0.0000 C   0  0  0  0  0  0  0  0  0
    1.3937    0.2421    0.0000 C   0  0  0  0  0  0  0  0  0
    0.6792    0.6546    0.0000 C   0  0  0  0  0  0  0  0  0
    0.6792    1.4796    0.0000 C   0  0  0  0  0  0  0  0  0
   -0.1054    1.7346    0.0000 N   0  0  0  0  0  0  0  0  0
   -0.5903    1.0671    0.0000 C   0  0  0  0  0  0  0  0  0
   -0.1054    0.3997    0.0000 C   0  0  0  0  0  0  0  0  0
   -0.3603   -0.3849    0.0000 C   0  0  0  0  0  0  0  0  0
   -1.1673   -0.5565    0.0000 C   0  0  0  0  0  0  0  0  0
   -1.4222   -1.3411    0.0000 N   0  0  0  0  0  0  0  0  0
    1.3937    1.8921    0.0000 C   0  0  0  0  0  0  0  0  0
    2.1082    1.4796    0.0000 C   0  0  0  0  0  0  0  0  0
    7.1095    2.7171    0.0000 C   0  0  0  0  0  0  0  0  0
    7.8239    3.1296    0.0000 C   0  0  0  0  0  0  0  0  0
   10.6818    2.3046    0.0000 N   0  0  0  0  0  0  0  0  0
   11.3963    2.7171    0.0000 C   0  0  0  0  0  0  0  0  0
   10.6818    1.4796    0.0000 C   0  0  0  0  0  0  0  0  0
  1  2  2  0  0  0  0
  1  3  2  0  0  0  0
  1  4  1  0  0  0  0
  1 33  1  0  0  0  0
  4  5  1  0  0  0  0
  5  6  4  0  0  0  0
  5 32  4  0  0  0  0
  6  7  4  0  0  0  0
  7  8  4  0  0  0  0
  8  9  1  0  0  0  0
  8 31  4  0  0  0  0
  9 10  1  0  0  0  0
  9 14  1  0  0  0  0
 10 11  1  0  0  0  0
 11 12  1  0  0  0  0
 12 13  1  0  0  0  0
 12 15  1  0  0  0  0
 13 14  1  0  0  0  0
 15 16  2  0  0  0  0
 15 17  1  0  0  0  0
 17 18  1  0  0  0  0
 18 19  1  0  0  0  0
 19 20  4  0  0  0  0
 19 30  4  0  0  0  0
 20 21  4  0  0  0  0
 21 22  4  0  0  0  0
 21 25  4  0  0  0  0
 22 23  4  0  0  0  0
 22 29  4  0  0  0  0
 23 24  4  0  0  0  0
 24 25  4  0  0  0  0
 25 26  1  0  0  0  0
 26 27  1  0  0  0  0
 27 28  1  0  0  0  0
 29 30  4  0  0  0  0
 31 32  4  0  0  0  0
 33 34  1  0  0  0  0
 33 35  1  0  0  0  0
M  STY  1   1 DAT
M  SAL   1  1  23
M  SDT   1 MRV_IMPLICIT_H                                        
M  SDD   1     0.0000    0.0000    DR    ALL  0       0  
M  SED   1 IMPL_H1
M  END
>  <Name_Molregno>
677167

>  <5-HT1A>
7.39

$$$$
687925
  Marvin  02231216192D 0   1.00000     0.00000     0

 29 32  0  0  0  0  0  0  0  0999 V2000
   -6.5237   -2.2736    0.0000 O   0  0  0  0  0  0  0  0  0
   -6.5237   -3.0986    0.0000 C   0  0  0  0  0  0  0  0  0
   -7.2382   -1.8611    0.0000 C   0  0  0  0  0  0  0  0  0
   -7.9526   -2.2736    0.0000 C   0  0  0  0  0  0  0  0  0
   -8.6671   -1.8611    0.0000 C   0  0  0  0  0  0  0  0  0
   -8.6671   -1.0361    0.0000 C   0  0  0  0  0  0  0  0  0
   -7.9526   -0.6236    0.0000 C   0  0  0  0  0  0  0  0  0
   -7.2382   -1.0361    0.0000 C   0  0  0  0  0  0  0  0  0
   -6.5237   -0.6236    0.0000 N   0  0  0  0  0  0  0  0  0
   -6.5237    0.2014    0.0000 C   0  0  0  0  0  0  0  0  0
   -5.8092    0.6139    0.0000 C   0  0  0  0  0  0  0  0  0
   -5.0948    0.2014    0.0000 N   0  0  0  0  0  0  0  0  0
   -5.0948   -0.6236    0.0000 C   0  0  0  0  0  0  0  0  0
   -5.8092   -1.0361    0.0000 C   0  0  0  0  0  0  0  0  0
   -4.3803    0.6139    0.0000 C   0  0  0  0  0  0  0  0  0
   -3.6658    0.2014    0.0000 C   0  0  0  0  0  0  0  0  0
   -2.9513    0.6139    0.0000 N   0  0  0  0  0  0  0  0  0
   -2.2369    0.2014    0.0000 C   0  0  0  0  0  0  0  0  0
   -2.2369   -0.6236    0.0000 O   0  0  0  0  0  0  0  0  0
   -1.5224    0.6139    0.0000 C   0  0  0  0  0  0  0  0  0
   -0.8079    0.2014    0.0000 C   0  0  0  0  0  0  0  0  0
   -0.0935    0.6139    0.0000 C   0  0  0  0  0  0  0  0  0
   -0.0935    1.4389    0.0000 C   0  0  0  0  0  0  0  0  0
   -0.8079    1.8514    0.0000 C   0  0  0  0  0  0  0  0  0
   -1.5224    1.4389    0.0000 C   0  0  0  0  0  0  0  0  0
    0.6210    1.8514    0.0000 C   0  0  0  0  0  0  0  0  0
    1.3355    1.4389    0.0000 C   0  0  0  0  0  0  0  0  0
    1.3355    0.6139    0.0000 C   0  0  0  0  0  0  0  0  0
    0.6210    0.2014    0.0000 C   0  0  0  0  0  0  0  0  0
  1  2  1  0  0  0  0
  1  3  1  0  0  0  0
  3  4  4  0  0  0  0
  3  8  4  0  0  0  0
  4  5  4  0  0  0  0
  5  6  4  0  0  0  0
  6  7  4  0  0  0  0
  7  8  4  0  0  0  0
  8  9  1  0  0  0  0
  9 10  1  0  0  0  0
  9 14  1  0  0  0  0
 10 11  1  0  0  0  0
 11 12  1  0  0  0  0
 12 13  1  0  0  0  0
 12 15  1  0  0  0  0
 13 14  1  0  0  0  0
 15 16  1  0  0  0  0
 16 17  1  0  0  0  0
 17 18  1  0  0  0  0
 18 19  2  0  0  0  0
 18 20  1  0  0  0  0
 20 21  4  0  0  0  0
 20 25  4  0  0  0  0
 21 22  4  0  0  0  0
 22 23  4  0  0  0  0
 22 29  4  0  0  0  0
 23 24  4  0  0  0  0
 23 26  4  0  0  0  0
 24 25  4  0  0  0  0
 26 27  4  0  0  0  0
 27 28  4  0  0  0  0
 28 29  4  0  0  0  0
M  END
>  <Name_Molregno>
687925

>  <5-HT1A>
8.63

>  <Alpha-2A>
8.77

>  <DOPAMINE D2>
6.05

$$$$
687926
  Marvin  02231216192D 0   1.00000     0.00000     0

 30 33  0  0  0  0  0  0  0  0999 V2000
   -0.0771   -0.2282    0.0000 S   0  0  0  0  0  0  0  0  0
    0.3354   -0.9426    0.0000 O   0  0  0  0  0  0  0  0  0
   -0.4896    0.4863    0.0000 O   0  0  0  0  0  0  0  0  0
   -0.7916   -0.6407    0.0000 N   0  0  0  0  0  0  0  0  0
   -1.5060   -0.2282    0.0000 C   0  0  0  0  0  0  0  0  0
   -2.2205   -0.6407    0.0000 C   0  0  0  0  0  0  0  0  0
   -2.9350   -0.2282    0.0000 N   0  0  0  0  0  0  0  0  0
   -3.6494   -0.6407    0.0000 C   0  0  0  0  0  0  0  0  0
   -4.3639   -0.2282    0.0000 C   0  0  0  0  0  0  0  0  0
   -4.3639    0.5968    0.0000 N   0  0  0  0  0  0  0  0  0
   -3.6494    1.0093    0.0000 C   0  0  0  0  0  0  0  0  0
   -2.9350    0.5968    0.0000 C   0  0  0  0  0  0  0  0  0
   -5.0784    1.0093    0.0000 C   0  0  0  0  0  0  0  0  0
   -5.7929    0.5968    0.0000 C   0  0  0  0  0  0  0  0  0
   -6.5073    1.0093    0.0000 C   0  0  0  0  0  0  0  0  0
   -6.5073    1.8343    0.0000 C   0  0  0  0  0  0  0  0  0
   -5.7929    2.2468    0.0000 C   0  0  0  0  0  0  0  0  0
   -5.0784    1.8343    0.0000 C   0  0  0  0  0  0  0  0  0
   -4.3639    2.2468    0.0000 O   0  0  0  0  0  0  0  0  0
   -4.3639    3.0718    0.0000 C   0  0  0  0  0  0  0  0  0
    0.6374    0.1843    0.0000 C   0  0  0  0  0  0  0  0  0
    1.3518   -0.2282    0.0000 C   0  0  0  0  0  0  0  0  0
    2.0663    0.1843    0.0000 C   0  0  0  0  0  0  0  0  0
    2.0663    1.0093    0.0000 C   0  0  0  0  0  0  0  0  0
    1.3518    1.4218    0.0000 C   0  0  0  0  0  0  0  0  0
    0.6374    1.0093    0.0000 C   0  0  0  0  0  0  0  0  0
    2.7808    1.4218    0.0000 C   0  0  0  0  0  0  0  0  0
    3.4953    1.0093    0.0000 C   0  0  0  0  0  0  0  0  0
    3.4953    0.1843    0.0000 C   0  0  0  0  0  0  0  0  0
    2.7808   -0.2282    0.0000 C   0  0  0  0  0  0  0  0  0
  1  2  2  0  0  0  0
  1  3  2  0  0  0  0
  1  4  1  0  0  0  0
  1 21  1  0  0  0  0
  4  5  1  0  0  0  0
  5  6  1  0  0  0  0
  6  7  1  0  0  0  0
  7  8  1  0  0  0  0
  7 12  1  0  0  0  0
  8  9  1  0  0  0  0
  9 10  1  0  0  0  0
 10 11  1  0  0  0  0
 10 13  1  0  0  0  0
 11 12  1  0  0  0  0
 13 14  4  0  0  0  0
 13 18  4  0  0  0  0
 14 15  4  0  0  0  0
 15 16  4  0  0  0  0
 16 17  4  0  0  0  0
 17 18  4  0  0  0  0
 18 19  1  0  0  0  0
 19 20  1  0  0  0  0
 21 22  4  0  0  0  0
 21 26  4  0  0  0  0
 22 23  4  0  0  0  0
 23 24  4  0  0  0  0
 23 30  4  0  0  0  0
 24 25  4  0  0  0  0
 24 27  4  0  0  0  0
 25 26  4  0  0  0  0
 27 28  4  0  0  0  0
 28 29  4  0  0  0  0
 29 30  4  0  0  0  0
M  END
>  <Name_Molregno>
687926

>  <5-HT1A>
7.61

>  <Alpha-2A>
8.28

$$$$
687971
  Marvin  02231216192D 0   1.00000     0.00000     0

 30 33  0  0  0  0  0  0  0  0999 V2000
   -8.5101   -0.8886    0.0000 O   0  0  0  0  0  0  0  0  0
   -9.2245   -1.3011    0.0000 C   0  0  0  0  0  0  0  0  0
   -8.5101   -0.0636    0.0000 C   0  0  0  0  0  0  0  0  0
   -9.2245    0.3489    0.0000 C   0  0  0  0  0  0  0  0  0
   -9.2245    1.1739    0.0000 C   0  0  0  0  0  0  0  0  0
   -8.5101    1.5864    0.0000 C   0  0  0  0  0  0  0  0  0
   -7.7956    1.1739    0.0000 C   0  0  0  0  0  0  0  0  0
   -7.7956    0.3489    0.0000 C   0  0  0  0  0  0  0  0  0
   -7.0811   -0.0636    0.0000 N   0  0  0  0  0  0  0  0  0
   -6.3667    0.3489    0.0000 C   0  0  0  0  0  0  0  0  0
   -5.6522   -0.0636    0.0000 C   0  0  0  0  0  0  0  0  0
   -5.6522   -0.8886    0.0000 N   0  0  0  0  0  0  0  0  0
   -6.3667   -1.3011    0.0000 C   0  0  0  0  0  0  0  0  0
   -7.0811   -0.8886    0.0000 C   0  0  0  0  0  0  0  0  0
   -4.9377   -1.3011    0.0000 C   0  0  0  0  0  0  0  0  0
   -4.2232   -0.8886    0.0000 C   0  0  0  0  0  0  0  0  0
   -3.5088   -1.3011    0.0000 C   0  0  0  0  0  0  0  0  0
   -2.7943   -0.8886    0.0000 N   0  0  0  0  0  0  0  0  0
   -2.0798   -1.3011    0.0000 C   0  0  0  0  0  0  0  0  0
   -2.0798   -2.1261    0.0000 O   0  0  0  0  0  0  0  0  0
   -1.3654   -0.8886    0.0000 C   0  0  0  0  0  0  0  0  0
   -0.6509   -1.3011    0.0000 C   0  0  0  0  0  0  0  0  0
    0.0636   -0.8886    0.0000 C   0  0  0  0  0  0  0  0  0
    0.0636   -0.0636    0.0000 C   0  0  0  0  0  0  0  0  0
   -0.6509    0.3489    0.0000 C   0  0  0  0  0  0  0  0  0
   -1.3654   -0.0636    0.0000 C   0  0  0  0  0  0  0  0  0
    0.7781    0.3489    0.0000 C   0  0  0  0  0  0  0  0  0
    1.4925   -0.0636    0.0000 C   0  0  0  0  0  0  0  0  0
    1.4925   -0.8886    0.0000 C   0  0  0  0  0  0  0  0  0
    0.7781   -1.3011    0.0000 C   0  0  0  0  0  0  0  0  0
  1  2  1  0  0  0  0
  1  3  1  0  0  0  0
  3  4  4  0  0  0  0
  3  8  4  0  0  0  0
  4  5  4  0  0  0  0
  5  6  4  0  0  0  0
  6  7  4  0  0  0  0
  7  8  4  0  0  0  0
  8  9  1  0  0  0  0
  9 10  1  0  0  0  0
  9 14  1  0  0  0  0
 10 11  1  0  0  0  0
 11 12  1  0  0  0  0
 12 13  1  0  0  0  0
 12 15  1  0  0  0  0
 13 14  1  0  0  0  0
 15 16  1  0  0  0  0
 16 17  1  0  0  0  0
 17 18  1  0  0  0  0
 18 19  1  0  0  0  0
 19 20  2  0  0  0  0
 19 21  1  0  0  0  0
 21 22  4  0  0  0  0
 21 26  4  0  0  0  0
 22 23  4  0  0  0  0
 23 24  4  0  0  0  0
 23 30  4  0  0  0  0
 24 25  4  0  0  0  0
 24 27  4  0  0  0  0
 25 26  4  0  0  0  0
 27 28  4  0  0  0  0
 28 29  4  0  0  0  0
 29 30  4  0  0  0  0
M  END
>  <Name_Molregno>
687971

>  <5-HT1A>
7.75

>  <Alpha-2A>
8.34

$$$$
687972
  Marvin  02231216192D 0   1.00000     0.00000     0

 32 35  0  0  0  0  0  0  0  0999 V2000
    0.0473    0.2018    0.0000 S   0  0  0  0  0  0  0  0  0
   -0.3652    0.9163    0.0000 O   0  0  0  0  0  0  0  0  0
    0.4598   -0.5127    0.0000 O   0  0  0  0  0  0  0  0  0
    0.7617    0.6143    0.0000 N   0  0  0  0  0  0  0  0  0
    1.4762    0.2018    0.0000 C   0  0  0  0  0  0  0  0  0
    2.1907    0.6143    0.0000 C   0  0  0  0  0  0  0  0  0
    2.9052    0.2018    0.0000 C   0  0  0  0  0  0  0  0  0
    3.6196    0.6143    0.0000 C   0  0  0  0  0  0  0  0  0
    4.3341    0.2018    0.0000 N   0  0  0  0  0  0  0  0  0
    5.0486    0.6143    0.0000 C   0  0  0  0  0  0  0  0  0
    5.7630    0.2018    0.0000 C   0  0  0  0  0  0  0  0  0
    5.7630   -0.6232    0.0000 N   0  0  0  0  0  0  0  0  0
    5.0486   -1.0357    0.0000 C   0  0  0  0  0  0  0  0  0
    4.3341   -0.6232    0.0000 C   0  0  0  0  0  0  0  0  0
    6.4775   -1.0357    0.0000 C   0  0  0  0  0  0  0  0  0
    7.1920   -0.6232    0.0000 C   0  0  0  0  0  0  0  0  0
    7.9065   -1.0357    0.0000 C   0  0  0  0  0  0  0  0  0
    7.9065   -1.8607    0.0000 C   0  0  0  0  0  0  0  0  0
    7.1920   -2.2732    0.0000 C   0  0  0  0  0  0  0  0  0
    6.4775   -1.8607    0.0000 C   0  0  0  0  0  0  0  0  0
    5.7630   -2.2732    0.0000 O   0  0  0  0  0  0  0  0  0
    5.7630   -3.0982    0.0000 C   0  0  0  0  0  0  0  0  0
   -0.6672   -0.2107    0.0000 C   0  0  0  0  0  0  0  0  0
   -1.3817    0.2018    0.0000 C   0  0  0  0  0  0  0  0  0
   -2.0961   -0.2107    0.0000 C   0  0  0  0  0  0  0  0  0
   -2.0961   -1.0357    0.0000 C   0  0  0  0  0  0  0  0  0
   -1.3817   -1.4482    0.0000 C   0  0  0  0  0  0  0  0  0
   -0.6672   -1.0357    0.0000 C   0  0  0  0  0  0  0  0  0
   -2.8106   -1.4482    0.0000 C   0  0  0  0  0  0  0  0  0
   -3.5251   -1.0357    0.0000 C   0  0  0  0  0  0  0  0  0
   -3.5251   -0.2107    0.0000 C   0  0  0  0  0  0  0  0  0
   -2.8106    0.2018    0.0000 C   0  0  0  0  0  0  0  0  0
  1  2  2  0  0  0  0
  1  3  2  0  0  0  0
  1  4  1  0  0  0  0
  1 23  1  0  0  0  0
  4  5  1  0  0  0  0
  5  6  1  0  0  0  0
  6  7  1  0  0  0  0
  7  8  1  0  0  0  0
  8  9  1  0  0  0  0
  9 10  1  0  0  0  0
  9 14  1  0  0  0  0
 10 11  1  0  0  0  0
 11 12  1  0  0  0  0
 12 13  1  0  0  0  0
 12 15  1  0  0  0  0
 13 14  1  0  0  0  0
 15 16  4  0  0  0  0
 15 20  4  0  0  0  0
 16 17  4  0  0  0  0
 17 18  4  0  0  0  0
 18 19  4  0  0  0  0
 19 20  4  0  0  0  0
 20 21  1  0  0  0  0
 21 22  1  0  0  0  0
 23 24  4  0  0  0  0
 23 28  4  0  0  0  0
 24 25  4  0  0  0  0
 25 26  4  0  0  0  0
 25 32  4  0  0  0  0
 26 27  4  0  0  0  0
 26 29  4  0  0  0  0
 27 28  4  0  0  0  0
 29 30  4  0  0  0  0
 30 31  4  0  0  0  0
 31 32  4  0  0  0  0
M  END
>  <Name_Molregno>
687972

>  <5-HT1A>
7.21

>  <Alpha-2A>
8.39

>  <DOPAMINE D2>
7.33

$$$$
688019
  Marvin  02231216192D 0   1.00000     0.00000     0

 32 35  0  0  0  0  0  0  0  0999 V2000
   -9.8715    0.0032    0.0000 O   0  0  0  0  0  0  0  0  0
  -10.5860   -0.4093    0.0000 C   0  0  0  0  0  0  0  0  0
   -9.8715    0.8282    0.0000 C   0  0  0  0  0  0  0  0  0
  -10.5860    1.2407    0.0000 C   0  0  0  0  0  0  0  0  0
  -10.5860    2.0657    0.0000 C   0  0  0  0  0  0  0  0  0
   -9.8715    2.4782    0.0000 C   0  0  0  0  0  0  0  0  0
   -9.1570    2.0657    0.0000 C   0  0  0  0  0  0  0  0  0
   -9.1570    1.2407    0.0000 C   0  0  0  0  0  0  0  0  0
   -8.4426    0.8282    0.0000 N   0  0  0  0  0  0  0  0  0
   -7.7281    1.2407    0.0000 C   0  0  0  0  0  0  0  0  0
   -7.0136    0.8282    0.0000 C   0  0  0  0  0  0  0  0  0
   -7.0136    0.0032    0.0000 N   0  0  0  0  0  0  0  0  0
   -7.7281   -0.4093    0.0000 C   0  0  0  0  0  0  0  0  0
   -8.4426    0.0032    0.0000 C   0  0  0  0  0  0  0  0  0
   -6.2992   -0.4093    0.0000 C   0  0  0  0  0  0  0  0  0
   -5.5847    0.0032    0.0000 C   0  0  0  0  0  0  0  0  0
   -4.8702   -0.4093    0.0000 C   0  0  0  0  0  0  0  0  0
   -4.1557    0.0032    0.0000 C   0  0  0  0  0  0  0  0  0
   -3.4413   -0.4093    0.0000 C   0  0  0  0  0  0  0  0  0
   -2.7268    0.0032    0.0000 N   0  0  0  0  0  0  0  0  0
   -2.0123   -0.4093    0.0000 C   0  0  0  0  0  0  0  0  0
   -2.0123   -1.2343    0.0000 O   0  0  0  0  0  0  0  0  0
   -1.2979    0.0032    0.0000 C   0  0  0  0  0  0  0  0  0
   -0.5834   -0.4093    0.0000 C   0  0  0  0  0  0  0  0  0
    0.1311    0.0032    0.0000 C   0  0  0  0  0  0  0  0  0
    0.1311    0.8282    0.0000 C   0  0  0  0  0  0  0  0  0
   -0.5834    1.2407    0.0000 C   0  0  0  0  0  0  0  0  0
   -1.2979    0.8282    0.0000 C   0  0  0  0  0  0  0  0  0
    0.8456    1.2407    0.0000 C   0  0  0  0  0  0  0  0  0
    1.5600    0.8282    0.0000 C   0  0  0  0  0  0  0  0  0
    1.5600    0.0032    0.0000 C   0  0  0  0  0  0  0  0  0
    0.8456   -0.4093    0.0000 C   0  0  0  0  0  0  0  0  0
  1  2  1  0  0  0  0
  1  3  1  0  0  0  0
  3  4  4  0  0  0  0
  3  8  4  0  0  0  0
  4  5  4  0  0  0  0
  5  6  4  0  0  0  0
  6  7  4  0  0  0  0
  7  8  4  0  0  0  0
  8  9  1  0  0  0  0
  9 10  1  0  0  0  0
  9 14  1  0  0  0  0
 10 11  1  0  0  0  0
 11 12  1  0  0  0  0
 12 13  1  0  0  0  0
 12 15  1  0  0  0  0
 13 14  1  0  0  0  0
 15 16  1  0  0  0  0
 16 17  1  0  0  0  0
 17 18  1  0  0  0  0
 18 19  1  0  0  0  0
 19 20  1  0  0  0  0
 20 21  1  0  0  0  0
 21 22  2  0  0  0  0
 21 23  1  0  0  0  0
 23 24  4  0  0  0  0
 23 28  4  0  0  0  0
 24 25  4  0  0  0  0
 25 26  4  0  0  0  0
 25 32  4  0  0  0  0
 26 27  4  0  0  0  0
 26 29  4  0  0  0  0
 27 28  4  0  0  0  0
 29 30  4  0  0  0  0
 30 31  4  0  0  0  0
 31 32  4  0  0  0  0
M  END
>  <Name_Molregno>
688019

>  <5-HT1A>
7.27

>  <Alpha-2A>
7.95

>  <DOPAMINE D2>
6.6

$$$$
688020
  Marvin  02231216192D 0   1.00000     0.00000     0

 33 36  0  0  0  0  0  0  0  0999 V2000
   -0.0697   -0.6215    0.0000 S   0  0  0  0  0  0  0  0  0
   -0.4822    0.0930    0.0000 O   0  0  0  0  0  0  0  0  0
    0.3428   -1.3359    0.0000 O   0  0  0  0  0  0  0  0  0
    0.6448   -0.2090    0.0000 N   0  0  0  0  0  0  0  0  0
    1.3593   -0.6215    0.0000 C   0  0  0  0  0  0  0  0  0
    2.0737   -0.2090    0.0000 C   0  0  0  0  0  0  0  0  0
    2.7882   -0.6215    0.0000 C   0  0  0  0  0  0  0  0  0
    3.5027   -0.2090    0.0000 C   0  0  0  0  0  0  0  0  0
    4.2172   -0.6215    0.0000 C   0  0  0  0  0  0  0  0  0
    4.9316   -0.2090    0.0000 N   0  0  0  0  0  0  0  0  0
    4.9316    0.6160    0.0000 C   0  0  0  0  0  0  0  0  0
    5.6461    1.0285    0.0000 C   0  0  0  0  0  0  0  0  0
    6.3606    0.6160    0.0000 N   0  0  0  0  0  0  0  0  0
    6.3606   -0.2090    0.0000 C   0  0  0  0  0  0  0  0  0
    5.6461   -0.6215    0.0000 C   0  0  0  0  0  0  0  0  0
    7.0750    1.0285    0.0000 C   0  0  0  0  0  0  0  0  0
    7.0750    1.8535    0.0000 C   0  0  0  0  0  0  0  0  0
    7.7895    2.2660    0.0000 C   0  0  0  0  0  0  0  0  0
    8.5040    1.8535    0.0000 C   0  0  0  0  0  0  0  0  0
    8.5040    1.0285    0.0000 C   0  0  0  0  0  0  0  0  0
    7.7895    0.6160    0.0000 C   0  0  0  0  0  0  0  0  0
    7.7895   -0.2090    0.0000 O   0  0  0  0  0  0  0  0  0
    8.5040   -0.6215    0.0000 C   0  0  0  0  0  0  0  0  0
   -0.7841   -1.0340    0.0000 C   0  0  0  0  0  0  0  0  0
   -1.4986   -0.6215    0.0000 C   0  0  0  0  0  0  0  0  0
   -2.2131   -1.0340    0.0000 C   0  0  0  0  0  0  0  0  0
   -2.2131   -1.8590    0.0000 C   0  0  0  0  0  0  0  0  0
   -1.4986   -2.2715    0.0000 C   0  0  0  0  0  0  0  0  0
   -0.7841   -1.8590    0.0000 C   0  0  0  0  0  0  0  0  0
   -2.9276   -2.2715    0.0000 C   0  0  0  0  0  0  0  0  0
   -3.6420   -1.8590    0.0000 C   0  0  0  0  0  0  0  0  0
   -3.6420   -1.0340    0.0000 C   0  0  0  0  0  0  0  0  0
   -2.9276   -0.6215    0.0000 C   0  0  0  0  0  0  0  0  0
  1  2  2  0  0  0  0
  1  3  2  0  0  0  0
  1  4  1  0  0  0  0
  1 24  1  0  0  0  0
  4  5  1  0  0  0  0
  5  6  1  0  0  0  0
  6  7  1  0  0  0  0
  7  8  1  0  0  0  0
  8  9  1  0  0  0  0
  9 10  1  0  0  0  0
 10 11  1  0  0  0  0
 10 15  1  0  0  0  0
 11 12  1  0  0  0  0
 12 13  1  0  0  0  0
 13 14  1  0  0  0  0
 13 16  1  0  0  0  0
 14 15  1  0  0  0  0
 16 17  4  0  0  0  0
 16 21  4  0  0  0  0
 17 18  4  0  0  0  0
 18 19  4  0  0  0  0
 19 20  4  0  0  0  0
 20 21  4  0  0  0  0
 21 22  1  0  0  0  0
 22 23  1  0  0  0  0
 24 25  4  0  0  0  0
 24 29  4  0  0  0  0
 25 26  4  0  0  0  0
 26 27  4  0  0  0  0
 26 33  4  0  0  0  0
 27 28  4  0  0  0  0
 27 30  4  0  0  0  0
 28 29  4  0  0  0  0
 30 31  4  0  0  0  0
 31 32  4  0  0  0  0
 32 33  4  0  0  0  0
M  END
>  <Name_Molregno>
688020

>  <5-HT1A>
7.56

>  <Alpha-2A>
8.07

>  <DOPAMINE D2>
6.36

$$$$
688021
  Marvin  02231216192D 0   1.00000     0.00000     0

 33 36  0  0  0  0  0  0  0  0999 V2000
   -8.4947   -2.3278    0.0000 O   0  0  0  0  0  0  0  0  0
   -8.4947   -3.1528    0.0000 C   0  0  0  0  0  0  0  0  0
   -9.2092   -1.9153    0.0000 C   0  0  0  0  0  0  0  0  0
   -9.9237   -2.3278    0.0000 C   0  0  0  0  0  0  0  0  0
  -10.6382   -1.9153    0.0000 C   0  0  0  0  0  0  0  0  0
  -10.6382   -1.0903    0.0000 C   0  0  0  0  0  0  0  0  0
   -9.9237   -0.6778    0.0000 C   0  0  0  0  0  0  0  0  0
   -9.2092   -1.0903    0.0000 C   0  0  0  0  0  0  0  0  0
   -8.4947   -0.6778    0.0000 N   0  0  0  0  0  0  0  0  0
   -8.4947    0.1472    0.0000 C   0  0  0  0  0  0  0  0  0
   -7.7803    0.5597    0.0000 C   0  0  0  0  0  0  0  0  0
   -7.0658    0.1472    0.0000 N   0  0  0  0  0  0  0  0  0
   -7.0658   -0.6778    0.0000 C   0  0  0  0  0  0  0  0  0
   -7.7803   -1.0903    0.0000 C   0  0  0  0  0  0  0  0  0
   -6.3513    0.5597    0.0000 C   0  0  0  0  0  0  0  0  0
   -5.6369    0.1472    0.0000 C   0  0  0  0  0  0  0  0  0
   -4.9224    0.5597    0.0000 C   0  0  0  0  0  0  0  0  0
   -4.2079    0.1472    0.0000 C   0  0  0  0  0  0  0  0  0
   -3.4934    0.5597    0.0000 C   0  0  0  0  0  0  0  0  0
   -2.7790    0.1472    0.0000 C   0  0  0  0  0  0  0  0  0
   -2.0645    0.5597    0.0000 N   0  0  0  0  0  0  0  0  0
   -1.3500    0.1472    0.0000 C   0  0  0  0  0  0  0  0  0
   -1.3500   -0.6778    0.0000 O   0  0  0  0  0  0  0  0  0
   -0.6356    0.5597    0.0000 C   0  0  0  0  0  0  0  0  0
    0.0789    0.1472    0.0000 C   0  0  0  0  0  0  0  0  0
    0.7934    0.5597    0.0000 C   0  0  0  0  0  0  0  0  0
    0.7934    1.3847    0.0000 C   0  0  0  0  0  0  0  0  0
    0.0789    1.7972    0.0000 C   0  0  0  0  0  0  0  0  0
   -0.6356    1.3847    0.0000 C   0  0  0  0  0  0  0  0  0
    1.5078    1.7972    0.0000 C   0  0  0  0  0  0  0  0  0
    2.2223    1.3847    0.0000 C   0  0  0  0  0  0  0  0  0
    2.2223    0.5597    0.0000 C   0  0  0  0  0  0  0  0  0
    1.5078    0.1472    0.0000 C   0  0  0  0  0  0  0  0  0
  1  2  1  0  0  0  0
  1  3  1  0  0  0  0
  3  4  4  0  0  0  0
  3  8  4  0  0  0  0
  4  5  4  0  0  0  0
  5  6  4  0  0  0  0
  6  7  4  0  0  0  0
  7  8  4  0  0  0  0
  8  9  1  0  0  0  0
  9 10  1  0  0  0  0
  9 14  1  0  0  0  0
 10 11  1  0  0  0  0
 11 12  1  0  0  0  0
 12 13  1  0  0  0  0
 12 15  1  0  0  0  0
 13 14  1  0  0  0  0
 15 16  1  0  0  0  0
 16 17  1  0  0  0  0
 17 18  1  0  0  0  0
 18 19  1  0  0  0  0
 19 20  1  0  0  0  0
 20 21  1  0  0  0  0
 21 22  1  0  0  0  0
 22 23  2  0  0  0  0
 22 24  1  0  0  0  0
 24 25  4  0  0  0  0
 24 29  4  0  0  0  0
 25 26  4  0  0  0  0
 26 27  4  0  0  0  0
 26 33  4  0  0  0  0
 27 28  4  0  0  0  0
 27 30  4  0  0  0  0
 28 29  4  0  0  0  0
 30 31  4  0  0  0  0
 31 32  4  0  0  0  0
 32 33  4  0  0  0  0
M  END
>  <Name_Molregno>
688021

>  <5-HT1A>
6.99

>  <Alpha-2A>
8.21

>  <DOPAMINE D2>
6.92

$$$$
688022
  Marvin  02231216192D 0   1.00000     0.00000     0

 34 37  0  0  0  0  0  0  0  0999 V2000
   -6.0716    1.2829    0.0000 S   0  0  0  0  0  0  0  0  0
   -6.4841    1.9974    0.0000 O   0  0  0  0  0  0  0  0  0
   -5.6591    0.5685    0.0000 O   0  0  0  0  0  0  0  0  0
   -5.3572    1.6954    0.0000 N   0  0  0  0  0  0  0  0  0
   -4.6427    1.2829    0.0000 C   0  0  0  0  0  0  0  0  0
   -3.9282    1.6954    0.0000 C   0  0  0  0  0  0  0  0  0
   -3.2137    1.2829    0.0000 C   0  0  0  0  0  0  0  0  0
   -2.4993    1.6954    0.0000 C   0  0  0  0  0  0  0  0  0
   -1.7848    1.2829    0.0000 C   0  0  0  0  0  0  0  0  0
   -1.0703    1.6954    0.0000 C   0  0  0  0  0  0  0  0  0
   -0.3559    1.2829    0.0000 N   0  0  0  0  0  0  0  0  0
    0.3586    1.6954    0.0000 C   0  0  0  0  0  0  0  0  0
    1.0731    1.2829    0.0000 C   0  0  0  0  0  0  0  0  0
    1.0731    0.4579    0.0000 N   0  0  0  0  0  0  0  0  0
    0.3586    0.0454    0.0000 C   0  0  0  0  0  0  0  0  0
   -0.3559    0.4579    0.0000 C   0  0  0  0  0  0  0  0  0
    1.7876    0.0454    0.0000 C   0  0  0  0  0  0  0  0  0
    2.5020    0.4579    0.0000 C   0  0  0  0  0  0  0  0  0
    3.2165    0.0454    0.0000 C   0  0  0  0  0  0  0  0  0
    3.2165   -0.7796    0.0000 C   0  0  0  0  0  0  0  0  0
    2.5020   -1.1921    0.0000 C   0  0  0  0  0  0  0  0  0
    1.7876   -0.7796    0.0000 C   0  0  0  0  0  0  0  0  0
    1.0731   -1.1921    0.0000 O   0  0  0  0  0  0  0  0  0
    1.0731   -2.0171    0.0000 C   0  0  0  0  0  0  0  0  0
   -6.7861    0.8704    0.0000 C   0  0  0  0  0  0  0  0  0
   -7.5006    1.2829    0.0000 C   0  0  0  0  0  0  0  0  0
   -8.2150    0.8704    0.0000 C   0  0  0  0  0  0  0  0  0
   -8.2150    0.0454    0.0000 C   0  0  0  0  0  0  0  0  0
   -7.5006   -0.3671    0.0000 C   0  0  0  0  0  0  0  0  0
   -6.7861    0.0454    0.0000 C   0  0  0  0  0  0  0  0  0
   -8.9295   -0.3671    0.0000 C   0  0  0  0  0  0  0  0  0
   -9.6440    0.0454    0.0000 C   0  0  0  0  0  0  0  0  0
   -9.6440    0.8704    0.0000 C   0  0  0  0  0  0  0  0  0
   -8.9295    1.2829    0.0000 C   0  0  0  0  0  0  0  0  0
  1  2  2  0  0  0  0
  1  3  2  0  0  0  0
  1  4  1  0  0  0  0
  1 25  1  0  0  0  0
  4  5  1  0  0  0  0
  5  6  1  0  0  0  0
  6  7  1  0  0  0  0
  7  8  1  0  0  0  0
  8  9  1  0  0  0  0
  9 10  1  0  0  0  0
 10 11  1  0  0  0  0
 11 12  1  0  0  0  0
 11 16  1  0  0  0  0
 12 13  1  0  0  0  0
 13 14  1  0  0  0  0
 14 15  1  0  0  0  0
 14 17  1  0  0  0  0
 15 16  1  0  0  0  0
 17 18  4  0  0  0  0
 17 22  4  0  0  0  0
 18 19  4  0  0  0  0
 19 20  4  0  0  0  0
 20 21  4  0  0  0  0
 21 22  4  0  0  0  0
 22 23  1  0  0  0  0
 23 24  1  0  0  0  0
 25 26  4  0  0  0  0
 25 30  4  0  0  0  0
 26 27  4  0  0  0  0
 27 28  4  0  0  0  0
 27 34  4  0  0  0  0
 28 29  4  0  0  0  0
 28 31  4  0  0  0  0
 29 30  4  0  0  0  0
 31 32  4  0  0  0  0
 32 33  4  0  0  0  0
 33 34  4  0  0  0  0
M  END
>  <Name_Molregno>
688022

>  <5-HT1A>
8.02

>  <Alpha-2A>
8.54

>  <DOPAMINE D2>
7

$$$$
1-Ethyl-3-{(1,4-cis)-4-[4-(1H-indol-4-yl)-piperazin-1-yl]-cyclohexyl}-1H-indole-
  Marvin  02231216192D 0   1.00000     0.00000     0

 11 10  0  0  0  0  0  0  0  0999 V2000
    0.6826   -0.6348    0.0000 O   0  0  0  0  0  0  0  0  0
   -0.0318   -1.0473    0.0000 N   0  0  0  0  0  0  0  0  0
   -0.0318   -1.8723    0.0000 N   0  0  0  0  0  0  0  0  0
   -0.7463   -2.2848    0.0000 C   0  0  0  0  0  0  0  0  0
   -1.4608   -1.8723    0.0000 C   0  0  0  0  0  0  0  0  0
   -2.1752   -2.2848    0.0000 C   0  0  0  0  0  0  0  0  0
   -2.8897   -1.8723    0.0000 C   0  0  0  0  0  0  0  0  0
    0.6826   -2.2848    0.0000 C   0  0  0  0  0  0  0  0  0
    1.3971   -1.8723    0.0000 C   0  0  0  0  0  0  0  0  0
    2.1116   -2.2848    0.0000 C   0  0  0  0  0  0  0  0  0
    2.8260   -1.8723    0.0000 C   0  0  0  0  0  0  0  0  0
  1  2  2  0  0  0  0
  2  3  1  0  0  0  0
  3  4  1  0  0  0  0
  3  8  1  0  0  0  0
  4  5  1  0  0  0  0
  5  6  1  0  0  0  0
  6  7  1  0  0  0  0
  8  9  1  0  0  0  0
  9 10  1  0  0  0  0
 10 11  1  0  0  0  0
M  END
>  <Name_Molregno>
1-Ethyl-3-{(1,4-cis)-4-[4-(1H-indol-4-yl)-piperazin-1-yl]-cyclohexyl}-1H-indole-5-carbonitrile

>  <5-HT1A>
7.6

>  <Alpha-1A>
8.18

>  <Alpha-1B>
6.6

>  <DOPAMINE D2>
7.08

>  <Dopamine transporter>
6.43

>  <Norepinephrine transporter>
6.45

>  <Serotonin transporter>
6.97

$$$$
3-{(1,4-cis)-4-[4-(1H-Indol-4-yl)-piperazin-1-yl]-cyclohexyl}-1-isopropyl-1H-ind
  Marvin  02231216192D 0   1.00000     0.00000     0

 27 30  0  0  1  0  0  0  0  0999 V2000
    0.7853    0.8061    0.0000 O   0  0  0  0  0  0  0  0  0
    1.6032    0.6984    0.0000 C   0  0  0  0  0  0  0  0  0
    2.3654    1.0142    0.0000 C   0  0  0  0  0  0  0  0  0
    3.1276    0.6984    0.0000 C   0  0  0  0  0  0  0  0  0
    3.2353    1.5164    0.0000 O   0  0  0  0  0  0  0  0  0
    3.4433   -0.0638    0.0000 C   0  0  0  0  0  0  0  0  0
    3.1276   -0.8260    0.0000 C   0  0  0  0  0  0  0  0  0
    2.3654   -1.1417    0.0000 N   0  0  0  0  0  0  0  0  0
    1.6032   -0.8260    0.0000 C   0  0  0  0  0  0  0  0  0
    1.2875   -0.0638    0.0000 C   0  0  0  0  0  0  0  0  0
    0.4696    0.0439    0.0000 C   0  0  0  0  0  0  0  0  0
   -0.0327   -0.6106    0.0000 C   0  0  0  0  0  0  0  0  0
    0.2831   -1.3728    0.0000 C   0  0  0  0  0  0  0  0  0
    1.1010   -1.4805    0.0000 C   0  0  0  0  0  0  0  0  0
    2.3654   -1.9667    0.0000 C   0  0  0  0  0  0  0  0  0
    3.0799   -2.3792    0.0000 C   0  0  0  0  0  0  0  0  0
    3.0799   -3.2042    0.0000 C   0  0  0  0  0  0  0  0  0
    2.3654   -3.6167    0.0000 C   0  0  0  0  0  0  0  0  0
    1.6510   -3.2042    0.0000 C   0  0  0  0  0  0  0  0  0
    1.6510   -2.3792    0.0000 C   0  0  0  0  0  0  0  0  0
    0.9365   -1.9667    0.0000 C   0  0  0  0  0  0  0  0  0
    3.6299   -1.4805    0.0000 C   0  0  0  0  0  0  0  0  0
    4.4478   -1.3728    0.0000 C   0  0  0  0  0  0  0  0  0
    4.7635   -0.6106    0.0000 C   0  0  0  0  0  0  0  0  0
    4.2613    0.0439    0.0000 C   0  0  0  0  0  0  0  0  0
    3.9456    0.8061    0.0000 C   0  0  0  0  0  0  0  0  0
    1.4955    1.5164    0.0000 C   0  0  0  0  0  0  0  0  0
  1  2  1  0  0  0  0
  2  3  1  0  0  0  0
  2 10  1  0  0  0  0
  2 27  1  0  0  0  0
  3  4  1  0  0  0  0
  4  5  1  0  0  0  0
  4  6  1  0  0  0  0
  4 26  1  0  0  0  0
  6  7  4  0  0  0  0
  6 25  4  0  0  0  0
  7  8  1  0  0  0  0
  7 22  4  0  0  0  0
  8  9  1  0  0  0  0
  8 15  1  0  0  0  0
  9 10  4  0  0  0  0
  9 14  4  0  0  0  0
 10 11  4  0  0  0  0
 11 12  4  0  0  0  0
 12 13  4  0  0  0  0
 13 14  4  0  0  0  0
 15 16  4  0  0  0  0
 15 20  4  0  0  0  0
 16 17  4  0  0  0  0
 17 18  4  0  0  0  0
 18 19  4  0  0  0  0
 19 20  4  0  0  0  0
 20 21  1  0  0  0  0
 22 23  4  0  0  0  0
 23 24  4  0  0  0  0
 24 25  4  0  0  0  0
M  END
>  <Name_Molregno>
3-{(1,4-cis)-4-[4-(1H-Indol-4-yl)-piperazin-1-yl]-cyclohexyl}-1-isopropyl-1H-indole-5-carbonitrile

>  <5-HT1A>
6.13

>  <Alpha-1A>
8.92

>  <Alpha-1B>
7.09

>  <DOPAMINE D2>
7.62

$$$$
5-Hydroxy-Tryptamine
  Marvin  02231216192D 0   1.00000     0.00000     0

 13 14  0  0  0  0  0  0  0  0999 V2000
    0.1644   -1.0899    0.0000 O   0  0  0  0  0  0  0  0  0
   -0.5501   -0.6774    0.0000 C   0  0  0  0  0  0  0  0  0
   -1.2645   -1.0899    0.0000 C   0  0  0  0  0  0  0  0  0
   -1.9790   -0.6774    0.0000 C   0  0  0  0  0  0  0  0  0
   -1.9790    0.1476    0.0000 C   0  0  0  0  0  0  0  0  0
   -2.7636    0.4026    0.0000 N   0  0  0  0  0  0  0  0  0
   -3.2486   -0.2649    0.0000 C   0  0  0  0  0  0  0  0  0
   -2.7636   -0.9323    0.0000 C   0  0  0  0  0  0  0  0  0
   -3.0186   -1.7169    0.0000 C   0  0  0  0  0  0  0  0  0
   -3.8255   -1.8885    0.0000 C   0  0  0  0  0  0  0  0  0
   -4.0805   -2.6731    0.0000 N   0  0  0  0  0  0  0  0  0
   -1.2645    0.5601    0.0000 C   0  0  0  0  0  0  0  0  0
   -0.5501    0.1476    0.0000 C   0  0  0  0  0  0  0  0  0
  1  2  1  0  0  0  0
  2  3  4  0  0  0  0
  2 13  4  0  0  0  0
  3  4  4  0  0  0  0
  4  5  4  0  0  0  0
  4  8  4  0  0  0  0
  5  6  4  0  0  0  0
  5 12  4  0  0  0  0
  6  7  4  0  0  0  0
  7  8  4  0  0  0  0
  8  9  1  0  0  0  0
  9 10  1  0  0  0  0
 10 11  1  0  0  0  0
 12 13  4  0  0  0  0
M  STY  1   1 DAT
M  SAL   1  1   6
M  SDT   1 MRV_IMPLICIT_H                                        
M  SDD   1     0.0000    0.0000    DR    ALL  0       0  
M  SED   1 IMPL_H1
M  END
>  <Name_Molregno>
5-Hydroxy-Tryptamine

>  <5-HT1A>
8.25

>  <5-HT1B>
8.48

>  <5-HT1D>
8.54

>  <5-HT1E>
8.23

>  <5-HT2A>
7.1

>  <5-HT2C>
7.9

>  <5-HT3>
5.99

>  <5-HT5>
6.9

>  <5-HT6>
7.1

>  <5-HT7>
8.48

>  <DOPAMINE D1>
5.01

>  <DOPAMINE D2>
5

>  <DOPAMINE D5>
5.52

>  <Dopamine transporter>
5

$$$$
9-OH-risperidone
  Marvin  02231216192D 0   1.00000     0.00000     0

 31 35  0  0  1  0  0  0  0  0999 V2000
    1.7758   -2.6889    0.0000 F   0  0  0  0  0  0  0  0  0
    2.0308   -1.9043    0.0000 C   0  0  0  0  0  0  0  0  0
    1.4788   -1.2912    0.0000 C   0  0  0  0  0  0  0  0  0
    1.7337   -0.5066    0.0000 C   0  0  0  0  0  0  0  0  0
    1.3212    0.2079    0.0000 O   0  0  0  0  0  0  0  0  0
    1.8732    0.8210    0.0000 N   0  0  0  0  0  0  0  0  0
    2.6269    0.4854    0.0000 C   0  0  0  0  0  0  0  0  0
    2.5407   -0.3350    0.0000 C   0  0  0  0  0  0  0  0  0
    3.0927   -0.9481    0.0000 C   0  0  0  0  0  0  0  0  0
    2.8378   -1.7327    0.0000 C   0  0  0  0  0  0  0  0  0
    3.3414    0.8979    0.0000 C   0  0  0  0  0  0  0  0  0
    3.3414    1.7229    0.0000 C   0  0  0  0  0  0  0  0  0
    4.0558    2.1354    0.0000 C   0  0  0  0  0  0  0  0  0
    4.7703    1.7229    0.0000 N   0  0  0  0  0  0  0  0  0
    4.7703    0.8979    0.0000 C   0  0  0  0  0  0  0  0  0
    4.0558    0.4854    0.0000 C   0  0  0  0  0  0  0  0  0
    5.4848    2.1354    0.0000 C   0  0  0  0  0  0  0  0  0
    6.1993    1.7229    0.0000 C   0  0  0  0  0  0  0  0  0
    6.9137    2.1354    0.0000 C   0  0  0  0  0  0  0  0  0
    7.6282    1.7229    0.0000 C   0  0  0  0  0  0  0  0  0
    7.6282    0.8979    0.0000 O   0  0  0  0  0  0  0  0  0
    8.3427    2.1354    0.0000 N   0  0  0  0  0  0  0  0  0
    8.3427    2.9604    0.0000 C   0  0  0  0  0  0  0  0  0
    7.6282    3.3729    0.0000 N   0  0  0  0  0  0  0  0  0
    6.9137    2.9604    0.0000 C   0  0  0  0  0  0  0  0  0
    6.1993    3.3729    0.0000 C   0  0  0  0  0  0  0  0  0
    9.0571    3.3729    0.0000 C   0  0  0  0  0  0  0  0  0
    9.0571    4.1979    0.0000 O   0  0  0  0  0  0  0  0  0
    9.7716    2.9604    0.0000 C   0  0  0  0  0  0  0  0  0
    9.7716    2.1354    0.0000 C   0  0  0  0  0  0  0  0  0
    9.0571    1.7229    0.0000 C   0  0  0  0  0  0  0  0  0
  1  2  1  0  0  0  0
  2  3  4  0  0  0  0
  2 10  4  0  0  0  0
  3  4  4  0  0  0  0
  4  5  4  0  0  0  0
  4  8  4  0  0  0  0
  5  6  4  0  0  0  0
  6  7  4  0  0  0  0
  7  8  4  0  0  0  0
  7 11  1  0  0  0  0
  8  9  4  0  0  0  0
  9 10  4  0  0  0  0
 11 12  1  0  0  0  0
 11 16  1  0  0  0  0
 12 13  1  0  0  0  0
 13 14  1  0  0  0  0
 14 15  1  0  0  0  0
 14 17  1  0  0  0  0
 15 16  1  0  0  0  0
 17 18  1  0  0  0  0
 18 19  1  0  0  0  0
 19 20  1  0  0  0  0
 19 25  2  0  0  0  0
 20 21  2  0  0  0  0
 20 22  1  0  0  0  0
 22 23  1  0  0  0  0
 22 31  1  0  0  0  0
 23 24  2  0  0  0  0
 23 27  1  0  0  0  0
 24 25  1  0  0  0  0
 25 26  1  0  0  0  0
 27 28  1  0  0  0  0
 27 29  1  0  0  0  0
 29 30  1  0  0  0  0
 30 31  1  0  0  0  0
M  END
>  <Name_Molregno>
9-OH-risperidone

>  <5-HT1A>
6.24

>  <5-HT1B>
7.51

>  <5-HT1D>
7.44

>  <5-HT1E>
5.49

>  <5-HT2A>
9

>  <5-HT2C>
7.32

>  <5-HT3>
5

>  <5-HT5>
6.56

>  <5-HT6>
5.62

>  <5-HT7>
8.57

>  <Alpha-1A>
8.6

>  <Alpha-1B>
9.15

>  <Alpha-2A>
7.92

>  <Alpha-2B>
7.63

>  <Alpha-2C>
8.2

>  <Beta-1>
5.15

>  <Beta-2>
5.15

>  <DOPAMINE D1>
7.39

>  <DOPAMINE D2>
8.61

>  <DOPAMINE D3>
9.07

>  <DOPAMINE D4>
7.4

>  <DOPAMINE D5>
7.54

>  <Dopamine transporter>
5

>  <HISTAMINE H1>
8.07

>  <HISTAMINE H2>
6.92

>  <HISTAMINE H4>
5.06

>  <Muscarinic acetylcholine receptor M1>
5

>  <Muscarinic acetylcholine receptor M2>
5

>  <Muscarinic acetylcholine receptor M3>
5

>  <Muscarinic acetylcholine receptor M4>
5

>  <Muscarinic acetylcholine receptor M5>
5

>  <Norepinephrine transporter>
5

>  <Serotonin transporter>
5.71

$$$$
Acetylsalicylic-acid
  Marvin  02231216192D 0   1.00000     0.00000     0

 13 13  0  0  0  0  0  0  0  0999 V2000
    0.0203    0.5019    0.0000 O   0  0  0  0  0  0  0  0  0
    0.7347    0.0894    0.0000 C   0  0  0  0  0  0  0  0  0
    1.4492    0.5019    0.0000 O   0  0  0  0  0  0  0  0  0
    0.7347   -0.7356    0.0000 C   0  0  0  0  0  0  0  0  0
   -0.6942    0.0894    0.0000 C   0  0  0  0  0  0  0  0  0
   -0.6942   -0.7356    0.0000 C   0  0  0  0  0  0  0  0  0
   -1.4087   -1.1481    0.0000 C   0  0  0  0  0  0  0  0  0
   -2.1232   -0.7356    0.0000 C   0  0  0  0  0  0  0  0  0
   -2.1232    0.0894    0.0000 C   0  0  0  0  0  0  0  0  0
   -1.4087    0.5019    0.0000 C   0  0  0  0  0  0  0  0  0
   -1.4087    1.3269    0.0000 C   0  0  0  0  0  0  0  0  0
   -2.1232    1.7394    0.0000 O   0  0  0  0  0  0  0  0  0
   -0.6942    1.7394    0.0000 O   0  0  0  0  0  0  0  0  0
  1  2  1  0  0  0  0
  1  5  1  0  0  0  0
  2  3  2  0  0  0  0
  2  4  1  0  0  0  0
  5  6  4  0  0  0  0
  5 10  4  0  0  0  0
  6  7  4  0  0  0  0
  7  8  4  0  0  0  0
  8  9  4  0  0  0  0
  9 10  4  0  0  0  0
 10 11  1  0  0  0  0
 11 12  1  0  0  0  0
 11 13  2  0  0  0  0
M  END
>  <Name_Molregno>
Acetylsalicylic-acid

>  <5-HT1A>
5

>  <5-HT1B>
5

>  <5-HT1D>
5

>  <5-HT2A>
5

>  <5-HT3>
5

>  <5-HT5>
5

>  <5-HT6>
5

>  <5-HT7>
5

>  <Alpha-1A>
5

>  <Alpha-1B>
5

>  <Alpha-2A>
5

>  <Alpha-2B>
5

>  <Alpha-2C>
5

>  <DOPAMINE D1>
5

>  <DOPAMINE D2>
5

>  <DOPAMINE D4>
5

>  <DOPAMINE D5>
5

>  <HISTAMINE H1>
5

>  <HISTAMINE H2>
5

>  <Muscarinic acetylcholine receptor M2>
5

>  <Muscarinic acetylcholine receptor M5>
5

$$$$
Adinazolam
  Marvin  02231216192D 0   1.00000     0.00000     0

 25 28  0  0  0  0  0  0  0  0999 V2000
    1.5378   -2.9359    0.0000 Cl  0  0  0  0  0  0  0  0  0
    0.7178   -2.8449    0.0000 C   0  0  0  0  0  0  0  0  0
    0.3867   -2.0893    0.0000 C   0  0  0  0  0  0  0  0  0
   -0.4333   -1.9983    0.0000 C   0  0  0  0  0  0  0  0  0
   -0.9221   -2.6628    0.0000 C   0  0  0  0  0  0  0  0  0
   -1.7465   -2.6950    0.0000 N   0  0  0  0  0  0  0  0  0
   -2.2856   -2.0706    0.0000 C   0  0  0  0  0  0  0  0  0
   -3.0461   -2.3904    0.0000 N   0  0  0  0  0  0  0  0  0
   -2.9770   -3.2125    0.0000 N   0  0  0  0  0  0  0  0  0
   -2.1738   -3.4008    0.0000 C   0  0  0  0  0  0  0  0  0
   -1.8539   -4.1613    0.0000 C   0  0  0  0  0  0  0  0  0
   -2.3526   -4.8185    0.0000 N   0  0  0  0  0  0  0  0  0
   -2.0328   -5.5790    0.0000 C   0  0  0  0  0  0  0  0  0
   -3.1712   -4.7152    0.0000 C   0  0  0  0  0  0  0  0  0
   -2.1336   -1.2597    0.0000 C   0  0  0  0  0  0  0  0  0
   -1.4048   -0.8730    0.0000 N   0  0  0  0  0  0  0  0  0
   -0.6481   -1.2017    0.0000 C   0  0  0  0  0  0  0  0  0
   -0.0237   -0.6626    0.0000 C   0  0  0  0  0  0  0  0  0
   -0.1784    0.1478    0.0000 C   0  0  0  0  0  0  0  0  0
    0.4460    0.6870    0.0000 C   0  0  0  0  0  0  0  0  0
    1.2252    0.4158    0.0000 C   0  0  0  0  0  0  0  0  0
    1.3799   -0.3946    0.0000 C   0  0  0  0  0  0  0  0  0
    0.7555   -0.9338    0.0000 C   0  0  0  0  0  0  0  0  0
   -0.5910   -3.4185    0.0000 C   0  0  0  0  0  0  0  0  0
    0.2290   -3.5095    0.0000 C   0  0  0  0  0  0  0  0  0
  1  2  1  0  0  0  0
  2  3  4  0  0  0  0
  2 25  4  0  0  0  0
  3  4  4  0  0  0  0
  4  5  4  0  0  0  0
  4 17  1  0  0  0  0
  5  6  1  0  0  0  0
  5 24  4  0  0  0  0
  6  7  4  0  0  0  0
  6 10  4  0  0  0  0
  7  8  4  0  0  0  0
  7 15  1  0  0  0  0
  8  9  4  0  0  0  0
  9 10  4  0  0  0  0
 10 11  1  0  0  0  0
 11 12  1  0  0  0  0
 12 13  1  0  0  0  0
 12 14  1  0  0  0  0
 15 16  1  0  0  0  0
 16 17  2  0  0  0  0
 17 18  1  0  0  0  0
 18 19  4  0  0  0  0
 18 23  4  0  0  0  0
 19 20  4  0  0  0  0
 20 21  4  0  0  0  0
 21 22  4  0  0  0  0
 22 23  4  0  0  0  0
 24 25  4  0  0  0  0
M  END
>  <Name_Molregno>
Adinazolam

>  <5-HT1A>
5

>  <DOPAMINE D2>
5

>  <HISTAMINE H1>
5

>  <Muscarinic acetylcholine receptor M1>
5

>  <Muscarinic acetylcholine receptor M2>
5

>  <Muscarinic acetylcholine receptor M3>
5

>  <Muscarinic acetylcholine receptor M4>
5

>  <Muscarinic acetylcholine receptor M5>
5

$$$$
Amentoflavone
  Marvin  02231216192D 0   1.00000     0.00000     0

 40 45  0  0  0  0  0  0  0  0999 V2000
   -3.5941   -0.9772    0.0000 O   0  0  0  0  0  0  0  0  0
   -3.5941   -0.1522    0.0000 C   0  0  0  0  0  0  0  0  0
   -4.3085    0.2603    0.0000 C   0  0  0  0  0  0  0  0  0
   -5.0230   -0.1522    0.0000 C   0  0  0  0  0  0  0  0  0
   -5.7375    0.2603    0.0000 O   0  0  0  0  0  0  0  0  0
   -5.0230   -0.9772    0.0000 C   0  0  0  0  0  0  0  0  0
   -4.3085   -1.3897    0.0000 C   0  0  0  0  0  0  0  0  0
   -4.3085   -2.2147    0.0000 C   0  0  0  0  0  0  0  0  0
   -3.5941   -2.6272    0.0000 C   0  0  0  0  0  0  0  0  0
   -3.5941   -3.4522    0.0000 C   0  0  0  0  0  0  0  0  0
   -4.3085   -3.8647    0.0000 C   0  0  0  0  0  0  0  0  0
   -4.3085   -4.6897    0.0000 O   0  0  0  0  0  0  0  0  0
   -5.0230   -3.4522    0.0000 C   0  0  0  0  0  0  0  0  0
   -5.0230   -2.6272    0.0000 C   0  0  0  0  0  0  0  0  0
   -4.3085    1.0853    0.0000 C   0  0  0  0  0  0  0  0  0
   -5.0230    1.4978    0.0000 O   0  0  0  0  0  0  0  0  0
   -3.5941    1.4978    0.0000 C   0  0  0  0  0  0  0  0  0
   -2.8796    1.0853    0.0000 C   0  0  0  0  0  0  0  0  0
   -2.1651    1.4978    0.0000 O   0  0  0  0  0  0  0  0  0
   -2.8796    0.2603    0.0000 C   0  0  0  0  0  0  0  0  0
   -2.1651   -0.1522    0.0000 C   0  0  0  0  0  0  0  0  0
   -1.4507    0.2603    0.0000 C   0  0  0  0  0  0  0  0  0
   -0.7362   -0.1522    0.0000 C   0  0  0  0  0  0  0  0  0
   -0.7362   -0.9772    0.0000 C   0  0  0  0  0  0  0  0  0
   -1.4507   -1.3897    0.0000 C   0  0  0  0  0  0  0  0  0
   -2.1651   -0.9772    0.0000 C   0  0  0  0  0  0  0  0  0
   -2.8796   -1.3897    0.0000 O   0  0  0  0  0  0  0  0  0
   -0.0217    0.2603    0.0000 C   0  0  0  0  0  0  0  0  0
    0.6928   -0.1522    0.0000 O   0  0  0  0  0  0  0  0  0
    1.4072    0.2603    0.0000 C   0  0  0  0  0  0  0  0  0
    1.4072    1.0853    0.0000 C   0  0  0  0  0  0  0  0  0
    0.6928    1.4978    0.0000 C   0  0  0  0  0  0  0  0  0
    0.6928    2.3228    0.0000 O   0  0  0  0  0  0  0  0  0
   -0.0217    1.0853    0.0000 C   0  0  0  0  0  0  0  0  0
    2.1217    1.4978    0.0000 C   0  0  0  0  0  0  0  0  0
    2.1217    2.3228    0.0000 O   0  0  0  0  0  0  0  0  0
    2.8362    1.0853    0.0000 C   0  0  0  0  0  0  0  0  0
    2.8362    0.2603    0.0000 C   0  0  0  0  0  0  0  0  0
    3.5506   -0.1522    0.0000 O   0  0  0  0  0  0  0  0  0
    2.1217   -0.1522    0.0000 C   0  0  0  0  0  0  0  0  0
  1  2  1  0  0  0  0
  1  7  1  0  0  0  0
  2  3  4  0  0  0  0
  2 20  4  0  0  0  0
  3  4  1  0  0  0  0
  3 15  4  0  0  0  0
  4  5  2  0  0  0  0
  4  6  1  0  0  0  0
  6  7  2  0  0  0  0
  7  8  1  0  0  0  0
  8  9  4  0  0  0  0
  8 14  4  0  0  0  0
  9 10  4  0  0  0  0
 10 11  4  0  0  0  0
 11 12  1  0  0  0  0
 11 13  4  0  0  0  0
 13 14  4  0  0  0  0
 15 16  1  0  0  0  0
 15 17  4  0  0  0  0
 17 18  4  0  0  0  0
 18 19  1  0  0  0  0
 18 20  4  0  0  0  0
 20 21  1  0  0  0  0
 21 22  4  0  0  0  0
 21 26  4  0  0  0  0
 22 23  4  0  0  0  0
 23 24  4  0  0  0  0
 23 28  1  0  0  0  0
 24 25  4  0  0  0  0
 25 26  4  0  0  0  0
 26 27  1  0  0  0  0
 28 29  1  0  0  0  0
 28 34  2  0  0  0  0
 29 30  1  0  0  0  0
 30 31  4  0  0  0  0
 30 40  4  0  0  0  0
 31 32  1  0  0  0  0
 31 35  4  0  0  0  0
 32 33  2  0  0  0  0
 32 34  1  0  0  0  0
 35 36  1  0  0  0  0
 35 37  4  0  0  0  0
 37 38  4  0  0  0  0
 38 39  1  0  0  0  0
 38 40  4  0  0  0  0
M  END
>  <Name_Molregno>
Amentoflavone

>  <5-HT1A>
5

>  <5-HT1B>
5.39

>  <5-HT1D>
5

>  <5-HT2C>
5.59

>  <5-HT3>
5

>  <5-HT5>
5

>  <5-HT6>
5

>  <5-HT7>
5

>  <Alpha-1A>
5

>  <Alpha-1B>
5

>  <Alpha-2A>
5

>  <Alpha-2B>
5

>  <Alpha-2C>
5

>  <DOPAMINE D1>
5

>  <DOPAMINE D5>
5

>  <Muscarinic acetylcholine receptor M1>
5

>  <Muscarinic acetylcholine receptor M2>
5

>  <Muscarinic acetylcholine receptor M3>
5

>  <Muscarinic acetylcholine receptor M4>
5

>  <Muscarinic acetylcholine receptor M5>
5

>  <Norepinephrine transporter>
5

>  <Serotonin transporter>
5

$$$$
AMITRIPTYLINE
  Marvin  02231216192D 0   1.00000     0.00000     0

 21 23  0  0  0  0  0  0  0  0999 V2000
    0.4326    2.9044    0.0000 N   0  0  0  0  0  0  0  0  0
    1.1470    2.4919    0.0000 C   0  0  0  0  0  0  0  0  0
    1.8615    2.9044    0.0000 C   0  0  0  0  0  0  0  0  0
    2.5760    2.4919    0.0000 C   0  0  0  0  0  0  0  0  0
    2.5760    1.6669    0.0000 C   0  0  0  0  0  0  0  0  0
    3.3193    1.3089    0.0000 C   0  0  0  0  0  0  0  0  0
    3.5029    0.5046    0.0000 C   0  0  0  0  0  0  0  0  0
    2.9885   -0.1404    0.0000 C   0  0  0  0  0  0  0  0  0
    2.1635   -0.1404    0.0000 C   0  0  0  0  0  0  0  0  0
    1.6491    0.5046    0.0000 C   0  0  0  0  0  0  0  0  0
    1.8327    1.3089    0.0000 C   0  0  0  0  0  0  0  0  0
    1.2279    1.8701    0.0000 C   0  0  0  0  0  0  0  0  0
    0.4396    1.6269    0.0000 C   0  0  0  0  0  0  0  0  0
    0.2560    0.8226    0.0000 C   0  0  0  0  0  0  0  0  0
    0.8608    0.2615    0.0000 C   0  0  0  0  0  0  0  0  0
    4.2912    0.2615    0.0000 C   0  0  0  0  0  0  0  0  0
    4.8960    0.8226    0.0000 C   0  0  0  0  0  0  0  0  0
    4.7124    1.6269    0.0000 C   0  0  0  0  0  0  0  0  0
    3.9241    1.8701    0.0000 C   0  0  0  0  0  0  0  0  0
   -0.2819    2.4919    0.0000 C   0  0  0  0  0  0  0  0  0
    0.4326    3.7294    0.0000 C   0  0  0  0  0  0  0  0  0
  1  2  1  0  0  0  0
  1 20  1  0  0  0  0
  1 21  1  0  0  0  0
  2  3  1  0  0  0  0
  3  4  1  0  0  0  0
  4  5  2  0  0  0  0
  5  6  1  0  0  0  0
  5 11  1  0  0  0  0
  6  7  4  0  0  0  0
  6 19  4  0  0  0  0
  7  8  1  0  0  0  0
  7 16  4  0  0  0  0
  8  9  1  0  0  0  0
  9 10  1  0  0  0  0
 10 11  4  0  0  0  0
 10 15  4  0  0  0  0
 11 12  4  0  0  0  0
 12 13  4  0  0  0  0
 13 14  4  0  0  0  0
 14 15  4  0  0  0  0
 16 17  4  0  0  0  0
 17 18  4  0  0  0  0
 18 19  4  0  0  0  0
M  END
>  <Name_Molregno>
AMITRIPTYLINE

>  <5-HT1A>
6.35

>  <5-HT2A>
7.64

>  <5-HT6>
7.02

>  <DOPAMINE D1>
7.05

>  <DOPAMINE D2>
6.42

>  <DOPAMINE D3>
6.69

>  <DOPAMINE D5>
6.77

>  <Dopamine transporter>
5.4

>  <HISTAMINE H1>
9.08

>  <HISTAMINE H3>
6

>  <HISTAMINE H4>
7.47

>  <Muscarinic acetylcholine receptor M1>
7.89

>  <Muscarinic acetylcholine receptor M2>
7.93

>  <Muscarinic acetylcholine receptor M3>
7.65

>  <Muscarinic acetylcholine receptor M4>
8.14

>  <Muscarinic acetylcholine receptor M5>
7.71

>  <Norepinephrine transporter>
7.45

>  <Serotonin transporter>
8

$$$$
Amphetamine
  Marvin  02231216192D 0   1.00000     0.00000     0

 10 10  0  0  1  0  0  0  0  0999 V2000
    1.5187    1.4161    0.0000 N   0  0  0  0  0  0  0  0  0
    1.5187    0.5911    0.0000 C   0  0  0  0  0  0  0  0  0
    2.2332    0.1786    0.0000 C   0  0  0  0  0  0  0  0  0
    2.2332   -0.6464    0.0000 C   0  0  0  0  0  0  0  0  0
    2.9477   -1.0589    0.0000 C   0  0  0  0  0  0  0  0  0
    2.9477   -1.8839    0.0000 C   0  0  0  0  0  0  0  0  0
    2.2332   -2.2964    0.0000 C   0  0  0  0  0  0  0  0  0
    1.5187   -1.8839    0.0000 C   0  0  0  0  0  0  0  0  0
    1.5187   -1.0589    0.0000 C   0  0  0  0  0  0  0  0  0
    0.8043    0.1786    0.0000 C   0  0  0  0  0  0  0  0  0
  1  2  1  0  0  0  0
  2  3  1  0  0  0  0
  2 10  1  0  0  0  0
  3  4  1  0  0  0  0
  4  5  4  0  0  0  0
  4  9  4  0  0  0  0
  5  6  4  0  0  0  0
  6  7  4  0  0  0  0
  7  8  4  0  0  0  0
  8  9  4  0  0  0  0
M  END
>  <Name_Molregno>
Amphetamine

>  <5-HT1A>
5.18

>  <DOPAMINE D1>
5

>  <DOPAMINE D2>
5

>  <DOPAMINE D3>
5

>  <Dopamine transporter>
6.57

>  <Norepinephrine transporter>
8.15

>  <Serotonin transporter>
5.75

$$$$
APOMORPHINE
  Marvin  02231216192D 0   1.00000     0.00000     0

 20 23  0  0  1  0  0  0  0  0999 V2000
    3.2214   -1.7908    0.0000 O   0  0  0  0  0  0  0  0  0
    3.2214   -0.9658    0.0000 C   0  0  0  0  0  0  0  0  0
    2.5070   -0.5533    0.0000 C   0  0  0  0  0  0  0  0  0
    2.5070    0.2717    0.0000 C   0  0  0  0  0  0  0  0  0
    1.7925    0.6842    0.0000 C   0  0  0  0  0  0  0  0  0
    1.0780    0.2717    0.0000 C   0  0  0  0  0  0  0  0  0
    0.3635    0.6842    0.0000 N   0  0  0  0  0  0  0  0  0
   -0.3509    0.2717    0.0000 C   0  0  0  0  0  0  0  0  0
   -0.3509   -0.5533    0.0000 C   0  0  0  0  0  0  0  0  0
    0.3635   -0.9658    0.0000 C   0  0  0  0  0  0  0  0  0
    1.0780   -0.5533    0.0000 C   0  0  0  0  0  0  0  0  0
    1.7925   -0.9658    0.0000 C   0  0  0  0  0  0  0  0  0
    1.7925   -1.7908    0.0000 C   0  0  0  0  0  0  0  0  0
    1.0780   -2.2033    0.0000 C   0  0  0  0  0  0  0  0  0
    0.3635   -1.7908    0.0000 C   0  0  0  0  0  0  0  0  0
    0.3635    1.5092    0.0000 C   0  0  0  0  0  0  0  0  0
    3.2214    0.6842    0.0000 C   0  0  0  0  0  0  0  0  0
    3.9359    0.2717    0.0000 C   0  0  0  0  0  0  0  0  0
    3.9359   -0.5533    0.0000 C   0  0  0  0  0  0  0  0  0
    4.6504   -0.9658    0.0000 O   0  0  0  0  0  0  0  0  0
  1  2  1  0  0  0  0
  2  3  4  0  0  0  0
  2 19  4  0  0  0  0
  3  4  4  0  0  0  0
  3 12  1  0  0  0  0
  4  5  1  0  0  0  0
  4 17  4  0  0  0  0
  5  6  1  0  0  0  0
  6  7  1  0  0  0  0
  6 11  1  0  0  0  0
  7  8  1  0  0  0  0
  7 16  1  0  0  0  0
  8  9  1  0  0  0  0
  9 10  1  0  0  0  0
 10 11  4  0  0  0  0
 10 15  4  0  0  0  0
 11 12  4  0  0  0  0
 12 13  4  0  0  0  0
 13 14  4  0  0  0  0
 14 15  4  0  0  0  0
 17 18  4  0  0  0  0
 18 19  4  0  0  0  0
 19 20  1  0  0  0  0
M  END
>  <Name_Molregno>
APOMORPHINE

>  <5-HT1A>
6.12

>  <5-HT1B>
5.53

>  <5-HT1D>
5.91

>  <5-HT2A>
6.63

>  <5-HT2C>
6.99

>  <Alpha-1A>
5.7

>  <Alpha-1B>
6.17

>  <Alpha-2A>
6.85

>  <Alpha-2B>
7.18

>  <Alpha-2C>
7.44

>  <Beta-1>
5

>  <Beta-2>
5

>  <DOPAMINE D1>
6.4

>  <DOPAMINE D2>
7.34

>  <DOPAMINE D3>
7.65

>  <DOPAMINE D4>
7.92

>  <DOPAMINE D5>
7.14

$$$$
APOMORPHINE-2
  Marvin  02231216192D 0   1.00000     0.00000     0

 20 23  0  0  1  0  0  0  0  0999 V2000
    3.2214   -1.7908    0.0000 O   0  0  0  0  0  0  0  0  0
    3.2214   -0.9658    0.0000 C   0  0  0  0  0  0  0  0  0
    2.5070   -0.5533    0.0000 C   0  0  0  0  0  0  0  0  0
    2.5070    0.2717    0.0000 C   0  0  0  0  0  0  0  0  0
    1.7925    0.6842    0.0000 C   0  0  0  0  0  0  0  0  0
    1.0780    0.2717    0.0000 C   0  0  0  0  0  0  0  0  0
    1.0780   -0.5533    0.0000 C   0  0  0  0  0  0  0  0  0
    1.7925   -0.9658    0.0000 C   0  0  0  0  0  0  0  0  0
    1.7925   -1.7908    0.0000 C   0  0  0  0  0  0  0  0  0
    1.0780   -2.2033    0.0000 C   0  0  0  0  0  0  0  0  0
    0.3635   -1.7908    0.0000 C   0  0  0  0  0  0  0  0  0
    0.3635   -0.9658    0.0000 C   0  0  0  0  0  0  0  0  0
   -0.3509   -0.5533    0.0000 C   0  0  0  0  0  0  0  0  0
   -0.3509    0.2717    0.0000 C   0  0  0  0  0  0  0  0  0
    0.3635    0.6842    0.0000 C   0  0  0  0  0  0  0  0  0
    0.3635    1.5092    0.0000 C   0  0  0  0  0  0  0  0  0
    3.2214    0.6842    0.0000 C   0  0  0  0  0  0  0  0  0
    3.9359    0.2717    0.0000 C   0  0  0  0  0  0  0  0  0
    3.9359   -0.5533    0.0000 C   0  0  0  0  0  0  0  0  0
    4.6504   -0.9658    0.0000 O   0  0  0  0  0  0  0  0  0
  1  2  1  0  0  0  0
  2  3  4  0  0  0  0
  2 19  4  0  0  0  0
  3  4  4  0  0  0  0
  3  8  1  0  0  0  0
  4  5  1  0  0  0  0
  4 17  4  0  0  0  0
  5  6  1  0  0  0  0
  6  7  1  0  0  0  0
  6 15  1  0  0  0  0
  7  8  4  0  0  0  0
  7 12  4  0  0  0  0
  8  9  4  0  0  0  0
  9 10  4  0  0  0  0
 10 11  4  0  0  0  0
 11 12  4  0  0  0  0
 12 13  1  0  0  0  0
 13 14  1  0  0  0  0
 14 15  1  0  0  0  0
 15 16  1  0  0  0  0
 17 18  4  0  0  0  0
 18 19  4  0  0  0  0
 19 20  1  0  0  0  0
M  END
>  <Name_Molregno>
APOMORPHINE-2

>  <5-HT1A>
6.53

>  <DOPAMINE D1>
6.54

>  <DOPAMINE D2>
7.65

>  <DOPAMINE D4>
8.05

$$$$
ARIPIPRAZOLE
  Marvin  02231216192D 0   1.00000     0.00000     0

 30 33  0  0  0  0  0  0  0  0999 V2000
   -8.7485    0.0493    0.0000 Cl  0  0  0  0  0  0  0  0  0
   -8.7485   -0.7757    0.0000 C   0  0  0  0  0  0  0  0  0
   -8.0340   -1.1882    0.0000 C   0  0  0  0  0  0  0  0  0
   -7.3195   -0.7757    0.0000 N   0  0  0  0  0  0  0  0  0
   -7.3195    0.0493    0.0000 C   0  0  0  0  0  0  0  0  0
   -6.6051    0.4618    0.0000 C   0  0  0  0  0  0  0  0  0
   -5.8906    0.0493    0.0000 N   0  0  0  0  0  0  0  0  0
   -5.8906   -0.7757    0.0000 C   0  0  0  0  0  0  0  0  0
   -6.6051   -1.1882    0.0000 C   0  0  0  0  0  0  0  0  0
   -5.1761    0.4618    0.0000 C   0  0  0  0  0  0  0  0  0
   -4.4616    0.0493    0.0000 C   0  0  0  0  0  0  0  0  0
   -3.7472    0.4618    0.0000 C   0  0  0  0  0  0  0  0  0
   -3.0327    0.0493    0.0000 C   0  0  0  0  0  0  0  0  0
   -2.3182    0.4618    0.0000 O   0  0  0  0  0  0  0  0  0
   -1.6038    0.0493    0.0000 C   0  0  0  0  0  0  0  0  0
   -0.8893    0.4618    0.0000 C   0  0  0  0  0  0  0  0  0
   -0.1748    0.0493    0.0000 C   0  0  0  0  0  0  0  0  0
    0.5397    0.4618    0.0000 N   0  0  0  0  0  0  0  0  0
    1.2541    0.0493    0.0000 C   0  0  0  0  0  0  0  0  0
    1.9686    0.4618    0.0000 O   0  0  0  0  0  0  0  0  0
    1.2541   -0.7757    0.0000 C   0  0  0  0  0  0  0  0  0
    0.5397   -1.1882    0.0000 C   0  0  0  0  0  0  0  0  0
   -0.1748   -0.7757    0.0000 C   0  0  0  0  0  0  0  0  0
   -0.8893   -1.1882    0.0000 C   0  0  0  0  0  0  0  0  0
   -1.6038   -0.7757    0.0000 C   0  0  0  0  0  0  0  0  0
   -8.0340   -2.0132    0.0000 C   0  0  0  0  0  0  0  0  0
   -8.7485   -2.4257    0.0000 C   0  0  0  0  0  0  0  0  0
   -9.4629   -2.0132    0.0000 C   0  0  0  0  0  0  0  0  0
   -9.4629   -1.1882    0.0000 C   0  0  0  0  0  0  0  0  0
  -10.1774   -0.7757    0.0000 Cl  0  0  0  0  0  0  0  0  0
  1  2  1  0  0  0  0
  2  3  4  0  0  0  0
  2 29  4  0  0  0  0
  3  4  1  0  0  0  0
  3 26  4  0  0  0  0
  4  5  1  0  0  0  0
  4  9  1  0  0  0  0
  5  6  1  0  0  0  0
  6  7  1  0  0  0  0
  7  8  1  0  0  0  0
  7 10  1  0  0  0  0
  8  9  1  0  0  0  0
 10 11  1  0  0  0  0
 11 12  1  0  0  0  0
 12 13  1  0  0  0  0
 13 14  1  0  0  0  0
 14 15  1  0  0  0  0
 15 16  4  0  0  0  0
 15 25  4  0  0  0  0
 16 17  4  0  0  0  0
 17 18  1  0  0  0  0
 17 23  4  0  0  0  0
 18 19  1  0  0  0  0
 19 20  2  0  0  0  0
 19 21  1  0  0  0  0
 21 22  1  0  0  0  0
 22 23  1  0  0  0  0
 23 24  4  0  0  0  0
 24 25  4  0  0  0  0
 26 27  4  0  0  0  0
 27 28  4  0  0  0  0
 28 29  4  0  0  0  0
 29 30  1  0  0  0  0
M  END
>  <Name_Molregno>
ARIPIPRAZOLE

>  <5-HT1A>
8.21

>  <5-HT1B>
6.08

>  <5-HT1D>
7.18

>  <5-HT1E>
5.1

>  <5-HT2A>
7.85

>  <5-HT2C>
7.48

>  <5-HT3>
6.25

>  <5-HT5>
5.91

>  <5-HT6>
6.32

>  <5-HT7>
7.81

>  <Alpha-1A>
7.59

>  <Alpha-1B>
7.46

>  <Alpha-2A>
7.13

>  <Alpha-2B>
6.99

>  <Alpha-2C>
7.42

>  <Beta-1>
6.85

>  <Beta-2>
6.79

>  <DOPAMINE D1>
6.06

>  <DOPAMINE D2>
8.72

>  <DOPAMINE D3>
8.45

>  <DOPAMINE D4>
6.51

>  <DOPAMINE D5>
5.69

>  <Dopamine transporter>
5.49

>  <HISTAMINE H1>
7.56

>  <HISTAMINE H2>
5

>  <HISTAMINE H4>
5

>  <Muscarinic acetylcholine receptor M1>
5.17

>  <Muscarinic acetylcholine receptor M2>
5.45

>  <Muscarinic acetylcholine receptor M3>
5.33

>  <Muscarinic acetylcholine receptor M4>
5.82

>  <Muscarinic acetylcholine receptor M5>
5.63

>  <Norepinephrine transporter>
5.68

>  <Serotonin transporter>
6.48

$$$$
Atomoxetine
  Marvin  02231216192D 0   1.00000     0.00000     0

 19 20  0  0  1  0  0  0  0  0999 V2000
   -0.2008    0.4420    0.0000 O   0  0  0  0  0  0  0  0  0
    0.5136    0.8545    0.0000 C   0  0  0  0  0  0  0  0  0
    1.2281    0.4420    0.0000 C   0  0  0  0  0  0  0  0  0
    1.9426    0.8545    0.0000 C   0  0  0  0  0  0  0  0  0
    2.6570    0.4420    0.0000 N   0  0  0  0  0  0  0  0  0
    2.6570   -0.3830    0.0000 C   0  0  0  0  0  0  0  0  0
    0.5136    1.6795    0.0000 C   0  0  0  0  0  0  0  0  0
   -0.2008    2.0920    0.0000 C   0  0  0  0  0  0  0  0  0
   -0.2008    2.9170    0.0000 C   0  0  0  0  0  0  0  0  0
    0.5136    3.3295    0.0000 C   0  0  0  0  0  0  0  0  0
    1.2281    2.9170    0.0000 C   0  0  0  0  0  0  0  0  0
    1.2281    2.0920    0.0000 C   0  0  0  0  0  0  0  0  0
   -0.2008   -0.3830    0.0000 C   0  0  0  0  0  0  0  0  0
    0.5136   -0.7955    0.0000 C   0  0  0  0  0  0  0  0  0
    0.5136   -1.6205    0.0000 C   0  0  0  0  0  0  0  0  0
   -0.2008   -2.0330    0.0000 C   0  0  0  0  0  0  0  0  0
   -0.9153   -1.6205    0.0000 C   0  0  0  0  0  0  0  0  0
   -0.9153   -0.7955    0.0000 C   0  0  0  0  0  0  0  0  0
   -1.6298   -0.3830    0.0000 C   0  0  0  0  0  0  0  0  0
  1  2  1  0  0  0  0
  1 13  1  0  0  0  0
  2  3  1  0  0  0  0
  2  7  1  0  0  0  0
  3  4  1  0  0  0  0
  4  5  1  0  0  0  0
  5  6  1  0  0  0  0
  7  8  4  0  0  0  0
  7 12  4  0  0  0  0
  8  9  4  0  0  0  0
  9 10  4  0  0  0  0
 10 11  4  0  0  0  0
 11 12  4  0  0  0  0
 13 14  4  0  0  0  0
 13 18  4  0  0  0  0
 14 15  4  0  0  0  0
 15 16  4  0  0  0  0
 16 17  4  0  0  0  0
 17 18  4  0  0  0  0
 18 19  1  0  0  0  0
M  END
>  <Name_Molregno>
Atomoxetine

>  <5-HT1A>
5.5

>  <5-HT1B>
6

>  <5-HT1D>
6

>  <5-HT2A>
6

>  <5-HT2C>
6

>  <5-HT6>
6

>  <5-HT7>
6

>  <Alpha-2A>
6

>  <DOPAMINE D2>
5.5

>  <Dopamine transporter>
5.88

>  <HISTAMINE H1>
5.63

>  <Muscarinic acetylcholine receptor M1>
6

>  <Muscarinic acetylcholine receptor M2>
6

>  <Norepinephrine transporter>
8.43

>  <Serotonin transporter>
7.42

$$$$
B-HT920
  Marvin  02231216192D 0   1.00000     0.00000     0

 14 15  0  0  0  0  0  0  0  0999 V2000
   -3.1193    0.1933    0.0000 S   0  0  0  0  0  0  0  0  0
   -2.3347   -0.0617    0.0000 C   0  0  0  0  0  0  0  0  0
   -1.6896    0.4527    0.0000 C   0  0  0  0  0  0  0  0  0
   -0.8853    0.2691    0.0000 C   0  0  0  0  0  0  0  0  0
   -0.5274   -0.4742    0.0000 N   0  0  0  0  0  0  0  0  0
   -0.8853   -1.2175    0.0000 C   0  0  0  0  0  0  0  0  0
   -1.6896   -1.4010    0.0000 C   0  0  0  0  0  0  0  0  0
   -2.3347   -0.8867    0.0000 C   0  0  0  0  0  0  0  0  0
   -3.1193   -1.1416    0.0000 N   0  0  0  0  0  0  0  0  0
   -3.6042   -0.4742    0.0000 C   0  0  0  0  0  0  0  0  0
   -4.4292   -0.4742    0.0000 N   0  0  0  0  0  0  0  0  0
    0.2976   -0.4742    0.0000 C   0  0  0  0  0  0  0  0  0
    0.7101   -1.1886    0.0000 C   0  0  0  0  0  0  0  0  0
    1.5351   -1.1886    0.0000 C   0  0  0  0  0  0  0  0  0
  1  2  4  0  0  0  0
  1 10  4  0  0  0  0
  2  3  1  0  0  0  0
  2  8  4  0  0  0  0
  3  4  1  0  0  0  0
  4  5  1  0  0  0  0
  5  6  1  0  0  0  0
  5 12  1  0  0  0  0
  6  7  1  0  0  0  0
  7  8  1  0  0  0  0
  8  9  4  0  0  0  0
  9 10  4  0  0  0  0
 10 11  1  0  0  0  0
 12 13  1  0  0  0  0
 13 14  2  0  0  0  0
M  END
>  <Name_Molregno>
B-HT920

>  <5-HT1A>
5.77

>  <5-HT1B>
5

>  <5-HT1D>
5

>  <5-HT2A>
5

>  <5-HT2C>
5

>  <Alpha-1A>
5

>  <Alpha-1B>
5.41

>  <Alpha-2A>
6.91

>  <Alpha-2B>
6.69

>  <Alpha-2C>
6.69

>  <Beta-1>
5

>  <Beta-2>
5

>  <DOPAMINE D1>
5

>  <DOPAMINE D2>
6.88

>  <DOPAMINE D3>
7.8

>  <DOPAMINE D4>
6.48

>  <DOPAMINE D5>
5.46

$$$$
BROMOCRIPTINE
  Marvin  02231216192D 0   1.00000     0.00000     0

 43 49  0  0  1  0  0  0  0  0999 V2000
    6.2699    4.4922    0.0000 Br  0  0  0  0  0  0  0  0  0
    6.7473    3.8193    0.0000 C   0  0  0  0  0  0  0  0  0
    7.5723    3.8193    0.0000 N   0  0  0  0  0  0  0  0  0
    7.8776    2.9622    0.0000 C   0  0  0  0  0  0  0  0  0
    7.1598    2.5497    0.0000 C   0  0  0  0  0  0  0  0  0
    6.4473    2.9622    0.0000 C   0  0  0  0  0  0  0  0  0
    5.7348    2.5497    0.0000 C   0  0  0  0  0  0  0  0  0
    5.7348    1.7247    0.0000 C   0  0  0  0  0  0  0  0  0
    5.0198    1.3130    0.0000 N   0  0  0  0  0  0  0  0  0
    5.0188    0.4880    0.0000 C   0  0  0  0  0  0  0  0  0
    5.7328    0.0747    0.0000 C   0  0  0  0  0  0  0  0  0
    6.4478    0.4863    0.0000 C   0  0  0  0  0  0  0  0  0
    6.4488    1.3113    0.0000 C   0  0  0  0  0  0  0  0  0
    7.1598    1.7247    0.0000 C   0  0  0  0  0  0  0  0  0
    7.8776    1.3122    0.0000 C   0  0  0  0  0  0  0  0  0
    8.5901    1.7247    0.0000 C   0  0  0  0  0  0  0  0  0
    8.5901    2.5497    0.0000 C   0  0  0  0  0  0  0  0  0
    5.7318   -0.7503    0.0000 C   0  0  0  0  0  0  0  0  0
    6.4458   -1.1637    0.0000 O   0  0  0  0  0  0  0  0  0
    5.0168   -1.1620    0.0000 N   0  0  0  0  0  0  0  0  0
    5.0159   -1.9870    0.0000 C   0  0  0  0  0  0  0  0  0
    5.1864   -2.7941    0.0000 O   0  0  0  0  0  0  0  0  0
    4.4715   -3.2058    0.0000 C   0  0  0  0  0  0  0  0  0
    5.1383   -3.6915    0.0000 O   0  0  0  0  0  0  0  0  0
    3.8590   -2.6530    0.0000 N   0  0  0  0  0  0  0  0  0
    3.0741   -2.9070    0.0000 C   0  0  0  0  0  0  0  0  0
    2.4617   -2.3543    0.0000 C   0  0  0  0  0  0  0  0  0
    1.6767   -2.6083    0.0000 C   0  0  0  0  0  0  0  0  0
    1.0643   -2.0555    0.0000 C   0  0  0  0  0  0  0  0  0
    1.5042   -3.4150    0.0000 C   0  0  0  0  0  0  0  0  0
    2.9016   -3.7138    0.0000 C   0  0  0  0  0  0  0  0  0
    2.1167   -3.9678    0.0000 O   0  0  0  0  0  0  0  0  0
    3.5140   -4.2665    0.0000 N   0  0  0  0  0  0  0  0  0
    4.2990   -4.0125    0.0000 C   0  0  0  0  0  0  0  0  0
    4.7831   -4.6806    0.0000 C   0  0  0  0  0  0  0  0  0
    4.2974   -5.3474    0.0000 C   0  0  0  0  0  0  0  0  0
    3.5131   -5.0915    0.0000 C   0  0  0  0  0  0  0  0  0
    4.1955   -1.8997    0.0000 C   0  0  0  0  0  0  0  0  0
    3.7838   -1.1848    0.0000 O   0  0  0  0  0  0  0  0  0
    5.8364   -1.9017    0.0000 C   0  0  0  0  0  0  0  0  0
    6.5514   -1.4901    0.0000 C   0  0  0  0  0  0  0  0  0
    6.3206   -2.5697    0.0000 C   0  0  0  0  0  0  0  0  0
    4.3058    1.7264    0.0000 C   0  0  0  0  0  0  0  0  0
  1  2  1  0  0  0  0
  2  3  4  0  0  0  0
  2  6  4  0  0  0  0
  3  4  4  0  0  0  0
  4  5  4  0  0  0  0
  4 17  4  0  0  0  0
  5  6  4  0  0  0  0
  5 14  4  0  0  0  0
  6  7  1  0  0  0  0
  7  8  1  0  0  0  0
  8  9  1  0  0  0  0
  8 13  1  0  0  0  0
  9 10  1  0  0  0  0
  9 43  1  0  0  0  0
 10 11  1  0  0  0  0
 11 12  1  0  0  0  0
 11 18  1  0  0  0  0
 12 13  2  0  0  0  0
 13 14  1  0  0  0  0
 14 15  4  0  0  0  0
 15 16  4  0  0  0  0
 16 17  4  0  0  0  0
 18 19  2  0  0  0  0
 18 20  1  0  0  0  0
 20 21  1  0  0  0  0
 21 22  1  0  0  0  0
 21 38  1  0  0  0  0
 21 40  1  0  0  0  0
 22 23  1  0  0  0  0
 23 24  1  0  0  0  0
 23 25  1  0  0  0  0
 23 34  1  0  0  0  0
 25 26  1  0  0  0  0
 25 38  1  0  0  0  0
 26 27  1  0  0  0  0
 26 31  1  0  0  0  0
 27 28  1  0  0  0  0
 28 29  1  0  0  0  0
 28 30  1  0  0  0  0
 31 32  2  0  0  0  0
 31 33  1  0  0  0  0
 33 34  1  0  0  0  0
 33 37  1  0  0  0  0
 34 35  1  0  0  0  0
 35 36  1  0  0  0  0
 36 37  1  0  0  0  0
 38 39  2  0  0  0  0
 40 41  1  0  0  0  0
 40 42  1  0  0  0  0
M  STY  1   1 DAT
M  SAL   1  1   3
M  SDT   1 MRV_IMPLICIT_H                                        
M  SDD   1     0.0000    0.0000    DR    ALL  0       0  
M  SED   1 IMPL_H1
M  END
>  <Name_Molregno>
BROMOCRIPTINE

>  <5-HT1A>
7.7

>  <5-HT1B>
6.45

>  <5-HT1D>
7.97

>  <5-HT2A>
6.97

>  <5-HT2C>
6.13

>  <5-HT6>
7.39

>  <Alpha-1A>
8.38

>  <Alpha-1B>
8.86

>  <Alpha-2A>
7.96

>  <Alpha-2B>
7.46

>  <Alpha-2C>
7.55

>  <Beta-1>
6.23

>  <Beta-2>
6.13

>  <DOPAMINE D1>
6

>  <DOPAMINE D2>
8.31

>  <DOPAMINE D3>
8.02

>  <DOPAMINE D4>
6.33

>  <DOPAMINE D5>
6.31

$$$$
BUPROPION
  Marvin  02231216192D 0   1.00000     0.00000     0

 16 16  0  0  1  0  0  0  0  0999 V2000
    1.2680    2.2852    0.0000 Cl  0  0  0  0  0  0  0  0  0
    1.2680    1.4602    0.0000 C   0  0  0  0  0  0  0  0  0
    1.9824    1.0477    0.0000 C   0  0  0  0  0  0  0  0  0
    1.9824    0.2227    0.0000 C   0  0  0  0  0  0  0  0  0
    1.2680   -0.1898    0.0000 C   0  0  0  0  0  0  0  0  0
    0.5535    0.2227    0.0000 C   0  0  0  0  0  0  0  0  0
    0.5535    1.0477    0.0000 C   0  0  0  0  0  0  0  0  0
    2.6969   -0.1898    0.0000 C   0  0  0  0  0  0  0  0  0
    2.6969   -1.0148    0.0000 O   0  0  0  0  0  0  0  0  0
    3.4114    0.2227    0.0000 C   0  0  0  0  0  0  0  0  0
    4.1259   -0.1898    0.0000 N   0  0  0  0  0  0  0  0  0
    4.8403    0.2227    0.0000 C   0  0  0  0  0  0  0  0  0
    5.5548    0.6352    0.0000 C   0  0  0  0  0  0  0  0  0
    5.2528   -0.4917    0.0000 C   0  0  0  0  0  0  0  0  0
    4.4278    0.9372    0.0000 C   0  0  0  0  0  0  0  0  0
    3.4114    1.0477    0.0000 C   0  0  0  0  0  0  0  0  0
  1  2  1  0  0  0  0
  2  3  4  0  0  0  0
  2  7  4  0  0  0  0
  3  4  4  0  0  0  0
  4  5  4  0  0  0  0
  4  8  1  0  0  0  0
  5  6  4  0  0  0  0
  6  7  4  0  0  0  0
  8  9  2  0  0  0  0
  8 10  1  0  0  0  0
 10 11  1  0  0  0  0
 10 16  1  0  0  0  0
 11 12  1  0  0  0  0
 12 13  1  0  0  0  0
 12 14  1  0  0  0  0
 12 15  1  0  0  0  0
M  END
>  <Name_Molregno>
BUPROPION

>  <5-HT1A>
5

>  <DOPAMINE D2>
5

>  <Dopamine transporter>
6.15

>  <HISTAMINE H1>
5

>  <Muscarinic acetylcholine receptor M1>
5

>  <Muscarinic acetylcholine receptor M2>
5

>  <Muscarinic acetylcholine receptor M3>
5

>  <Muscarinic acetylcholine receptor M4>
5

>  <Muscarinic acetylcholine receptor M5>
5

>  <Norepinephrine transporter>
5.08

>  <Serotonin transporter>
5.01

$$$$
BUSPIRONE
  Marvin  02231216192D 0   1.00000     0.00000     0

 28 31  0  0  0  0  0  0  0  0999 V2000
    0.7370   -0.1034    0.0000 O   0  0  0  0  0  0  0  0  0
    0.3245   -0.8179    0.0000 C   0  0  0  0  0  0  0  0  0
    0.7370   -1.5324    0.0000 N   0  0  0  0  0  0  0  0  0
    1.5620   -1.5324    0.0000 C   0  0  0  0  0  0  0  0  0
    1.9745   -0.8179    0.0000 C   0  0  0  0  0  0  0  0  0
    2.7995   -0.8179    0.0000 C   0  0  0  0  0  0  0  0  0
    3.2120   -0.1034    0.0000 C   0  0  0  0  0  0  0  0  0
    4.0370   -0.1034    0.0000 N   0  0  0  0  0  0  0  0  0
    4.4495    0.6111    0.0000 C   0  0  0  0  0  0  0  0  0
    5.2745    0.6111    0.0000 C   0  0  0  0  0  0  0  0  0
    5.6870   -0.1034    0.0000 N   0  0  0  0  0  0  0  0  0
    5.2745   -0.8179    0.0000 C   0  0  0  0  0  0  0  0  0
    4.4495   -0.8179    0.0000 C   0  0  0  0  0  0  0  0  0
    6.5120   -0.1034    0.0000 C   0  0  0  0  0  0  0  0  0
    6.9245    0.6111    0.0000 N   0  0  0  0  0  0  0  0  0
    7.7495    0.6111    0.0000 C   0  0  0  0  0  0  0  0  0
    8.1620   -0.1034    0.0000 C   0  0  0  0  0  0  0  0  0
    7.7495   -0.8179    0.0000 C   0  0  0  0  0  0  0  0  0
    6.9245   -0.8179    0.0000 N   0  0  0  0  0  0  0  0  0
    0.3245   -2.2468    0.0000 C   0  0  0  0  0  0  0  0  0
    0.7370   -2.9613    0.0000 O   0  0  0  0  0  0  0  0  0
   -0.5005   -2.2468    0.0000 C   0  0  0  0  0  0  0  0  0
   -0.9130   -1.5324    0.0000 C   0  0  0  0  0  0  0  0  0
   -0.5005   -0.8179    0.0000 C   0  0  0  0  0  0  0  0  0
   -1.3979   -2.1998    0.0000 C   0  0  0  0  0  0  0  0  0
   -2.1825   -1.9449    0.0000 C   0  0  0  0  0  0  0  0  0
   -2.1825   -1.1199    0.0000 C   0  0  0  0  0  0  0  0  0
   -1.3979   -0.8649    0.0000 C   0  0  0  0  0  0  0  0  0
  1  2  2  0  0  0  0
  2  3  1  0  0  0  0
  2 24  1  0  0  0  0
  3  4  1  0  0  0  0
  3 20  1  0  0  0  0
  4  5  1  0  0  0  0
  5  6  1  0  0  0  0
  6  7  1  0  0  0  0
  7  8  1  0  0  0  0
  8  9  1  0  0  0  0
  8 13  1  0  0  0  0
  9 10  1  0  0  0  0
 10 11  1  0  0  0  0
 11 12  1  0  0  0  0
 11 14  1  0  0  0  0
 12 13  1  0  0  0  0
 14 15  4  0  0  0  0
 14 19  4  0  0  0  0
 15 16  4  0  0  0  0
 16 17  4  0  0  0  0
 17 18  4  0  0  0  0
 18 19  4  0  0  0  0
 20 21  2  0  0  0  0
 20 22  1  0  0  0  0
 22 23  1  0  0  0  0
 23 24  1  0  0  0  0
 23 25  1  0  0  0  0
 23 28  1  0  0  0  0
 25 26  1  0  0  0  0
 26 27  1  0  0  0  0
 27 28  1  0  0  0  0
M  END
>  <Name_Molregno>
BUSPIRONE

>  <5-HT1A>
7.57

>  <5-HT1D>
5

>  <5-HT2A>
6.86

>  <5-HT2C>
6.31

>  <DOPAMINE D2>
7.89

>  <DOPAMINE D4>
6.99

$$$$
Cabergoline
  Marvin  02231216192D 0   1.00000     0.00000     0

 33 36  0  0  1  0  0  0  0  0999 V2000
    0.1488   -3.1643    0.0000 O   0  0  0  0  0  0  0  0  0
   -0.5651   -2.7509    0.0000 C   0  0  0  0  0  0  0  0  0
   -1.2801   -3.1625    0.0000 N   0  0  0  0  0  0  0  0  0
   -1.2811   -3.9875    0.0000 C   0  0  0  0  0  0  0  0  0
   -1.9961   -4.3992    0.0000 C   0  0  0  0  0  0  0  0  0
   -1.9970   -5.2242    0.0000 C   0  0  0  0  0  0  0  0  0
   -2.7120   -5.6358    0.0000 N   0  0  0  0  0  0  0  0  0
   -2.7130   -6.4608    0.0000 C   0  0  0  0  0  0  0  0  0
   -3.4260   -5.2225    0.0000 C   0  0  0  0  0  0  0  0  0
   -1.9941   -2.7492    0.0000 C   0  0  0  0  0  0  0  0  0
   -2.7090   -3.1608    0.0000 O   0  0  0  0  0  0  0  0  0
   -1.9931   -1.9242    0.0000 N   0  0  0  0  0  0  0  0  0
   -2.7071   -1.5108    0.0000 C   0  0  0  0  0  0  0  0  0
   -3.4220   -1.9225    0.0000 C   0  0  0  0  0  0  0  0  0
   -0.5641   -1.9259    0.0000 C   0  0  0  0  0  0  0  0  0
    0.1508   -1.5143    0.0000 C   0  0  0  0  0  0  0  0  0
    0.1518   -0.6893    0.0000 C   0  0  0  0  0  0  0  0  0
   -0.5622   -0.2759    0.0000 C   0  0  0  0  0  0  0  0  0
   -1.2771   -0.6875    0.0000 N   0  0  0  0  0  0  0  0  0
   -1.2781   -1.5125    0.0000 C   0  0  0  0  0  0  0  0  0
   -1.9911   -0.2742    0.0000 C   0  0  0  0  0  0  0  0  0
   -2.7061   -0.6858    0.0000 C   0  0  0  0  0  0  0  0  0
   -3.4201   -0.2725    0.0000 C   0  0  0  0  0  0  0  0  0
   -0.5607    0.5482    0.0000 C   0  0  0  0  0  0  0  0  0
    0.1518    0.9607    0.0000 C   0  0  0  0  0  0  0  0  0
    0.8643    0.5482    0.0000 C   0  0  0  0  0  0  0  0  0
    0.8643   -0.2768    0.0000 C   0  0  0  0  0  0  0  0  0
    1.5822   -0.6893    0.0000 C   0  0  0  0  0  0  0  0  0
    2.2947   -0.2768    0.0000 C   0  0  0  0  0  0  0  0  0
    2.2947    0.5482    0.0000 C   0  0  0  0  0  0  0  0  0
    1.5822    0.9607    0.0000 C   0  0  0  0  0  0  0  0  0
    1.2768    1.8179    0.0000 N   0  0  0  0  0  0  0  0  0
    0.4518    1.8179    0.0000 C   0  0  0  0  0  0  0  0  0
  1  2  2  0  0  0  0
  2  3  1  0  0  0  0
  2 15  1  0  0  0  0
  3  4  1  0  0  0  0
  3 10  1  0  0  0  0
  4  5  1  0  0  0  0
  5  6  1  0  0  0  0
  6  7  1  0  0  0  0
  7  8  1  0  0  0  0
  7  9  1  0  0  0  0
 10 11  2  0  0  0  0
 10 12  1  0  0  0  0
 12 13  1  0  0  0  0
 13 14  1  0  0  0  0
 15 16  1  0  0  0  0
 15 20  1  0  0  0  0
 16 17  1  0  0  0  0
 17 18  1  0  0  0  0
 17 27  1  0  0  0  0
 18 19  1  0  0  0  0
 18 24  1  0  0  0  0
 19 20  1  0  0  0  0
 19 21  1  0  0  0  0
 21 22  1  0  0  0  0
 22 23  2  0  0  0  0
 24 25  1  0  0  0  0
 25 26  4  0  0  0  0
 25 33  4  0  0  0  0
 26 27  4  0  0  0  0
 26 31  4  0  0  0  0
 27 28  4  0  0  0  0
 28 29  4  0  0  0  0
 29 30  4  0  0  0  0
 30 31  4  0  0  0  0
 31 32  4  0  0  0  0
 32 33  4  0  0  0  0
M  STY  1   1 DAT
M  SAL   1  1  32
M  SDT   1 MRV_IMPLICIT_H                                        
M  SDD   1     0.0000    0.0000    DR    ALL  0       0  
M  SED   1 IMPL_H1
M  END
>  <Name_Molregno>
Cabergoline

>  <5-HT1A>
7.7

>  <5-HT1B>
6.32

>  <5-HT1D>
8.06

>  <5-HT2A>
8.21

>  <5-HT2C>
6.16

>  <Alpha-1A>
6.54

>  <Alpha-1B>
7.22

>  <Alpha-2A>
7.92

>  <Alpha-2B>
7.14

>  <Alpha-2C>
7.65

>  <Beta-1>
5

>  <Beta-2>
5

>  <DOPAMINE D1>
6.67

>  <DOPAMINE D2>
9.12

>  <DOPAMINE D3>
9.1

>  <DOPAMINE D4>
7.25

>  <DOPAMINE D5>
7.65

$$$$
CARBAMAZEPINE
  Marvin  02231216192D 0   1.00000     0.00000     0

 18 20  0  0  0  0  0  0  0  0999 V2000
    0.0000   -0.0005    0.0000 O   0  0  0  0  0  0  0  0  0
    0.7145   -0.4130    0.0000 C   0  0  0  0  0  0  0  0  0
    1.4290   -0.0005    0.0000 N   0  0  0  0  0  0  0  0  0
    0.7145   -1.2380    0.0000 N   0  0  0  0  0  0  0  0  0
    1.4578   -1.5959    0.0000 C   0  0  0  0  0  0  0  0  0
    1.6414   -2.4003    0.0000 C   0  0  0  0  0  0  0  0  0
    1.1270   -3.0453    0.0000 C   0  0  0  0  0  0  0  0  0
    0.3020   -3.0453    0.0000 C   0  0  0  0  0  0  0  0  0
   -0.2124   -2.4003    0.0000 C   0  0  0  0  0  0  0  0  0
   -0.0288   -1.5959    0.0000 C   0  0  0  0  0  0  0  0  0
   -0.6336   -1.0348    0.0000 C   0  0  0  0  0  0  0  0  0
   -1.4219   -1.2780    0.0000 C   0  0  0  0  0  0  0  0  0
   -1.6055   -2.0823    0.0000 C   0  0  0  0  0  0  0  0  0
   -1.0007   -2.6434    0.0000 C   0  0  0  0  0  0  0  0  0
    2.4297   -2.6434    0.0000 C   0  0  0  0  0  0  0  0  0
    3.0345   -2.0823    0.0000 C   0  0  0  0  0  0  0  0  0
    2.8509   -1.2780    0.0000 C   0  0  0  0  0  0  0  0  0
    2.0626   -1.0348    0.0000 C   0  0  0  0  0  0  0  0  0
  1  2  2  0  0  0  0
  2  3  1  0  0  0  0
  2  4  1  0  0  0  0
  4  5  1  0  0  0  0
  4 10  1  0  0  0  0
  5  6  4  0  0  0  0
  5 18  4  0  0  0  0
  6  7  1  0  0  0  0
  6 15  4  0  0  0  0
  7  8  2  0  0  0  0
  8  9  1  0  0  0  0
  9 10  4  0  0  0  0
  9 14  4  0  0  0  0
 10 11  4  0  0  0  0
 11 12  4  0  0  0  0
 12 13  4  0  0  0  0
 13 14  4  0  0  0  0
 15 16  4  0  0  0  0
 16 17  4  0  0  0  0
 17 18  4  0  0  0  0
M  END
>  <Name_Molregno>
CARBAMAZEPINE

>  <5-HT1A>
5

>  <DOPAMINE D1>
5

>  <DOPAMINE D2>
5

>  <HISTAMINE H1>
5

$$$$
Cathinone
  Marvin  02231216192D 0   1.00000     0.00000     0

 11 11  0  0  1  0  0  0  0  0999 V2000
    1.9974    0.2298    0.0000 O   0  0  0  0  0  0  0  0  0
    1.2829   -0.1827    0.0000 C   0  0  0  0  0  0  0  0  0
    0.5684    0.2298    0.0000 C   0  0  0  0  0  0  0  0  0
    0.5684    1.0548    0.0000 N   0  0  0  0  0  0  0  0  0
   -0.1461   -0.1827    0.0000 C   0  0  0  0  0  0  0  0  0
    1.2829   -1.0077    0.0000 C   0  0  0  0  0  0  0  0  0
    1.9974   -1.4202    0.0000 C   0  0  0  0  0  0  0  0  0
    1.9974   -2.2452    0.0000 C   0  0  0  0  0  0  0  0  0
    1.2829   -2.6577    0.0000 C   0  0  0  0  0  0  0  0  0
    0.5684   -2.2452    0.0000 C   0  0  0  0  0  0  0  0  0
    0.5684   -1.4202    0.0000 C   0  0  0  0  0  0  0  0  0
  1  2  2  0  0  0  0
  2  3  1  0  0  0  0
  2  6  1  0  0  0  0
  3  4  1  0  0  0  0
  3  5  1  0  0  0  0
  6  7  4  0  0  0  0
  6 11  4  0  0  0  0
  7  8  4  0  0  0  0
  8  9  4  0  0  0  0
  9 10  4  0  0  0  0
 10 11  4  0  0  0  0
M  END
>  <Name_Molregno>
Cathinone

>  <5-HT1A>
5

>  <5-HT1B>
5

>  <5-HT1D>
5

>  <5-HT1E>
5

>  <5-HT3>
5

>  <5-HT5>
5

>  <5-HT6>
5

>  <5-HT7>
5.57

>  <Alpha-1A>
5

>  <Alpha-1B>
5

>  <Alpha-2A>
5.17

>  <Alpha-2B>
6.04

>  <Alpha-2C>
6.12

>  <Beta-1>
5

>  <Beta-2>
5

>  <DOPAMINE D1>
5

>  <DOPAMINE D2>
5

>  <DOPAMINE D4>
5

>  <DOPAMINE D5>
5

>  <Dopamine transporter>
6.37

>  <HISTAMINE H1>
5

>  <HISTAMINE H2>
5

>  <HISTAMINE H4>
5

>  <Muscarinic acetylcholine receptor M1>
5

>  <Muscarinic acetylcholine receptor M2>
5

>  <Muscarinic acetylcholine receptor M3>
5

>  <Muscarinic acetylcholine receptor M4>
5

>  <Muscarinic acetylcholine receptor M5>
5

>  <Norepinephrine transporter>
6.76

>  <Serotonin transporter>
5.32

$$$$
CELECOXIB
  Marvin  02231216192D 0   1.00000     0.00000     0

 26 28  0  0  0  0  0  0  0  0999 V2000
   -2.2304    2.3034    0.0000 S   0  0  0  0  0  0  0  0  0
   -2.2304    3.1284    0.0000 O   0  0  0  0  0  0  0  0  0
   -3.0554    2.3034    0.0000 O   0  0  0  0  0  0  0  0  0
   -1.4054    2.3034    0.0000 N   0  0  0  0  0  0  0  0  0
   -2.2304    1.4784    0.0000 C   0  0  0  0  0  0  0  0  0
   -1.5159    1.0659    0.0000 C   0  0  0  0  0  0  0  0  0
   -1.5159    0.2409    0.0000 C   0  0  0  0  0  0  0  0  0
   -2.2304   -0.1716    0.0000 C   0  0  0  0  0  0  0  0  0
   -2.2304   -0.9966    0.0000 N   0  0  0  0  0  0  0  0  0
   -1.5629   -1.4815    0.0000 N   0  0  0  0  0  0  0  0  0
   -1.8179   -2.2662    0.0000 C   0  0  0  0  0  0  0  0  0
   -2.6429   -2.2662    0.0000 C   0  0  0  0  0  0  0  0  0
   -2.8978   -1.4815    0.0000 C   0  0  0  0  0  0  0  0  0
   -3.6824   -1.2266    0.0000 C   0  0  0  0  0  0  0  0  0
   -4.2955   -1.7786    0.0000 C   0  0  0  0  0  0  0  0  0
   -5.0802   -1.5237    0.0000 C   0  0  0  0  0  0  0  0  0
   -5.2517   -0.7167    0.0000 C   0  0  0  0  0  0  0  0  0
   -4.6386   -0.1647    0.0000 C   0  0  0  0  0  0  0  0  0
   -3.8540   -0.4196    0.0000 C   0  0  0  0  0  0  0  0  0
   -6.0363   -0.4618    0.0000 C   0  0  0  0  0  0  0  0  0
   -1.3330   -2.9336    0.0000 C   0  0  0  0  0  0  0  0  0
   -0.8480   -3.6010    0.0000 F   0  0  0  0  0  0  0  0  0
   -2.0004   -3.4185    0.0000 F   0  0  0  0  0  0  0  0  0
   -0.6655   -2.4487    0.0000 F   0  0  0  0  0  0  0  0  0
   -2.9448    0.2409    0.0000 C   0  0  0  0  0  0  0  0  0
   -2.9448    1.0659    0.0000 C   0  0  0  0  0  0  0  0  0
  1  2  2  0  0  0  0
  1  3  2  0  0  0  0
  1  4  1  0  0  0  0
  1  5  1  0  0  0  0
  5  6  4  0  0  0  0
  5 26  4  0  0  0  0
  6  7  4  0  0  0  0
  7  8  4  0  0  0  0
  8  9  1  0  0  0  0
  8 25  4  0  0  0  0
  9 10  4  0  0  0  0
  9 13  4  0  0  0  0
 10 11  4  0  0  0  0
 11 12  4  0  0  0  0
 11 21  1  0  0  0  0
 12 13  4  0  0  0  0
 13 14  1  0  0  0  0
 14 15  4  0  0  0  0
 14 19  4  0  0  0  0
 15 16  4  0  0  0  0
 16 17  4  0  0  0  0
 17 18  4  0  0  0  0
 17 20  1  0  0  0  0
 18 19  4  0  0  0  0
 21 22  1  0  0  0  0
 21 23  1  0  0  0  0
 21 24  1  0  0  0  0
 25 26  4  0  0  0  0
M  END
>  <Name_Molregno>
CELECOXIB

>  <5-HT1A>
5

>  <5-HT1B>
5

>  <5-HT1D>
5

>  <5-HT1E>
5

>  <5-HT2A>
5

>  <5-HT3>
5

>  <5-HT6>
5

>  <5-HT7>
5

>  <Alpha-1A>
5

>  <Alpha-1B>
5

>  <Alpha-2A>
5

>  <Alpha-2B>
5

>  <Alpha-2C>
5

>  <DOPAMINE D1>
5

>  <DOPAMINE D2>
5

>  <DOPAMINE D4>
5

>  <DOPAMINE D5>
5

>  <Dopamine transporter>
6.18

>  <HISTAMINE H1>
5

>  <HISTAMINE H2>
5

>  <Muscarinic acetylcholine receptor M2>
5

>  <Muscarinic acetylcholine receptor M5>
5

>  <Norepinephrine transporter>
5

>  <Serotonin transporter>
5

$$$$
CGP20712-A
  Marvin  02231216192D 0   1.00000     0.00000     0

 35 37  0  0  1  0  0  0  0  0999 V2000
  -12.1648    3.4206    0.0000 F   0  0  0  0  0  0  0  0  0
  -11.8293    2.6669    0.0000 C   0  0  0  0  0  0  0  0  0
  -12.5829    2.3314    0.0000 F   0  0  0  0  0  0  0  0  0
  -11.0756    3.0025    0.0000 F   0  0  0  0  0  0  0  0  0
  -11.4937    1.9132    0.0000 C   0  0  0  0  0  0  0  0  0
  -10.6867    1.7417    0.0000 N   0  0  0  0  0  0  0  0  0
  -10.6005    0.9212    0.0000 C   0  0  0  0  0  0  0  0  0
  -11.3542    0.5857    0.0000 N   0  0  0  0  0  0  0  0  0
  -11.9062    1.1988    0.0000 C   0  0  0  0  0  0  0  0  0
  -11.5257   -0.2213    0.0000 C   0  0  0  0  0  0  0  0  0
   -9.8860    0.5087    0.0000 C   0  0  0  0  0  0  0  0  0
   -9.1716    0.9212    0.0000 C   0  0  0  0  0  0  0  0  0
   -8.4571    0.5087    0.0000 C   0  0  0  0  0  0  0  0  0
   -8.4571   -0.3163    0.0000 C   0  0  0  0  0  0  0  0  0
   -7.7426   -0.7288    0.0000 O   0  0  0  0  0  0  0  0  0
   -7.0281   -0.3163    0.0000 C   0  0  0  0  0  0  0  0  0
   -6.3137   -0.7288    0.0000 C   0  0  0  0  0  0  0  0  0
   -6.3137   -1.5538    0.0000 O   0  0  0  0  0  0  0  0  0
   -5.5992   -0.3163    0.0000 C   0  0  0  0  0  0  0  0  0
   -4.8847   -0.7288    0.0000 N   0  0  0  0  0  0  0  0  0
   -4.1703   -0.3163    0.0000 C   0  0  0  0  0  0  0  0  0
   -3.4558   -0.7288    0.0000 C   0  0  0  0  0  0  0  0  0
   -2.7413   -0.3163    0.0000 O   0  0  0  0  0  0  0  0  0
   -2.0268   -0.7288    0.0000 C   0  0  0  0  0  0  0  0  0
   -1.3124   -0.3163    0.0000 C   0  0  0  0  0  0  0  0  0
   -0.5979   -0.7288    0.0000 C   0  0  0  0  0  0  0  0  0
    0.1166   -0.3163    0.0000 C   0  0  0  0  0  0  0  0  0
    0.1166    0.5087    0.0000 O   0  0  0  0  0  0  0  0  0
    0.8310   -0.7288    0.0000 N   0  0  0  0  0  0  0  0  0
   -0.5979   -1.5538    0.0000 C   0  0  0  0  0  0  0  0  0
    0.1166   -1.9663    0.0000 O   0  0  0  0  0  0  0  0  0
   -1.3124   -1.9663    0.0000 C   0  0  0  0  0  0  0  0  0
   -2.0268   -1.5538    0.0000 C   0  0  0  0  0  0  0  0  0
   -9.1716   -0.7288    0.0000 C   0  0  0  0  0  0  0  0  0
   -9.8860   -0.3163    0.0000 C   0  0  0  0  0  0  0  0  0
  1  2  1  0  0  0  0
  2  3  1  0  0  0  0
  2  4  1  0  0  0  0
  2  5  1  0  0  0  0
  5  6  4  0  0  0  0
  5  9  4  0  0  0  0
  6  7  4  0  0  0  0
  7  8  4  0  0  0  0
  7 11  1  0  0  0  0
  8  9  4  0  0  0  0
  8 10  1  0  0  0  0
 11 12  4  0  0  0  0
 11 35  4  0  0  0  0
 12 13  4  0  0  0  0
 13 14  4  0  0  0  0
 14 15  1  0  0  0  0
 14 34  4  0  0  0  0
 15 16  1  0  0  0  0
 16 17  1  0  0  0  0
 17 18  1  0  0  0  0
 17 19  1  0  0  0  0
 19 20  1  0  0  0  0
 20 21  1  0  0  0  0
 21 22  1  0  0  0  0
 22 23  1  0  0  0  0
 23 24  1  0  0  0  0
 24 25  4  0  0  0  0
 24 33  4  0  0  0  0
 25 26  4  0  0  0  0
 26 27  1  0  0  0  0
 26 30  4  0  0  0  0
 27 28  2  0  0  0  0
 27 29  1  0  0  0  0
 30 31  1  0  0  0  0
 30 32  4  0  0  0  0
 32 33  4  0  0  0  0
 34 35  4  0  0  0  0
M  END
>  <Name_Molregno>
CGP20712-A

>  <5-HT1A>
5.13

>  <Beta-1>
8.33

>  <Beta-2>
5.39

$$$$
CGS12066B
  Marvin  02231216192D 0   1.00000     0.00000     0

 24 27  0  0  0  0  0  0  0  0999 V2000
   -0.9796   -3.3948    0.0000 F   0  0  0  0  0  0  0  0  0
   -0.1550   -3.4206    0.0000 C   0  0  0  0  0  0  0  0  0
   -0.1808   -4.2452    0.0000 F   0  0  0  0  0  0  0  0  0
   -0.1293   -2.5960    0.0000 F   0  0  0  0  0  0  0  0  0
    0.6696   -3.4463    0.0000 C   0  0  0  0  0  0  0  0  0
    1.1042   -2.7451    0.0000 C   0  0  0  0  0  0  0  0  0
    1.9288   -2.7708    0.0000 C   0  0  0  0  0  0  0  0  0
    2.3634   -2.0696    0.0000 N   0  0  0  0  0  0  0  0  0
    3.1880   -2.0954    0.0000 C   0  0  0  0  0  0  0  0  0
    3.6226   -1.3941    0.0000 N   0  0  0  0  0  0  0  0  0
    3.2326   -0.6671    0.0000 C   0  0  0  0  0  0  0  0  0
    3.6672    0.0341    0.0000 C   0  0  0  0  0  0  0  0  0
    4.4918    0.0084    0.0000 N   0  0  0  0  0  0  0  0  0
    4.8818   -0.7186    0.0000 C   0  0  0  0  0  0  0  0  0
    4.4472   -1.4199    0.0000 C   0  0  0  0  0  0  0  0  0
    4.9264    0.7096    0.0000 C   0  0  0  0  0  0  0  0  0
    3.5780   -2.8224    0.0000 C   0  0  0  0  0  0  0  0  0
    3.1434   -3.5236    0.0000 N   0  0  0  0  0  0  0  0  0
    2.3188   -3.4979    0.0000 C   0  0  0  0  0  0  0  0  0
    1.8842   -4.1991    0.0000 C   0  0  0  0  0  0  0  0  0
    1.0596   -4.1733    0.0000 C   0  0  0  0  0  0  0  0  0
    3.6760   -4.1536    0.0000 C   0  0  0  0  0  0  0  0  0
    4.4398   -3.8418    0.0000 C   0  0  0  0  0  0  0  0  0
    4.3792   -3.0190    0.0000 C   0  0  0  0  0  0  0  0  0
  1  2  1  0  0  0  0
  2  3  1  0  0  0  0
  2  4  1  0  0  0  0
  2  5  1  0  0  0  0
  5  6  4  0  0  0  0
  5 21  4  0  0  0  0
  6  7  4  0  0  0  0
  7  8  4  0  0  0  0
  7 19  4  0  0  0  0
  8  9  4  0  0  0  0
  9 10  1  0  0  0  0
  9 17  4  0  0  0  0
 10 11  1  0  0  0  0
 10 15  1  0  0  0  0
 11 12  1  0  0  0  0
 12 13  1  0  0  0  0
 13 14  1  0  0  0  0
 13 16  1  0  0  0  0
 14 15  1  0  0  0  0
 17 18  4  0  0  0  0
 17 24  4  0  0  0  0
 18 19  4  0  0  0  0
 18 22  4  0  0  0  0
 19 20  4  0  0  0  0
 20 21  4  0  0  0  0
 22 23  4  0  0  0  0
 23 24  4  0  0  0  0
M  END
>  <Name_Molregno>
CGS12066B

>  <5-HT1A>
7.36

>  <5-HT1B>
9.2

>  <5-HT1D>
8.59

>  <5-HT2A>
5.37

>  <5-HT2C>
5.6

>  <DOPAMINE D1>
5.82

>  <DOPAMINE D2>
5.76

>  <DOPAMINE D3>
6.24

$$$$
CHLORIMIPRAMINE
  Marvin  02231216192D 0   1.00000     0.00000     0

 22 24  0  0  0  0  0  0  0  0999 V2000
   -3.6433    1.4834    0.0000 Cl  0  0  0  0  0  0  0  0  0
   -3.8269    0.6791    0.0000 C   0  0  0  0  0  0  0  0  0
   -3.2221    0.1179    0.0000 C   0  0  0  0  0  0  0  0  0
   -3.4057   -0.6864    0.0000 C   0  0  0  0  0  0  0  0  0
   -2.7241   -1.1511    0.0000 N   0  0  0  0  0  0  0  0  0
   -2.6624   -1.9738    0.0000 C   0  0  0  0  0  0  0  0  0
   -3.2672   -2.5350    0.0000 C   0  0  0  0  0  0  0  0  0
   -4.0830   -2.4120    0.0000 C   0  0  0  0  0  0  0  0  0
   -4.4955   -1.6975    0.0000 C   0  0  0  0  0  0  0  0  0
   -4.1941   -0.9296    0.0000 C   0  0  0  0  0  0  0  0  0
   -4.7988   -0.3684    0.0000 C   0  0  0  0  0  0  0  0  0
   -4.6153    0.4359    0.0000 C   0  0  0  0  0  0  0  0  0
   -3.0836   -3.3393    0.0000 C   0  0  0  0  0  0  0  0  0
   -2.2953   -3.5825    0.0000 C   0  0  0  0  0  0  0  0  0
   -1.6905   -3.0213    0.0000 C   0  0  0  0  0  0  0  0  0
   -1.8741   -2.2170    0.0000 C   0  0  0  0  0  0  0  0  0
   -2.0096   -0.7386    0.0000 C   0  0  0  0  0  0  0  0  0
   -1.2951   -1.1511    0.0000 C   0  0  0  0  0  0  0  0  0
   -0.5807   -0.7386    0.0000 C   0  0  0  0  0  0  0  0  0
    0.1338   -1.1511    0.0000 N   0  0  0  0  0  0  0  0  0
    0.8483   -0.7386    0.0000 C   0  0  0  0  0  0  0  0  0
    0.1338   -1.9761    0.0000 C   0  0  0  0  0  0  0  0  0
  1  2  1  0  0  0  0
  2  3  4  0  0  0  0
  2 12  4  0  0  0  0
  3  4  4  0  0  0  0
  4  5  1  0  0  0  0
  4 10  4  0  0  0  0
  5  6  1  0  0  0  0
  5 17  1  0  0  0  0
  6  7  4  0  0  0  0
  6 16  4  0  0  0  0
  7  8  1  0  0  0  0
  7 13  4  0  0  0  0
  8  9  1  0  0  0  0
  9 10  1  0  0  0  0
 10 11  4  0  0  0  0
 11 12  4  0  0  0  0
 13 14  4  0  0  0  0
 14 15  4  0  0  0  0
 15 16  4  0  0  0  0
 17 18  1  0  0  0  0
 18 19  1  0  0  0  0
 19 20  1  0  0  0  0
 20 21  1  0  0  0  0
 20 22  1  0  0  0  0
M  END
>  <Name_Molregno>
CHLORIMIPRAMINE

>  <5-HT1A>
5

>  <5-HT1B>
5

>  <5-HT1D>
5

>  <5-HT2A>
7.45

>  <5-HT2C>
7.19

>  <Alpha-1A>
8.49

>  <Alpha-2A>
6.28

>  <DOPAMINE D1>
6.66

>  <DOPAMINE D2>
6.95

>  <DOPAMINE D3>
7.41

>  <Dopamine transporter>
5.61

>  <Norepinephrine transporter>
7.37

>  <Serotonin transporter>
9.81

$$$$
CHLOROPHENYLPIPERAZINE
  Marvin  02231216192D 0   1.00000     0.00000     0

 13 14  0  0  0  0  0  0  0  0999 V2000
    1.2605    1.9269    0.0000 Cl  0  0  0  0  0  0  0  0  0
    1.2605    1.1019    0.0000 C   0  0  0  0  0  0  0  0  0
    1.9750    0.6894    0.0000 C   0  0  0  0  0  0  0  0  0
    1.9750   -0.1356    0.0000 C   0  0  0  0  0  0  0  0  0
    2.6894   -0.5481    0.0000 N   0  0  0  0  0  0  0  0  0
    3.4039   -0.1356    0.0000 C   0  0  0  0  0  0  0  0  0
    4.1184   -0.5481    0.0000 C   0  0  0  0  0  0  0  0  0
    4.1184   -1.3731    0.0000 N   0  0  0  0  0  0  0  0  0
    3.4039   -1.7856    0.0000 C   0  0  0  0  0  0  0  0  0
    2.6894   -1.3731    0.0000 C   0  0  0  0  0  0  0  0  0
    1.2605   -0.5481    0.0000 C   0  0  0  0  0  0  0  0  0
    0.5460   -0.1356    0.0000 C   0  0  0  0  0  0  0  0  0
    0.5460    0.6894    0.0000 C   0  0  0  0  0  0  0  0  0
  1  2  1  0  0  0  0
  2  3  4  0  0  0  0
  2 13  4  0  0  0  0
  3  4  4  0  0  0  0
  4  5  1  0  0  0  0
  4 11  4  0  0  0  0
  5  6  1  0  0  0  0
  5 10  1  0  0  0  0
  6  7  1  0  0  0  0
  7  8  1  0  0  0  0
  8  9  1  0  0  0  0
  9 10  1  0  0  0  0
 11 12  4  0  0  0  0
 12 13  4  0  0  0  0
M  END
>  <Name_Molregno>
CHLOROPHENYLPIPERAZINE

>  <5-HT1A>
6.88

>  <5-HT1B>
6.72

>  <5-HT1D>
6.23

>  <5-HT2A>
7.01

>  <5-HT2C>
7.55

>  <5-HT3>
6.37

>  <5-HT5>
5.87

>  <5-HT6>
5.7

>  <5-HT7>
6.79

>  <Alpha-1A>
5.86

>  <Alpha-1B>
6.04

>  <Alpha-2A>
6.84

>  <Alpha-2B>
6.98

>  <Alpha-2C>
6.91

>  <Beta-1>
5.63

>  <Beta-2>
5.46

>  <DOPAMINE D1>
5.15

>  <DOPAMINE D2>
5

>  <DOPAMINE D5>
5

>  <HISTAMINE H1>
6.49

>  <Norepinephrine transporter>
5.36

>  <Serotonin transporter>
6.13

$$$$
CHLORPROMAZINE
  Marvin  02231216192D 0   1.00000     0.00000     0

 21 23  0  0  0  0  0  0  0  0999 V2000
   -1.3730   -3.5598    0.0000 Cl  0  0  0  0  0  0  0  0  0
   -2.0875   -3.1473    0.0000 C   0  0  0  0  0  0  0  0  0
   -2.0875   -2.3223    0.0000 C   0  0  0  0  0  0  0  0  0
   -2.8019   -1.9098    0.0000 C   0  0  0  0  0  0  0  0  0
   -2.8019   -1.0848    0.0000 N   0  0  0  0  0  0  0  0  0
   -3.5164   -0.6723    0.0000 C   0  0  0  0  0  0  0  0  0
   -4.2309   -1.0848    0.0000 C   0  0  0  0  0  0  0  0  0
   -4.2309   -1.9098    0.0000 S   0  0  0  0  0  0  0  0  0
   -3.5164   -2.3223    0.0000 C   0  0  0  0  0  0  0  0  0
   -3.5164   -3.1473    0.0000 C   0  0  0  0  0  0  0  0  0
   -2.8019   -3.5598    0.0000 C   0  0  0  0  0  0  0  0  0
   -4.9453   -0.6723    0.0000 C   0  0  0  0  0  0  0  0  0
   -4.9453    0.1527    0.0000 C   0  0  0  0  0  0  0  0  0
   -4.2309    0.5652    0.0000 C   0  0  0  0  0  0  0  0  0
   -3.5164    0.1527    0.0000 C   0  0  0  0  0  0  0  0  0
   -2.0875   -0.6723    0.0000 C   0  0  0  0  0  0  0  0  0
   -1.3730   -1.0848    0.0000 C   0  0  0  0  0  0  0  0  0
   -0.6585   -0.6723    0.0000 C   0  0  0  0  0  0  0  0  0
    0.0560   -1.0848    0.0000 N   0  0  0  0  0  0  0  0  0
    0.7704   -0.6723    0.0000 C   0  0  0  0  0  0  0  0  0
    0.0560   -1.9098    0.0000 C   0  0  0  0  0  0  0  0  0
  1  2  1  0  0  0  0
  2  3  4  0  0  0  0
  2 11  4  0  0  0  0
  3  4  4  0  0  0  0
  4  5  1  0  0  0  0
  4  9  4  0  0  0  0
  5  6  1  0  0  0  0
  5 16  1  0  0  0  0
  6  7  4  0  0  0  0
  6 15  4  0  0  0  0
  7  8  1  0  0  0  0
  7 12  4  0  0  0  0
  8  9  1  0  0  0  0
  9 10  4  0  0  0  0
 10 11  4  0  0  0  0
 12 13  4  0  0  0  0
 13 14  4  0  0  0  0
 14 15  4  0  0  0  0
 16 17  1  0  0  0  0
 17 18  1  0  0  0  0
 18 19  1  0  0  0  0
 19 20  1  0  0  0  0
 19 21  1  0  0  0  0
M  END
>  <Name_Molregno>
CHLORPROMAZINE

>  <5-HT1A>
5.98

>  <5-HT1B>
5.83

>  <5-HT1D>
6.34

>  <5-HT1E>
6.46

>  <5-HT2A>
8.36

>  <5-HT2C>
7.74

>  <5-HT3>
6.01

>  <5-HT5>
6.93

>  <5-HT6>
7.59

>  <5-HT7>
7.54

>  <Alpha-1A>
9.55

>  <Alpha-1B>
9.09

>  <Alpha-2A>
6.71

>  <Alpha-2B>
7.81

>  <Alpha-2C>
7.36

>  <Beta-1>
5

>  <Beta-2>
5

>  <DOPAMINE D1>
7.1

>  <DOPAMINE D2>
8.51

>  <DOPAMINE D3>
8.58

>  <DOPAMINE D4>
8.03

>  <DOPAMINE D5>
6.82

>  <Dopamine transporter>
5

>  <HISTAMINE H1>
8.47

>  <HISTAMINE H2>
6.76

>  <HISTAMINE H3>
6

>  <HISTAMINE H4>
6.3

>  <Muscarinic acetylcholine receptor M1>
7.36

>  <Muscarinic acetylcholine receptor M2>
6.67

>  <Muscarinic acetylcholine receptor M3>
7.25

>  <Muscarinic acetylcholine receptor M4>
7.11

>  <Muscarinic acetylcholine receptor M5>
7.5

>  <Norepinephrine transporter>
5.61

>  <Serotonin transporter>
6.54

$$$$
cis-Thiothixene
  Marvin  02231216192D 0   1.00000     0.00000     0

 30 33  0  0  0  0  0  0  0  0999 V2000
    1.0940   -3.6931    0.0000 S   0  0  0  0  0  0  0  0  0
    1.8085   -3.2806    0.0000 C   0  0  0  0  0  0  0  0  0
    1.8085   -2.4556    0.0000 C   0  0  0  0  0  0  0  0  0
    2.5230   -2.0431    0.0000 C   0  0  0  0  0  0  0  0  0
    3.2375   -2.4556    0.0000 C   0  0  0  0  0  0  0  0  0
    3.9519   -2.0431    0.0000 S   0  0  0  0  0  0  0  0  0
    3.5394   -1.3286    0.0000 O   0  0  0  0  0  0  0  0  0
    4.3644   -2.7575    0.0000 O   0  0  0  0  0  0  0  0  0
    4.6664   -1.6306    0.0000 N   0  0  0  0  0  0  0  0  0
    5.3809   -2.0431    0.0000 C   0  0  0  0  0  0  0  0  0
    4.6664   -0.8056    0.0000 C   0  0  0  0  0  0  0  0  0
    3.2375   -3.2806    0.0000 C   0  0  0  0  0  0  0  0  0
    2.5230   -3.6931    0.0000 C   0  0  0  0  0  0  0  0  0
    1.0940   -2.0431    0.0000 C   0  0  0  0  0  0  0  0  0
    0.3796   -2.4556    0.0000 C   0  0  0  0  0  0  0  0  0
    0.3796   -3.2806    0.0000 C   0  0  0  0  0  0  0  0  0
   -0.3349   -3.6931    0.0000 C   0  0  0  0  0  0  0  0  0
   -1.0494   -3.2806    0.0000 C   0  0  0  0  0  0  0  0  0
   -1.0494   -2.4556    0.0000 C   0  0  0  0  0  0  0  0  0
   -0.3349   -2.0431    0.0000 C   0  0  0  0  0  0  0  0  0
    1.0940   -1.2181    0.0000 C   0  0  0  0  0  0  0  0  0
    0.3796   -0.8056    0.0000 C   0  0  0  0  0  0  0  0  0
   -0.3349   -1.2181    0.0000 C   0  0  0  0  0  0  0  0  0
   -1.0494   -0.8056    0.0000 N   0  0  0  0  0  0  0  0  0
   -1.7638   -1.2181    0.0000 C   0  0  0  0  0  0  0  0  0
   -2.4783   -0.8056    0.0000 C   0  0  0  0  0  0  0  0  0
   -2.4783    0.0194    0.0000 N   0  0  0  0  0  0  0  0  0
   -1.7638    0.4319    0.0000 C   0  0  0  0  0  0  0  0  0
   -1.0494    0.0194    0.0000 C   0  0  0  0  0  0  0  0  0
   -3.1928    0.4319    0.0000 C   0  0  0  0  0  0  0  0  0
  1  2  1  0  0  0  0
  1 16  1  0  0  0  0
  2  3  4  0  0  0  0
  2 13  4  0  0  0  0
  3  4  4  0  0  0  0
  3 14  1  0  0  0  0
  4  5  4  0  0  0  0
  5  6  1  0  0  0  0
  5 12  4  0  0  0  0
  6  7  2  0  0  0  0
  6  8  2  0  0  0  0
  6  9  1  0  0  0  0
  9 10  1  0  0  0  0
  9 11  1  0  0  0  0
 12 13  4  0  0  0  0
 14 15  1  0  0  0  0
 14 21  2  0  0  0  0
 15 16  4  0  0  0  0
 15 20  4  0  0  0  0
 16 17  4  0  0  0  0
 17 18  4  0  0  0  0
 18 19  4  0  0  0  0
 19 20  4  0  0  0  0
 21 22  1  0  0  0  0
 22 23  1  0  0  0  0
 23 24  1  0  0  0  0
 24 25  1  0  0  0  0
 24 29  1  0  0  0  0
 25 26  1  0  0  0  0
 26 27  1  0  0  0  0
 27 28  1  0  0  0  0
 27 30  1  0  0  0  0
 28 29  1  0  0  0  0
M  END
>  <Name_Molregno>
cis-Thiothixene

>  <5-HT1A>
6.39

>  <5-HT1B>
6.82

>  <5-HT1D>
6.18

>  <5-HT1E>
5

>  <5-HT2A>
7.42

>  <5-HT2C>
5.87

>  <5-HT3>
5.73

>  <5-HT5>
6.44

>  <5-HT6>
6.62

>  <5-HT7>
7.82

>  <Alpha-1A>
7.94

>  <Alpha-1B>
7.46

>  <Alpha-2A>
7.1

>  <Alpha-2B>
7.3

>  <Alpha-2C>
7.28

>  <Beta-1>
5

>  <Beta-2>
5

>  <DOPAMINE D1>
7.29

>  <DOPAMINE D2>
9.56

>  <DOPAMINE D3>
9.41

>  <DOPAMINE D4>
6.86

>  <DOPAMINE D5>
6.58

>  <Dopamine transporter>
5

>  <HISTAMINE H1>
8.23

>  <HISTAMINE H2>
6.39

>  <HISTAMINE H4>
5

>  <Muscarinic acetylcholine receptor M1>
5.3

>  <Muscarinic acetylcholine receptor M2>
5.34

>  <Muscarinic acetylcholine receptor M3>
5.27

>  <Muscarinic acetylcholine receptor M4>
5.4

>  <Muscarinic acetylcholine receptor M5>
5.32

>  <Norepinephrine transporter>
5

>  <Serotonin transporter>
5.41

$$$$
CITALOPRAM
  Marvin  02231216192D 0   1.00000     0.00000     0

 24 26  0  0  1  0  0  0  0  0999 V2000
   -2.6333   -5.3696    0.0000 F   0  0  0  0  0  0  0  0  0
   -2.2977   -4.6160    0.0000 C   0  0  0  0  0  0  0  0  0
   -2.7827   -3.9485    0.0000 C   0  0  0  0  0  0  0  0  0
   -2.4471   -3.1948    0.0000 C   0  0  0  0  0  0  0  0  0
   -1.6266   -3.1086    0.0000 C   0  0  0  0  0  0  0  0  0
   -1.1417   -3.7760    0.0000 C   0  0  0  0  0  0  0  0  0
   -1.4772   -4.5297    0.0000 C   0  0  0  0  0  0  0  0  0
   -1.2911   -2.3549    0.0000 C   0  0  0  0  0  0  0  0  0
   -0.8061   -1.6875    0.0000 O   0  0  0  0  0  0  0  0  0
   -1.2911   -1.0201    0.0000 C   0  0  0  0  0  0  0  0  0
   -2.0757   -1.2750    0.0000 C   0  0  0  0  0  0  0  0  0
   -2.0757   -2.1000    0.0000 C   0  0  0  0  0  0  0  0  0
   -2.7901   -2.5125    0.0000 C   0  0  0  0  0  0  0  0  0
   -3.5046   -2.1000    0.0000 C   0  0  0  0  0  0  0  0  0
   -3.5046   -1.2750    0.0000 C   0  0  0  0  0  0  0  0  0
   -2.7901   -0.8625    0.0000 C   0  0  0  0  0  0  0  0  0
   -4.2191   -0.8625    0.0000 C   0  0  0  0  0  0  0  0  0
   -4.9336   -0.4500    0.0000 N   0  0  0  0  0  0  0  0  0
   -0.5766   -2.7674    0.0000 C   0  0  0  0  0  0  0  0  0
    0.1379   -2.3549    0.0000 C   0  0  0  0  0  0  0  0  0
    0.8524   -2.7674    0.0000 C   0  0  0  0  0  0  0  0  0
    1.5668   -2.3549    0.0000 N   0  0  0  0  0  0  0  0  0
    1.5668   -1.5299    0.0000 C   0  0  0  0  0  0  0  0  0
    2.2813   -2.7674    0.0000 C   0  0  0  0  0  0  0  0  0
  1  2  1  0  0  0  0
  2  3  4  0  0  0  0
  2  7  4  0  0  0  0
  3  4  4  0  0  0  0
  4  5  4  0  0  0  0
  5  6  4  0  0  0  0
  5  8  1  0  0  0  0
  6  7  4  0  0  0  0
  8  9  1  0  0  0  0
  8 12  1  0  0  0  0
  8 19  1  0  0  0  0
  9 10  1  0  0  0  0
 10 11  1  0  0  0  0
 11 12  4  0  0  0  0
 11 16  4  0  0  0  0
 12 13  4  0  0  0  0
 13 14  4  0  0  0  0
 14 15  4  0  0  0  0
 15 16  4  0  0  0  0
 15 17  1  0  0  0  0
 17 18  3  0  0  0  0
 19 20  1  0  0  0  0
 20 21  1  0  0  0  0
 21 22  1  0  0  0  0
 22 23  1  0  0  0  0
 22 24  1  0  0  0  0
M  END
>  <Name_Molregno>
CITALOPRAM

>  <5-HT1A>
5

>  <5-HT1B>
5

>  <5-HT1D>
5

>  <5-HT2A>
5.1

>  <5-HT2C>
6.21

>  <Alpha-1A>
5

>  <Alpha-2A>
5

>  <DOPAMINE D2>
5

>  <DOPAMINE D3>
5

>  <Dopamine transporter>
5

>  <Muscarinic acetylcholine receptor M1>
5.88

>  <Norepinephrine transporter>
5.17

>  <Serotonin transporter>
8.45

$$$$
CLOZAPINE
  Marvin  02231216192D 0   1.00000     0.00000     0

 23 26  0  0  0  0  0  0  0  0999 V2000
   -0.5622   -2.2603    0.0000 Cl  0  0  0  0  0  0  0  0  0
    0.2262   -2.5035    0.0000 C   0  0  0  0  0  0  0  0  0
    0.8309   -1.9424    0.0000 C   0  0  0  0  0  0  0  0  0
    1.6193   -2.1855    0.0000 C   0  0  0  0  0  0  0  0  0
    2.1337   -1.5405    0.0000 N   0  0  0  0  0  0  0  0  0
    2.9587   -1.5405    0.0000 C   0  0  0  0  0  0  0  0  0
    3.3166   -0.7972    0.0000 N   0  0  0  0  0  0  0  0  0
    2.8519   -0.1156    0.0000 C   0  0  0  0  0  0  0  0  0
    3.2098    0.6277    0.0000 C   0  0  0  0  0  0  0  0  0
    4.0325    0.6894    0.0000 N   0  0  0  0  0  0  0  0  0
    4.4973    0.0077    0.0000 C   0  0  0  0  0  0  0  0  0
    4.1393   -0.7356    0.0000 C   0  0  0  0  0  0  0  0  0
    4.3905    1.4327    0.0000 C   0  0  0  0  0  0  0  0  0
    3.4730   -2.1855    0.0000 C   0  0  0  0  0  0  0  0  0
    3.2895   -2.9898    0.0000 C   0  0  0  0  0  0  0  0  0
    2.5462   -3.3478    0.0000 N   0  0  0  0  0  0  0  0  0
    1.8029   -2.9898    0.0000 C   0  0  0  0  0  0  0  0  0
    1.1981   -3.5510    0.0000 C   0  0  0  0  0  0  0  0  0
    0.4098   -3.3078    0.0000 C   0  0  0  0  0  0  0  0  0
    3.8942   -3.5510    0.0000 C   0  0  0  0  0  0  0  0  0
    4.6826   -3.3078    0.0000 C   0  0  0  0  0  0  0  0  0
    4.8662   -2.5035    0.0000 C   0  0  0  0  0  0  0  0  0
    4.2614   -1.9424    0.0000 C   0  0  0  0  0  0  0  0  0
  1  2  1  0  0  0  0
  2  3  4  0  0  0  0
  2 19  4  0  0  0  0
  3  4  4  0  0  0  0
  4  5  1  0  0  0  0
  4 17  4  0  0  0  0
  5  6  1  0  0  0  0
  6  7  1  0  0  0  0
  6 14  2  0  0  0  0
  7  8  1  0  0  0  0
  7 12  1  0  0  0  0
  8  9  1  0  0  0  0
  9 10  1  0  0  0  0
 10 11  1  0  0  0  0
 10 13  1  0  0  0  0
 11 12  1  0  0  0  0
 14 15  1  0  0  0  0
 14 23  1  0  0  0  0
 15 16  2  0  0  0  0
 15 20  1  0  0  0  0
 16 17  1  0  0  0  0
 17 18  4  0  0  0  0
 18 19  4  0  0  0  0
 20 21  2  0  0  0  0
 21 22  1  0  0  0  0
 22 23  2  0  0  0  0
M  END
>  <Name_Molregno>
CLOZAPINE

>  <5-HT1A>
6.88

>  <5-HT1B>
6.33

>  <5-HT1D>
6.27

>  <5-HT1E>
6.19

>  <5-HT2A>
8.22

>  <5-HT2C>
8

>  <5-HT3>
6.62

>  <5-HT5>
5.41

>  <5-HT6>
7.9

>  <5-HT7>
8.05

>  <Alpha-1A>
8.8

>  <Alpha-1B>
8.15

>  <Alpha-2A>
7.15

>  <Alpha-2B>
7.61

>  <Alpha-2C>
7.88

>  <Beta-1>
5.15

>  <Beta-2>
5.39

>  <DOPAMINE D1>
6.69

>  <DOPAMINE D2>
6.9

>  <DOPAMINE D3>
6.62

>  <DOPAMINE D4>
7.62

>  <DOPAMINE D5>
6.62

>  <Dopamine transporter>
5

>  <HISTAMINE H1>
8.81

>  <HISTAMINE H2>
6.82

>  <HISTAMINE H3>
5.25

>  <HISTAMINE H4>
6.15

>  <Muscarinic acetylcholine receptor M1>
8.26

>  <Muscarinic acetylcholine receptor M2>
7.17

>  <Muscarinic acetylcholine receptor M3>
7.59

>  <Muscarinic acetylcholine receptor M4>
7.85

>  <Muscarinic acetylcholine receptor M5>
7.79

>  <Norepinephrine transporter>
5.5

>  <Serotonin transporter>
5.73

$$$$
CLOZAPINE-2
  Marvin  02231216192D 0   1.00000     0.00000     0

 23 26  0  0  0  0  0  0  0  0999 V2000
   -0.5622   -2.2603    0.0000 Cl  0  0  0  0  0  0  0  0  0
    0.2262   -2.5035    0.0000 C   0  0  0  0  0  0  0  0  0
    0.8309   -1.9424    0.0000 C   0  0  0  0  0  0  0  0  0
    1.6193   -2.1855    0.0000 C   0  0  0  0  0  0  0  0  0
    2.1337   -1.5405    0.0000 N   0  0  0  0  0  0  0  0  0
    2.9587   -1.5405    0.0000 C   0  0  0  0  0  0  0  0  0
    3.3166   -0.7972    0.0000 N   0  0  0  0  0  0  0  0  0
    2.8519   -0.1156    0.0000 C   0  0  0  0  0  0  0  0  0
    3.2098    0.6277    0.0000 C   0  0  0  0  0  0  0  0  0
    4.0325    0.6894    0.0000 N   0  0  0  0  0  0  0  0  0
    4.4973    0.0077    0.0000 C   0  0  0  0  0  0  0  0  0
    4.1393   -0.7356    0.0000 C   0  0  0  0  0  0  0  0  0
    4.3905    1.4327    0.0000 C   0  0  0  0  0  0  0  0  0
    3.4730   -2.1855    0.0000 C   0  0  0  0  0  0  0  0  0
    3.2895   -2.9898    0.0000 C   0  0  0  0  0  0  0  0  0
    2.5462   -3.3478    0.0000 N   0  0  0  0  0  0  0  0  0
    1.8029   -2.9898    0.0000 C   0  0  0  0  0  0  0  0  0
    1.1981   -3.5510    0.0000 C   0  0  0  0  0  0  0  0  0
    0.4098   -3.3078    0.0000 C   0  0  0  0  0  0  0  0  0
    3.8942   -3.5510    0.0000 C   0  0  0  0  0  0  0  0  0
    4.6826   -3.3078    0.0000 C   0  0  0  0  0  0  0  0  0
    4.8662   -2.5035    0.0000 C   0  0  0  0  0  0  0  0  0
    4.2614   -1.9424    0.0000 C   0  0  0  0  0  0  0  0  0
  1  2  1  0  0  0  0
  2  3  4  0  0  0  0
  2 19  4  0  0  0  0
  3  4  4  0  0  0  0
  4  5  1  0  0  0  0
  4 17  4  0  0  0  0
  5  6  2  0  0  0  0
  6  7  1  0  0  0  0
  6 14  1  0  0  0  0
  7  8  1  0  0  0  0
  7 12  1  0  0  0  0
  8  9  1  0  0  0  0
  9 10  1  0  0  0  0
 10 11  1  0  0  0  0
 10 13  1  0  0  0  0
 11 12  1  0  0  0  0
 14 15  4  0  0  0  0
 14 23  4  0  0  0  0
 15 16  1  0  0  0  0
 15 20  4  0  0  0  0
 16 17  1  0  0  0  0
 17 18  4  0  0  0  0
 18 19  4  0  0  0  0
 20 21  4  0  0  0  0
 21 22  4  0  0  0  0
 22 23  4  0  0  0  0
M  END
>  <Name_Molregno>
CLOZAPINE-2

>  <5-HT1A>
6.92

>  <5-HT2A>
8.15

>  <5-HT2C>
7.92

>  <5-HT3>
6.4

>  <5-HT5>
6

>  <5-HT6>
7.85

>  <5-HT7>
7.47

>  <Alpha-2A>
7.62

>  <Alpha-2C>
8.54

>  <DOPAMINE D1>
7

>  <DOPAMINE D2>
7.03

>  <DOPAMINE D3>
6.48

>  <DOPAMINE D4>
7.6

>  <DOPAMINE D5>
6.7

>  <HISTAMINE H1>
8.77

>  <HISTAMINE H3>
6.1

>  <HISTAMINE H4>
6.75

>  <Muscarinic acetylcholine receptor M1>
8.47

>  <Muscarinic acetylcholine receptor M4>
7.9

>  <Serotonin transporter>
5.41

$$$$
Cyamemazine
  Marvin  02231216192D 0   1.00000     0.00000     0

 23 25  0  0  1  0  0  0  0  0999 V2000
   -0.6214   -0.6088    0.0000 S   0  0  0  0  0  0  0  0  0
   -0.6214   -1.4338    0.0000 C   0  0  0  0  0  0  0  0  0
    0.0931   -1.8463    0.0000 C   0  0  0  0  0  0  0  0  0
    0.8076   -1.4338    0.0000 N   0  0  0  0  0  0  0  0  0
    0.8076   -0.6088    0.0000 C   0  0  0  0  0  0  0  0  0
    0.0931   -0.1963    0.0000 C   0  0  0  0  0  0  0  0  0
    0.0931    0.6287    0.0000 C   0  0  0  0  0  0  0  0  0
    0.8076    1.0412    0.0000 C   0  0  0  0  0  0  0  0  0
    1.5220    0.6287    0.0000 C   0  0  0  0  0  0  0  0  0
    1.5220   -0.1963    0.0000 C   0  0  0  0  0  0  0  0  0
    1.5220   -1.8463    0.0000 C   0  0  0  0  0  0  0  0  0
    2.2365   -1.4338    0.0000 C   0  0  0  0  0  0  0  0  0
    2.9510   -1.8463    0.0000 C   0  0  0  0  0  0  0  0  0
    3.6655   -1.4338    0.0000 N   0  0  0  0  0  0  0  0  0
    4.3799   -1.8463    0.0000 C   0  0  0  0  0  0  0  0  0
    3.6655   -0.6088    0.0000 C   0  0  0  0  0  0  0  0  0
    2.2365   -0.6088    0.0000 C   0  0  0  0  0  0  0  0  0
    0.0931   -2.6713    0.0000 C   0  0  0  0  0  0  0  0  0
   -0.6214   -3.0838    0.0000 C   0  0  0  0  0  0  0  0  0
   -1.3358   -2.6713    0.0000 C   0  0  0  0  0  0  0  0  0
   -1.3358   -1.8463    0.0000 C   0  0  0  0  0  0  0  0  0
   -0.6214   -3.9088    0.0000 C   0  0  0  0  0  0  0  0  0
   -0.6214   -4.7338    0.0000 N   0  0  0  0  0  0  0  0  0
  1  2  1  0  0  0  0
  1  6  1  0  0  0  0
  2  3  4  0  0  0  0
  2 21  4  0  0  0  0
  3  4  1  0  0  0  0
  3 18  4  0  0  0  0
  4  5  1  0  0  0  0
  4 11  1  0  0  0  0
  5  6  4  0  0  0  0
  5 10  4  0  0  0  0
  6  7  4  0  0  0  0
  7  8  4  0  0  0  0
  8  9  4  0  0  0  0
  9 10  4  0  0  0  0
 11 12  1  0  0  0  0
 12 13  1  0  0  0  0
 12 17  1  0  0  0  0
 13 14  1  0  0  0  0
 14 15  1  0  0  0  0
 14 16  1  0  0  0  0
 18 19  4  0  0  0  0
 19 20  4  0  0  0  0
 19 22  1  0  0  0  0
 20 21  4  0  0  0  0
 22 23  3  0  0  0  0
M  END
>  <Name_Molregno>
Cyamemazine

>  <5-HT1A>
6.29

>  <5-HT2A>
8.82

>  <5-HT2C>
7.92

>  <5-HT3>
5.53

>  <5-HT7>
7.66

>  <DOPAMINE D1>
8.42

>  <DOPAMINE D2>
8.24

>  <DOPAMINE D3>
8.6

>  <DOPAMINE D4>
8.28

>  <Muscarinic acetylcholine receptor M1>
7.89

>  <Muscarinic acetylcholine receptor M2>
7.38

>  <Muscarinic acetylcholine receptor M3>
7.49

>  <Muscarinic acetylcholine receptor M4>
7.92

>  <Muscarinic acetylcholine receptor M5>
7.46

$$$$
CYPROHEPTADINE
  Marvin  02231216192D 0   1.00000     0.00000     0

 22 25  0  0  0  0  0  0  0  0999 V2000
    2.3061   -2.3673    0.0000 N   0  0  0  0  0  0  0  0  0
    1.5917   -1.9548    0.0000 C   0  0  0  0  0  0  0  0  0
    1.5917   -1.1298    0.0000 C   0  0  0  0  0  0  0  0  0
    2.3061   -0.7173    0.0000 C   0  0  0  0  0  0  0  0  0
    3.0206   -1.1298    0.0000 C   0  0  0  0  0  0  0  0  0
    3.0206   -1.9548    0.0000 C   0  0  0  0  0  0  0  0  0
    2.3061    0.1077    0.0000 C   0  0  0  0  0  0  0  0  0
    3.0494    0.4657    0.0000 C   0  0  0  0  0  0  0  0  0
    3.2330    1.2700    0.0000 C   0  0  0  0  0  0  0  0  0
    2.7186    1.9150    0.0000 C   0  0  0  0  0  0  0  0  0
    1.8936    1.9150    0.0000 C   0  0  0  0  0  0  0  0  0
    1.3792    1.2700    0.0000 C   0  0  0  0  0  0  0  0  0
    1.5628    0.4657    0.0000 C   0  0  0  0  0  0  0  0  0
    0.9581   -0.0955    0.0000 C   0  0  0  0  0  0  0  0  0
    0.1697    0.1477    0.0000 C   0  0  0  0  0  0  0  0  0
   -0.0139    0.9520    0.0000 C   0  0  0  0  0  0  0  0  0
    0.5909    1.5132    0.0000 C   0  0  0  0  0  0  0  0  0
    4.0214    1.5132    0.0000 C   0  0  0  0  0  0  0  0  0
    4.6261    0.9520    0.0000 C   0  0  0  0  0  0  0  0  0
    4.4425    0.1477    0.0000 C   0  0  0  0  0  0  0  0  0
    3.6542   -0.0955    0.0000 C   0  0  0  0  0  0  0  0  0
    2.3061   -3.1923    0.0000 C   0  0  0  0  0  0  0  0  0
  1  2  1  0  0  0  0
  1  6  1  0  0  0  0
  1 22  1  0  0  0  0
  2  3  1  0  0  0  0
  3  4  1  0  0  0  0
  4  5  1  0  0  0  0
  4  7  2  0  0  0  0
  5  6  1  0  0  0  0
  7  8  1  0  0  0  0
  7 13  1  0  0  0  0
  8  9  4  0  0  0  0
  8 21  4  0  0  0  0
  9 10  1  0  0  0  0
  9 18  4  0  0  0  0
 10 11  2  0  0  0  0
 11 12  1  0  0  0  0
 12 13  4  0  0  0  0
 12 17  4  0  0  0  0
 13 14  4  0  0  0  0
 14 15  4  0  0  0  0
 15 16  4  0  0  0  0
 16 17  4  0  0  0  0
 18 19  4  0  0  0  0
 19 20  4  0  0  0  0
 20 21  4  0  0  0  0
M  END
>  <Name_Molregno>
CYPROHEPTADINE

>  <5-HT1A>
7.12

>  <5-HT1D>
5.89

>  <5-HT2A>
8.42

>  <5-HT2C>
8.65

>  <5-HT6>
6.85

>  <5-HT7>
6.91

>  <DOPAMINE D1>
6.93

>  <DOPAMINE D2>
6.95

>  <DOPAMINE D3>
8.1

>  <HISTAMINE H1>
10.22

>  <HISTAMINE H3>
5

>  <HISTAMINE H4>
5.85

>  <Muscarinic acetylcholine receptor M1>
7.92

>  <Muscarinic acetylcholine receptor M2>
8.15

>  <Muscarinic acetylcholine receptor M3>
7.92

>  <Muscarinic acetylcholine receptor M4>
8.1

>  <Muscarinic acetylcholine receptor M5>
7.93

$$$$
D-cystine
  Marvin  02231216192D 0   1.00000     0.00000     0

 14 13  0  0  1  0  0  0  0  0999 V2000
    0.5597    0.5534    0.0000 S   0  0  0  0  0  0  0  0  0
   -0.1548    0.1409    0.0000 S   0  0  0  0  0  0  0  0  0
   -0.8693    0.5534    0.0000 C   0  0  0  0  0  0  0  0  0
   -1.5838    0.1409    0.0000 C   0  0  0  0  0  0  0  0  0
   -1.5838   -0.6841    0.0000 N   0  0  0  0  0  0  0  0  0
   -2.2982    0.5534    0.0000 C   0  0  0  0  0  0  0  0  0
   -3.0127    0.1409    0.0000 O   0  0  0  0  0  0  0  0  0
   -2.2982    1.3784    0.0000 O   0  0  0  0  0  0  0  0  0
    1.2741    0.1409    0.0000 C   0  0  0  0  0  0  0  0  0
    1.9886    0.5534    0.0000 C   0  0  0  0  0  0  0  0  0
    1.9886    1.3784    0.0000 N   0  0  0  0  0  0  0  0  0
    2.7031    0.1409    0.0000 C   0  0  0  0  0  0  0  0  0
    3.4175    0.5534    0.0000 O   0  0  0  0  0  0  0  0  0
    2.7031   -0.6841    0.0000 O   0  0  0  0  0  0  0  0  0
  1  2  1  0  0  0  0
  1  9  1  0  0  0  0
  2  3  1  0  0  0  0
  3  4  1  0  0  0  0
  4  5  1  0  0  0  0
  4  6  1  0  0  0  0
  6  7  1  0  0  0  0
  6  8  2  0  0  0  0
  9 10  1  0  0  0  0
 10 11  1  0  0  0  0
 10 12  1  0  0  0  0
 12 13  1  0  0  0  0
 12 14  2  0  0  0  0
M  END
>  <Name_Molregno>
D-cystine

>  <5-HT1A>
5

>  <5-HT1B>
5

>  <5-HT1D>
5

>  <5-HT3>
5

>  <5-HT5>
5

>  <5-HT6>
5

>  <5-HT7>
5

>  <Alpha-1A>
5

>  <Alpha-1B>
5

>  <Alpha-2A>
5

>  <Alpha-2B>
5

>  <Alpha-2C>
5

>  <DOPAMINE D1>
5

>  <DOPAMINE D2>
5

>  <DOPAMINE D3>
5

>  <DOPAMINE D5>
5

>  <Dopamine transporter>
5

>  <HISTAMINE H1>
5

>  <HISTAMINE H2>
5

>  <HISTAMINE H4>
5

>  <Muscarinic acetylcholine receptor M1>
5

>  <Muscarinic acetylcholine receptor M2>
5

>  <Muscarinic acetylcholine receptor M3>
5

>  <Muscarinic acetylcholine receptor M4>
5

>  <Muscarinic acetylcholine receptor M5>
5

>  <Norepinephrine transporter>
5

>  <Serotonin transporter>
5

$$$$
DEPRENYL
  Marvin  02231216192D 0   1.00000     0.00000     0

 14 14  0  0  1  0  0  0  0  0999 V2000
    2.2691    0.2045    0.0000 N   0  0  0  0  0  0  0  0  0
    1.5546   -0.2080    0.0000 C   0  0  0  0  0  0  0  0  0
    0.8401    0.2045    0.0000 C   0  0  0  0  0  0  0  0  0
    0.1256   -0.2080    0.0000 C   0  0  0  0  0  0  0  0  0
    0.1256   -1.0330    0.0000 C   0  0  0  0  0  0  0  0  0
   -0.5888   -1.4455    0.0000 C   0  0  0  0  0  0  0  0  0
   -1.3033   -1.0330    0.0000 C   0  0  0  0  0  0  0  0  0
   -1.3033   -0.2080    0.0000 C   0  0  0  0  0  0  0  0  0
   -0.5888    0.2045    0.0000 C   0  0  0  0  0  0  0  0  0
    1.5546   -1.0330    0.0000 C   0  0  0  0  0  0  0  0  0
    2.9835   -0.2080    0.0000 C   0  0  0  0  0  0  0  0  0
    3.6980    0.2045    0.0000 C   0  0  0  0  0  0  0  0  0
    4.4125    0.6170    0.0000 C   0  0  0  0  0  0  0  0  0
    2.2691    1.0295    0.0000 C   0  0  0  0  0  0  0  0  0
  1  2  1  0  0  0  0
  1 11  1  0  0  0  0
  1 14  1  0  0  0  0
  2  3  1  0  0  0  0
  2 10  1  0  0  0  0
  3  4  1  0  0  0  0
  4  5  4  0  0  0  0
  4  9  4  0  0  0  0
  5  6  4  0  0  0  0
  6  7  4  0  0  0  0
  7  8  4  0  0  0  0
  8  9  4  0  0  0  0
 11 12  1  0  0  0  0
 12 13  3  0  0  0  0
M  END
>  <Name_Molregno>
DEPRENYL

>  <5-HT1A>
5

>  <DOPAMINE D1>
5

>  <DOPAMINE D2>
5

$$$$
DESIPRAMINE
  Marvin  02231216192D 0   1.00000     0.00000     0

 20 22  0  0  0  0  0  0  0  0999 V2000
   -0.0715   -0.0141    0.0000 N   0  0  0  0  0  0  0  0  0
    0.6430   -0.4266    0.0000 C   0  0  0  0  0  0  0  0  0
    1.3575   -0.0141    0.0000 C   0  0  0  0  0  0  0  0  0
    2.0719   -0.4266    0.0000 C   0  0  0  0  0  0  0  0  0
    2.7864   -0.0141    0.0000 N   0  0  0  0  0  0  0  0  0
    2.7248    0.8086    0.0000 C   0  0  0  0  0  0  0  0  0
    3.3295    1.3697    0.0000 C   0  0  0  0  0  0  0  0  0
    4.1453    1.2468    0.0000 C   0  0  0  0  0  0  0  0  0
    4.5578    0.5323    0.0000 C   0  0  0  0  0  0  0  0  0
    4.2564   -0.2357    0.0000 C   0  0  0  0  0  0  0  0  0
    3.4680   -0.4788    0.0000 C   0  0  0  0  0  0  0  0  0
    3.2845   -1.2831    0.0000 C   0  0  0  0  0  0  0  0  0
    3.8892   -1.8443    0.0000 C   0  0  0  0  0  0  0  0  0
    4.6776   -1.6011    0.0000 C   0  0  0  0  0  0  0  0  0
    4.8612   -0.7968    0.0000 C   0  0  0  0  0  0  0  0  0
    3.1459    2.1741    0.0000 C   0  0  0  0  0  0  0  0  0
    2.3576    2.4172    0.0000 C   0  0  0  0  0  0  0  0  0
    1.7528    1.8561    0.0000 C   0  0  0  0  0  0  0  0  0
    1.9364    1.0518    0.0000 C   0  0  0  0  0  0  0  0  0
   -0.7860   -0.4266    0.0000 C   0  0  0  0  0  0  0  0  0
  1  2  1  0  0  0  0
  1 20  1  0  0  0  0
  2  3  1  0  0  0  0
  3  4  1  0  0  0  0
  4  5  1  0  0  0  0
  5  6  1  0  0  0  0
  5 11  1  0  0  0  0
  6  7  4  0  0  0  0
  6 19  4  0  0  0  0
  7  8  1  0  0  0  0
  7 16  4  0  0  0  0
  8  9  1  0  0  0  0
  9 10  1  0  0  0  0
 10 11  4  0  0  0  0
 10 15  4  0  0  0  0
 11 12  4  0  0  0  0
 12 13  4  0  0  0  0
 13 14  4  0  0  0  0
 14 15  4  0  0  0  0
 16 17  4  0  0  0  0
 17 18  4  0  0  0  0
 18 19  4  0  0  0  0
M  END
>  <Name_Molregno>
DESIPRAMINE

>  <5-HT1A>
5.1

>  <DOPAMINE D1>
5.26

>  <DOPAMINE D2>
5.63

>  <Dopamine transporter>
5.17

>  <HISTAMINE H1>
7.16

>  <Muscarinic acetylcholine receptor M1>
6.96

>  <Muscarinic acetylcholine receptor M2>
6.27

>  <Muscarinic acetylcholine receptor M3>
6.68

>  <Muscarinic acetylcholine receptor M4>
6.8

>  <Muscarinic acetylcholine receptor M5>
6.84

>  <Norepinephrine transporter>
8.66

>  <Serotonin transporter>
7.14

$$$$
Desmethylsertraline
  Marvin  02231216192D 0   1.00000     0.00000     0

 19 21  0  0  1  0  0  0  0  0999 V2000
    3.6862    2.6089    0.0000 Cl  0  0  0  0  0  0  0  0  0
    2.9717    2.1964    0.0000 C   0  0  0  0  0  0  0  0  0
    2.9717    1.3714    0.0000 C   0  0  0  0  0  0  0  0  0
    2.2572    0.9589    0.0000 C   0  0  0  0  0  0  0  0  0
    1.5428    1.3714    0.0000 C   0  0  0  0  0  0  0  0  0
    1.5428    2.1964    0.0000 C   0  0  0  0  0  0  0  0  0
    2.2572    2.6089    0.0000 C   0  0  0  0  0  0  0  0  0
    2.2572    3.4339    0.0000 Cl  0  0  0  0  0  0  0  0  0
    2.2572    0.1339    0.0000 C   0  0  0  0  0  0  0  0  0
    1.5428   -0.2786    0.0000 C   0  0  0  0  0  0  0  0  0
    1.5428   -1.1036    0.0000 C   0  0  0  0  0  0  0  0  0
    2.2572   -1.5161    0.0000 C   0  0  0  0  0  0  0  0  0
    2.2572   -2.3411    0.0000 N   0  0  0  0  0  0  0  0  0
    2.9717   -1.1036    0.0000 C   0  0  0  0  0  0  0  0  0
    2.9717   -0.2786    0.0000 C   0  0  0  0  0  0  0  0  0
    3.6862    0.1339    0.0000 C   0  0  0  0  0  0  0  0  0
    4.4007   -0.2786    0.0000 C   0  0  0  0  0  0  0  0  0
    4.4007   -1.1036    0.0000 C   0  0  0  0  0  0  0  0  0
    3.6862   -1.5161    0.0000 C   0  0  0  0  0  0  0  0  0
  1  2  1  0  0  0  0
  2  3  4  0  0  0  0
  2  7  4  0  0  0  0
  3  4  4  0  0  0  0
  4  5  4  0  0  0  0
  4  9  1  0  0  0  0
  5  6  4  0  0  0  0
  6  7  4  0  0  0  0
  7  8  1  0  0  0  0
  9 10  1  0  0  0  0
  9 15  1  0  0  0  0
 10 11  1  0  0  0  0
 11 12  1  0  0  0  0
 12 13  1  0  0  0  0
 12 14  1  0  0  0  0
 14 15  4  0  0  0  0
 14 19  4  0  0  0  0
 15 16  4  0  0  0  0
 16 17  4  0  0  0  0
 17 18  4  0  0  0  0
 18 19  4  0  0  0  0
M  END
>  <Name_Molregno>
Desmethylsertraline

>  <5-HT1A>
5

>  <DOPAMINE D2>
5

>  <Dopamine transporter>
6.89

>  <HISTAMINE H1>
5.05

>  <Muscarinic acetylcholine receptor M1>
5.78

>  <Muscarinic acetylcholine receptor M2>
5.48

>  <Muscarinic acetylcholine receptor M3>
5.46

>  <Muscarinic acetylcholine receptor M4>
5.51

>  <Muscarinic acetylcholine receptor M5>
5.42

>  <Norepinephrine transporter>
6.04

>  <Serotonin transporter>
7.89

$$$$
d-Fenfluramine
  Marvin  02231216192D 0   1.00000     0.00000     0

 16 16  0  0  1  0  0  0  0  0999 V2000
   -5.1694    0.5172    0.0000 F   0  0  0  0  0  0  0  0  0
   -4.4549    0.1047    0.0000 C   0  0  0  0  0  0  0  0  0
   -4.8674   -0.6097    0.0000 F   0  0  0  0  0  0  0  0  0
   -4.0424    0.8192    0.0000 F   0  0  0  0  0  0  0  0  0
   -3.7405   -0.3078    0.0000 C   0  0  0  0  0  0  0  0  0
   -3.0260    0.1047    0.0000 C   0  0  0  0  0  0  0  0  0
   -2.3115   -0.3078    0.0000 C   0  0  0  0  0  0  0  0  0
   -2.3115   -1.1328    0.0000 C   0  0  0  0  0  0  0  0  0
   -3.0260   -1.5453    0.0000 C   0  0  0  0  0  0  0  0  0
   -3.7405   -1.1328    0.0000 C   0  0  0  0  0  0  0  0  0
   -1.5971    0.1047    0.0000 C   0  0  0  0  0  0  0  0  0
   -0.8826   -0.3078    0.0000 C   0  0  0  0  0  0  0  0  0
   -0.1681    0.1047    0.0000 N   0  0  0  0  0  0  0  0  0
    0.5464   -0.3078    0.0000 C   0  0  0  0  0  0  0  0  0
    1.2608    0.1047    0.0000 C   0  0  0  0  0  0  0  0  0
   -0.8826   -1.1328    0.0000 C   0  0  0  0  0  0  0  0  0
  1  2  1  0  0  0  0
  2  3  1  0  0  0  0
  2  4  1  0  0  0  0
  2  5  1  0  0  0  0
  5  6  4  0  0  0  0
  5 10  4  0  0  0  0
  6  7  4  0  0  0  0
  7  8  4  0  0  0  0
  7 11  1  0  0  0  0
  8  9  4  0  0  0  0
  9 10  4  0  0  0  0
 11 12  1  0  0  0  0
 12 13  1  0  0  0  0
 12 16  1  0  0  0  0
 13 14  1  0  0  0  0
 14 15  1  0  0  0  0
M  END
>  <Name_Molregno>
d-Fenfluramine

>  <5-HT1A>
6.11

>  <5-HT1B>
5.67

>  <5-HT1D>
5.79

>  <5-HT1E>
5

>  <5-HT2A>
5.92

>  <5-HT2C>
6.27

>  <5-HT3>
5

>  <5-HT5>
5

>  <5-HT6>
5.01

>  <5-HT7>
5.17

>  <Alpha-1A>
5.52

>  <Alpha-1B>
5.62

>  <Alpha-2A>
6.26

>  <Alpha-2B>
6.65

>  <Alpha-2C>
6.68

>  <Beta-1>
5.67

>  <Beta-2>
5.07

>  <DOPAMINE D1>
5

>  <DOPAMINE D2>
5

>  <DOPAMINE D4>
5

>  <DOPAMINE D5>
5

>  <Dopamine transporter>
5

>  <HISTAMINE H1>
5

>  <HISTAMINE H2>
5

>  <Muscarinic acetylcholine receptor M1>
5.61

>  <Muscarinic acetylcholine receptor M2>
5.39

>  <Muscarinic acetylcholine receptor M3>
5.22

>  <Muscarinic acetylcholine receptor M4>
5.1

>  <Muscarinic acetylcholine receptor M5>
5

>  <Norepinephrine transporter>
5

>  <Serotonin transporter>
6.18

$$$$
DHE
  Marvin  02231216192D 0   1.00000     0.00000     0

 43 50  0  0  1  0  0  0  0  0999 V2000
   -2.1239   -1.0172    0.0000 O   0  0  0  0  0  0  0  0  0
   -1.3035   -1.1045    0.0000 C   0  0  0  0  0  0  0  0  0
   -1.3025   -0.2795    0.0000 N   0  0  0  0  0  0  0  0  0
   -0.5876    0.1322    0.0000 C   0  0  0  0  0  0  0  0  0
    0.1264   -0.2812    0.0000 O   0  0  0  0  0  0  0  0  0
   -0.5866    0.9572    0.0000 C   0  0  0  0  0  0  0  0  0
    0.1284    1.3688    0.0000 C   0  0  0  0  0  0  0  0  0
    0.1294    2.1938    0.0000 C   0  0  0  0  0  0  0  0  0
   -0.5846    2.6072    0.0000 C   0  0  0  0  0  0  0  0  0
   -1.2996    2.1955    0.0000 N   0  0  0  0  0  0  0  0  0
   -1.3006    1.3705    0.0000 C   0  0  0  0  0  0  0  0  0
   -2.0136    2.6089    0.0000 C   0  0  0  0  0  0  0  0  0
   -0.5831    3.4313    0.0000 C   0  0  0  0  0  0  0  0  0
    0.1294    3.8438    0.0000 C   0  0  0  0  0  0  0  0  0
    0.8419    3.4313    0.0000 C   0  0  0  0  0  0  0  0  0
    0.8419    2.6063    0.0000 C   0  0  0  0  0  0  0  0  0
    1.5597    2.1938    0.0000 C   0  0  0  0  0  0  0  0  0
    2.2722    2.6063    0.0000 C   0  0  0  0  0  0  0  0  0
    2.2722    3.4313    0.0000 C   0  0  0  0  0  0  0  0  0
    1.5597    3.8438    0.0000 C   0  0  0  0  0  0  0  0  0
    1.2544    4.7010    0.0000 N   0  0  0  0  0  0  0  0  0
    0.4294    4.7010    0.0000 C   0  0  0  0  0  0  0  0  0
   -0.4830   -1.0192    0.0000 C   0  0  0  0  0  0  0  0  0
   -1.1330   -1.9116    0.0000 C   0  0  0  0  0  0  0  0  0
   -0.3797   -2.2481    0.0000 O   0  0  0  0  0  0  0  0  0
   -1.8479   -2.3233    0.0000 N   0  0  0  0  0  0  0  0  0
   -2.0204   -3.1301    0.0000 C   0  0  0  0  0  0  0  0  0
   -1.4080   -3.6828    0.0000 C   0  0  0  0  0  0  0  0  0
   -1.5805   -4.4896    0.0000 C   0  0  0  0  0  0  0  0  0
   -0.9681   -5.0424    0.0000 C   0  0  0  0  0  0  0  0  0
   -1.1406   -5.8491    0.0000 C   0  0  0  0  0  0  0  0  0
   -1.9255   -6.1031    0.0000 C   0  0  0  0  0  0  0  0  0
   -2.5379   -5.5504    0.0000 C   0  0  0  0  0  0  0  0  0
   -2.3654   -4.7436    0.0000 C   0  0  0  0  0  0  0  0  0
   -2.8054   -3.3841    0.0000 C   0  0  0  0  0  0  0  0  0
   -2.9779   -4.1908    0.0000 O   0  0  0  0  0  0  0  0  0
   -3.4178   -2.8313    0.0000 N   0  0  0  0  0  0  0  0  0
   -3.2453   -2.0245    0.0000 C   0  0  0  0  0  0  0  0  0
   -3.9593   -1.6112    0.0000 C   0  0  0  0  0  0  0  0  0
   -4.5730   -2.1625    0.0000 C   0  0  0  0  0  0  0  0  0
   -4.2384   -2.9165    0.0000 C   0  0  0  0  0  0  0  0  0
   -2.4604   -1.7705    0.0000 C   0  0  0  0  0  0  0  0  0
   -3.0117   -1.1568    0.0000 O   0  0  0  0  0  0  0  0  0
  1  2  1  0  0  0  0
  1 42  1  0  0  0  0
  2  3  1  0  0  0  0
  2 23  1  0  0  0  0
  2 24  1  0  0  0  0
  3  4  1  0  0  0  0
  4  5  2  0  0  0  0
  4  6  1  0  0  0  0
  6  7  1  0  0  0  0
  6 11  1  0  0  0  0
  7  8  1  0  0  0  0
  8  9  1  0  0  0  0
  8 16  1  0  0  0  0
  9 10  1  0  0  0  0
  9 13  1  0  0  0  0
 10 11  1  0  0  0  0
 10 12  1  0  0  0  0
 13 14  1  0  0  0  0
 14 15  4  0  0  0  0
 14 22  4  0  0  0  0
 15 16  4  0  0  0  0
 15 20  4  0  0  0  0
 16 17  4  0  0  0  0
 17 18  4  0  0  0  0
 18 19  4  0  0  0  0
 19 20  4  0  0  0  0
 20 21  4  0  0  0  0
 21 22  4  0  0  0  0
 24 25  2  0  0  0  0
 24 26  1  0  0  0  0
 26 27  1  0  0  0  0
 26 42  1  0  0  0  0
 27 28  1  0  0  0  0
 27 35  1  0  0  0  0
 28 29  1  0  0  0  0
 29 30  4  0  0  0  0
 29 34  4  0  0  0  0
 30 31  4  0  0  0  0
 31 32  4  0  0  0  0
 32 33  4  0  0  0  0
 33 34  4  0  0  0  0
 35 36  2  0  0  0  0
 35 37  1  0  0  0  0
 37 38  1  0  0  0  0
 37 41  1  0  0  0  0
 38 39  1  0  0  0  0
 38 42  1  0  0  0  0
 39 40  1  0  0  0  0
 40 41  1  0  0  0  0
 42 43  1  0  0  0  0
M  STY  1   1 DAT
M  SAL   1  1  21
M  SDT   1 MRV_IMPLICIT_H                                        
M  SDD   1     0.0000    0.0000    DR    ALL  0       0  
M  SED   1 IMPL_H1
M  END
>  <Name_Molregno>
DHE

>  <5-HT1A>
8.82

>  <5-HT1B>
9.62

>  <5-HT1D>
9.89

>  <5-HT6>
8.27

>  <5-HT7>
8.04

>  <DOPAMINE D1>
5.56

>  <DOPAMINE D2>
8.3

>  <DOPAMINE D3>
7.8

$$$$
Diclofenac
  Marvin  02231216192D 0   1.00000     0.00000     0

 19 20  0  0  0  0  0  0  0  0999 V2000
    1.8639   -0.1839    0.0000 Cl  0  0  0  0  0  0  0  0  0
    1.8639   -1.0089    0.0000 C   0  0  0  0  0  0  0  0  0
    2.5784   -1.4214    0.0000 C   0  0  0  0  0  0  0  0  0
    2.5784   -2.2464    0.0000 C   0  0  0  0  0  0  0  0  0
    1.8639   -2.6589    0.0000 C   0  0  0  0  0  0  0  0  0
    1.1494   -2.2464    0.0000 C   0  0  0  0  0  0  0  0  0
    0.4350   -2.6589    0.0000 Cl  0  0  0  0  0  0  0  0  0
    1.1494   -1.4214    0.0000 C   0  0  0  0  0  0  0  0  0
    0.4350   -1.0089    0.0000 N   0  0  0  0  0  0  0  0  0
   -0.2795   -1.4214    0.0000 C   0  0  0  0  0  0  0  0  0
   -0.2795   -2.2464    0.0000 C   0  0  0  0  0  0  0  0  0
   -0.9940   -2.6589    0.0000 C   0  0  0  0  0  0  0  0  0
   -1.7085   -2.2464    0.0000 C   0  0  0  0  0  0  0  0  0
   -1.7085   -1.4214    0.0000 C   0  0  0  0  0  0  0  0  0
   -0.9940   -1.0089    0.0000 C   0  0  0  0  0  0  0  0  0
   -0.9940   -0.1839    0.0000 C   0  0  0  0  0  0  0  0  0
   -0.2795    0.2286    0.0000 C   0  0  0  0  0  0  0  0  0
   -0.2795    1.0536    0.0000 O   0  0  0  0  0  0  0  0  0
    0.4350   -0.1839    0.0000 O   0  0  0  0  0  0  0  0  0
  1  2  1  0  0  0  0
  2  3  4  0  0  0  0
  2  8  4  0  0  0  0
  3  4  4  0  0  0  0
  4  5  4  0  0  0  0
  5  6  4  0  0  0  0
  6  7  1  0  0  0  0
  6  8  4  0  0  0  0
  8  9  1  0  0  0  0
  9 10  1  0  0  0  0
 10 11  4  0  0  0  0
 10 15  4  0  0  0  0
 11 12  4  0  0  0  0
 12 13  4  0  0  0  0
 13 14  4  0  0  0  0
 14 15  4  0  0  0  0
 15 16  1  0  0  0  0
 16 17  1  0  0  0  0
 17 18  1  0  0  0  0
 17 19  2  0  0  0  0
M  END
>  <Name_Molregno>
Diclofenac

>  <5-HT1A>
5

>  <5-HT1B>
5

>  <5-HT1D>
5

>  <5-HT1E>
5

>  <5-HT2A>
5

>  <5-HT3>
5

>  <5-HT5>
5

>  <5-HT6>
5

>  <5-HT7>
5

>  <Alpha-1A>
5

>  <Alpha-1B>
5

>  <Alpha-2A>
5

>  <Alpha-2B>
5

>  <Alpha-2C>
5

>  <DOPAMINE D1>
5

>  <DOPAMINE D2>
5

>  <DOPAMINE D4>
5

>  <DOPAMINE D5>
5

>  <HISTAMINE H1>
5

>  <HISTAMINE H2>
5

>  <Muscarinic acetylcholine receptor M2>
5

>  <Muscarinic acetylcholine receptor M5>
5

$$$$
DILTIAZEM
  Marvin  02231216192D 0   1.00000     0.00000     0

 29 31  0  0  1  0  0  0  0  0999 V2000
   -0.8954    0.0946    0.0000 S   0  0  0  0  0  0  0  0  0
   -1.5404    0.6090    0.0000 C   0  0  0  0  0  0  0  0  0
   -1.5404    1.4340    0.0000 C   0  0  0  0  0  0  0  0  0
   -0.8954    1.9484    0.0000 N   0  0  0  0  0  0  0  0  0
   -1.0790    2.7527    0.0000 C   0  0  0  0  0  0  0  0  0
   -1.8674    2.9959    0.0000 C   0  0  0  0  0  0  0  0  0
   -2.0509    3.8002    0.0000 N   0  0  0  0  0  0  0  0  0
   -2.8393    4.0434    0.0000 C   0  0  0  0  0  0  0  0  0
   -1.4462    4.3614    0.0000 C   0  0  0  0  0  0  0  0  0
   -0.0911    1.7648    0.0000 C   0  0  0  0  0  0  0  0  0
    0.4233    2.4098    0.0000 O   0  0  0  0  0  0  0  0  0
    0.2668    1.0215    0.0000 C   0  0  0  0  0  0  0  0  0
    1.0918    1.0215    0.0000 O   0  0  0  0  0  0  0  0  0
    1.5043    1.7360    0.0000 C   0  0  0  0  0  0  0  0  0
    1.0918    2.4505    0.0000 O   0  0  0  0  0  0  0  0  0
    2.3293    1.7360    0.0000 C   0  0  0  0  0  0  0  0  0
   -0.0911    0.2782    0.0000 C   0  0  0  0  0  0  0  0  0
    0.4233   -0.3668    0.0000 C   0  0  0  0  0  0  0  0  0
    1.2390   -0.2438    0.0000 C   0  0  0  0  0  0  0  0  0
    1.7534   -0.8888    0.0000 C   0  0  0  0  0  0  0  0  0
    1.4520   -1.6568    0.0000 C   0  0  0  0  0  0  0  0  0
    1.9664   -2.3018    0.0000 O   0  0  0  0  0  0  0  0  0
    2.7822   -2.1789    0.0000 C   0  0  0  0  0  0  0  0  0
    0.6362   -1.7798    0.0000 C   0  0  0  0  0  0  0  0  0
    0.1219   -1.1348    0.0000 C   0  0  0  0  0  0  0  0  0
   -2.2549    1.8465    0.0000 C   0  0  0  0  0  0  0  0  0
   -2.9694    1.4340    0.0000 C   0  0  0  0  0  0  0  0  0
   -2.9694    0.6090    0.0000 C   0  0  0  0  0  0  0  0  0
   -2.2549    0.1965    0.0000 C   0  0  0  0  0  0  0  0  0
  1  2  1  0  0  0  0
  1 17  1  0  0  0  0
  2  3  4  0  0  0  0
  2 29  4  0  0  0  0
  3  4  1  0  0  0  0
  3 26  4  0  0  0  0
  4  5  1  0  0  0  0
  4 10  1  0  0  0  0
  5  6  1  0  0  0  0
  6  7  1  0  0  0  0
  7  8  1  0  0  0  0
  7  9  1  0  0  0  0
 10 11  2  0  0  0  0
 10 12  1  0  0  0  0
 12 13  1  0  0  0  0
 12 17  1  0  0  0  0
 13 14  1  0  0  0  0
 14 15  2  0  0  0  0
 14 16  1  0  0  0  0
 17 18  1  0  0  0  0
 18 19  4  0  0  0  0
 18 25  4  0  0  0  0
 19 20  4  0  0  0  0
 20 21  4  0  0  0  0
 21 22  1  0  0  0  0
 21 24  4  0  0  0  0
 22 23  1  0  0  0  0
 24 25  4  0  0  0  0
 26 27  4  0  0  0  0
 27 28  4  0  0  0  0
 28 29  4  0  0  0  0
M  END
>  <Name_Molregno>
DILTIAZEM

>  <5-HT1A>
5

>  <5-HT2A>
5.62

$$$$
dipropyltryptamine
  Marvin  02231216192D 0   1.00000     0.00000     0

 18 19  0  0  0  0  0  0  0  0999 V2000
    2.9300   -2.6403    0.0000 N   0  0  0  0  0  0  0  0  0
    3.1849   -1.8557    0.0000 C   0  0  0  0  0  0  0  0  0
    2.5175   -1.3708    0.0000 C   0  0  0  0  0  0  0  0  0
    1.8500   -1.8557    0.0000 C   0  0  0  0  0  0  0  0  0
    2.1050   -2.6403    0.0000 C   0  0  0  0  0  0  0  0  0
    1.5530   -3.2534    0.0000 C   0  0  0  0  0  0  0  0  0
    0.7460   -3.0819    0.0000 C   0  0  0  0  0  0  0  0  0
    0.4910   -2.2973    0.0000 C   0  0  0  0  0  0  0  0  0
    1.0431   -1.6842    0.0000 C   0  0  0  0  0  0  0  0  0
    2.5175   -0.5458    0.0000 C   0  0  0  0  0  0  0  0  0
    1.8030   -0.1333    0.0000 C   0  0  0  0  0  0  0  0  0
    1.8030    0.6917    0.0000 N   0  0  0  0  0  0  0  0  0
    1.0885    1.1042    0.0000 C   0  0  0  0  0  0  0  0  0
    1.0885    1.9292    0.0000 C   0  0  0  0  0  0  0  0  0
    0.3741    2.3417    0.0000 C   0  0  0  0  0  0  0  0  0
    2.5175    1.1042    0.0000 C   0  0  0  0  0  0  0  0  0
    2.5175    1.9292    0.0000 C   0  0  0  0  0  0  0  0  0
    3.2320    2.3417    0.0000 C   0  0  0  0  0  0  0  0  0
  1  2  4  0  0  0  0
  1  5  4  0  0  0  0
  2  3  4  0  0  0  0
  3  4  4  0  0  0  0
  3 10  1  0  0  0  0
  4  5  4  0  0  0  0
  4  9  4  0  0  0  0
  5  6  4  0  0  0  0
  6  7  4  0  0  0  0
  7  8  4  0  0  0  0
  8  9  4  0  0  0  0
 10 11  1  0  0  0  0
 11 12  1  0  0  0  0
 12 13  1  0  0  0  0
 12 16  1  0  0  0  0
 13 14  1  0  0  0  0
 14 15  1  0  0  0  0
 16 17  1  0  0  0  0
 17 18  1  0  0  0  0
M  STY  1   1 DAT
M  SAL   1  1   1
M  SDT   1 MRV_IMPLICIT_H                                        
M  SDD   1     0.0000    0.0000    DR    ALL  0       0  
M  SED   1 IMPL_H1
M  END
>  <Name_Molregno>
dipropyltryptamine

>  <5-HT1A>
7

$$$$
DL-homocysteic-acid
  Marvin  02231216192D 0   1.00000     0.00000     0

 11 10  0  0  1  0  0  0  0  0999 V2000
   -2.6928   -0.0066    0.0000 S   0  0  0  0  0  0  0  0  0
   -3.4073   -0.4191    0.0000 O   0  0  0  0  0  0  0  0  0
   -2.2803   -0.7210    0.0000 O   0  0  0  0  0  0  0  0  0
   -3.1053    0.7079    0.0000 O   0  0  0  0  0  0  0  0  0
   -1.9783    0.4059    0.0000 C   0  0  0  0  0  0  0  0  0
   -1.2639   -0.0066    0.0000 C   0  0  0  0  0  0  0  0  0
   -0.5494    0.4059    0.0000 C   0  0  0  0  0  0  0  0  0
   -0.5494    1.2309    0.0000 N   0  0  0  0  0  0  0  0  0
    0.1651   -0.0066    0.0000 C   0  0  0  0  0  0  0  0  0
    0.8795    0.4059    0.0000 O   0  0  0  0  0  0  0  0  0
    0.1651   -0.8316    0.0000 O   0  0  0  0  0  0  0  0  0
  1  2  2  0  0  0  0
  1  3  2  0  0  0  0
  1  4  1  0  0  0  0
  1  5  1  0  0  0  0
  5  6  1  0  0  0  0
  6  7  1  0  0  0  0
  7  8  1  0  0  0  0
  7  9  1  0  0  0  0
  9 10  1  0  0  0  0
  9 11  2  0  0  0  0
M  END
>  <Name_Molregno>
DL-homocysteic-acid

>  <5-HT1A>
5

>  <5-HT1B>
5

>  <5-HT1D>
5

>  <5-HT3>
5

>  <5-HT5>
5

>  <5-HT6>
5

>  <5-HT7>
5

>  <Alpha-1A>
5

>  <Alpha-1B>
5

>  <Alpha-2A>
5

>  <Alpha-2B>
5

>  <Alpha-2C>
5

>  <DOPAMINE D1>
5

>  <DOPAMINE D2>
5

>  <DOPAMINE D3>
5

>  <DOPAMINE D5>
5

>  <Dopamine transporter>
5

>  <Muscarinic acetylcholine receptor M1>
5

>  <Muscarinic acetylcholine receptor M2>
5

>  <Muscarinic acetylcholine receptor M3>
5

>  <Muscarinic acetylcholine receptor M4>
5

>  <Muscarinic acetylcholine receptor M5>
5

>  <Norepinephrine transporter>
5

>  <Serotonin transporter>
5

$$$$
DL-homocysteine
  Marvin  02231216192D 0   1.00000     0.00000     0

  8  7  0  0  1  0  0  0  0  0999 V2000
   -0.0519    0.0021    0.0000 S   0  0  0  0  0  0  0  0  0
    0.6626    0.4146    0.0000 C   0  0  0  0  0  0  0  0  0
    1.3770    0.0021    0.0000 C   0  0  0  0  0  0  0  0  0
    2.0915    0.4146    0.0000 C   0  0  0  0  0  0  0  0  0
    2.0915    1.2396    0.0000 N   0  0  0  0  0  0  0  0  0
    2.8060    0.0021    0.0000 C   0  0  0  0  0  0  0  0  0
    3.5205    0.4146    0.0000 O   0  0  0  0  0  0  0  0  0
    2.8060   -0.8229    0.0000 O   0  0  0  0  0  0  0  0  0
  1  2  1  0  0  0  0
  2  3  1  0  0  0  0
  3  4  1  0  0  0  0
  4  5  1  0  0  0  0
  4  6  1  0  0  0  0
  6  7  1  0  0  0  0
  6  8  2  0  0  0  0
M  END
>  <Name_Molregno>
DL-homocysteine

>  <5-HT1A>
5

>  <5-HT1B>
5

>  <5-HT1D>
5

>  <5-HT3>
5

>  <5-HT5>
5

>  <5-HT6>
5

>  <5-HT7>
5

>  <Alpha-1A>
5

>  <Alpha-1B>
5

>  <Alpha-2A>
5

>  <Alpha-2B>
5

>  <Alpha-2C>
5

>  <DOPAMINE D1>
5

>  <DOPAMINE D2>
5

>  <DOPAMINE D3>
5

>  <DOPAMINE D5>
5

>  <Dopamine transporter>
5

>  <HISTAMINE H1>
5

>  <HISTAMINE H2>
5

>  <HISTAMINE H4>
5

>  <Muscarinic acetylcholine receptor M1>
5

>  <Muscarinic acetylcholine receptor M2>
5

>  <Muscarinic acetylcholine receptor M3>
5

>  <Muscarinic acetylcholine receptor M4>
5

>  <Muscarinic acetylcholine receptor M5>
5

>  <Norepinephrine transporter>
5

>  <Serotonin transporter>
5

$$$$
D-methionine
  Marvin  02231216192D 0   1.00000     0.00000     0

  9  8  0  0  1  0  0  0  0  0999 V2000
   -0.3763    1.2394    0.0000 S   0  0  0  0  0  0  0  0  0
    0.3381    0.8269    0.0000 C   0  0  0  0  0  0  0  0  0
    1.0526    1.2394    0.0000 C   0  0  0  0  0  0  0  0  0
    1.7671    0.8269    0.0000 C   0  0  0  0  0  0  0  0  0
    1.7671    0.0019    0.0000 N   0  0  0  0  0  0  0  0  0
    2.4816    1.2394    0.0000 C   0  0  0  0  0  0  0  0  0
    3.1960    0.8269    0.0000 O   0  0  0  0  0  0  0  0  0
    2.4816    2.0644    0.0000 O   0  0  0  0  0  0  0  0  0
   -1.0908    0.8269    0.0000 C   0  0  0  0  0  0  0  0  0
  1  2  1  0  0  0  0
  1  9  1  0  0  0  0
  2  3  1  0  0  0  0
  3  4  1  0  0  0  0
  4  5  1  0  0  0  0
  4  6  1  0  0  0  0
  6  7  1  0  0  0  0
  6  8  2  0  0  0  0
M  END
>  <Name_Molregno>
D-methionine

>  <5-HT1A>
5

>  <5-HT1B>
5

>  <5-HT1D>
5

>  <5-HT3>
5

>  <5-HT5>
5

>  <5-HT6>
5

>  <5-HT7>
5

>  <Alpha-1A>
5

>  <Alpha-1B>
5

>  <Alpha-2A>
5

>  <Alpha-2B>
5

>  <Alpha-2C>
5

>  <DOPAMINE D1>
5

>  <DOPAMINE D2>
5

>  <DOPAMINE D3>
5

>  <DOPAMINE D5>
5

>  <Dopamine transporter>
5

>  <HISTAMINE H1>
5

>  <HISTAMINE H2>
5

>  <HISTAMINE H4>
5

>  <Muscarinic acetylcholine receptor M1>
5

>  <Muscarinic acetylcholine receptor M2>
5

>  <Muscarinic acetylcholine receptor M3>
5

>  <Muscarinic acetylcholine receptor M4>
5

>  <Muscarinic acetylcholine receptor M5>
5

>  <Norepinephrine transporter>
5

>  <Serotonin transporter>
5

$$$$
DMT
  Marvin  02231216192D 0   1.00000     0.00000     0

 14 15  0  0  0  0  0  0  0  0999 V2000
    0.6059    0.8076    0.0000 N   0  0  0  0  0  0  0  0  0
    0.1210    0.1402    0.0000 C   0  0  0  0  0  0  0  0  0
    0.6059   -0.5273    0.0000 C   0  0  0  0  0  0  0  0  0
    1.3905   -0.2723    0.0000 C   0  0  0  0  0  0  0  0  0
    1.3905    0.5527    0.0000 C   0  0  0  0  0  0  0  0  0
    2.1050    0.9652    0.0000 C   0  0  0  0  0  0  0  0  0
    2.8195    0.5527    0.0000 C   0  0  0  0  0  0  0  0  0
    2.8195   -0.2723    0.0000 C   0  0  0  0  0  0  0  0  0
    2.1050   -0.6848    0.0000 C   0  0  0  0  0  0  0  0  0
    0.3510   -1.3119    0.0000 C   0  0  0  0  0  0  0  0  0
    0.9030   -1.9250    0.0000 C   0  0  0  0  0  0  0  0  0
    0.6481   -2.7096    0.0000 N   0  0  0  0  0  0  0  0  0
    1.2001   -3.3227    0.0000 C   0  0  0  0  0  0  0  0  0
   -0.1589   -2.8811    0.0000 C   0  0  0  0  0  0  0  0  0
  1  2  4  0  0  0  0
  1  5  4  0  0  0  0
  2  3  4  0  0  0  0
  3  4  4  0  0  0  0
  3 10  1  0  0  0  0
  4  5  4  0  0  0  0
  4  9  4  0  0  0  0
  5  6  4  0  0  0  0
  6  7  4  0  0  0  0
  7  8  4  0  0  0  0
  8  9  4  0  0  0  0
 10 11  1  0  0  0  0
 11 12  1  0  0  0  0
 12 13  1  0  0  0  0
 12 14  1  0  0  0  0
M  STY  1   1 DAT
M  SAL   1  1   1
M  SDT   1 MRV_IMPLICIT_H                                        
M  SDD   1     0.0000    0.0000    DR    ALL  0       0  
M  SED   1 IMPL_H1
M  END
>  <Name_Molregno>
DMT

>  <5-HT1A>
6.92

$$$$
DOB
  Marvin  02231216192D 0   1.00000     0.00000     0

 15 15  0  0  1  0  0  0  0  0999 V2000
    4.0349    1.0801    0.0000 Br  0  0  0  0  0  0  0  0  0
    3.3204    0.6676    0.0000 C   0  0  0  0  0  0  0  0  0
    3.3204   -0.1574    0.0000 C   0  0  0  0  0  0  0  0  0
    2.6059   -0.5699    0.0000 C   0  0  0  0  0  0  0  0  0
    2.6059   -1.3949    0.0000 O   0  0  0  0  0  0  0  0  0
    1.8915   -1.8074    0.0000 C   0  0  0  0  0  0  0  0  0
    1.8915   -0.1574    0.0000 C   0  0  0  0  0  0  0  0  0
    1.8915    0.6676    0.0000 C   0  0  0  0  0  0  0  0  0
    2.6059    1.0801    0.0000 C   0  0  0  0  0  0  0  0  0
    2.6059    1.9051    0.0000 O   0  0  0  0  0  0  0  0  0
    1.8915    2.3176    0.0000 C   0  0  0  0  0  0  0  0  0
    1.1770   -0.5699    0.0000 C   0  0  0  0  0  0  0  0  0
    0.4625   -0.1574    0.0000 C   0  0  0  0  0  0  0  0  0
   -0.2519   -0.5699    0.0000 N   0  0  0  0  0  0  0  0  0
    0.4625    0.6676    0.0000 C   0  0  0  0  0  0  0  0  0
  1  2  1  0  0  0  0
  2  3  4  0  0  0  0
  2  9  4  0  0  0  0
  3  4  4  0  0  0  0
  4  5  1  0  0  0  0
  4  7  4  0  0  0  0
  5  6  1  0  0  0  0
  7  8  4  0  0  0  0
  7 12  1  0  0  0  0
  8  9  4  0  0  0  0
  9 10  1  0  0  0  0
 10 11  1  0  0  0  0
 12 13  1  0  0  0  0
 13 14  1  0  0  0  0
 13 15  1  0  0  0  0
M  END
>  <Name_Molregno>
DOB

>  <5-HT1A>
5.2

>  <5-HT1E>
6.25

>  <5-HT2A>
8.35

>  <5-HT2C>
8.4

$$$$
DOM
  Marvin  02231216192D 0   1.00000     0.00000     0

 15 15  0  0  1  0  0  0  0  0999 V2000
    1.2331    1.9597    0.0000 O   0  0  0  0  0  0  0  0  0
    1.2331    2.7847    0.0000 C   0  0  0  0  0  0  0  0  0
    0.5186    1.5472    0.0000 C   0  0  0  0  0  0  0  0  0
    0.5186    0.7222    0.0000 C   0  0  0  0  0  0  0  0  0
   -0.1958    0.3097    0.0000 C   0  0  0  0  0  0  0  0  0
   -0.1958   -0.5153    0.0000 C   0  0  0  0  0  0  0  0  0
   -0.9103    0.7223    0.0000 C   0  0  0  0  0  0  0  0  0
   -1.6248    0.3098    0.0000 O   0  0  0  0  0  0  0  0  0
   -1.6248   -0.5152    0.0000 C   0  0  0  0  0  0  0  0  0
   -0.9103    1.5473    0.0000 C   0  0  0  0  0  0  0  0  0
   -0.1958    1.9598    0.0000 C   0  0  0  0  0  0  0  0  0
   -0.1958    2.7848    0.0000 C   0  0  0  0  0  0  0  0  0
   -0.9103    3.1973    0.0000 C   0  0  0  0  0  0  0  0  0
   -1.6248    2.7848    0.0000 N   0  0  0  0  0  0  0  0  0
   -0.9103    4.0223    0.0000 C   0  0  0  0  0  0  0  0  0
  1  2  1  0  0  0  0
  1  3  1  0  0  0  0
  3  4  4  0  0  0  0
  3 11  4  0  0  0  0
  4  5  4  0  0  0  0
  5  6  1  0  0  0  0
  5  7  4  0  0  0  0
  7  8  1  0  0  0  0
  7 10  4  0  0  0  0
  8  9  1  0  0  0  0
 10 11  4  0  0  0  0
 11 12  1  0  0  0  0
 12 13  1  0  0  0  0
 13 14  1  0  0  0  0
 13 15  1  0  0  0  0
M  END
>  <Name_Molregno>
DOM

>  <5-HT1A>
5.14

>  <5-HT2A>
6.99

$$$$
DOPAMINE
  Marvin  02231216192D 0   1.00000     0.00000     0

 11 11  0  0  0  0  0  0  0  0999 V2000
    3.1358    1.8244    0.0000 O   0  0  0  0  0  0  0  0  0
    2.4213    1.4119    0.0000 C   0  0  0  0  0  0  0  0  0
    2.4213    0.5869    0.0000 C   0  0  0  0  0  0  0  0  0
    1.7068    0.1744    0.0000 C   0  0  0  0  0  0  0  0  0
    0.9924    0.5869    0.0000 C   0  0  0  0  0  0  0  0  0
    0.9924    1.4119    0.0000 C   0  0  0  0  0  0  0  0  0
    1.7068    1.8244    0.0000 C   0  0  0  0  0  0  0  0  0
    1.7068    2.6494    0.0000 O   0  0  0  0  0  0  0  0  0
    1.7068   -0.6506    0.0000 C   0  0  0  0  0  0  0  0  0
    0.9924   -1.0631    0.0000 C   0  0  0  0  0  0  0  0  0
    0.9924   -1.8881    0.0000 N   0  0  0  0  0  0  0  0  0
  1  2  1  0  0  0  0
  2  3  4  0  0  0  0
  2  7  4  0  0  0  0
  3  4  4  0  0  0  0
  4  5  4  0  0  0  0
  4  9  1  0  0  0  0
  5  6  4  0  0  0  0
  6  7  4  0  0  0  0
  7  8  1  0  0  0  0
  9 10  1  0  0  0  0
 10 11  1  0  0  0  0
M  END
>  <Name_Molregno>
DOPAMINE

>  <5-HT1A>
5.08

>  <5-HT2A>
5

>  <5-HT3>
5

>  <5-HT7>
5

>  <DOPAMINE D1>
5.72

>  <DOPAMINE D2>
6.7

>  <DOPAMINE D3>
7.41

>  <DOPAMINE D4>
7.64

>  <DOPAMINE D5>
6.64

>  <Dopamine transporter>
5.79

>  <Norepinephrine transporter>
6.49

$$$$
DOXEPIN
  Marvin  02231216192D 0   1.00000     0.00000     0

 21 23  0  0  0  0  0  0  0  0999 V2000
    0.5748    0.1771    0.0000 O   0  0  0  0  0  0  0  0  0
    1.3998    0.1771    0.0000 C   0  0  0  0  0  0  0  0  0
    1.9142   -0.4679    0.0000 C   0  0  0  0  0  0  0  0  0
    1.7306   -1.2722    0.0000 C   0  0  0  0  0  0  0  0  0
    2.3354   -1.8333    0.0000 C   0  0  0  0  0  0  0  0  0
    3.1237   -1.5902    0.0000 C   0  0  0  0  0  0  0  0  0
    3.3073   -0.7858    0.0000 C   0  0  0  0  0  0  0  0  0
    2.7026   -0.2247    0.0000 C   0  0  0  0  0  0  0  0  0
    0.9873   -1.6301    0.0000 C   0  0  0  0  0  0  0  0  0
    0.2440   -1.2722    0.0000 C   0  0  0  0  0  0  0  0  0
    0.0604   -0.4679    0.0000 C   0  0  0  0  0  0  0  0  0
   -0.7279   -0.2247    0.0000 C   0  0  0  0  0  0  0  0  0
   -1.3327   -0.7858    0.0000 C   0  0  0  0  0  0  0  0  0
   -1.1491   -1.5902    0.0000 C   0  0  0  0  0  0  0  0  0
   -0.3607   -1.8333    0.0000 C   0  0  0  0  0  0  0  0  0
    0.9873   -2.4551    0.0000 C   0  0  0  0  0  0  0  0  0
    0.2729   -2.8676    0.0000 C   0  0  0  0  0  0  0  0  0
    0.2729   -3.6926    0.0000 C   0  0  0  0  0  0  0  0  0
   -0.4416   -4.1051    0.0000 N   0  0  0  0  0  0  0  0  0
   -0.4416   -4.9301    0.0000 C   0  0  0  0  0  0  0  0  0
   -1.1561   -3.6926    0.0000 C   0  0  0  0  0  0  0  0  0
  1  2  1  0  0  0  0
  1 11  1  0  0  0  0
  2  3  1  0  0  0  0
  3  4  4  0  0  0  0
  3  8  4  0  0  0  0
  4  5  4  0  0  0  0
  4  9  1  0  0  0  0
  5  6  4  0  0  0  0
  6  7  4  0  0  0  0
  7  8  4  0  0  0  0
  9 10  1  0  0  0  0
  9 16  2  0  0  0  0
 10 11  4  0  0  0  0
 10 15  4  0  0  0  0
 11 12  4  0  0  0  0
 12 13  4  0  0  0  0
 13 14  4  0  0  0  0
 14 15  4  0  0  0  0
 16 17  1  0  0  0  0
 17 18  1  0  0  0  0
 18 19  1  0  0  0  0
 19 20  1  0  0  0  0
 19 21  1  0  0  0  0
M  END
>  <Name_Molregno>
DOXEPIN

>  <5-HT1A>
6.56

>  <DOPAMINE D2>
6.44

>  <Dopamine transporter>
5

>  <HISTAMINE H1>
9.68

>  <HISTAMINE H4>
6.98

>  <Muscarinic acetylcholine receptor M1>
7.42

>  <Muscarinic acetylcholine receptor M2>
6.8

>  <Muscarinic acetylcholine receptor M3>
7.28

>  <Muscarinic acetylcholine receptor M4>
7.09

>  <Muscarinic acetylcholine receptor M5>
7.12

>  <Norepinephrine transporter>
7.53

>  <Serotonin transporter>
7.17

$$$$
Ephedrine
  Marvin  02231216192D 0   1.00000     0.00000     0

 12 12  0  0  1  0  0  0  0  0999 V2000
    1.9192   -0.0549    0.0000 O   0  0  0  0  0  0  0  0  0
    1.2047   -0.4674    0.0000 C   0  0  0  0  0  0  0  0  0
    0.4903   -0.0549    0.0000 C   0  0  0  0  0  0  0  0  0
    0.4903    0.7701    0.0000 N   0  0  0  0  0  0  0  0  0
   -0.2242    1.1826    0.0000 C   0  0  0  0  0  0  0  0  0
   -0.2242   -0.4674    0.0000 C   0  0  0  0  0  0  0  0  0
    1.2047   -1.2924    0.0000 C   0  0  0  0  0  0  0  0  0
    1.9192   -1.7049    0.0000 C   0  0  0  0  0  0  0  0  0
    1.9192   -2.5299    0.0000 C   0  0  0  0  0  0  0  0  0
    1.2047   -2.9424    0.0000 C   0  0  0  0  0  0  0  0  0
    0.4903   -2.5299    0.0000 C   0  0  0  0  0  0  0  0  0
    0.4903   -1.7049    0.0000 C   0  0  0  0  0  0  0  0  0
  1  2  1  0  0  0  0
  2  3  1  0  0  0  0
  2  7  1  0  0  0  0
  3  4  1  0  0  0  0
  3  6  1  0  0  0  0
  4  5  1  0  0  0  0
  7  8  4  0  0  0  0
  7 12  4  0  0  0  0
  8  9  4  0  0  0  0
  9 10  4  0  0  0  0
 10 11  4  0  0  0  0
 11 12  4  0  0  0  0
M  END
>  <Name_Molregno>
Ephedrine

>  <5-HT1A>
5

>  <5-HT1B>
5

>  <5-HT1D>
5

>  <5-HT1E>
5

>  <5-HT3>
5

>  <5-HT5>
5

>  <5-HT6>
5

>  <5-HT7>
5.33

>  <Alpha-1A>
5

>  <Alpha-1B>
5

>  <Alpha-2A>
5.17

>  <Alpha-2B>
5.48

>  <Alpha-2C>
5.51

>  <Beta-1>
5

>  <Beta-2>
5

>  <DOPAMINE D1>
5

>  <DOPAMINE D2>
5

>  <DOPAMINE D4>
5

>  <DOPAMINE D5>
5

>  <Dopamine transporter>
5.38

>  <HISTAMINE H1>
5

>  <HISTAMINE H2>
5

>  <HISTAMINE H4>
5

>  <Muscarinic acetylcholine receptor M1>
5

>  <Muscarinic acetylcholine receptor M2>
5

>  <Muscarinic acetylcholine receptor M3>
5

>  <Muscarinic acetylcholine receptor M4>
5

>  <Muscarinic acetylcholine receptor M5>
5

>  <Norepinephrine transporter>
5.79

>  <Serotonin transporter>
5

$$$$
ERGOTAMINE
  Marvin  02231216192D 0   1.00000     0.00000     0

 43 50  0  0  1  0  0  0  0  0999 V2000
   -2.1239   -1.0172    0.0000 O   0  0  0  0  0  0  0  0  0
   -1.3035   -1.1045    0.0000 C   0  0  0  0  0  0  0  0  0
   -1.3025   -0.2795    0.0000 N   0  0  0  0  0  0  0  0  0
   -0.5876    0.1322    0.0000 C   0  0  0  0  0  0  0  0  0
    0.1264   -0.2812    0.0000 O   0  0  0  0  0  0  0  0  0
   -0.5866    0.9572    0.0000 C   0  0  0  0  0  0  0  0  0
    0.1284    1.3688    0.0000 C   0  0  0  0  0  0  0  0  0
    0.1294    2.1938    0.0000 C   0  0  0  0  0  0  0  0  0
   -0.5846    2.6072    0.0000 C   0  0  0  0  0  0  0  0  0
   -1.2996    2.1955    0.0000 N   0  0  0  0  0  0  0  0  0
   -1.3006    1.3705    0.0000 C   0  0  0  0  0  0  0  0  0
   -2.0136    2.6089    0.0000 C   0  0  0  0  0  0  0  0  0
   -0.5831    3.4313    0.0000 C   0  0  0  0  0  0  0  0  0
    0.1294    3.8438    0.0000 C   0  0  0  0  0  0  0  0  0
    0.8419    3.4313    0.0000 C   0  0  0  0  0  0  0  0  0
    0.8419    2.6063    0.0000 C   0  0  0  0  0  0  0  0  0
    1.5597    2.1938    0.0000 C   0  0  0  0  0  0  0  0  0
    2.2722    2.6063    0.0000 C   0  0  0  0  0  0  0  0  0
    2.2722    3.4313    0.0000 C   0  0  0  0  0  0  0  0  0
    1.5597    3.8438    0.0000 C   0  0  0  0  0  0  0  0  0
    1.2544    4.7010    0.0000 N   0  0  0  0  0  0  0  0  0
    0.4294    4.7010    0.0000 C   0  0  0  0  0  0  0  0  0
   -0.4830   -1.0192    0.0000 C   0  0  0  0  0  0  0  0  0
   -1.1330   -1.9116    0.0000 C   0  0  0  0  0  0  0  0  0
   -0.3797   -2.2481    0.0000 O   0  0  0  0  0  0  0  0  0
   -1.8479   -2.3233    0.0000 N   0  0  0  0  0  0  0  0  0
   -2.0204   -3.1301    0.0000 C   0  0  0  0  0  0  0  0  0
   -1.4080   -3.6828    0.0000 C   0  0  0  0  0  0  0  0  0
   -1.5805   -4.4896    0.0000 C   0  0  0  0  0  0  0  0  0
   -0.9681   -5.0424    0.0000 C   0  0  0  0  0  0  0  0  0
   -1.1406   -5.8491    0.0000 C   0  0  0  0  0  0  0  0  0
   -1.9255   -6.1031    0.0000 C   0  0  0  0  0  0  0  0  0
   -2.5379   -5.5504    0.0000 C   0  0  0  0  0  0  0  0  0
   -2.3654   -4.7436    0.0000 C   0  0  0  0  0  0  0  0  0
   -2.8054   -3.3841    0.0000 C   0  0  0  0  0  0  0  0  0
   -2.9779   -4.1908    0.0000 O   0  0  0  0  0  0  0  0  0
   -3.4178   -2.8313    0.0000 N   0  0  0  0  0  0  0  0  0
   -3.2453   -2.0245    0.0000 C   0  0  0  0  0  0  0  0  0
   -3.9593   -1.6112    0.0000 C   0  0  0  0  0  0  0  0  0
   -4.5730   -2.1625    0.0000 C   0  0  0  0  0  0  0  0  0
   -4.2384   -2.9165    0.0000 C   0  0  0  0  0  0  0  0  0
   -2.4604   -1.7705    0.0000 C   0  0  0  0  0  0  0  0  0
   -3.0117   -1.1568    0.0000 O   0  0  0  0  0  0  0  0  0
  1  2  1  0  0  0  0
  1 42  1  0  0  0  0
  2  3  1  0  0  0  0
  2 23  1  0  0  0  0
  2 24  1  0  0  0  0
  3  4  1  0  0  0  0
  4  5  2  0  0  0  0
  4  6  1  0  0  0  0
  6  7  1  0  0  0  0
  6 11  1  0  0  0  0
  7  8  2  0  0  0  0
  8  9  1  0  0  0  0
  8 16  1  0  0  0  0
  9 10  1  0  0  0  0
  9 13  1  0  0  0  0
 10 11  1  0  0  0  0
 10 12  1  0  0  0  0
 13 14  1  0  0  0  0
 14 15  4  0  0  0  0
 14 22  4  0  0  0  0
 15 16  4  0  0  0  0
 15 20  4  0  0  0  0
 16 17  4  0  0  0  0
 17 18  4  0  0  0  0
 18 19  4  0  0  0  0
 19 20  4  0  0  0  0
 20 21  4  0  0  0  0
 21 22  4  0  0  0  0
 24 25  2  0  0  0  0
 24 26  1  0  0  0  0
 26 27  1  0  0  0  0
 26 42  1  0  0  0  0
 27 28  1  0  0  0  0
 27 35  1  0  0  0  0
 28 29  1  0  0  0  0
 29 30  4  0  0  0  0
 29 34  4  0  0  0  0
 30 31  4  0  0  0  0
 31 32  4  0  0  0  0
 32 33  4  0  0  0  0
 33 34  4  0  0  0  0
 35 36  2  0  0  0  0
 35 37  1  0  0  0  0
 37 38  1  0  0  0  0
 37 41  1  0  0  0  0
 38 39  1  0  0  0  0
 38 42  1  0  0  0  0
 39 40  1  0  0  0  0
 40 41  1  0  0  0  0
 42 43  1  0  0  0  0
M  STY  1   1 DAT
M  SAL   1  1  21
M  SDT   1 MRV_IMPLICIT_H                                        
M  SDD   1     0.0000    0.0000    DR    ALL  0       0  
M  SED   1 IMPL_H1
M  END
>  <Name_Molregno>
ERGOTAMINE

>  <5-HT1A>
9.77

>  <5-HT1B>
8.33

>  <5-HT1D>
9

>  <5-HT1E>
6.58

>  <5-HT2A>
9.1

>  <5-HT2C>
8.37

>  <5-HT3>
5

>  <5-HT6>
7.92

>  <5-HT7>
5.89

>  <Alpha-1A>
5

>  <Alpha-1B>
5

>  <Alpha-2A>
6.97

>  <Alpha-2B>
7.05

>  <Alpha-2C>
5

>  <Beta-1>
5

>  <Beta-2>
5

>  <DOPAMINE D1>
5

>  <DOPAMINE D2>
5

>  <DOPAMINE D4>
5

>  <DOPAMINE D5>
6.77

>  <Dopamine transporter>
5

>  <HISTAMINE H1>
5

>  <HISTAMINE H2>
5

>  <Muscarinic acetylcholine receptor M1>
6.06

>  <Muscarinic acetylcholine receptor M2>
6.04

>  <Muscarinic acetylcholine receptor M3>
5

>  <Muscarinic acetylcholine receptor M4>
5

>  <Muscarinic acetylcholine receptor M5>
5

>  <Norepinephrine transporter>
5

>  <Serotonin transporter>
5

$$$$
ETICLOPRIDE
  Marvin  02231216192D 0   1.00000     0.00000     0

 23 24  0  0  1  0  0  0  0  0999 V2000
    0.4207   -0.0120    0.0000 Cl  0  0  0  0  0  0  0  0  0
    1.1351    0.4005    0.0000 C   0  0  0  0  0  0  0  0  0
    1.1351    1.2255    0.0000 C   0  0  0  0  0  0  0  0  0
    1.8496    1.6380    0.0000 C   0  0  0  0  0  0  0  0  0
    1.8496    2.4630    0.0000 C   0  0  0  0  0  0  0  0  0
    1.1351    2.8755    0.0000 C   0  0  0  0  0  0  0  0  0
    2.5641    1.2255    0.0000 C   0  0  0  0  0  0  0  0  0
    3.2785    1.6380    0.0000 O   0  0  0  0  0  0  0  0  0
    2.5641    0.4005    0.0000 C   0  0  0  0  0  0  0  0  0
    3.2785   -0.0120    0.0000 C   0  0  0  0  0  0  0  0  0
    3.9930    0.4005    0.0000 O   0  0  0  0  0  0  0  0  0
    3.2785   -0.8370    0.0000 N   0  0  0  0  0  0  0  0  0
    3.9930   -1.2495    0.0000 C   0  0  0  0  0  0  0  0  0
    3.9930   -2.0745    0.0000 C   0  0  0  0  0  0  0  0  0
    4.6605   -2.5594    0.0000 N   0  0  0  0  0  0  0  0  0
    4.4055   -3.3441    0.0000 C   0  0  0  0  0  0  0  0  0
    3.5805   -3.3441    0.0000 C   0  0  0  0  0  0  0  0  0
    3.3256   -2.5594    0.0000 C   0  0  0  0  0  0  0  0  0
    5.4451   -2.3045    0.0000 C   0  0  0  0  0  0  0  0  0
    6.0582   -2.8565    0.0000 C   0  0  0  0  0  0  0  0  0
    1.8496   -0.0120    0.0000 C   0  0  0  0  0  0  0  0  0
    1.8496   -0.8370    0.0000 O   0  0  0  0  0  0  0  0  0
    2.5641   -1.2495    0.0000 C   0  0  0  0  0  0  0  0  0
  1  2  1  0  0  0  0
  2  3  4  0  0  0  0
  2 21  4  0  0  0  0
  3  4  4  0  0  0  0
  4  5  1  0  0  0  0
  4  7  4  0  0  0  0
  5  6  1  0  0  0  0
  7  8  1  0  0  0  0
  7  9  4  0  0  0  0
  9 10  1  0  0  0  0
  9 21  4  0  0  0  0
 10 11  2  0  0  0  0
 10 12  1  0  0  0  0
 12 13  1  0  0  0  0
 13 14  1  0  0  0  0
 14 15  1  0  0  0  0
 14 18  1  0  0  0  0
 15 16  1  0  0  0  0
 15 19  1  0  0  0  0
 16 17  1  0  0  0  0
 17 18  1  0  0  0  0
 19 20  1  0  0  0  0
 21 22  1  0  0  0  0
 22 23  1  0  0  0  0
M  END
>  <Name_Molregno>
ETICLOPRIDE

>  <5-HT1A>
5.75

>  <DOPAMINE D1>
5

>  <DOPAMINE D2>
10

>  <DOPAMINE D3>
10

>  <DOPAMINE D4>
7.61

>  <DOPAMINE D5>
5

$$$$
Etoperidone
  Marvin  02231216192D 0   1.00000     0.00000     0

 26 28  0  0  0  0  0  0  0  0999 V2000
    8.8513    2.0412    0.0000 Cl  0  0  0  0  0  0  0  0  0
    8.1368    2.4537    0.0000 C   0  0  0  0  0  0  0  0  0
    7.4223    2.0412    0.0000 C   0  0  0  0  0  0  0  0  0
    6.7079    2.4537    0.0000 C   0  0  0  0  0  0  0  0  0
    5.9934    2.0412    0.0000 N   0  0  0  0  0  0  0  0  0
    5.9934    1.2162    0.0000 C   0  0  0  0  0  0  0  0  0
    5.2789    0.8037    0.0000 C   0  0  0  0  0  0  0  0  0
    4.5644    1.2162    0.0000 N   0  0  0  0  0  0  0  0  0
    4.5644    2.0412    0.0000 C   0  0  0  0  0  0  0  0  0
    5.2789    2.4537    0.0000 C   0  0  0  0  0  0  0  0  0
    3.8500    0.8037    0.0000 C   0  0  0  0  0  0  0  0  0
    3.8500   -0.0213    0.0000 C   0  0  0  0  0  0  0  0  0
    3.1355   -0.4338    0.0000 C   0  0  0  0  0  0  0  0  0
    3.1355   -1.2588    0.0000 N   0  0  0  0  0  0  0  0  0
    3.8029   -1.7438    0.0000 N   0  0  0  0  0  0  0  0  0
    3.5480   -2.5284    0.0000 C   0  0  0  0  0  0  0  0  0
    2.7230   -2.5284    0.0000 N   0  0  0  0  0  0  0  0  0
    2.2381   -3.1958    0.0000 C   0  0  0  0  0  0  0  0  0
    2.5736   -3.9495    0.0000 C   0  0  0  0  0  0  0  0  0
    2.4681   -1.7438    0.0000 C   0  0  0  0  0  0  0  0  0
    1.6834   -1.4888    0.0000 O   0  0  0  0  0  0  0  0  0
    4.0329   -3.1958    0.0000 C   0  0  0  0  0  0  0  0  0
    3.6974   -3.9495    0.0000 C   0  0  0  0  0  0  0  0  0
    6.7079    3.2787    0.0000 C   0  0  0  0  0  0  0  0  0
    7.4223    3.6912    0.0000 C   0  0  0  0  0  0  0  0  0
    8.1368    3.2787    0.0000 C   0  0  0  0  0  0  0  0  0
  1  2  1  0  0  0  0
  2  3  4  0  0  0  0
  2 26  4  0  0  0  0
  3  4  4  0  0  0  0
  4  5  1  0  0  0  0
  4 24  4  0  0  0  0
  5  6  1  0  0  0  0
  5 10  1  0  0  0  0
  6  7  1  0  0  0  0
  7  8  1  0  0  0  0
  8  9  1  0  0  0  0
  8 11  1  0  0  0  0
  9 10  1  0  0  0  0
 11 12  1  0  0  0  0
 12 13  1  0  0  0  0
 13 14  1  0  0  0  0
 14 15  1  0  0  0  0
 14 20  1  0  0  0  0
 15 16  2  0  0  0  0
 16 17  1  0  0  0  0
 16 22  1  0  0  0  0
 17 18  1  0  0  0  0
 17 20  1  0  0  0  0
 18 19  1  0  0  0  0
 20 21  2  0  0  0  0
 22 23  1  0  0  0  0
 24 25  4  0  0  0  0
 25 26  4  0  0  0  0
M  END
>  <Name_Molregno>
Etoperidone

>  <5-HT1A>
7.07

>  <DOPAMINE D2>
5.64

>  <Dopamine transporter>
5

>  <HISTAMINE H1>
5.51

>  <Muscarinic acetylcholine receptor M1>
5

>  <Muscarinic acetylcholine receptor M2>
5

>  <Muscarinic acetylcholine receptor M3>
5

>  <Muscarinic acetylcholine receptor M4>
5

>  <Muscarinic acetylcholine receptor M5>
5

>  <Norepinephrine transporter>
5

>  <Serotonin transporter>
6.05

$$$$
ETORICOXIB
  Marvin  02231216192D 0   1.00000     0.00000     0

 24 26  0  0  0  0  0  0  0  0999 V2000
    1.3103    1.0543    0.0000 Cl  0  0  0  0  0  0  0  0  0
    1.3103    0.2293    0.0000 C   0  0  0  0  0  0  0  0  0
    2.0248   -0.1832    0.0000 C   0  0  0  0  0  0  0  0  0
    2.0248   -1.0082    0.0000 C   0  0  0  0  0  0  0  0  0
    1.3103   -1.4207    0.0000 C   0  0  0  0  0  0  0  0  0
    0.5958   -1.0082    0.0000 N   0  0  0  0  0  0  0  0  0
    0.5958   -0.1832    0.0000 C   0  0  0  0  0  0  0  0  0
    1.3103   -2.2457    0.0000 C   0  0  0  0  0  0  0  0  0
    2.0248   -2.6582    0.0000 C   0  0  0  0  0  0  0  0  0
    2.0248   -3.4832    0.0000 C   0  0  0  0  0  0  0  0  0
    1.3103   -3.8957    0.0000 C   0  0  0  0  0  0  0  0  0
    0.5958   -3.4832    0.0000 N   0  0  0  0  0  0  0  0  0
    0.5958   -2.6582    0.0000 C   0  0  0  0  0  0  0  0  0
    1.3103   -4.7207    0.0000 C   0  0  0  0  0  0  0  0  0
    2.7392   -1.4207    0.0000 C   0  0  0  0  0  0  0  0  0
    3.4537   -1.0082    0.0000 C   0  0  0  0  0  0  0  0  0
    4.1682   -1.4207    0.0000 C   0  0  0  0  0  0  0  0  0
    4.1682   -2.2457    0.0000 C   0  0  0  0  0  0  0  0  0
    4.8826   -2.6582    0.0000 S   0  0  0  0  0  0  0  0  0
    5.5971   -3.0707    0.0000 O   0  0  0  0  0  0  0  0  0
    4.4701   -3.3727    0.0000 O   0  0  0  0  0  0  0  0  0
    5.2951   -1.9437    0.0000 C   0  0  0  0  0  0  0  0  0
    3.4537   -2.6582    0.0000 C   0  0  0  0  0  0  0  0  0
    2.7392   -2.2457    0.0000 C   0  0  0  0  0  0  0  0  0
  1  2  1  0  0  0  0
  2  3  4  0  0  0  0
  2  7  4  0  0  0  0
  3  4  4  0  0  0  0
  4  5  4  0  0  0  0
  4 15  1  0  0  0  0
  5  6  4  0  0  0  0
  5  8  1  0  0  0  0
  6  7  4  0  0  0  0
  8  9  4  0  0  0  0
  8 13  4  0  0  0  0
  9 10  4  0  0  0  0
 10 11  4  0  0  0  0
 11 12  4  0  0  0  0
 11 14  1  0  0  0  0
 12 13  4  0  0  0  0
 15 16  4  0  0  0  0
 15 24  4  0  0  0  0
 16 17  4  0  0  0  0
 17 18  4  0  0  0  0
 18 19  1  0  0  0  0
 18 23  4  0  0  0  0
 19 20  2  0  0  0  0
 19 21  2  0  0  0  0
 19 22  1  0  0  0  0
 23 24  4  0  0  0  0
M  END
>  <Name_Molregno>
ETORICOXIB

>  <5-HT1A>
5

>  <5-HT1B>
5

>  <5-HT1D>
5

>  <5-HT1E>
5

>  <5-HT2A>
5

>  <5-HT3>
5

>  <5-HT6>
5

>  <5-HT7>
5

>  <Alpha-1A>
5

>  <Alpha-1B>
5

>  <Alpha-2A>
5

>  <Alpha-2B>
5

>  <Alpha-2C>
5

>  <DOPAMINE D1>
5

>  <DOPAMINE D2>
5

>  <DOPAMINE D5>
5

>  <Dopamine transporter>
5

>  <HISTAMINE H2>
5

>  <HISTAMINE H4>
5

>  <Muscarinic acetylcholine receptor M1>
5

>  <Norepinephrine transporter>
5

>  <Serotonin transporter>
5

$$$$
Femoxetine
  Marvin  02231216192D 0   1.00000     0.00000     0

 23 25  0  0  1  0  0  0  0  0999 V2000
    0.2450    1.0399    0.0000 O   0  0  0  0  0  0  0  0  0
    0.9594    0.6274    0.0000 C   0  0  0  0  0  0  0  0  0
    0.9594   -0.1976    0.0000 C   0  0  0  0  0  0  0  0  0
    1.6739   -0.6101    0.0000 C   0  0  0  0  0  0  0  0  0
    1.6739   -1.4351    0.0000 N   0  0  0  0  0  0  0  0  0
    0.9594   -1.8476    0.0000 C   0  0  0  0  0  0  0  0  0
    0.2450   -1.4351    0.0000 C   0  0  0  0  0  0  0  0  0
    0.2450   -0.6101    0.0000 C   0  0  0  0  0  0  0  0  0
   -0.4695   -0.1976    0.0000 C   0  0  0  0  0  0  0  0  0
   -1.1840   -0.6101    0.0000 C   0  0  0  0  0  0  0  0  0
   -1.8985   -0.1976    0.0000 C   0  0  0  0  0  0  0  0  0
   -1.8985    0.6274    0.0000 C   0  0  0  0  0  0  0  0  0
   -1.1840    1.0399    0.0000 C   0  0  0  0  0  0  0  0  0
   -0.4695    0.6274    0.0000 C   0  0  0  0  0  0  0  0  0
    2.3884   -1.8476    0.0000 C   0  0  0  0  0  0  0  0  0
    0.2450    1.8649    0.0000 C   0  0  0  0  0  0  0  0  0
   -0.4695    2.2774    0.0000 C   0  0  0  0  0  0  0  0  0
   -0.4695    3.1024    0.0000 C   0  0  0  0  0  0  0  0  0
    0.2450    3.5149    0.0000 C   0  0  0  0  0  0  0  0  0
    0.2450    4.3399    0.0000 O   0  0  0  0  0  0  0  0  0
   -0.4695    4.7524    0.0000 C   0  0  0  0  0  0  0  0  0
    0.9594    3.1024    0.0000 C   0  0  0  0  0  0  0  0  0
    0.9594    2.2774    0.0000 C   0  0  0  0  0  0  0  0  0
  1  2  1  0  0  0  0
  1 16  1  0  0  0  0
  2  3  1  0  0  0  0
  3  4  1  0  0  0  0
  3  8  1  0  0  0  0
  4  5  1  0  0  0  0
  5  6  1  0  0  0  0
  5 15  1  0  0  0  0
  6  7  1  0  0  0  0
  7  8  1  0  0  0  0
  8  9  1  0  0  0  0
  9 10  4  0  0  0  0
  9 14  4  0  0  0  0
 10 11  4  0  0  0  0
 11 12  4  0  0  0  0
 12 13  4  0  0  0  0
 13 14  4  0  0  0  0
 16 17  4  0  0  0  0
 16 23  4  0  0  0  0
 17 18  4  0  0  0  0
 18 19  4  0  0  0  0
 19 20  1  0  0  0  0
 19 22  4  0  0  0  0
 20 21  1  0  0  0  0
 22 23  4  0  0  0  0
M  END
>  <Name_Molregno>
Femoxetine

>  <5-HT1A>
5.64

>  <DOPAMINE D2>
6.23

>  <Dopamine transporter>
5.69

>  <HISTAMINE H1>
5.38

>  <Muscarinic acetylcholine receptor M1>
7.04

>  <Muscarinic acetylcholine receptor M2>
6.82

>  <Muscarinic acetylcholine receptor M3>
6.66

>  <Muscarinic acetylcholine receptor M4>
6.33

>  <Muscarinic acetylcholine receptor M5>
6.4

>  <Norepinephrine transporter>
6.12

>  <Serotonin transporter>
7.96

$$$$
FLESINOXAN
  Marvin  02231216192D 0   1.00000     0.00000     0

 30 33  0  0  1  0  0  0  0  0999 V2000
    4.6010    5.2683    0.0000 F   0  0  0  0  0  0  0  0  0
    4.6010    4.4433    0.0000 C   0  0  0  0  0  0  0  0  0
    5.3155    4.0308    0.0000 C   0  0  0  0  0  0  0  0  0
    5.3155    3.2058    0.0000 C   0  0  0  0  0  0  0  0  0
    4.6010    2.7933    0.0000 C   0  0  0  0  0  0  0  0  0
    3.8865    3.2057    0.0000 C   0  0  0  0  0  0  0  0  0
    3.8865    4.0307    0.0000 C   0  0  0  0  0  0  0  0  0
    4.6010    1.9683    0.0000 C   0  0  0  0  0  0  0  0  0
    3.8865    1.5557    0.0000 O   0  0  0  0  0  0  0  0  0
    5.3155    1.5558    0.0000 N   0  0  0  0  0  0  0  0  0
    5.3155    0.7308    0.0000 C   0  0  0  0  0  0  0  0  0
    6.0300    0.3183    0.0000 C   0  0  0  0  0  0  0  0  0
    6.0300   -0.5067    0.0000 N   0  0  0  0  0  0  0  0  0
    6.7444   -0.9192    0.0000 C   0  0  0  0  0  0  0  0  0
    6.7444   -1.7442    0.0000 C   0  0  0  0  0  0  0  0  0
    6.0300   -2.1567    0.0000 N   0  0  0  0  0  0  0  0  0
    5.3155   -1.7442    0.0000 C   0  0  0  0  0  0  0  0  0
    5.3155   -0.9192    0.0000 C   0  0  0  0  0  0  0  0  0
    6.0300   -2.9817    0.0000 C   0  0  0  0  0  0  0  0  0
    6.7444   -3.3942    0.0000 C   0  0  0  0  0  0  0  0  0
    7.4589   -2.9817    0.0000 O   0  0  0  0  0  0  0  0  0
    8.1734   -3.3943    0.0000 C   0  0  0  0  0  0  0  0  0
    8.1734   -4.2193    0.0000 C   0  0  0  0  0  0  0  0  0
    7.4589   -4.6317    0.0000 O   0  0  0  0  0  0  0  0  0
    6.7444   -4.2192    0.0000 C   0  0  0  0  0  0  0  0  0
    6.0300   -4.6317    0.0000 C   0  0  0  0  0  0  0  0  0
    5.3155   -4.2192    0.0000 C   0  0  0  0  0  0  0  0  0
    5.3155   -3.3942    0.0000 C   0  0  0  0  0  0  0  0  0
    8.8878   -4.6318    0.0000 C   0  0  0  0  0  0  0  0  0
    9.6023   -4.2193    0.0000 O   0  0  0  0  0  0  0  0  0
  1  2  1  0  0  0  0
  2  3  4  0  0  0  0
  2  7  4  0  0  0  0
  3  4  4  0  0  0  0
  4  5  4  0  0  0  0
  5  6  4  0  0  0  0
  5  8  1  0  0  0  0
  6  7  4  0  0  0  0
  8  9  2  0  0  0  0
  8 10  1  0  0  0  0
 10 11  1  0  0  0  0
 11 12  1  0  0  0  0
 12 13  1  0  0  0  0
 13 14  1  0  0  0  0
 13 18  1  0  0  0  0
 14 15  1  0  0  0  0
 15 16  1  0  0  0  0
 16 17  1  0  0  0  0
 16 19  1  0  0  0  0
 17 18  1  0  0  0  0
 19 20  4  0  0  0  0
 19 28  4  0  0  0  0
 20 21  1  0  0  0  0
 20 25  4  0  0  0  0
 21 22  1  0  0  0  0
 22 23  1  0  0  0  0
 23 24  1  0  0  0  0
 23 29  1  0  0  0  0
 24 25  1  0  0  0  0
 25 26  4  0  0  0  0
 26 27  4  0  0  0  0
 27 28  4  0  0  0  0
 29 30  1  0  0  0  0
M  END
>  <Name_Molregno>
FLESINOXAN

>  <5-HT1A>
8.67

$$$$
Fluorocarazolol
  Marvin  02231216192D 0   1.00000     0.00000     0

 23 25  0  0  1  0  0  0  0  0999 V2000
   -0.1270    1.0228    0.0000 F   0  0  0  0  0  0  0  0  0
    0.5874    0.6103    0.0000 C   0  0  0  0  0  0  0  0  0
    1.3019    1.0228    0.0000 C   0  0  0  0  0  0  0  0  0
    2.0164    0.6103    0.0000 N   0  0  0  0  0  0  0  0  0
    2.7309    1.0228    0.0000 C   0  0  0  0  0  0  0  0  0
    3.4453    0.6103    0.0000 C   0  0  0  0  0  0  0  0  0
    3.4453   -0.2147    0.0000 O   0  0  0  0  0  0  0  0  0
    4.1598    1.0228    0.0000 C   0  0  0  0  0  0  0  0  0
    4.8743    0.6103    0.0000 O   0  0  0  0  0  0  0  0  0
    5.5887    1.0228    0.0000 C   0  0  0  0  0  0  0  0  0
    6.3032    0.6103    0.0000 C   0  0  0  0  0  0  0  0  0
    6.4747   -0.1966    0.0000 C   0  0  0  0  0  0  0  0  0
    7.2952   -0.2829    0.0000 C   0  0  0  0  0  0  0  0  0
    7.6308    0.4708    0.0000 N   0  0  0  0  0  0  0  0  0
    7.0177    1.0228    0.0000 C   0  0  0  0  0  0  0  0  0
    7.0177    1.8478    0.0000 C   0  0  0  0  0  0  0  0  0
    6.3032    2.2603    0.0000 C   0  0  0  0  0  0  0  0  0
    5.5887    1.8478    0.0000 C   0  0  0  0  0  0  0  0  0
    7.6308   -1.0365    0.0000 C   0  0  0  0  0  0  0  0  0
    7.1459   -1.7040    0.0000 C   0  0  0  0  0  0  0  0  0
    6.3254   -1.6178    0.0000 C   0  0  0  0  0  0  0  0  0
    5.9898   -0.8641    0.0000 C   0  0  0  0  0  0  0  0  0
    1.3019    1.8478    0.0000 C   0  0  0  0  0  0  0  0  0
  1  2  1  0  0  0  0
  2  3  1  0  0  0  0
  3  4  1  0  0  0  0
  3 23  1  0  0  0  0
  4  5  1  0  0  0  0
  5  6  1  0  0  0  0
  6  7  1  0  0  0  0
  6  8  1  0  0  0  0
  8  9  1  0  0  0  0
  9 10  1  0  0  0  0
 10 11  4  0  0  0  0
 10 18  4  0  0  0  0
 11 12  4  0  0  0  0
 11 15  4  0  0  0  0
 12 13  4  0  0  0  0
 12 22  4  0  0  0  0
 13 14  4  0  0  0  0
 13 19  4  0  0  0  0
 14 15  4  0  0  0  0
 15 16  4  0  0  0  0
 16 17  4  0  0  0  0
 17 18  4  0  0  0  0
 19 20  4  0  0  0  0
 20 21  4  0  0  0  0
 21 22  4  0  0  0  0
M  STY  1   1 DAT
M  SAL   1  1  14
M  SDT   1 MRV_IMPLICIT_H                                        
M  SDD   1     0.0000    0.0000    DR    ALL  0       0  
M  SED   1 IMPL_H1
M  END
>  <Name_Molregno>
Fluorocarazolol

>  <5-HT1A>
6.97

>  <5-HT1B>
6.31

>  <5-HT1D>
5.5

>  <5-HT1E>
5

>  <5-HT3>
5

>  <5-HT5>
5

>  <5-HT6>
5

>  <5-HT7>
5.17

>  <Alpha-1A>
5.85

>  <Alpha-1B>
5.76

>  <Alpha-2A>
5.5

>  <Alpha-2B>
5.03

>  <Alpha-2C>
5.54

>  <Beta-1>
9.65

>  <Beta-2>
9.98

>  <DOPAMINE D1>
5

>  <DOPAMINE D5>
5

>  <Muscarinic acetylcholine receptor M1>
5.66

>  <Muscarinic acetylcholine receptor M2>
5

>  <Muscarinic acetylcholine receptor M3>
5.4

>  <Muscarinic acetylcholine receptor M4>
5.14

>  <Muscarinic acetylcholine receptor M5>
5.27

>  <Norepinephrine transporter>
5

>  <Serotonin transporter>
5

$$$$
FLUOXETINE
  Marvin  02231216192D 0   1.00000     0.00000     0

 22 23  0  0  1  0  0  0  0  0999 V2000
    0.2470    0.2265    0.0000 F   0  0  0  0  0  0  0  0  0
    0.9615   -0.1860    0.0000 C   0  0  0  0  0  0  0  0  0
    0.5490   -0.9005    0.0000 F   0  0  0  0  0  0  0  0  0
    1.3740    0.5285    0.0000 F   0  0  0  0  0  0  0  0  0
    1.6760   -0.5985    0.0000 C   0  0  0  0  0  0  0  0  0
    2.3904   -0.1860    0.0000 C   0  0  0  0  0  0  0  0  0
    3.1049   -0.5985    0.0000 C   0  0  0  0  0  0  0  0  0
    3.1049   -1.4235    0.0000 C   0  0  0  0  0  0  0  0  0
    3.8194   -1.8360    0.0000 O   0  0  0  0  0  0  0  0  0
    4.5339   -1.4235    0.0000 C   0  0  0  0  0  0  0  0  0
    5.2483   -1.8360    0.0000 C   0  0  0  0  0  0  0  0  0
    5.9628   -1.4235    0.0000 C   0  0  0  0  0  0  0  0  0
    6.6773   -1.8360    0.0000 N   0  0  0  0  0  0  0  0  0
    7.3917   -1.4235    0.0000 C   0  0  0  0  0  0  0  0  0
    4.5339   -0.5985    0.0000 C   0  0  0  0  0  0  0  0  0
    3.8194   -0.1860    0.0000 C   0  0  0  0  0  0  0  0  0
    3.8194    0.6390    0.0000 C   0  0  0  0  0  0  0  0  0
    4.5339    1.0515    0.0000 C   0  0  0  0  0  0  0  0  0
    5.2483    0.6390    0.0000 C   0  0  0  0  0  0  0  0  0
    5.2483   -0.1860    0.0000 C   0  0  0  0  0  0  0  0  0
    2.3904   -1.8360    0.0000 C   0  0  0  0  0  0  0  0  0
    1.6760   -1.4235    0.0000 C   0  0  0  0  0  0  0  0  0
  1  2  1  0  0  0  0
  2  3  1  0  0  0  0
  2  4  1  0  0  0  0
  2  5  1  0  0  0  0
  5  6  4  0  0  0  0
  5 22  4  0  0  0  0
  6  7  4  0  0  0  0
  7  8  4  0  0  0  0
  8  9  1  0  0  0  0
  8 21  4  0  0  0  0
  9 10  1  0  0  0  0
 10 11  1  0  0  0  0
 10 15  1  0  0  0  0
 11 12  1  0  0  0  0
 12 13  1  0  0  0  0
 13 14  1  0  0  0  0
 15 16  4  0  0  0  0
 15 20  4  0  0  0  0
 16 17  4  0  0  0  0
 17 18  4  0  0  0  0
 18 19  4  0  0  0  0
 19 20  4  0  0  0  0
 21 22  4  0  0  0  0
M  END
>  <Name_Molregno>
FLUOXETINE

>  <5-HT1A>
5

>  <5-HT2A>
6.72

>  <5-HT2C>
6.67

>  <Alpha-2A>
8.2

>  <DOPAMINE D2>
5

>  <Dopamine transporter>
5.32

>  <HISTAMINE H1>
5.62

>  <HISTAMINE H3>
5.14

>  <Muscarinic acetylcholine receptor M1>
6.05

>  <Muscarinic acetylcholine receptor M2>
5.57

>  <Muscarinic acetylcholine receptor M3>
6

>  <Muscarinic acetylcholine receptor M4>
5.54

>  <Muscarinic acetylcholine receptor M5>
5.57

>  <Norepinephrine transporter>
6.05

>  <Serotonin transporter>
8.57

$$$$
Fluparoxan
  Marvin  02231216192D 0   1.00000     0.00000     0

 14 16  0  0  1  0  0  0  0  0999 V2000
   -2.9096    0.8157    0.0000 F   0  0  0  0  0  0  0  0  0
   -2.9096   -0.0093    0.0000 C   0  0  0  0  0  0  0  0  0
   -2.1951   -0.4218    0.0000 C   0  0  0  0  0  0  0  0  0
   -1.4806   -0.0093    0.0000 O   0  0  0  0  0  0  0  0  0
   -0.7662   -0.4218    0.0000 C   0  0  0  0  0  0  0  0  0
   -0.7662   -1.2468    0.0000 C   0  0  0  0  0  0  0  0  0
   -1.4806   -1.6593    0.0000 O   0  0  0  0  0  0  0  0  0
   -2.1951   -1.2468    0.0000 C   0  0  0  0  0  0  0  0  0
   -2.9096   -1.6593    0.0000 C   0  0  0  0  0  0  0  0  0
   -3.6240   -1.2468    0.0000 C   0  0  0  0  0  0  0  0  0
   -3.6240   -0.4218    0.0000 C   0  0  0  0  0  0  0  0  0
    0.0185   -1.5018    0.0000 C   0  0  0  0  0  0  0  0  0
    0.5034   -0.8343    0.0000 N   0  0  0  0  0  0  0  0  0
    0.0185   -0.1669    0.0000 C   0  0  0  0  0  0  0  0  0
  1  2  1  0  0  0  0
  2  3  4  0  0  0  0
  2 11  4  0  0  0  0
  3  4  1  0  0  0  0
  3  8  4  0  0  0  0
  4  5  1  0  0  0  0
  5  6  1  0  0  0  0
  5 14  1  0  0  0  0
  6  7  1  0  0  0  0
  6 12  1  0  0  0  0
  7  8  1  0  0  0  0
  8  9  4  0  0  0  0
  9 10  4  0  0  0  0
 10 11  4  0  0  0  0
 12 13  1  0  0  0  0
 13 14  1  0  0  0  0
M  END
>  <Name_Molregno>
Fluparoxan

>  <5-HT1A>
6.8

>  <5-HT1B>
6

>  <5-HT1D>
6

>  <5-HT2A>
6

>  <5-HT2C>
6

>  <Alpha-1A>
6.3

>  <Alpha-1B>
6

>  <Alpha-2A>
8.13

>  <Alpha-2B>
8.9

>  <Alpha-2C>
8.8

>  <DOPAMINE D2>
6

>  <DOPAMINE D3>
6

>  <Serotonin transporter>
6

$$$$
FLUPENTHIXOL-Alpha
  Marvin  02231216192D 0   1.00000     0.00000     0

 30 33  0  0  0  0  0  0  0  0999 V2000
    2.2729   -3.8406    0.0000 S   0  0  0  0  0  0  0  0  0
    2.9874   -3.4281    0.0000 C   0  0  0  0  0  0  0  0  0
    2.9874   -2.6031    0.0000 C   0  0  0  0  0  0  0  0  0
    3.7018   -2.1906    0.0000 C   0  0  0  0  0  0  0  0  0
    4.4163   -2.6031    0.0000 C   0  0  0  0  0  0  0  0  0
    4.4163   -3.4281    0.0000 C   0  0  0  0  0  0  0  0  0
    3.7018   -3.8406    0.0000 C   0  0  0  0  0  0  0  0  0
    5.1308   -2.1906    0.0000 C   0  0  0  0  0  0  0  0  0
    5.8453   -1.7781    0.0000 F   0  0  0  0  0  0  0  0  0
    4.7183   -1.4762    0.0000 F   0  0  0  0  0  0  0  0  0
    5.5433   -2.9051    0.0000 F   0  0  0  0  0  0  0  0  0
    2.2729   -2.1906    0.0000 C   0  0  0  0  0  0  0  0  0
    1.5584   -2.6031    0.0000 C   0  0  0  0  0  0  0  0  0
    1.5584   -3.4281    0.0000 C   0  0  0  0  0  0  0  0  0
    0.8440   -3.8406    0.0000 C   0  0  0  0  0  0  0  0  0
    0.1295   -3.4281    0.0000 C   0  0  0  0  0  0  0  0  0
    0.1295   -2.6031    0.0000 C   0  0  0  0  0  0  0  0  0
    0.8440   -2.1906    0.0000 C   0  0  0  0  0  0  0  0  0
    2.2729   -1.3656    0.0000 C   0  0  0  0  0  0  0  0  0
    1.5584   -0.9531    0.0000 C   0  0  0  0  0  0  0  0  0
    0.8440   -1.3656    0.0000 C   0  0  0  0  0  0  0  0  0
    0.1295   -0.9531    0.0000 N   0  0  0  0  0  0  0  0  0
   -0.5850   -1.3656    0.0000 C   0  0  0  0  0  0  0  0  0
   -1.2994   -0.9531    0.0000 C   0  0  0  0  0  0  0  0  0
   -1.2994   -0.1281    0.0000 N   0  0  0  0  0  0  0  0  0
   -0.5850    0.2844    0.0000 C   0  0  0  0  0  0  0  0  0
    0.1295   -0.1281    0.0000 C   0  0  0  0  0  0  0  0  0
   -2.0139    0.2844    0.0000 C   0  0  0  0  0  0  0  0  0
   -2.0139    1.1094    0.0000 C   0  0  0  0  0  0  0  0  0
   -2.7284    1.5219    0.0000 O   0  0  0  0  0  0  0  0  0
  1  2  1  0  0  0  0
  1 14  1  0  0  0  0
  2  3  4  0  0  0  0
  2  7  4  0  0  0  0
  3  4  4  0  0  0  0
  3 12  1  0  0  0  0
  4  5  4  0  0  0  0
  5  6  4  0  0  0  0
  5  8  1  0  0  0  0
  6  7  4  0  0  0  0
  8  9  1  0  0  0  0
  8 10  1  0  0  0  0
  8 11  1  0  0  0  0
 12 13  1  0  0  0  0
 12 19  2  0  0  0  0
 13 14  4  0  0  0  0
 13 18  4  0  0  0  0
 14 15  4  0  0  0  0
 15 16  4  0  0  0  0
 16 17  4  0  0  0  0
 17 18  4  0  0  0  0
 19 20  1  0  0  0  0
 20 21  1  0  0  0  0
 21 22  1  0  0  0  0
 22 23  1  0  0  0  0
 22 27  1  0  0  0  0
 23 24  1  0  0  0  0
 24 25  1  0  0  0  0
 25 26  1  0  0  0  0
 25 28  1  0  0  0  0
 26 27  1  0  0  0  0
 28 29  1  0  0  0  0
 29 30  1  0  0  0  0
M  END
>  <Name_Molregno>
FLUPENTHIXOL-Alpha

>  <5-HT1A>
5.1

>  <5-HT2A>
7.06

>  <DOPAMINE D1>
8.44

>  <DOPAMINE D2>
8.74

>  <DOPAMINE D3>
8.15

>  <DOPAMINE D4>
7.23

>  <DOPAMINE D5>
8.1

>  <HISTAMINE H1>
8.65

$$$$
FLUPHENAZINE
  Marvin  02231216192D 0   1.00000     0.00000     0

 38 41  0  0  0  0  0  0  0  0999 V2000
   -7.1492   -1.5262    0.0000 S   0  0  0  0  0  0  0  0  0
   -7.1492   -2.3512    0.0000 C   0  0  0  0  0  0  0  0  0
   -6.4348   -2.7637    0.0000 C   0  0  0  0  0  0  0  0  0
   -5.7203   -2.3512    0.0000 N   0  0  0  0  0  0  0  0  0
   -5.7203   -1.5262    0.0000 C   0  0  0  0  0  0  0  0  0
   -6.4348   -1.1137    0.0000 C   0  0  0  0  0  0  0  0  0
   -6.4348   -0.2887    0.0000 C   0  0  0  0  0  0  0  0  0
   -5.7203    0.1238    0.0000 C   0  0  0  0  0  0  0  0  0
   -5.0058   -0.2887    0.0000 C   0  0  0  0  0  0  0  0  0
   -5.0058   -1.1137    0.0000 C   0  0  0  0  0  0  0  0  0
   -5.0058   -2.7637    0.0000 C   0  0  0  0  0  0  0  0  0
   -4.2914   -2.3512    0.0000 C   0  0  0  0  0  0  0  0  0
   -3.5769   -2.7637    0.0000 C   0  0  0  0  0  0  0  0  0
   -2.8624   -2.3512    0.0000 N   0  0  0  0  0  0  0  0  0
   -2.8624   -1.5262    0.0000 C   0  0  0  0  0  0  0  0  0
   -2.1479   -1.1137    0.0000 C   0  0  0  0  0  0  0  0  0
   -1.4335   -1.5262    0.0000 N   0  0  0  0  0  0  0  0  0
   -1.4335   -2.3512    0.0000 C   0  0  0  0  0  0  0  0  0
   -2.1479   -2.7637    0.0000 C   0  0  0  0  0  0  0  0  0
   -0.7190   -1.1137    0.0000 C   0  0  0  0  0  0  0  0  0
   -0.0045   -1.5262    0.0000 C   0  0  0  0  0  0  0  0  0
    0.7099   -1.1137    0.0000 O   0  0  0  0  0  0  0  0  0
    1.4244   -1.5262    0.0000 C   0  0  0  0  0  0  0  0  0
    1.4244   -2.3512    0.0000 O   0  0  0  0  0  0  0  0  0
    2.1389   -1.1137    0.0000 C   0  0  0  0  0  0  0  0  0
    2.8534   -1.5262    0.0000 C   0  0  0  0  0  0  0  0  0
    3.5678   -1.1137    0.0000 C   0  0  0  0  0  0  0  0  0
    4.2823   -1.5262    0.0000 C   0  0  0  0  0  0  0  0  0
    4.9968   -1.1137    0.0000 C   0  0  0  0  0  0  0  0  0
    5.7112   -1.5262    0.0000 C   0  0  0  0  0  0  0  0  0
   -6.4348   -3.5887    0.0000 C   0  0  0  0  0  0  0  0  0
   -7.1492   -4.0012    0.0000 C   0  0  0  0  0  0  0  0  0
   -7.8637   -3.5887    0.0000 C   0  0  0  0  0  0  0  0  0
   -7.8637   -2.7637    0.0000 C   0  0  0  0  0  0  0  0  0
   -7.1492   -4.8262    0.0000 C   0  0  0  0  0  0  0  0  0
   -7.1492   -5.6512    0.0000 F   0  0  0  0  0  0  0  0  0
   -7.9742   -4.8262    0.0000 F   0  0  0  0  0  0  0  0  0
   -6.3242   -4.8262    0.0000 F   0  0  0  0  0  0  0  0  0
  1  2  1  0  0  0  0
  1  6  1  0  0  0  0
  2  3  4  0  0  0  0
  2 34  4  0  0  0  0
  3  4  1  0  0  0  0
  3 31  4  0  0  0  0
  4  5  1  0  0  0  0
  4 11  1  0  0  0  0
  5  6  4  0  0  0  0
  5 10  4  0  0  0  0
  6  7  4  0  0  0  0
  7  8  4  0  0  0  0
  8  9  4  0  0  0  0
  9 10  4  0  0  0  0
 11 12  1  0  0  0  0
 12 13  1  0  0  0  0
 13 14  1  0  0  0  0
 14 15  1  0  0  0  0
 14 19  1  0  0  0  0
 15 16  1  0  0  0  0
 16 17  1  0  0  0  0
 17 18  1  0  0  0  0
 17 20  1  0  0  0  0
 18 19  1  0  0  0  0
 20 21  1  0  0  0  0
 21 22  1  0  0  0  0
 22 23  1  0  0  0  0
 23 24  2  0  0  0  0
 23 25  1  0  0  0  0
 25 26  1  0  0  0  0
 26 27  1  0  0  0  0
 27 28  1  0  0  0  0
 28 29  1  0  0  0  0
 29 30  1  0  0  0  0
 31 32  4  0  0  0  0
 32 33  4  0  0  0  0
 32 35  1  0  0  0  0
 33 34  4  0  0  0  0
 35 36  1  0  0  0  0
 35 37  1  0  0  0  0
 35 38  1  0  0  0  0
M  END
>  <Name_Molregno>
FLUPHENAZINE

>  <5-HT1A>
6.41

>  <5-HT1B>
6.48

>  <5-HT1D>
6.48

>  <5-HT1E>
6.27

>  <5-HT2A>
7.87

>  <5-HT2C>
6.05

>  <5-HT3>
5

>  <5-HT5>
6.84

>  <5-HT6>
7.46

>  <5-HT7>
8.1

>  <Alpha-1A>
8.19

>  <Alpha-1B>
7.89

>  <Alpha-2A>
6.5

>  <Alpha-2B>
7.09

>  <Alpha-2C>
7.54

>  <Beta-1>
5

>  <Beta-2>
5

>  <DOPAMINE D1>
7.55

>  <DOPAMINE D2>
9.22

>  <DOPAMINE D3>
9.33

>  <DOPAMINE D4>
7.52

>  <DOPAMINE D5>
7.82

>  <Dopamine transporter>
5

>  <HISTAMINE H1>
7.72

>  <HISTAMINE H2>
6.25

>  <HISTAMINE H3>
6

>  <HISTAMINE H4>
5

>  <Muscarinic acetylcholine receptor M1>
5.96

>  <Muscarinic acetylcholine receptor M2>
5.14

>  <Muscarinic acetylcholine receptor M3>
5.84

>  <Muscarinic acetylcholine receptor M4>
5.27

>  <Muscarinic acetylcholine receptor M5>
6.45

>  <Norepinephrine transporter>
5.51

>  <Serotonin transporter>
5.23

$$$$
FLUSPIRILENE
  Marvin  02231216192D 0   1.00000     0.00000     0

 35 39  0  0  0  0  0  0  0  0999 V2000
    3.1924   -2.1696    0.0000 F   0  0  0  0  0  0  0  0  0
    2.3674   -2.1696    0.0000 C   0  0  0  0  0  0  0  0  0
    1.9549   -2.8841    0.0000 C   0  0  0  0  0  0  0  0  0
    1.1299   -2.8841    0.0000 C   0  0  0  0  0  0  0  0  0
    0.7174   -2.1696    0.0000 C   0  0  0  0  0  0  0  0  0
    1.1299   -1.4552    0.0000 C   0  0  0  0  0  0  0  0  0
    1.9549   -1.4552    0.0000 C   0  0  0  0  0  0  0  0  0
   -0.1076   -2.1696    0.0000 C   0  0  0  0  0  0  0  0  0
   -0.5201   -2.8841    0.0000 C   0  0  0  0  0  0  0  0  0
   -1.3451   -2.8841    0.0000 C   0  0  0  0  0  0  0  0  0
   -1.7576   -3.5986    0.0000 C   0  0  0  0  0  0  0  0  0
   -2.5826   -3.5986    0.0000 N   0  0  0  0  0  0  0  0  0
   -2.9951   -4.3130    0.0000 C   0  0  0  0  0  0  0  0  0
   -3.8201   -4.3130    0.0000 C   0  0  0  0  0  0  0  0  0
   -4.2326   -3.5986    0.0000 C   0  0  0  0  0  0  0  0  0
   -4.7175   -4.2660    0.0000 N   0  0  0  0  0  0  0  0  0
   -5.5021   -4.0111    0.0000 C   0  0  0  0  0  0  0  0  0
   -5.5021   -3.1861    0.0000 N   0  0  0  0  0  0  0  0  0
   -4.7175   -2.9311    0.0000 C   0  0  0  0  0  0  0  0  0
   -4.4626   -2.1465    0.0000 O   0  0  0  0  0  0  0  0  0
   -4.4626   -5.0506    0.0000 C   0  0  0  0  0  0  0  0  0
   -3.6556   -5.2222    0.0000 C   0  0  0  0  0  0  0  0  0
   -3.4007   -6.0068    0.0000 C   0  0  0  0  0  0  0  0  0
   -3.9527   -6.6199    0.0000 C   0  0  0  0  0  0  0  0  0
   -4.7597   -6.4483    0.0000 C   0  0  0  0  0  0  0  0  0
   -5.0146   -5.6637    0.0000 C   0  0  0  0  0  0  0  0  0
   -3.8201   -2.8841    0.0000 C   0  0  0  0  0  0  0  0  0
   -2.9951   -2.8841    0.0000 C   0  0  0  0  0  0  0  0  0
   -0.5201   -1.4552    0.0000 C   0  0  0  0  0  0  0  0  0
   -1.3451   -1.4552    0.0000 C   0  0  0  0  0  0  0  0  0
   -1.7576   -0.7407    0.0000 C   0  0  0  0  0  0  0  0  0
   -1.3451   -0.0262    0.0000 C   0  0  0  0  0  0  0  0  0
   -1.7576    0.6883    0.0000 F   0  0  0  0  0  0  0  0  0
   -0.5201   -0.0262    0.0000 C   0  0  0  0  0  0  0  0  0
   -0.1076   -0.7407    0.0000 C   0  0  0  0  0  0  0  0  0
  1  2  1  0  0  0  0
  2  3  4  0  0  0  0
  2  7  4  0  0  0  0
  3  4  4  0  0  0  0
  4  5  4  0  0  0  0
  5  6  4  0  0  0  0
  5  8  1  0  0  0  0
  6  7  4  0  0  0  0
  8  9  1  0  0  0  0
  8 29  1  0  0  0  0
  9 10  1  0  0  0  0
 10 11  1  0  0  0  0
 11 12  1  0  0  0  0
 12 13  1  0  0  0  0
 12 28  1  0  0  0  0
 13 14  1  0  0  0  0
 14 15  1  0  0  0  0
 15 16  1  0  0  0  0
 15 19  1  0  0  0  0
 15 27  1  0  0  0  0
 16 17  1  0  0  0  0
 16 21  1  0  0  0  0
 17 18  1  0  0  0  0
 18 19  1  0  0  0  0
 19 20  2  0  0  0  0
 21 22  4  0  0  0  0
 21 26  4  0  0  0  0
 22 23  4  0  0  0  0
 23 24  4  0  0  0  0
 24 25  4  0  0  0  0
 25 26  4  0  0  0  0
 27 28  1  0  0  0  0
 29 30  4  0  0  0  0
 29 35  4  0  0  0  0
 30 31  4  0  0  0  0
 31 32  4  0  0  0  0
 32 33  1  0  0  0  0
 32 34  4  0  0  0  0
 34 35  4  0  0  0  0
M  END
>  <Name_Molregno>
FLUSPIRILENE

>  <5-HT1A>
7.25

>  <5-HT1B>
5.95

>  <5-HT1D>
5.3

>  <5-HT1E>
5.65

>  <5-HT2A>
8.02

>  <Alpha-2A>
6.24

>  <Alpha-2B>
7.32

>  <Alpha-2C>
7.21

>  <Beta-1>
6.23

>  <Beta-2>
6.29

>  <DOPAMINE D2>
9.37

>  <DOPAMINE D3>
8.73

>  <DOPAMINE D4>
8.26

>  <HISTAMINE H1>
7.92

>  <Serotonin transporter>
6

$$$$
GBR-12909
  Marvin  02231216192D 0   1.00000     0.00000     0

 33 36  0  0  0  0  0  0  0  0999 V2000
    1.8465    2.7773    0.0000 F   0  0  0  0  0  0  0  0  0
    1.8465    1.9523    0.0000 C   0  0  0  0  0  0  0  0  0
    2.5610    1.5398    0.0000 C   0  0  0  0  0  0  0  0  0
    2.5610    0.7148    0.0000 C   0  0  0  0  0  0  0  0  0
    1.8465    0.3023    0.0000 C   0  0  0  0  0  0  0  0  0
    1.1320    0.7148    0.0000 C   0  0  0  0  0  0  0  0  0
    1.1320    1.5398    0.0000 C   0  0  0  0  0  0  0  0  0
    1.8465   -0.5227    0.0000 C   0  0  0  0  0  0  0  0  0
    2.5610   -0.9352    0.0000 O   0  0  0  0  0  0  0  0  0
    2.5610   -1.7602    0.0000 C   0  0  0  0  0  0  0  0  0
    3.2755   -2.1727    0.0000 C   0  0  0  0  0  0  0  0  0
    3.2755   -2.9977    0.0000 N   0  0  0  0  0  0  0  0  0
    3.9899   -3.4102    0.0000 C   0  0  0  0  0  0  0  0  0
    3.9899   -4.2352    0.0000 C   0  0  0  0  0  0  0  0  0
    3.2755   -4.6477    0.0000 N   0  0  0  0  0  0  0  0  0
    2.5610   -4.2352    0.0000 C   0  0  0  0  0  0  0  0  0
    2.5610   -3.4102    0.0000 C   0  0  0  0  0  0  0  0  0
    3.2755   -5.4727    0.0000 C   0  0  0  0  0  0  0  0  0
    2.5610   -5.8852    0.0000 C   0  0  0  0  0  0  0  0  0
    2.5610   -6.7102    0.0000 C   0  0  0  0  0  0  0  0  0
    3.2755   -7.1227    0.0000 C   0  0  0  0  0  0  0  0  0
    3.9899   -6.7102    0.0000 C   0  0  0  0  0  0  0  0  0
    4.7044   -7.1227    0.0000 C   0  0  0  0  0  0  0  0  0
    4.7044   -7.9477    0.0000 C   0  0  0  0  0  0  0  0  0
    3.9899   -8.3602    0.0000 C   0  0  0  0  0  0  0  0  0
    3.2755   -7.9477    0.0000 C   0  0  0  0  0  0  0  0  0
    1.1320   -0.9352    0.0000 C   0  0  0  0  0  0  0  0  0
    1.1320   -1.7602    0.0000 C   0  0  0  0  0  0  0  0  0
    0.4176   -2.1727    0.0000 C   0  0  0  0  0  0  0  0  0
   -0.2969   -1.7602    0.0000 C   0  0  0  0  0  0  0  0  0
   -1.0114   -2.1727    0.0000 F   0  0  0  0  0  0  0  0  0
   -0.2969   -0.9352    0.0000 C   0  0  0  0  0  0  0  0  0
    0.4176   -0.5227    0.0000 C   0  0  0  0  0  0  0  0  0
  1  2  1  0  0  0  0
  2  3  4  0  0  0  0
  2  7  4  0  0  0  0
  3  4  4  0  0  0  0
  4  5  4  0  0  0  0
  5  6  4  0  0  0  0
  5  8  1  0  0  0  0
  6  7  4  0  0  0  0
  8  9  1  0  0  0  0
  8 27  1  0  0  0  0
  9 10  1  0  0  0  0
 10 11  1  0  0  0  0
 11 12  1  0  0  0  0
 12 13  1  0  0  0  0
 12 17  1  0  0  0  0
 13 14  1  0  0  0  0
 14 15  1  0  0  0  0
 15 16  1  0  0  0  0
 15 18  1  0  0  0  0
 16 17  1  0  0  0  0
 18 19  1  0  0  0  0
 19 20  1  0  0  0  0
 20 21  1  0  0  0  0
 21 22  4  0  0  0  0
 21 26  4  0  0  0  0
 22 23  4  0  0  0  0
 23 24  4  0  0  0  0
 24 25  4  0  0  0  0
 25 26  4  0  0  0  0
 27 28  4  0  0  0  0
 27 33  4  0  0  0  0
 28 29  4  0  0  0  0
 29 30  4  0  0  0  0
 30 31  1  0  0  0  0
 30 32  4  0  0  0  0
 32 33  4  0  0  0  0
M  END
>  <Name_Molregno>
GBR-12909

>  <5-HT1A>
5.33

>  <DOPAMINE D1>
5

>  <DOPAMINE D2>
6.13

>  <DOPAMINE D3>
6.96

>  <Dopamine transporter>
8.16

>  <HISTAMINE H1>
8.03

$$$$
GEPIRONE
  Marvin  02231216192D 0   1.00000     0.00000     0

 26 28  0  0  0  0  0  0  0  0999 V2000
    1.3468    1.0359    0.0000 O   0  0  0  0  0  0  0  0  0
    0.6324    0.6234    0.0000 C   0  0  0  0  0  0  0  0  0
    0.6324   -0.2016    0.0000 N   0  0  0  0  0  0  0  0  0
    1.3468   -0.6141    0.0000 C   0  0  0  0  0  0  0  0  0
    2.0613   -0.2016    0.0000 C   0  0  0  0  0  0  0  0  0
    2.7758   -0.6141    0.0000 C   0  0  0  0  0  0  0  0  0
    3.4903   -0.2016    0.0000 C   0  0  0  0  0  0  0  0  0
    4.2047   -0.6141    0.0000 N   0  0  0  0  0  0  0  0  0
    4.9192   -0.2016    0.0000 C   0  0  0  0  0  0  0  0  0
    5.6337   -0.6141    0.0000 C   0  0  0  0  0  0  0  0  0
    5.6337   -1.4391    0.0000 N   0  0  0  0  0  0  0  0  0
    4.9192   -1.8516    0.0000 C   0  0  0  0  0  0  0  0  0
    4.2047   -1.4391    0.0000 C   0  0  0  0  0  0  0  0  0
    6.3481   -1.8516    0.0000 C   0  0  0  0  0  0  0  0  0
    7.0626   -1.4391    0.0000 N   0  0  0  0  0  0  0  0  0
    7.7771   -1.8516    0.0000 C   0  0  0  0  0  0  0  0  0
    7.7771   -2.6766    0.0000 C   0  0  0  0  0  0  0  0  0
    7.0626   -3.0891    0.0000 C   0  0  0  0  0  0  0  0  0
    6.3481   -2.6766    0.0000 N   0  0  0  0  0  0  0  0  0
   -0.0821   -0.6141    0.0000 C   0  0  0  0  0  0  0  0  0
   -0.0821   -1.4391    0.0000 O   0  0  0  0  0  0  0  0  0
   -0.7966   -0.2016    0.0000 C   0  0  0  0  0  0  0  0  0
   -0.7966    0.6234    0.0000 C   0  0  0  0  0  0  0  0  0
   -0.0821    1.0359    0.0000 C   0  0  0  0  0  0  0  0  0
   -1.6211    0.6521    0.0000 C   0  0  0  0  0  0  0  0  0
   -1.2338    1.3230    0.0000 C   0  0  0  0  0  0  0  0  0
  1  2  2  0  0  0  0
  2  3  1  0  0  0  0
  2 24  1  0  0  0  0
  3  4  1  0  0  0  0
  3 20  1  0  0  0  0
  4  5  1  0  0  0  0
  5  6  1  0  0  0  0
  6  7  1  0  0  0  0
  7  8  1  0  0  0  0
  8  9  1  0  0  0  0
  8 13  1  0  0  0  0
  9 10  1  0  0  0  0
 10 11  1  0  0  0  0
 11 12  1  0  0  0  0
 11 14  1  0  0  0  0
 12 13  1  0  0  0  0
 14 15  4  0  0  0  0
 14 19  4  0  0  0  0
 15 16  4  0  0  0  0
 16 17  4  0  0  0  0
 17 18  4  0  0  0  0
 18 19  4  0  0  0  0
 20 21  2  0  0  0  0
 20 22  1  0  0  0  0
 22 23  1  0  0  0  0
 23 24  1  0  0  0  0
 23 25  1  0  0  0  0
 23 26  1  0  0  0  0
M  END
>  <Name_Molregno>
GEPIRONE

>  <5-HT1A>
7.89

>  <DOPAMINE D2>
7.24

$$$$
HALOPERIDOL
  Marvin  02231216192D 0   1.00000     0.00000     0

 26 28  0  0  0  0  0  0  0  0999 V2000
    1.7138    2.6466    0.0000 Cl  0  0  0  0  0  0  0  0  0
    1.9960    1.8714    0.0000 C   0  0  0  0  0  0  0  0  0
    2.8084    1.7281    0.0000 C   0  0  0  0  0  0  0  0  0
    3.0906    0.9529    0.0000 C   0  0  0  0  0  0  0  0  0
    2.5603    0.3209    0.0000 C   0  0  0  0  0  0  0  0  0
    1.7478    0.4642    0.0000 C   0  0  0  0  0  0  0  0  0
    1.4657    1.2394    0.0000 C   0  0  0  0  0  0  0  0  0
    2.8425   -0.4543    0.0000 C   0  0  0  0  0  0  0  0  0
    2.0300   -0.5976    0.0000 O   0  0  0  0  0  0  0  0  0
    3.5569   -0.0418    0.0000 C   0  0  0  0  0  0  0  0  0
    4.2714   -0.4543    0.0000 C   0  0  0  0  0  0  0  0  0
    4.2714   -1.2793    0.0000 N   0  0  0  0  0  0  0  0  0
    3.5569   -1.6918    0.0000 C   0  0  0  0  0  0  0  0  0
    2.8425   -1.2793    0.0000 C   0  0  0  0  0  0  0  0  0
    4.9859   -1.6918    0.0000 C   0  0  0  0  0  0  0  0  0
    5.7003   -1.2793    0.0000 C   0  0  0  0  0  0  0  0  0
    6.4148   -1.6918    0.0000 C   0  0  0  0  0  0  0  0  0
    7.1293   -1.2793    0.0000 C   0  0  0  0  0  0  0  0  0
    7.1293   -0.4543    0.0000 O   0  0  0  0  0  0  0  0  0
    7.8438   -1.6918    0.0000 C   0  0  0  0  0  0  0  0  0
    8.5582   -1.2793    0.0000 C   0  0  0  0  0  0  0  0  0
    9.2727   -1.6918    0.0000 C   0  0  0  0  0  0  0  0  0
    9.2727   -2.5168    0.0000 C   0  0  0  0  0  0  0  0  0
    9.9872   -2.9293    0.0000 F   0  0  0  0  0  0  0  0  0
    8.5582   -2.9293    0.0000 C   0  0  0  0  0  0  0  0  0
    7.8438   -2.5168    0.0000 C   0  0  0  0  0  0  0  0  0
  1  2  1  0  0  0  0
  2  3  4  0  0  0  0
  2  7  4  0  0  0  0
  3  4  4  0  0  0  0
  4  5  4  0  0  0  0
  5  6  4  0  0  0  0
  5  8  1  0  0  0  0
  6  7  4  0  0  0  0
  8  9  1  0  0  0  0
  8 10  1  0  0  0  0
  8 14  1  0  0  0  0
 10 11  1  0  0  0  0
 11 12  1  0  0  0  0
 12 13  1  0  0  0  0
 12 15  1  0  0  0  0
 13 14  1  0  0  0  0
 15 16  1  0  0  0  0
 16 17  1  0  0  0  0
 17 18  1  0  0  0  0
 18 19  2  0  0  0  0
 18 20  1  0  0  0  0
 20 21  4  0  0  0  0
 20 26  4  0  0  0  0
 21 22  4  0  0  0  0
 22 23  4  0  0  0  0
 23 24  1  0  0  0  0
 23 25  4  0  0  0  0
 25 26  4  0  0  0  0
M  END
>  <Name_Molregno>
HALOPERIDOL

>  <5-HT1A>
5.67

>  <5-HT1B>
6.63

>  <5-HT1D>
5.56

>  <5-HT1E>
5.15

>  <5-HT2A>
7.01

>  <5-HT2C>
5.24

>  <5-HT3>
5

>  <5-HT5>
5.65

>  <5-HT6>
5.28

>  <5-HT7>
6.32

>  <Alpha-1A>
7.92

>  <Alpha-1B>
8.1

>  <Alpha-2A>
6.04

>  <Alpha-2B>
6.32

>  <Alpha-2C>
6.34

>  <Beta-1>
5

>  <Beta-2>
5.15

>  <DOPAMINE D1>
7.22

>  <DOPAMINE D2>
8.75

>  <DOPAMINE D3>
8.33

>  <DOPAMINE D4>
8.29

>  <DOPAMINE D5>
7.03

>  <Dopamine transporter>
5

>  <HISTAMINE H1>
6.04

>  <HISTAMINE H2>
6

>  <HISTAMINE H4>
5

>  <Muscarinic acetylcholine receptor M1>
5.4

>  <Muscarinic acetylcholine receptor M2>
5

>  <Muscarinic acetylcholine receptor M3>
5

>  <Muscarinic acetylcholine receptor M4>
5

>  <Muscarinic acetylcholine receptor M5>
5.59

>  <Norepinephrine transporter>
5.68

>  <Serotonin transporter>
5.74

$$$$
Hyperforin
  Marvin  02231216192D 0   1.00000     0.00000     0

 39 40  0  0  1  0  0  0  0  0999 V2000
   -0.0475    3.0141    0.0000 O   0  0  0  0  0  0  0  0  0
    0.7326    2.5988    0.0000 C   0  0  0  0  0  0  0  0  0
    1.6516    2.5995    0.0000 C   0  0  0  0  0  0  0  0  0
    1.7130    1.6464    0.0000 C   0  0  0  0  0  0  0  0  0
    1.3009    1.0655    0.0000 C   0  0  0  0  0  0  0  0  0
    0.9271    0.2926    0.0000 C   0  0  0  0  0  0  0  0  0
    0.6406   -0.4973    0.0000 C   0  0  0  0  0  0  0  0  0
   -0.1718   -0.6414    0.0000 C   0  0  0  0  0  0  0  0  0
   -0.7027   -0.0100    0.0000 C   0  0  0  0  0  0  0  0  0
   -0.4531   -1.4170    0.0000 C   0  0  0  0  0  0  0  0  0
    2.1172    1.2450    0.0000 C   0  0  0  0  0  0  0  0  0
    2.4176    0.4250    0.0000 C   0  0  0  0  0  0  0  0  0
    3.1181   -0.0803    0.0000 C   0  0  0  0  0  0  0  0  0
    3.0346   -0.9010    0.0000 C   0  0  0  0  0  0  0  0  0
    2.2821   -1.2391    0.0000 C   0  0  0  0  0  0  0  0  0
    1.6130   -0.7565    0.0000 C   0  0  0  0  0  0  0  0  0
    2.1987   -2.0599    0.0000 C   0  0  0  0  0  0  0  0  0
    2.9989    1.2958    0.0000 C   0  0  0  0  0  0  0  0  0
    2.0702    2.2319    0.0000 C   0  0  0  0  0  0  0  0  0
    2.8036    2.7016    0.0000 C   0  0  0  0  0  0  0  0  0
    2.8813    3.6702    0.0000 O   0  0  0  0  0  0  0  0  0
    3.6516    2.8271    0.0000 C   0  0  0  0  0  0  0  0  0
    3.9551    3.5942    0.0000 C   0  0  0  0  0  0  0  0  0
    4.1642    2.1806    0.0000 C   0  0  0  0  0  0  0  0  0
    2.0364    2.8705    0.0000 C   0  0  0  0  0  0  0  0  0
    2.9600    3.1637    0.0000 O   0  0  0  0  0  0  0  0  0
    1.1102    2.2212    0.0000 C   0  0  0  0  0  0  0  0  0
    0.8447    3.1353    0.0000 O   0  0  0  0  0  0  0  0  0
    0.6057    1.7969    0.0000 C   0  0  0  0  0  0  0  0  0
   -0.1558    1.3974    0.0000 C   0  0  0  0  0  0  0  0  0
   -0.9549    1.0682    0.0000 C   0  0  0  0  0  0  0  0  0
   -1.6085    1.5717    0.0000 C   0  0  0  0  0  0  0  0  0
   -2.3713    1.2575    0.0000 C   0  0  0  0  0  0  0  0  0
   -1.4992    2.3895    0.0000 C   0  0  0  0  0  0  0  0  0
    1.5780    3.5970    0.0000 C   0  0  0  0  0  0  0  0  0
    1.5386    4.4833    0.0000 C   0  0  0  0  0  0  0  0  0
    0.8065    4.8636    0.0000 C   0  0  0  0  0  0  0  0  0
    0.7698    5.6878    0.0000 C   0  0  0  0  0  0  0  0  0
    0.1111    4.4198    0.0000 C   0  0  0  0  0  0  0  0  0
  1  2  1  0  0  0  0
  2  3  1  0  0  0  0
  2 29  2  0  0  0  0
  3  4  1  0  0  0  0
  3 25  1  0  0  0  0
  3 35  1  0  0  0  0
  4  5  1  0  0  0  0
  5  6  1  0  0  0  0
  5 11  1  0  0  0  0
  6  7  1  0  0  0  0
  7  8  2  0  0  0  0
  8  9  1  0  0  0  0
  8 10  1  0  0  0  0
 11 12  1  0  0  0  0
 11 18  1  0  0  0  0
 11 19  1  0  0  0  0
 12 13  1  0  0  0  0
 13 14  1  0  0  0  0
 14 15  2  0  0  0  0
 15 16  1  0  0  0  0
 15 17  1  0  0  0  0
 19 20  1  0  0  0  0
 19 25  1  0  0  0  0
 19 27  1  0  0  0  0
 20 21  2  0  0  0  0
 20 22  1  0  0  0  0
 22 23  1  0  0  0  0
 22 24  1  0  0  0  0
 25 26  2  0  0  0  0
 27 28  2  0  0  0  0
 27 29  1  0  0  0  0
 29 30  1  0  0  0  0
 30 31  1  0  0  0  0
 31 32  2  0  0  0  0
 32 33  1  0  0  0  0
 32 34  1  0  0  0  0
 35 36  1  0  0  0  0
 36 37  2  0  0  0  0
 37 38  1  0  0  0  0
 37 39  1  0  0  0  0
M  END
>  <Name_Molregno>
Hyperforin

>  <5-HT1A>
5

>  <5-HT1D>
5

>  <5-HT3>
5

>  <5-HT5>
5

>  <5-HT6>
5

>  <5-HT7>
5

>  <Alpha-1A>
5

>  <Alpha-1B>
5

>  <Alpha-2A>
5

>  <Alpha-2B>
5

>  <Alpha-2C>
5

>  <DOPAMINE D1>
6.22

>  <DOPAMINE D5>
5

>  <Muscarinic acetylcholine receptor M1>
5

>  <Muscarinic acetylcholine receptor M2>
5

>  <Muscarinic acetylcholine receptor M3>
5

>  <Muscarinic acetylcholine receptor M4>
5

>  <Muscarinic acetylcholine receptor M5>
5

>  <Norepinephrine transporter>
5

>  <Serotonin transporter>
5

$$$$
Hypericin
  Marvin  02231216192D 0   1.00000     0.00000     0

 39 46  0  0  0  0  0  0  0  0999 V2000
   -0.3746   -3.0738    0.0000 O   0  0  0  0  0  0  0  0  0
    0.1655   -2.4502    0.0000 C   0  0  0  0  0  0  0  0  0
    0.9756   -2.6061    0.0000 C   0  0  0  0  0  0  0  0  0
    1.5157   -1.9824    0.0000 C   0  0  0  0  0  0  0  0  0
    1.2457   -1.2029    0.0000 C   0  0  0  0  0  0  0  0  0
    1.7858   -0.5792    0.0000 C   0  0  0  0  0  0  0  0  0
    2.5959   -0.7352    0.0000 C   0  0  0  0  0  0  0  0  0
    3.1360   -0.1115    0.0000 C   0  0  0  0  0  0  0  0  0
    3.9461   -0.2674    0.0000 C   0  0  0  0  0  0  0  0  0
    4.4862    0.3562    0.0000 O   0  0  0  0  0  0  0  0  0
    4.2162   -1.0470    0.0000 C   0  0  0  0  0  0  0  0  0
    3.6761   -1.6706    0.0000 C   0  0  0  0  0  0  0  0  0
    3.9461   -2.4502    0.0000 C   0  0  0  0  0  0  0  0  0
    3.4060   -3.0738    0.0000 C   0  0  0  0  0  0  0  0  0
    2.5959   -2.9179    0.0000 C   0  0  0  0  0  0  0  0  0
    2.0558   -3.5415    0.0000 C   0  0  0  0  0  0  0  0  0
    1.2457   -3.3856    0.0000 C   0  0  0  0  0  0  0  0  0
    0.7056   -4.0093    0.0000 O   0  0  0  0  0  0  0  0  0
    2.3258   -4.3211    0.0000 C   0  0  0  0  0  0  0  0  0
    1.7858   -4.9447    0.0000 O   0  0  0  0  0  0  0  0  0
    3.1360   -4.4770    0.0000 C   0  0  0  0  0  0  0  0  0
    3.6761   -3.8534    0.0000 C   0  0  0  0  0  0  0  0  0
    4.4862   -4.0093    0.0000 O   0  0  0  0  0  0  0  0  0
    2.3258   -2.1384    0.0000 C   0  0  0  0  0  0  0  0  0
    2.8659   -1.5147    0.0000 C   0  0  0  0  0  0  0  0  0
    4.7562   -2.6061    0.0000 C   0  0  0  0  0  0  0  0  0
    5.0263   -3.3856    0.0000 O   0  0  0  0  0  0  0  0  0
    5.2963   -1.9824    0.0000 C   0  0  0  0  0  0  0  0  0
    5.0263   -1.2029    0.0000 C   0  0  0  0  0  0  0  0  0
    5.5664   -0.5792    0.0000 O   0  0  0  0  0  0  0  0  0
    2.8659    0.6680    0.0000 C   0  0  0  0  0  0  0  0  0
    3.4060    1.2917    0.0000 O   0  0  0  0  0  0  0  0  0
    2.0558    0.8239    0.0000 C   0  0  0  0  0  0  0  0  0
    1.5157    0.2003    0.0000 C   0  0  0  0  0  0  0  0  0
    0.7056    0.3562    0.0000 C   0  0  0  0  0  0  0  0  0
    0.4355   -1.0470    0.0000 C   0  0  0  0  0  0  0  0  0
   -0.1046   -1.6706    0.0000 C   0  0  0  0  0  0  0  0  0
    0.1655   -0.2674    0.0000 C   0  0  0  0  0  0  0  0  0
   -0.6446   -0.1115    0.0000 O   0  0  0  0  0  0  0  0  0
  1  2  1  0  0  0  0
  2  3  4  0  0  0  0
  2 37  4  0  0  0  0
  3  4  4  0  0  0  0
  3 17  1  0  0  0  0
  4  5  4  0  0  0  0
  4 24  4  0  0  0  0
  5  6  4  0  0  0  0
  5 36  4  0  0  0  0
  6  7  4  0  0  0  0
  6 34  4  0  0  0  0
  7  8  4  0  0  0  0
  7 25  4  0  0  0  0
  8  9  1  0  0  0  0
  8 31  4  0  0  0  0
  9 10  2  0  0  0  0
  9 11  1  0  0  0  0
 11 12  4  0  0  0  0
 11 29  4  0  0  0  0
 12 13  4  0  0  0  0
 12 25  4  0  0  0  0
 13 14  4  0  0  0  0
 13 26  4  0  0  0  0
 14 15  4  0  0  0  0
 14 22  4  0  0  0  0
 15 16  4  0  0  0  0
 15 24  4  0  0  0  0
 16 17  1  0  0  0  0
 16 19  4  0  0  0  0
 17 18  2  0  0  0  0
 19 20  1  0  0  0  0
 19 21  4  0  0  0  0
 21 22  4  0  0  0  0
 22 23  1  0  0  0  0
 24 25  4  0  0  0  0
 26 27  1  0  0  0  0
 26 28  4  0  0  0  0
 28 29  4  0  0  0  0
 29 30  1  0  0  0  0
 31 32  1  0  0  0  0
 31 33  4  0  0  0  0
 33 34  4  0  0  0  0
 34 35  1  0  0  0  0
 36 37  4  0  0  0  0
 36 38  1  0  0  0  0
 38 39  1  0  0  0  0
M  END
>  <Name_Molregno>
Hypericin

>  <5-HT1A>
5

>  <5-HT1D>
5

>  <5-HT3>
5

>  <5-HT5>
5

>  <5-HT6>
5

>  <5-HT7>
5

>  <Alpha-1A>
5

>  <Alpha-1B>
5

>  <Alpha-2A>
5

>  <Alpha-2B>
5

>  <Alpha-2C>
5

>  <DOPAMINE D1>
5

>  <DOPAMINE D5>
5

>  <Muscarinic acetylcholine receptor M1>
5

>  <Muscarinic acetylcholine receptor M2>
5

>  <Muscarinic acetylcholine receptor M3>
5

>  <Muscarinic acetylcholine receptor M4>
5

>  <Muscarinic acetylcholine receptor M5>
5

>  <Norepinephrine transporter>
5

>  <Serotonin transporter>
5

$$$$
Hyperoside
  Marvin  02231216192D 0   1.00000     0.00000     0

 33 36  0  0  1  0  0  0  0  0999 V2000
    1.3731    1.4076    0.0000 O   0  0  0  0  0  0  0  0  0
    1.3731    2.2326    0.0000 C   0  0  0  0  0  0  0  0  0
    2.0876    2.6451    0.0000 C   0  0  0  0  0  0  0  0  0
    2.0876    3.4701    0.0000 O   0  0  0  0  0  0  0  0  0
    0.6587    2.6451    0.0000 C   0  0  0  0  0  0  0  0  0
    0.6587    3.4701    0.0000 O   0  0  0  0  0  0  0  0  0
   -0.0558    2.2326    0.0000 C   0  0  0  0  0  0  0  0  0
   -0.7703    2.6451    0.0000 O   0  0  0  0  0  0  0  0  0
   -0.0558    1.4076    0.0000 C   0  0  0  0  0  0  0  0  0
   -0.7703    0.9951    0.0000 O   0  0  0  0  0  0  0  0  0
    0.6587    0.9951    0.0000 C   0  0  0  0  0  0  0  0  0
    0.6587    0.1701    0.0000 O   0  0  0  0  0  0  0  0  0
    1.3731   -0.2424    0.0000 C   0  0  0  0  0  0  0  0  0
    1.3731   -1.0674    0.0000 C   0  0  0  0  0  0  0  0  0
    2.0876   -1.4799    0.0000 O   0  0  0  0  0  0  0  0  0
    2.8021   -1.0674    0.0000 C   0  0  0  0  0  0  0  0  0
    2.8021   -0.2424    0.0000 C   0  0  0  0  0  0  0  0  0
    2.0876    0.1701    0.0000 C   0  0  0  0  0  0  0  0  0
    2.0876    0.9951    0.0000 O   0  0  0  0  0  0  0  0  0
    3.5166    0.1701    0.0000 C   0  0  0  0  0  0  0  0  0
    3.5166    0.9951    0.0000 O   0  0  0  0  0  0  0  0  0
    4.2310   -0.2424    0.0000 C   0  0  0  0  0  0  0  0  0
    4.2310   -1.0674    0.0000 C   0  0  0  0  0  0  0  0  0
    4.9455   -1.4799    0.0000 O   0  0  0  0  0  0  0  0  0
    3.5166   -1.4799    0.0000 C   0  0  0  0  0  0  0  0  0
    0.6587   -1.4799    0.0000 C   0  0  0  0  0  0  0  0  0
    0.6587   -2.3049    0.0000 C   0  0  0  0  0  0  0  0  0
   -0.0558   -2.7174    0.0000 C   0  0  0  0  0  0  0  0  0
   -0.0558   -3.5424    0.0000 O   0  0  0  0  0  0  0  0  0
   -0.7703   -2.3049    0.0000 C   0  0  0  0  0  0  0  0  0
   -1.4847   -2.7174    0.0000 O   0  0  0  0  0  0  0  0  0
   -0.7703   -1.4799    0.0000 C   0  0  0  0  0  0  0  0  0
   -0.0558   -1.0674    0.0000 C   0  0  0  0  0  0  0  0  0
  1  2  1  0  0  0  0
  1 11  1  0  0  0  0
  2  3  1  0  0  0  0
  2  5  1  0  0  0  0
  3  4  1  0  0  0  0
  5  6  1  0  0  0  0
  5  7  1  0  0  0  0
  7  8  1  0  0  0  0
  7  9  1  0  0  0  0
  9 10  1  0  0  0  0
  9 11  1  0  0  0  0
 11 12  1  0  0  0  0
 12 13  1  0  0  0  0
 13 14  2  0  0  0  0
 13 18  1  0  0  0  0
 14 15  1  0  0  0  0
 14 26  1  0  0  0  0
 15 16  1  0  0  0  0
 16 17  1  0  0  0  0
 16 25  2  0  0  0  0
 17 18  2  0  0  0  0
 17 20  1  0  0  0  0
 18 19  1  0  0  0  0
 20 21  1  0  0  0  0
 20 22  2  0  0  0  0
 22 23  1  0  0  0  0
 23 24  2  0  0  0  0
 23 25  1  0  0  0  0
 26 27  4  0  0  0  0
 26 33  4  0  0  0  0
 27 28  4  0  0  0  0
 28 29  1  0  0  0  0
 28 30  4  0  0  0  0
 30 31  1  0  0  0  0
 30 32  4  0  0  0  0
 32 33  4  0  0  0  0
M  END
>  <Name_Molregno>
Hyperoside

>  <5-HT1A>
5

>  <5-HT1D>
5

>  <5-HT3>
5

>  <5-HT5>
5

>  <5-HT6>
5

>  <5-HT7>
5

>  <Alpha-1A>
5

>  <Alpha-1B>
5

>  <Alpha-2A>
5.38

>  <Alpha-2B>
5

>  <Alpha-2C>
5.13

>  <DOPAMINE D1>
5

>  <DOPAMINE D5>
5

>  <Muscarinic acetylcholine receptor M1>
5

>  <Muscarinic acetylcholine receptor M2>
5

>  <Muscarinic acetylcholine receptor M3>
5

>  <Muscarinic acetylcholine receptor M4>
5

>  <Muscarinic acetylcholine receptor M5>
5

>  <Norepinephrine transporter>
5

>  <Serotonin transporter>
5

$$$$
IBOGAINE
  Marvin  02231216192D 0   1.00000     0.00000     0

 23 27  0  0  1  0  0  0  0  0999 V2000
   -0.4813    1.8136    0.0000 O   0  0  0  0  0  0  0  0  0
    0.3318    1.6738    0.0000 C   0  0  0  0  0  0  0  0  0
   -1.0089    1.1794    0.0000 C   0  0  0  0  0  0  0  0  0
   -1.8219    1.3192    0.0000 C   0  0  0  0  0  0  0  0  0
   -2.3496    0.6850    0.0000 C   0  0  0  0  0  0  0  0  0
   -3.1739    0.6527    0.0000 C   0  0  0  0  0  0  0  0  0
   -3.6353    1.3824    0.0000 C   0  0  0  0  0  0  0  0  0
   -4.4995    1.5535    0.0000 C   0  0  0  0  0  0  0  0  0
   -5.1964    0.9486    0.0000 N   0  0  0  0  0  0  0  0  0
   -4.9426   -0.0968    0.0000 C   0  0  0  0  0  0  0  0  0
   -4.1968   -0.3722    0.0000 C   0  0  0  0  0  0  0  0  0
   -3.9907    0.4313    0.0000 C   0  0  0  0  0  0  0  0  0
   -4.8392    1.1104    0.0000 C   0  0  0  0  0  0  0  0  0
   -5.7717    0.5668    0.0000 C   0  0  0  0  0  0  0  0  0
   -5.6778   -0.2642    0.0000 C   0  0  0  0  0  0  0  0  0
   -6.1553   -0.9370    0.0000 C   0  0  0  0  0  0  0  0  0
   -5.8114   -1.6869    0.0000 C   0  0  0  0  0  0  0  0  0
   -4.2386    1.0063    0.0000 C   0  0  0  0  0  0  0  0  0
   -3.3980   -0.1412    0.0000 C   0  0  0  0  0  0  0  0  0
   -2.7121   -0.5997    0.0000 N   0  0  0  0  0  0  0  0  0
   -2.0641   -0.0890    0.0000 C   0  0  0  0  0  0  0  0  0
   -1.2511   -0.2289    0.0000 C   0  0  0  0  0  0  0  0  0
   -0.7235    0.4054    0.0000 C   0  0  0  0  0  0  0  0  0
  1  2  1  0  0  0  0
  1  3  1  0  0  0  0
  3  4  4  0  0  0  0
  3 23  4  0  0  0  0
  4  5  4  0  0  0  0
  5  6  4  0  0  0  0
  5 21  4  0  0  0  0
  6  7  1  0  0  0  0
  6 19  4  0  0  0  0
  7  8  1  0  0  0  0
  8  9  1  0  0  0  0
  9 10  1  0  0  0  0
  9 18  1  0  0  0  0
 10 11  1  0  0  0  0
 10 15  1  0  0  0  0
 11 12  1  0  0  0  0
 11 19  1  0  0  0  0
 12 13  1  0  0  0  0
 13 14  1  0  0  0  0
 13 18  1  0  0  0  0
 14 15  1  0  0  0  0
 15 16  1  0  0  0  0
 16 17  1  0  0  0  0
 19 20  4  0  0  0  0
 20 21  4  0  0  0  0
 21 22  4  0  0  0  0
 22 23  4  0  0  0  0
M  STY  1   1 DAT
M  SAL   1  1  20
M  SDT   1 MRV_IMPLICIT_H                                        
M  SDD   1     0.0000    0.0000    DR    ALL  0       0  
M  SED   1 IMPL_H1
M  END
>  <Name_Molregno>
IBOGAINE

>  <5-HT1A>
5

>  <DOPAMINE D1>
5

>  <DOPAMINE D2>
5

$$$$
ibuprofen
  Marvin  02231216192D 0   1.00000     0.00000     0

 15 15  0  0  1  0  0  0  0  0999 V2000
    3.0591   -3.4943    0.0000 O   0  0  0  0  0  0  0  0  0
    3.0591   -2.6693    0.0000 C   0  0  0  0  0  0  0  0  0
    3.7735   -2.2568    0.0000 O   0  0  0  0  0  0  0  0  0
    2.3446   -2.2568    0.0000 C   0  0  0  0  0  0  0  0  0
    1.6301   -2.6693    0.0000 C   0  0  0  0  0  0  0  0  0
    2.3446   -1.4318    0.0000 C   0  0  0  0  0  0  0  0  0
    1.6301   -1.0193    0.0000 C   0  0  0  0  0  0  0  0  0
    1.6301   -0.1943    0.0000 C   0  0  0  0  0  0  0  0  0
    2.3446    0.2182    0.0000 C   0  0  0  0  0  0  0  0  0
    3.0591   -0.1943    0.0000 C   0  0  0  0  0  0  0  0  0
    3.0591   -1.0193    0.0000 C   0  0  0  0  0  0  0  0  0
    2.3446    1.0432    0.0000 C   0  0  0  0  0  0  0  0  0
    3.0591    1.4557    0.0000 C   0  0  0  0  0  0  0  0  0
    3.0591    2.2807    0.0000 C   0  0  0  0  0  0  0  0  0
    3.7735    1.0432    0.0000 C   0  0  0  0  0  0  0  0  0
  1  2  1  0  0  0  0
  2  3  2  0  0  0  0
  2  4  1  0  0  0  0
  4  5  1  0  0  0  0
  4  6  1  0  0  0  0
  6  7  4  0  0  0  0
  6 11  4  0  0  0  0
  7  8  4  0  0  0  0
  8  9  4  0  0  0  0
  9 10  4  0  0  0  0
  9 12  1  0  0  0  0
 10 11  4  0  0  0  0
 12 13  1  0  0  0  0
 13 14  1  0  0  0  0
 13 15  1  0  0  0  0
M  END
>  <Name_Molregno>
ibuprofen

>  <5-HT1A>
5

>  <5-HT1B>
5

>  <5-HT1D>
5

>  <5-HT1E>
5

>  <5-HT2A>
5

>  <5-HT3>
5

>  <5-HT6>
5

>  <5-HT7>
5

>  <Alpha-1A>
5

>  <Alpha-1B>
5

>  <Alpha-2A>
5

>  <Alpha-2B>
5

>  <Alpha-2C>
5

>  <DOPAMINE D1>
5

>  <DOPAMINE D2>
5

>  <DOPAMINE D4>
5

>  <DOPAMINE D5>
5

>  <Dopamine transporter>
5

>  <HISTAMINE H1>
5

>  <HISTAMINE H2>
5

>  <Muscarinic acetylcholine receptor M2>
5

>  <Muscarinic acetylcholine receptor M5>
5

>  <Norepinephrine transporter>
5

>  <Serotonin transporter>
5

$$$$
ICS205-930
  Marvin  02231216192D 0   1.00000     0.00000     0

 21 24  0  0  1  0  0  0  0  0999 V2000
   -0.3691   -0.4673    0.0000 O   0  0  0  0  0  0  0  0  0
   -0.1141    0.3173    0.0000 C   0  0  0  0  0  0  0  0  0
    0.6928    0.4889    0.0000 O   0  0  0  0  0  0  0  0  0
   -0.6662    0.9304    0.0000 C   0  0  0  0  0  0  0  0  0
   -0.4946    1.7374    0.0000 C   0  0  0  0  0  0  0  0  0
   -1.2091    2.1499    0.0000 C   0  0  0  0  0  0  0  0  0
   -1.8222    1.5979    0.0000 N   0  0  0  0  0  0  0  0  0
   -1.4866    0.8442    0.0000 C   0  0  0  0  0  0  0  0  0
   -1.2091    2.9749    0.0000 C   0  0  0  0  0  0  0  0  0
   -0.4946    3.3874    0.0000 C   0  0  0  0  0  0  0  0  0
    0.2198    2.9749    0.0000 C   0  0  0  0  0  0  0  0  0
    0.2198    2.1499    0.0000 C   0  0  0  0  0  0  0  0  0
    0.1830   -1.0804    0.0000 C   0  0  0  0  0  0  0  0  0
    0.4889   -1.8509    0.0000 C   0  0  0  0  0  0  0  0  0
    1.3939   -1.6417    0.0000 C   0  0  0  0  0  0  0  0  0
    2.0341   -1.9548    0.0000 N   0  0  0  0  0  0  0  0  0
    1.7276   -1.1888    0.0000 C   0  0  0  0  0  0  0  0  0
    0.7773   -1.3918    0.0000 C   0  0  0  0  0  0  0  0  0
    2.0872   -0.3836    0.0000 C   0  0  0  0  0  0  0  0  0
    1.5594   -0.8818    0.0000 C   0  0  0  0  0  0  0  0  0
    2.5953   -2.5594    0.0000 C   0  0  0  0  0  0  0  0  0
  1  2  1  0  0  0  0
  1 13  1  0  0  0  0
  2  3  2  0  0  0  0
  2  4  1  0  0  0  0
  4  5  4  0  0  0  0
  4  8  4  0  0  0  0
  5  6  4  0  0  0  0
  5 12  4  0  0  0  0
  6  7  4  0  0  0  0
  6  9  4  0  0  0  0
  7  8  4  0  0  0  0
  9 10  4  0  0  0  0
 10 11  4  0  0  0  0
 11 12  4  0  0  0  0
 13 14  1  0  0  0  0
 13 18  1  0  0  0  0
 14 15  1  0  0  0  0
 15 16  1  0  0  0  0
 15 20  1  0  0  0  0
 16 17  1  0  0  0  0
 16 21  1  0  0  0  0
 17 18  1  0  0  0  0
 17 19  1  0  0  0  0
 19 20  1  0  0  0  0
M  STY  1   1 DAT
M  SAL   1  1   7
M  SDT   1 MRV_IMPLICIT_H                                        
M  SDD   1     0.0000    0.0000    DR    ALL  0       0  
M  SED   1 IMPL_H1
M  END
>  <Name_Molregno>
ICS205-930

>  <5-HT1A>
6.64

>  <5-HT1B>
5

>  <5-HT1D>
5

>  <5-HT1E>
5

>  <5-HT3>
8.2

>  <DOPAMINE D1>
5

>  <DOPAMINE D2>
5

$$$$
IDAZOXAN
  Marvin  02231216192D 0   1.00000     0.00000     0

 15 17  0  0  1  0  0  0  0  0999 V2000
    0.2447    0.0307    0.0000 O   0  0  0  0  0  0  0  0  0
    0.9592    0.4432    0.0000 C   0  0  0  0  0  0  0  0  0
    0.9592    1.2682    0.0000 C   0  0  0  0  0  0  0  0  0
    0.2447    1.6807    0.0000 O   0  0  0  0  0  0  0  0  0
   -0.4697    1.2682    0.0000 C   0  0  0  0  0  0  0  0  0
   -0.4697    0.4432    0.0000 C   0  0  0  0  0  0  0  0  0
   -1.1842    0.0307    0.0000 C   0  0  0  0  0  0  0  0  0
   -1.2704   -0.7898    0.0000 N   0  0  0  0  0  0  0  0  0
   -2.0774   -0.9613    0.0000 C   0  0  0  0  0  0  0  0  0
   -2.4899   -0.2468    0.0000 C   0  0  0  0  0  0  0  0  0
   -1.9379    0.3663    0.0000 N   0  0  0  0  0  0  0  0  0
    1.6737    1.6807    0.0000 C   0  0  0  0  0  0  0  0  0
    2.3881    1.2682    0.0000 C   0  0  0  0  0  0  0  0  0
    2.3881    0.4432    0.0000 C   0  0  0  0  0  0  0  0  0
    1.6737    0.0307    0.0000 C   0  0  0  0  0  0  0  0  0
  1  2  1  0  0  0  0
  1  6  1  0  0  0  0
  2  3  4  0  0  0  0
  2 15  4  0  0  0  0
  3  4  1  0  0  0  0
  3 12  4  0  0  0  0
  4  5  1  0  0  0  0
  5  6  1  0  0  0  0
  6  7  1  0  0  0  0
  7  8  1  0  0  0  0
  7 11  2  0  0  0  0
  8  9  1  0  0  0  0
  9 10  1  0  0  0  0
 10 11  1  0  0  0  0
 12 13  4  0  0  0  0
 13 14  4  0  0  0  0
 14 15  4  0  0  0  0
M  END
>  <Name_Molregno>
IDAZOXAN

>  <5-HT1A>
6.18

>  <5-HT3>
5

>  <Alpha-2A>
8.09

>  <Alpha-2B>
7.36

>  <Alpha-2C>
7.72

>  <DOPAMINE D1>
5

>  <DOPAMINE D2>
5

$$$$
ILOPERIDONE
  Marvin  02231216192D 0   1.00000     0.00000     0

 31 34  0  0  0  0  0  0  0  0999 V2000
    9.8408   -5.0338    0.0000 F   0  0  0  0  0  0  0  0  0
    9.1263   -4.6213    0.0000 C   0  0  0  0  0  0  0  0  0
    8.4119   -5.0338    0.0000 C   0  0  0  0  0  0  0  0  0
    7.6974   -4.6213    0.0000 C   0  0  0  0  0  0  0  0  0
    6.9128   -4.8762    0.0000 O   0  0  0  0  0  0  0  0  0
    6.4279   -4.2088    0.0000 N   0  0  0  0  0  0  0  0  0
    6.9128   -3.5413    0.0000 C   0  0  0  0  0  0  0  0  0
    7.6974   -3.7963    0.0000 C   0  0  0  0  0  0  0  0  0
    8.4119   -3.3838    0.0000 C   0  0  0  0  0  0  0  0  0
    9.1263   -3.7963    0.0000 C   0  0  0  0  0  0  0  0  0
    6.6578   -2.7567    0.0000 C   0  0  0  0  0  0  0  0  0
    5.8509   -2.5852    0.0000 C   0  0  0  0  0  0  0  0  0
    5.5959   -1.8006    0.0000 C   0  0  0  0  0  0  0  0  0
    6.1480   -1.1875    0.0000 N   0  0  0  0  0  0  0  0  0
    6.9549   -1.3590    0.0000 C   0  0  0  0  0  0  0  0  0
    7.2099   -2.1436    0.0000 C   0  0  0  0  0  0  0  0  0
    5.8930   -0.4028    0.0000 C   0  0  0  0  0  0  0  0  0
    5.0861   -0.2313    0.0000 C   0  0  0  0  0  0  0  0  0
    4.8311    0.5533    0.0000 C   0  0  0  0  0  0  0  0  0
    4.0241    0.7248    0.0000 O   0  0  0  0  0  0  0  0  0
    3.7692    1.5095    0.0000 C   0  0  0  0  0  0  0  0  0
    2.9622    1.6810    0.0000 C   0  0  0  0  0  0  0  0  0
    2.7073    2.4656    0.0000 C   0  0  0  0  0  0  0  0  0
    3.2593    3.0787    0.0000 C   0  0  0  0  0  0  0  0  0
    4.0663    2.9072    0.0000 C   0  0  0  0  0  0  0  0  0
    4.3212    2.1225    0.0000 C   0  0  0  0  0  0  0  0  0
    5.1282    1.9510    0.0000 O   0  0  0  0  0  0  0  0  0
    5.6802    2.5641    0.0000 C   0  0  0  0  0  0  0  0  0
    3.0044    3.8633    0.0000 C   0  0  0  0  0  0  0  0  0
    2.1974    4.0348    0.0000 O   0  0  0  0  0  0  0  0  0
    3.5564    4.4764    0.0000 C   0  0  0  0  0  0  0  0  0
  1  2  1  0  0  0  0
  2  3  4  0  0  0  0
  2 10  4  0  0  0  0
  3  4  4  0  0  0  0
  4  5  4  0  0  0  0
  4  8  4  0  0  0  0
  5  6  4  0  0  0  0
  6  7  4  0  0  0  0
  7  8  4  0  0  0  0
  7 11  1  0  0  0  0
  8  9  4  0  0  0  0
  9 10  4  0  0  0  0
 11 12  1  0  0  0  0
 11 16  1  0  0  0  0
 12 13  1  0  0  0  0
 13 14  1  0  0  0  0
 14 15  1  0  0  0  0
 14 17  1  0  0  0  0
 15 16  1  0  0  0  0
 17 18  1  0  0  0  0
 18 19  1  0  0  0  0
 19 20  1  0  0  0  0
 20 21  1  0  0  0  0
 21 22  4  0  0  0  0
 21 26  4  0  0  0  0
 22 23  4  0  0  0  0
 23 24  4  0  0  0  0
 24 25  4  0  0  0  0
 24 29  1  0  0  0  0
 25 26  4  0  0  0  0
 26 27  1  0  0  0  0
 27 28  1  0  0  0  0
 29 30  2  0  0  0  0
 29 31  1  0  0  0  0
M  END
>  <Name_Molregno>
ILOPERIDONE

>  <5-HT1A>
7.18

>  <5-HT1B>
7.05

>  <5-HT1D>
7.82

>  <5-HT2A>
9.46

>  <5-HT2C>
7.27

>  <5-HT3>
5

>  <5-HT6>
7.2

>  <5-HT7>
6.95

>  <Alpha-2A>
6.79

>  <Alpha-2B>
6.79

>  <Alpha-2C>
7.79

>  <Beta-1>
5

>  <Beta-2>
5

>  <DOPAMINE D1>
7.02

>  <DOPAMINE D2>
8.23

>  <DOPAMINE D3>
8

>  <DOPAMINE D4>
7.96

>  <DOPAMINE D5>
6.5

>  <Dopamine transporter>
5.53

>  <HISTAMINE H1>
7.91

>  <Muscarinic acetylcholine receptor M1>
5.31

>  <Muscarinic acetylcholine receptor M2>
5.48

>  <Muscarinic acetylcholine receptor M3>
5

>  <Muscarinic acetylcholine receptor M4>
5.08

>  <Muscarinic acetylcholine receptor M5>
5

>  <Norepinephrine transporter>
5.83

$$$$
IMIPRAMINE
  Marvin  02231216192D 0   1.00000     0.00000     0

 21 23  0  0  0  0  0  0  0  0999 V2000
   -0.5243    1.2470    0.0000 N   0  0  0  0  0  0  0  0  0
    0.1902    0.8345    0.0000 C   0  0  0  0  0  0  0  0  0
    0.9046    1.2470    0.0000 C   0  0  0  0  0  0  0  0  0
    1.6191    0.8345    0.0000 C   0  0  0  0  0  0  0  0  0
    2.3336    1.2470    0.0000 N   0  0  0  0  0  0  0  0  0
    2.2719    2.0697    0.0000 C   0  0  0  0  0  0  0  0  0
    2.8767    2.6309    0.0000 C   0  0  0  0  0  0  0  0  0
    3.6925    2.5079    0.0000 C   0  0  0  0  0  0  0  0  0
    4.1050    1.7934    0.0000 C   0  0  0  0  0  0  0  0  0
    3.8036    1.0255    0.0000 C   0  0  0  0  0  0  0  0  0
    3.0152    0.7823    0.0000 C   0  0  0  0  0  0  0  0  0
    2.8316   -0.0220    0.0000 C   0  0  0  0  0  0  0  0  0
    3.4364   -0.5832    0.0000 C   0  0  0  0  0  0  0  0  0
    4.2248   -0.3400    0.0000 C   0  0  0  0  0  0  0  0  0
    4.4083    0.4643    0.0000 C   0  0  0  0  0  0  0  0  0
    2.6931    3.4352    0.0000 C   0  0  0  0  0  0  0  0  0
    1.9048    3.6784    0.0000 C   0  0  0  0  0  0  0  0  0
    1.3000    3.1172    0.0000 C   0  0  0  0  0  0  0  0  0
    1.4836    2.3129    0.0000 C   0  0  0  0  0  0  0  0  0
   -1.2388    0.8345    0.0000 C   0  0  0  0  0  0  0  0  0
   -0.5243    2.0720    0.0000 C   0  0  0  0  0  0  0  0  0
  1  2  1  0  0  0  0
  1 20  1  0  0  0  0
  1 21  1  0  0  0  0
  2  3  1  0  0  0  0
  3  4  1  0  0  0  0
  4  5  1  0  0  0  0
  5  6  1  0  0  0  0
  5 11  1  0  0  0  0
  6  7  4  0  0  0  0
  6 19  4  0  0  0  0
  7  8  1  0  0  0  0
  7 16  4  0  0  0  0
  8  9  1  0  0  0  0
  9 10  1  0  0  0  0
 10 11  4  0  0  0  0
 10 15  4  0  0  0  0
 11 12  4  0  0  0  0
 12 13  4  0  0  0  0
 13 14  4  0  0  0  0
 14 15  4  0  0  0  0
 16 17  4  0  0  0  0
 17 18  4  0  0  0  0
 18 19  4  0  0  0  0
M  END
>  <Name_Molregno>
IMIPRAMINE

>  <5-HT1A>
5.12

>  <DOPAMINE D1>
5

>  <DOPAMINE D2>
6.17

>  <DOPAMINE D3>
6.41

>  <Dopamine transporter>
5.04

>  <HISTAMINE H1>
7.62

>  <Muscarinic acetylcholine receptor M1>
7.38

>  <Muscarinic acetylcholine receptor M2>
8.48

>  <Muscarinic acetylcholine receptor M3>
7.22

>  <Muscarinic acetylcholine receptor M4>
6.95

>  <Muscarinic acetylcholine receptor M5>
7.08

>  <Norepinephrine transporter>
7.18

>  <Serotonin transporter>
8.6

$$$$
IPSAPIRONE
  Marvin  02231216192D 0   1.00000     0.00000     0

 28 31  0  0  0  0  0  0  0  0999 V2000
    5.2539    0.7371    0.0000 S   0  0  0  0  0  0  0  0  0
    4.5394    1.1496    0.0000 O   0  0  0  0  0  0  0  0  0
    5.5894    1.4908    0.0000 O   0  0  0  0  0  0  0  0  0
    4.7689    0.0697    0.0000 N   0  0  0  0  0  0  0  0  0
    3.9439    0.0697    0.0000 C   0  0  0  0  0  0  0  0  0
    3.5314   -0.6448    0.0000 C   0  0  0  0  0  0  0  0  0
    2.7064   -0.6448    0.0000 C   0  0  0  0  0  0  0  0  0
    2.2939   -1.3593    0.0000 C   0  0  0  0  0  0  0  0  0
    1.4689   -1.3593    0.0000 N   0  0  0  0  0  0  0  0  0
    1.0564   -2.0737    0.0000 C   0  0  0  0  0  0  0  0  0
    0.2314   -2.0737    0.0000 C   0  0  0  0  0  0  0  0  0
   -0.1811   -1.3593    0.0000 N   0  0  0  0  0  0  0  0  0
    0.2314   -0.6448    0.0000 C   0  0  0  0  0  0  0  0  0
    1.0564   -0.6448    0.0000 C   0  0  0  0  0  0  0  0  0
   -1.0061   -1.3593    0.0000 C   0  0  0  0  0  0  0  0  0
   -1.4186   -2.0737    0.0000 N   0  0  0  0  0  0  0  0  0
   -2.2436   -2.0737    0.0000 C   0  0  0  0  0  0  0  0  0
   -2.6561   -1.3593    0.0000 C   0  0  0  0  0  0  0  0  0
   -2.2436   -0.6448    0.0000 C   0  0  0  0  0  0  0  0  0
   -1.4186   -0.6448    0.0000 N   0  0  0  0  0  0  0  0  0
    5.2539   -0.5978    0.0000 C   0  0  0  0  0  0  0  0  0
    4.9989   -1.3824    0.0000 O   0  0  0  0  0  0  0  0  0
    6.0385   -0.3428    0.0000 C   0  0  0  0  0  0  0  0  0
    6.0385    0.4822    0.0000 C   0  0  0  0  0  0  0  0  0
    6.7529    0.8947    0.0000 C   0  0  0  0  0  0  0  0  0
    7.4674    0.4822    0.0000 C   0  0  0  0  0  0  0  0  0
    7.4674   -0.3428    0.0000 C   0  0  0  0  0  0  0  0  0
    6.7529   -0.7553    0.0000 C   0  0  0  0  0  0  0  0  0
  1  2  2  0  0  0  0
  1  3  2  0  0  0  0
  1  4  1  0  0  0  0
  1 24  1  0  0  0  0
  4  5  1  0  0  0  0
  4 21  1  0  0  0  0
  5  6  1  0  0  0  0
  6  7  1  0  0  0  0
  7  8  1  0  0  0  0
  8  9  1  0  0  0  0
  9 10  1  0  0  0  0
  9 14  1  0  0  0  0
 10 11  1  0  0  0  0
 11 12  1  0  0  0  0
 12 13  1  0  0  0  0
 12 15  1  0  0  0  0
 13 14  1  0  0  0  0
 15 16  4  0  0  0  0
 15 20  4  0  0  0  0
 16 17  4  0  0  0  0
 17 18  4  0  0  0  0
 18 19  4  0  0  0  0
 19 20  4  0  0  0  0
 21 22  2  0  0  0  0
 21 23  1  0  0  0  0
 23 24  4  0  0  0  0
 23 28  4  0  0  0  0
 24 25  4  0  0  0  0
 25 26  4  0  0  0  0
 26 27  4  0  0  0  0
 27 28  4  0  0  0  0
M  END
>  <Name_Molregno>
IPSAPIRONE

>  <5-HT1A>
8.1

>  <5-HT1D>
5.15

>  <DOPAMINE D2>
6.96

$$$$
KETANSERIN
  Marvin  02231216192D 0   1.00000     0.00000     0

 29 32  0  0  0  0  0  0  0  0999 V2000
    2.3505   -3.5857    0.0000 F   0  0  0  0  0  0  0  0  0
    2.3505   -2.7607    0.0000 C   0  0  0  0  0  0  0  0  0
    1.6360   -2.3482    0.0000 C   0  0  0  0  0  0  0  0  0
    1.6360   -1.5232    0.0000 C   0  0  0  0  0  0  0  0  0
    2.3505   -1.1107    0.0000 C   0  0  0  0  0  0  0  0  0
    3.0649   -1.5232    0.0000 C   0  0  0  0  0  0  0  0  0
    3.0649   -2.3482    0.0000 C   0  0  0  0  0  0  0  0  0
    2.3505   -0.2857    0.0000 C   0  0  0  0  0  0  0  0  0
    1.6360    0.1268    0.0000 O   0  0  0  0  0  0  0  0  0
    3.0649    0.1268    0.0000 C   0  0  0  0  0  0  0  0  0
    3.0649    0.9518    0.0000 C   0  0  0  0  0  0  0  0  0
    3.7794    1.3643    0.0000 C   0  0  0  0  0  0  0  0  0
    4.4939    0.9518    0.0000 N   0  0  0  0  0  0  0  0  0
    4.4939    0.1268    0.0000 C   0  0  0  0  0  0  0  0  0
    3.7794   -0.2857    0.0000 C   0  0  0  0  0  0  0  0  0
    5.2083    1.3643    0.0000 C   0  0  0  0  0  0  0  0  0
    5.9228    0.9518    0.0000 C   0  0  0  0  0  0  0  0  0
    6.6373    1.3643    0.0000 N   0  0  0  0  0  0  0  0  0
    7.3518    0.9518    0.0000 C   0  0  0  0  0  0  0  0  0
    7.3518    0.1268    0.0000 O   0  0  0  0  0  0  0  0  0
    8.0662    1.3643    0.0000 C   0  0  0  0  0  0  0  0  0
    8.0662    2.1893    0.0000 C   0  0  0  0  0  0  0  0  0
    7.3518    2.6018    0.0000 N   0  0  0  0  0  0  0  0  0
    6.6373    2.1893    0.0000 C   0  0  0  0  0  0  0  0  0
    5.9228    2.6018    0.0000 O   0  0  0  0  0  0  0  0  0
    8.7807    2.6018    0.0000 C   0  0  0  0  0  0  0  0  0
    9.4952    2.1893    0.0000 C   0  0  0  0  0  0  0  0  0
    9.4952    1.3643    0.0000 C   0  0  0  0  0  0  0  0  0
    8.7807    0.9518    0.0000 C   0  0  0  0  0  0  0  0  0
  1  2  1  0  0  0  0
  2  3  4  0  0  0  0
  2  7  4  0  0  0  0
  3  4  4  0  0  0  0
  4  5  4  0  0  0  0
  5  6  4  0  0  0  0
  5  8  1  0  0  0  0
  6  7  4  0  0  0  0
  8  9  2  0  0  0  0
  8 10  1  0  0  0  0
 10 11  1  0  0  0  0
 10 15  1  0  0  0  0
 11 12  1  0  0  0  0
 12 13  1  0  0  0  0
 13 14  1  0  0  0  0
 13 16  1  0  0  0  0
 14 15  1  0  0  0  0
 16 17  1  0  0  0  0
 17 18  1  0  0  0  0
 18 19  1  0  0  0  0
 18 24  1  0  0  0  0
 19 20  2  0  0  0  0
 19 21  1  0  0  0  0
 21 22  4  0  0  0  0
 21 29  4  0  0  0  0
 22 23  1  0  0  0  0
 22 26  4  0  0  0  0
 23 24  1  0  0  0  0
 24 25  2  0  0  0  0
 26 27  4  0  0  0  0
 27 28  4  0  0  0  0
 28 29  4  0  0  0  0
M  END
>  <Name_Molregno>
KETANSERIN

>  <5-HT1A>
5.28

>  <5-HT1B>
5.48

>  <5-HT1D>
5.65

>  <5-HT1E>
5

>  <5-HT2A>
8.67

>  <5-HT2C>
7.08

>  <5-HT5>
4.7

>  <5-HT6>
5.55

>  <5-HT7>
6.1

>  <Alpha-2B>
6.7

>  <DOPAMINE D1>
6.52

>  <DOPAMINE D2>
5

>  <DOPAMINE D5>
5.6

>  <Dopamine transporter>
5

>  <HISTAMINE H1>
8.75

$$$$
Ketorolac
  Marvin  02231216192D 0   1.00000     0.00000     0

 19 21  0  0  1  0  0  0  0  0999 V2000
    1.4450    2.2138    0.0000 O   0  0  0  0  0  0  0  0  0
    2.2520    2.0422    0.0000 C   0  0  0  0  0  0  0  0  0
    2.8040    2.6553    0.0000 O   0  0  0  0  0  0  0  0  0
    2.5069    1.2576    0.0000 C   0  0  0  0  0  0  0  0  0
    2.0220    0.5902    0.0000 C   0  0  0  0  0  0  0  0  0
    2.5069   -0.0773    0.0000 C   0  0  0  0  0  0  0  0  0
    3.2915    0.1777    0.0000 N   0  0  0  0  0  0  0  0  0
    3.2915    1.0027    0.0000 C   0  0  0  0  0  0  0  0  0
    4.0761    1.2576    0.0000 C   0  0  0  0  0  0  0  0  0
    4.5611    0.5902    0.0000 C   0  0  0  0  0  0  0  0  0
    4.0761   -0.0773    0.0000 C   0  0  0  0  0  0  0  0  0
    4.3311   -0.8619    0.0000 C   0  0  0  0  0  0  0  0  0
    5.1381   -1.0334    0.0000 O   0  0  0  0  0  0  0  0  0
    3.7791   -1.4750    0.0000 C   0  0  0  0  0  0  0  0  0
    4.0340   -2.2596    0.0000 C   0  0  0  0  0  0  0  0  0
    3.4820   -2.8727    0.0000 C   0  0  0  0  0  0  0  0  0
    2.6750   -2.7012    0.0000 C   0  0  0  0  0  0  0  0  0
    2.4201   -1.9166    0.0000 C   0  0  0  0  0  0  0  0  0
    2.9721   -1.3035    0.0000 C   0  0  0  0  0  0  0  0  0
  1  2  1  0  0  0  0
  2  3  2  0  0  0  0
  2  4  1  0  0  0  0
  4  5  1  0  0  0  0
  4  8  1  0  0  0  0
  5  6  1  0  0  0  0
  6  7  1  0  0  0  0
  7  8  4  0  0  0  0
  7 11  4  0  0  0  0
  8  9  4  0  0  0  0
  9 10  4  0  0  0  0
 10 11  4  0  0  0  0
 11 12  1  0  0  0  0
 12 13  2  0  0  0  0
 12 14  1  0  0  0  0
 14 15  4  0  0  0  0
 14 19  4  0  0  0  0
 15 16  4  0  0  0  0
 16 17  4  0  0  0  0
 17 18  4  0  0  0  0
 18 19  4  0  0  0  0
M  END
>  <Name_Molregno>
Ketorolac

>  <5-HT1A>
5

>  <5-HT1B>
5

>  <5-HT1D>
5

>  <5-HT1E>
5

>  <5-HT2A>
5

>  <5-HT3>
5

>  <5-HT5>
5

>  <5-HT6>
5

>  <5-HT7>
5

>  <Alpha-1A>
5

>  <Alpha-1B>
5

>  <Alpha-2A>
5

>  <Alpha-2B>
5

>  <Alpha-2C>
5

>  <DOPAMINE D1>
5

>  <DOPAMINE D2>
5

>  <DOPAMINE D4>
5

>  <DOPAMINE D5>
5

>  <Dopamine transporter>
5

>  <HISTAMINE H1>
5

>  <HISTAMINE H2>
5

>  <Muscarinic acetylcholine receptor M2>
5

>  <Muscarinic acetylcholine receptor M5>
5

>  <Norepinephrine transporter>
5

>  <Serotonin transporter>
5

$$$$
L-cysteic-acid
  Marvin  02231216192D 0   1.00000     0.00000     0

 10  9  0  0  1  0  0  0  0  0999 V2000
   -1.9749    0.1579    0.0000 S   0  0  0  0  0  0  0  0  0
   -2.6894    0.5704    0.0000 O   0  0  0  0  0  0  0  0  0
   -2.3874   -0.5565    0.0000 O   0  0  0  0  0  0  0  0  0
   -1.5624    0.8724    0.0000 O   0  0  0  0  0  0  0  0  0
   -1.2605   -0.2546    0.0000 C   0  0  0  0  0  0  0  0  0
   -0.5460    0.1579    0.0000 C   0  0  0  0  0  0  0  0  0
   -0.5460    0.9829    0.0000 N   0  0  0  0  0  0  0  0  0
    0.1685   -0.2546    0.0000 C   0  0  0  0  0  0  0  0  0
    0.8829    0.1579    0.0000 O   0  0  0  0  0  0  0  0  0
    0.1685   -1.0796    0.0000 O   0  0  0  0  0  0  0  0  0
  1  2  2  0  0  0  0
  1  3  2  0  0  0  0
  1  4  1  0  0  0  0
  1  5  1  0  0  0  0
  5  6  1  0  0  0  0
  6  7  1  0  0  0  0
  6  8  1  0  0  0  0
  8  9  1  0  0  0  0
  8 10  2  0  0  0  0
M  END
>  <Name_Molregno>
L-cysteic-acid

>  <5-HT1A>
5

>  <5-HT1B>
5

>  <5-HT1D>
5

>  <5-HT3>
5

>  <5-HT5>
5

>  <5-HT6>
5

>  <5-HT7>
5

>  <Alpha-1A>
5

>  <Alpha-1B>
5

>  <Alpha-2A>
5

>  <Alpha-2C>
5

>  <DOPAMINE D1>
5

>  <DOPAMINE D2>
5

>  <DOPAMINE D3>
5

>  <DOPAMINE D5>
5

>  <Dopamine transporter>
5

>  <HISTAMINE H1>
5

>  <HISTAMINE H2>
5

>  <HISTAMINE H4>
5

>  <Muscarinic acetylcholine receptor M1>
5

>  <Muscarinic acetylcholine receptor M2>
5

>  <Muscarinic acetylcholine receptor M3>
5

>  <Muscarinic acetylcholine receptor M4>
5

>  <Muscarinic acetylcholine receptor M5>
5

>  <Norepinephrine transporter>
5

>  <Serotonin transporter>
5

$$$$
L-cysteine
  Marvin  02231216192D 0   1.00000     0.00000     0

  7  6  0  0  1  0  0  0  0  0999 V2000
    1.5580    2.1190    0.0000 S   0  0  0  0  0  0  0  0  0
    1.1455    1.4045    0.0000 C   0  0  0  0  0  0  0  0  0
    1.5580    0.6901    0.0000 C   0  0  0  0  0  0  0  0  0
    2.3830    0.6901    0.0000 N   0  0  0  0  0  0  0  0  0
    1.1455   -0.0244    0.0000 C   0  0  0  0  0  0  0  0  0
    1.5580   -0.7389    0.0000 O   0  0  0  0  0  0  0  0  0
    0.3205   -0.0244    0.0000 O   0  0  0  0  0  0  0  0  0
  1  2  1  0  0  0  0
  2  3  1  0  0  0  0
  3  4  1  0  0  0  0
  3  5  1  0  0  0  0
  5  6  1  0  0  0  0
  5  7  2  0  0  0  0
M  END
>  <Name_Molregno>
L-cysteine

>  <5-HT1A>
5

>  <5-HT1B>
5

>  <5-HT1D>
5

>  <5-HT3>
5

>  <5-HT5>
5

>  <5-HT6>
5

>  <5-HT7>
5

>  <Alpha-1A>
5

>  <Alpha-1B>
5

>  <Alpha-2A>
5

>  <Alpha-2B>
5

>  <Alpha-2C>
5

>  <DOPAMINE D1>
5

>  <DOPAMINE D2>
5

>  <DOPAMINE D3>
5

>  <DOPAMINE D5>
5

>  <Dopamine transporter>
5

>  <HISTAMINE H1>
5

>  <HISTAMINE H2>
5

>  <HISTAMINE H4>
5

>  <Muscarinic acetylcholine receptor M1>
5

>  <Muscarinic acetylcholine receptor M2>
5

>  <Muscarinic acetylcholine receptor M3>
5

>  <Muscarinic acetylcholine receptor M4>
5

>  <Muscarinic acetylcholine receptor M5>
5

>  <Norepinephrine transporter>
5

>  <Serotonin transporter>
5

$$$$
L-cysteine-sulfinic-acid
  Marvin  02231216192D 0   1.00000     0.00000     0

  9  8  0  0  1  0  0  0  0  0999 V2000
   -2.0945    0.5537    0.0000 S   0  0  0  0  0  0  0  0  0
   -2.8090    0.1412    0.0000 O   0  0  0  0  0  0  0  0  0
   -2.0945    1.3787    0.0000 O   0  0  0  0  0  0  0  0  0
   -1.3800    0.1412    0.0000 C   0  0  0  0  0  0  0  0  0
   -0.6656    0.5537    0.0000 C   0  0  0  0  0  0  0  0  0
   -0.6656    1.3787    0.0000 N   0  0  0  0  0  0  0  0  0
    0.0489    0.1412    0.0000 C   0  0  0  0  0  0  0  0  0
    0.7634    0.5537    0.0000 O   0  0  0  0  0  0  0  0  0
    0.0489   -0.6838    0.0000 O   0  0  0  0  0  0  0  0  0
  1  2  2  0  0  0  0
  1  3  1  0  0  0  0
  1  4  1  0  0  0  0
  4  5  1  0  0  0  0
  5  6  1  0  0  0  0
  5  7  1  0  0  0  0
  7  8  1  0  0  0  0
  7  9  2  0  0  0  0
M  END
>  <Name_Molregno>
L-cysteine-sulfinic-acid

>  <5-HT1A>
5

>  <5-HT1B>
5

>  <5-HT1D>
5

>  <5-HT3>
5

>  <5-HT5>
5

>  <5-HT6>
5

>  <5-HT7>
5

>  <Alpha-1A>
5

>  <Alpha-1B>
5

>  <Alpha-2A>
5

>  <Alpha-2B>
5

>  <Alpha-2C>
5

>  <DOPAMINE D1>
5

>  <DOPAMINE D2>
5

>  <DOPAMINE D3>
5

>  <DOPAMINE D5>
5

>  <Dopamine transporter>
5

>  <HISTAMINE H1>
5

>  <HISTAMINE H2>
5

>  <HISTAMINE H4>
5

>  <Muscarinic acetylcholine receptor M1>
5

>  <Muscarinic acetylcholine receptor M2>
5

>  <Muscarinic acetylcholine receptor M3>
5

>  <Muscarinic acetylcholine receptor M4>
5

>  <Muscarinic acetylcholine receptor M5>
5

>  <Norepinephrine transporter>
5

>  <Serotonin transporter>
5

$$$$
L-homocysteine-thiolactone
  Marvin  02231216192D 0   1.00000     0.00000     0

  7  7  0  0  1  0  0  0  0  0999 V2000
    1.4299   -0.7189    0.0000 S   0  0  0  0  0  0  0  0  0
    1.1749   -1.5035    0.0000 C   0  0  0  0  0  0  0  0  0
    0.3499   -1.5035    0.0000 C   0  0  0  0  0  0  0  0  0
    0.0950   -0.7189    0.0000 C   0  0  0  0  0  0  0  0  0
   -0.6896   -0.4639    0.0000 N   0  0  0  0  0  0  0  0  0
    0.7624   -0.2339    0.0000 C   0  0  0  0  0  0  0  0  0
    0.7624    0.5911    0.0000 O   0  0  0  0  0  0  0  0  0
  1  2  1  0  0  0  0
  1  6  1  0  0  0  0
  2  3  1  0  0  0  0
  3  4  1  0  0  0  0
  4  5  1  0  0  0  0
  4  6  1  0  0  0  0
  6  7  2  0  0  0  0
M  END
>  <Name_Molregno>
L-homocysteine-thiolactone

>  <5-HT1A>
5

>  <5-HT3>
5

>  <5-HT5>
5

>  <5-HT6>
5

>  <5-HT7>
5

>  <Alpha-1A>
5

>  <Alpha-1B>
5

>  <Alpha-2A>
5

>  <Alpha-2B>
5

>  <Alpha-2C>
5

>  <DOPAMINE D1>
5

>  <DOPAMINE D2>
5

>  <DOPAMINE D5>
5

>  <Dopamine transporter>
5

>  <HISTAMINE H1>
5

>  <HISTAMINE H2>
5

>  <HISTAMINE H4>
5

>  <Muscarinic acetylcholine receptor M1>
5

>  <Muscarinic acetylcholine receptor M2>
5

>  <Muscarinic acetylcholine receptor M3>
5

>  <Muscarinic acetylcholine receptor M4>
5

>  <Muscarinic acetylcholine receptor M5>
5

>  <Norepinephrine transporter>
5

>  <Serotonin transporter>
5

$$$$
Lofepramine
  Marvin  02231216192D 0   1.00000     0.00000     0

 30 33  0  0  0  0  0  0  0  0999 V2000
   -0.0355   -2.8173    0.0000 Cl  0  0  0  0  0  0  0  0  0
    0.6789   -2.4048    0.0000 C   0  0  0  0  0  0  0  0  0
    0.6789   -1.5798    0.0000 C   0  0  0  0  0  0  0  0  0
    1.3934   -1.1673    0.0000 C   0  0  0  0  0  0  0  0  0
    2.1079   -1.5798    0.0000 C   0  0  0  0  0  0  0  0  0
    2.1079   -2.4048    0.0000 C   0  0  0  0  0  0  0  0  0
    1.3934   -2.8173    0.0000 C   0  0  0  0  0  0  0  0  0
    2.8224   -1.1673    0.0000 C   0  0  0  0  0  0  0  0  0
    2.8224   -0.3423    0.0000 O   0  0  0  0  0  0  0  0  0
    3.5368   -1.5798    0.0000 C   0  0  0  0  0  0  0  0  0
    4.2513   -1.1673    0.0000 N   0  0  0  0  0  0  0  0  0
    4.9658   -1.5798    0.0000 C   0  0  0  0  0  0  0  0  0
    5.6802   -1.1673    0.0000 C   0  0  0  0  0  0  0  0  0
    6.3947   -1.5798    0.0000 C   0  0  0  0  0  0  0  0  0
    7.1092   -1.1673    0.0000 N   0  0  0  0  0  0  0  0  0
    7.0475   -0.3446    0.0000 C   0  0  0  0  0  0  0  0  0
    7.6523    0.2165    0.0000 C   0  0  0  0  0  0  0  0  0
    8.4681    0.0936    0.0000 C   0  0  0  0  0  0  0  0  0
    8.8806   -0.6209    0.0000 C   0  0  0  0  0  0  0  0  0
    8.5792   -1.3889    0.0000 C   0  0  0  0  0  0  0  0  0
    7.7908   -1.6321    0.0000 C   0  0  0  0  0  0  0  0  0
    7.6072   -2.4364    0.0000 C   0  0  0  0  0  0  0  0  0
    8.2120   -2.9975    0.0000 C   0  0  0  0  0  0  0  0  0
    9.0004   -2.7543    0.0000 C   0  0  0  0  0  0  0  0  0
    9.1839   -1.9500    0.0000 C   0  0  0  0  0  0  0  0  0
    7.4687    1.0208    0.0000 C   0  0  0  0  0  0  0  0  0
    6.6804    1.2640    0.0000 C   0  0  0  0  0  0  0  0  0
    6.0756    0.7029    0.0000 C   0  0  0  0  0  0  0  0  0
    6.2592   -0.1015    0.0000 C   0  0  0  0  0  0  0  0  0
    4.2513   -0.3423    0.0000 C   0  0  0  0  0  0  0  0  0
  1  2  1  0  0  0  0
  2  3  4  0  0  0  0
  2  7  4  0  0  0  0
  3  4  4  0  0  0  0
  4  5  4  0  0  0  0
  5  6  4  0  0  0  0
  5  8  1  0  0  0  0
  6  7  4  0  0  0  0
  8  9  2  0  0  0  0
  8 10  1  0  0  0  0
 10 11  1  0  0  0  0
 11 12  1  0  0  0  0
 11 30  1  0  0  0  0
 12 13  1  0  0  0  0
 13 14  1  0  0  0  0
 14 15  1  0  0  0  0
 15 16  1  0  0  0  0
 15 21  1  0  0  0  0
 16 17  4  0  0  0  0
 16 29  4  0  0  0  0
 17 18  1  0  0  0  0
 17 26  4  0  0  0  0
 18 19  1  0  0  0  0
 19 20  1  0  0  0  0
 20 21  4  0  0  0  0
 20 25  4  0  0  0  0
 21 22  4  0  0  0  0
 22 23  4  0  0  0  0
 23 24  4  0  0  0  0
 24 25  4  0  0  0  0
 26 27  4  0  0  0  0
 27 28  4  0  0  0  0
 28 29  4  0  0  0  0
M  END
>  <Name_Molregno>
Lofepramine

>  <5-HT1A>
5.34

>  <DOPAMINE D2>
5.7

>  <Dopamine transporter>
5

>  <HISTAMINE H1>
6.44

>  <Muscarinic acetylcholine receptor M1>
7.17

>  <Muscarinic acetylcholine receptor M2>
6.48

>  <Muscarinic acetylcholine receptor M3>
6.89

>  <Muscarinic acetylcholine receptor M4>
6.47

>  <Muscarinic acetylcholine receptor M5>
6.34

>  <Norepinephrine transporter>
8.27

>  <Serotonin transporter>
7.15

$$$$
LOXAPINE
  Marvin  02231216192D 0   1.00000     0.00000     0

 23 26  0  0  0  0  0  0  0  0999 V2000
    3.9671    1.6854    0.0000 Cl  0  0  0  0  0  0  0  0  0
    3.1788    1.4422    0.0000 C   0  0  0  0  0  0  0  0  0
    2.5740    2.0033    0.0000 C   0  0  0  0  0  0  0  0  0
    1.7856    1.7602    0.0000 C   0  0  0  0  0  0  0  0  0
    1.6021    0.9558    0.0000 C   0  0  0  0  0  0  0  0  0
    0.8588    0.5979    0.0000 O   0  0  0  0  0  0  0  0  0
    0.1155    0.9558    0.0000 C   0  0  0  0  0  0  0  0  0
   -0.0681    1.7602    0.0000 C   0  0  0  0  0  0  0  0  0
    0.4463    2.4052    0.0000 N   0  0  0  0  0  0  0  0  0
    1.2713    2.4052    0.0000 C   0  0  0  0  0  0  0  0  0
    1.6292    3.1485    0.0000 N   0  0  0  0  0  0  0  0  0
    1.1645    3.8301    0.0000 C   0  0  0  0  0  0  0  0  0
    1.5224    4.5734    0.0000 C   0  0  0  0  0  0  0  0  0
    2.3451    4.6351    0.0000 N   0  0  0  0  0  0  0  0  0
    2.8099    3.9534    0.0000 C   0  0  0  0  0  0  0  0  0
    2.4519    3.2101    0.0000 C   0  0  0  0  0  0  0  0  0
    2.7031    5.3784    0.0000 C   0  0  0  0  0  0  0  0  0
   -0.8565    2.0033    0.0000 C   0  0  0  0  0  0  0  0  0
   -1.4612    1.4422    0.0000 C   0  0  0  0  0  0  0  0  0
   -1.2776    0.6379    0.0000 C   0  0  0  0  0  0  0  0  0
   -0.4893    0.3947    0.0000 C   0  0  0  0  0  0  0  0  0
    2.2068    0.3947    0.0000 C   0  0  0  0  0  0  0  0  0
    2.9952    0.6379    0.0000 C   0  0  0  0  0  0  0  0  0
  1  2  1  0  0  0  0
  2  3  4  0  0  0  0
  2 23  4  0  0  0  0
  3  4  4  0  0  0  0
  4  5  4  0  0  0  0
  4 10  1  0  0  0  0
  5  6  1  0  0  0  0
  5 22  4  0  0  0  0
  6  7  1  0  0  0  0
  7  8  4  0  0  0  0
  7 21  4  0  0  0  0
  8  9  1  0  0  0  0
  8 18  4  0  0  0  0
  9 10  2  0  0  0  0
 10 11  1  0  0  0  0
 11 12  1  0  0  0  0
 11 16  1  0  0  0  0
 12 13  1  0  0  0  0
 13 14  1  0  0  0  0
 14 15  1  0  0  0  0
 14 17  1  0  0  0  0
 15 16  1  0  0  0  0
 18 19  4  0  0  0  0
 19 20  4  0  0  0  0
 20 21  4  0  0  0  0
 22 23  4  0  0  0  0
M  END
>  <Name_Molregno>
LOXAPINE

>  <5-HT1A>
5.59

>  <5-HT1B>
6.41

>  <5-HT1D>
5.46

>  <5-HT1E>
5.85

>  <5-HT2A>
8.43

>  <5-HT2C>
7.9

>  <5-HT3>
6.72

>  <5-HT5>
6.11

>  <5-HT6>
7.46

>  <5-HT7>
7.06

>  <Alpha-1A>
7.51

>  <Alpha-1B>
7.28

>  <Alpha-2A>
6.82

>  <Alpha-2B>
6.97

>  <Alpha-2C>
7.1

>  <Beta-1>
5

>  <Beta-2>
5

>  <DOPAMINE D1>
7.27

>  <DOPAMINE D2>
7.74

>  <DOPAMINE D3>
7.64

>  <DOPAMINE D4>
8.04

>  <DOPAMINE D5>
7.12

>  <Dopamine transporter>
5

>  <HISTAMINE H1>
8.33

>  <HISTAMINE H2>
6.68

>  <HISTAMINE H4>
5.32

>  <Muscarinic acetylcholine receptor M1>
6.98

>  <Muscarinic acetylcholine receptor M2>
6.38

>  <Muscarinic acetylcholine receptor M3>
6.74

>  <Muscarinic acetylcholine receptor M4>
6.09

>  <Muscarinic acetylcholine receptor M5>
6.83

>  <Norepinephrine transporter>
5.24

>  <Serotonin transporter>
5

$$$$
LY344864
  Marvin  02231216192D 0   1.00000     0.00000     0

 26 29  0  0  1  0  0  0  0  0999 V2000
    0.4821    3.8418    0.0000 F   0  0  0  0  0  0  0  0  0
    1.0342    3.2287    0.0000 C   0  0  0  0  0  0  0  0  0
    1.8411    3.4003    0.0000 C   0  0  0  0  0  0  0  0  0
    2.3932    2.7872    0.0000 C   0  0  0  0  0  0  0  0  0
    2.1382    2.0026    0.0000 C   0  0  0  0  0  0  0  0  0
    1.3312    1.8310    0.0000 C   0  0  0  0  0  0  0  0  0
    0.7792    2.4441    0.0000 C   0  0  0  0  0  0  0  0  0
    2.6902    1.3895    0.0000 C   0  0  0  0  0  0  0  0  0
    2.4353    0.6048    0.0000 O   0  0  0  0  0  0  0  0  0
    3.4972    1.5610    0.0000 N   0  0  0  0  0  0  0  0  0
    4.0493    0.9479    0.0000 C   0  0  0  0  0  0  0  0  0
    4.8562    1.1194    0.0000 C   0  0  0  0  0  0  0  0  0
    5.4083    0.5063    0.0000 C   0  0  0  0  0  0  0  0  0
    6.2333    0.5063    0.0000 C   0  0  0  0  0  0  0  0  0
    6.7853    1.1194    0.0000 C   0  0  0  0  0  0  0  0  0
    7.5923    0.9479    0.0000 C   0  0  0  0  0  0  0  0  0
    8.1443    1.5610    0.0000 N   0  0  0  0  0  0  0  0  0
    7.8894    2.3456    0.0000 C   0  0  0  0  0  0  0  0  0
    8.9513    1.3895    0.0000 C   0  0  0  0  0  0  0  0  0
    7.8472    0.1633    0.0000 C   0  0  0  0  0  0  0  0  0
    7.2952   -0.4498    0.0000 C   0  0  0  0  0  0  0  0  0
    6.4882   -0.2783    0.0000 C   0  0  0  0  0  0  0  0  0
    5.8208   -0.7632    0.0000 N   0  0  0  0  0  0  0  0  0
    5.1533   -0.2783    0.0000 C   0  0  0  0  0  0  0  0  0
    4.3463   -0.4498    0.0000 C   0  0  0  0  0  0  0  0  0
    3.7943    0.1633    0.0000 C   0  0  0  0  0  0  0  0  0
  1  2  1  0  0  0  0
  2  3  4  0  0  0  0
  2  7  4  0  0  0  0
  3  4  4  0  0  0  0
  4  5  4  0  0  0  0
  5  6  4  0  0  0  0
  5  8  1  0  0  0  0
  6  7  4  0  0  0  0
  8  9  2  0  0  0  0
  8 10  1  0  0  0  0
 10 11  1  0  0  0  0
 11 12  4  0  0  0  0
 11 26  4  0  0  0  0
 12 13  4  0  0  0  0
 13 14  4  0  0  0  0
 13 24  4  0  0  0  0
 14 15  1  0  0  0  0
 14 22  4  0  0  0  0
 15 16  1  0  0  0  0
 16 17  1  0  0  0  0
 16 20  1  0  0  0  0
 17 18  1  0  0  0  0
 17 19  1  0  0  0  0
 20 21  1  0  0  0  0
 21 22  1  0  0  0  0
 22 23  4  0  0  0  0
 23 24  4  0  0  0  0
 24 25  4  0  0  0  0
 25 26  4  0  0  0  0
M  STY  1   1 DAT
M  SAL   1  1  23
M  SDT   1 MRV_IMPLICIT_H                                        
M  SDD   1     0.0000    0.0000    DR    ALL  0       0  
M  SED   1 IMPL_H1
M  END
>  <Name_Molregno>
LY344864

>  <5-HT1A>
6.28

>  <5-HT1B>
6.26

>  <5-HT1D>
6.24

>  <5-HT1E>
5.85

>  <5-HT2A>
5.41

>  <5-HT2C>
5.46

>  <5-HT7>
5.31

$$$$
MDA
  Marvin  02231216192D 0   1.00000     0.00000     0

 13 14  0  0  1  0  0  0  0  0999 V2000
   -3.4392   -0.1658    0.0000 O   0  0  0  0  0  0  0  0  0
   -2.6546   -0.4208    0.0000 C   0  0  0  0  0  0  0  0  0
   -1.9402   -0.0083    0.0000 C   0  0  0  0  0  0  0  0  0
   -1.2257   -0.4208    0.0000 C   0  0  0  0  0  0  0  0  0
   -1.2257   -1.2458    0.0000 C   0  0  0  0  0  0  0  0  0
   -1.9402   -1.6583    0.0000 C   0  0  0  0  0  0  0  0  0
   -2.6546   -1.2458    0.0000 C   0  0  0  0  0  0  0  0  0
   -3.4392   -1.5007    0.0000 O   0  0  0  0  0  0  0  0  0
   -3.9242   -0.8333    0.0000 C   0  0  0  0  0  0  0  0  0
   -0.5112   -0.0083    0.0000 C   0  0  0  0  0  0  0  0  0
    0.2033   -0.4208    0.0000 C   0  0  0  0  0  0  0  0  0
    0.9177   -0.0083    0.0000 N   0  0  0  0  0  0  0  0  0
    0.2033   -1.2458    0.0000 C   0  0  0  0  0  0  0  0  0
  1  2  1  0  0  0  0
  1  9  1  0  0  0  0
  2  3  4  0  0  0  0
  2  7  4  0  0  0  0
  3  4  4  0  0  0  0
  4  5  4  0  0  0  0
  4 10  1  0  0  0  0
  5  6  4  0  0  0  0
  6  7  4  0  0  0  0
  7  8  1  0  0  0  0
  8  9  1  0  0  0  0
 10 11  1  0  0  0  0
 11 12  1  0  0  0  0
 11 13  1  0  0  0  0
M  END
>  <Name_Molregno>
MDA

>  <5-HT1A>
5

>  <5-HT2A>
5.08

>  <DOPAMINE D1>
5

>  <DOPAMINE D2>
5

>  <Serotonin transporter>
5

$$$$
Meloxicam
  Marvin  02231216192D 0   1.00000     0.00000     0

 23 25  0  0  0  0  0  0  0  0999 V2000
    1.0530    2.3261    0.0000 S   0  0  0  0  0  0  0  0  0
    0.2461    2.4976    0.0000 C   0  0  0  0  0  0  0  0  0
   -0.1664    1.7831    0.0000 C   0  0  0  0  0  0  0  0  0
    0.3856    1.1700    0.0000 N   0  0  0  0  0  0  0  0  0
    1.1393    1.5056    0.0000 C   0  0  0  0  0  0  0  0  0
    1.8537    1.0931    0.0000 N   0  0  0  0  0  0  0  0  0
    1.8537    0.2681    0.0000 C   0  0  0  0  0  0  0  0  0
    1.1393   -0.1444    0.0000 O   0  0  0  0  0  0  0  0  0
    2.5682   -0.1444    0.0000 C   0  0  0  0  0  0  0  0  0
    2.5682   -0.9694    0.0000 N   0  0  0  0  0  0  0  0  0
    3.2827   -1.3819    0.0000 S   0  0  0  0  0  0  0  0  0
    2.7524   -2.0139    0.0000 O   0  0  0  0  0  0  0  0  0
    3.8130   -2.0139    0.0000 O   0  0  0  0  0  0  0  0  0
    3.9972   -0.9694    0.0000 C   0  0  0  0  0  0  0  0  0
    3.9972   -0.1444    0.0000 C   0  0  0  0  0  0  0  0  0
    4.7116    0.2681    0.0000 C   0  0  0  0  0  0  0  0  0
    5.4261   -0.1444    0.0000 C   0  0  0  0  0  0  0  0  0
    5.4261   -0.9694    0.0000 C   0  0  0  0  0  0  0  0  0
    4.7116   -1.3819    0.0000 C   0  0  0  0  0  0  0  0  0
    3.2827    0.2681    0.0000 C   0  0  0  0  0  0  0  0  0
    3.2827    1.0931    0.0000 O   0  0  0  0  0  0  0  0  0
    1.8537   -1.3819    0.0000 C   0  0  0  0  0  0  0  0  0
   -0.0895    3.2513    0.0000 C   0  0  0  0  0  0  0  0  0
  1  2  4  0  0  0  0
  1  5  4  0  0  0  0
  2  3  4  0  0  0  0
  2 23  1  0  0  0  0
  3  4  4  0  0  0  0
  4  5  4  0  0  0  0
  5  6  1  0  0  0  0
  6  7  1  0  0  0  0
  7  8  1  0  0  0  0
  7  9  2  0  0  0  0
  9 10  1  0  0  0  0
  9 20  1  0  0  0  0
 10 11  1  0  0  0  0
 10 22  1  0  0  0  0
 11 12  2  0  0  0  0
 11 13  2  0  0  0  0
 11 14  1  0  0  0  0
 14 15  4  0  0  0  0
 14 19  4  0  0  0  0
 15 16  4  0  0  0  0
 15 20  1  0  0  0  0
 16 17  4  0  0  0  0
 17 18  4  0  0  0  0
 18 19  4  0  0  0  0
 20 21  2  0  0  0  0
M  END
>  <Name_Molregno>
Meloxicam

>  <5-HT1A>
5

>  <5-HT1B>
5

>  <5-HT1D>
5

>  <5-HT1E>
5

>  <5-HT2A>
5

>  <5-HT3>
5

>  <5-HT5>
5

>  <5-HT6>
5

>  <5-HT7>
5

>  <Alpha-1A>
5

>  <Alpha-1B>
5

>  <Alpha-2A>
5

>  <Alpha-2B>
5

>  <Alpha-2C>
5

>  <DOPAMINE D1>
5

>  <DOPAMINE D2>
5

>  <DOPAMINE D4>
5

>  <DOPAMINE D5>
5

>  <Dopamine transporter>
5

>  <HISTAMINE H1>
5

>  <HISTAMINE H2>
5

>  <HISTAMINE H4>
5

>  <Muscarinic acetylcholine receptor M2>
5

>  <Muscarinic acetylcholine receptor M5>
5

>  <Norepinephrine transporter>
5

>  <Serotonin transporter>
5

$$$$
MELPERONE
  Marvin  02231216192D 0   1.00000     0.00000     0

 19 20  0  0  0  0  0  0  0  0999 V2000
    0.1244    2.1151    0.0000 F   0  0  0  0  0  0  0  0  0
    0.8389    1.7026    0.0000 C   0  0  0  0  0  0  0  0  0
    1.5534    2.1151    0.0000 C   0  0  0  0  0  0  0  0  0
    2.2678    1.7026    0.0000 C   0  0  0  0  0  0  0  0  0
    2.2678    0.8776    0.0000 C   0  0  0  0  0  0  0  0  0
    1.5534    0.4651    0.0000 C   0  0  0  0  0  0  0  0  0
    0.8389    0.8776    0.0000 C   0  0  0  0  0  0  0  0  0
    2.9823    0.4651    0.0000 C   0  0  0  0  0  0  0  0  0
    2.9823   -0.3599    0.0000 O   0  0  0  0  0  0  0  0  0
    3.6968    0.8776    0.0000 C   0  0  0  0  0  0  0  0  0
    4.4113    0.4651    0.0000 C   0  0  0  0  0  0  0  0  0
    5.1257    0.8776    0.0000 C   0  0  0  0  0  0  0  0  0
    5.8402    0.4651    0.0000 N   0  0  0  0  0  0  0  0  0
    6.5547    0.8776    0.0000 C   0  0  0  0  0  0  0  0  0
    7.2691    0.4651    0.0000 C   0  0  0  0  0  0  0  0  0
    7.2691   -0.3599    0.0000 C   0  0  0  0  0  0  0  0  0
    6.5547   -0.7724    0.0000 C   0  0  0  0  0  0  0  0  0
    5.8402   -0.3599    0.0000 C   0  0  0  0  0  0  0  0  0
    7.9836   -0.7724    0.0000 C   0  0  0  0  0  0  0  0  0
  1  2  1  0  0  0  0
  2  3  4  0  0  0  0
  2  7  4  0  0  0  0
  3  4  4  0  0  0  0
  4  5  4  0  0  0  0
  5  6  4  0  0  0  0
  5  8  1  0  0  0  0
  6  7  4  0  0  0  0
  8  9  2  0  0  0  0
  8 10  1  0  0  0  0
 10 11  1  0  0  0  0
 11 12  1  0  0  0  0
 12 13  1  0  0  0  0
 13 14  1  0  0  0  0
 13 18  1  0  0  0  0
 14 15  1  0  0  0  0
 15 16  1  0  0  0  0
 16 17  1  0  0  0  0
 16 19  1  0  0  0  0
 17 18  1  0  0  0  0
M  END
>  <Name_Molregno>
MELPERONE

>  <5-HT1A>
5.66

>  <5-HT1D>
5.47

>  <5-HT2A>
6.74

>  <5-HT2C>
5.68

>  <DOPAMINE D2>
7.04

>  <DOPAMINE D3>
7.45

>  <DOPAMINE D4>
6.33

>  <HISTAMINE H1>
6.24

>  <Muscarinic acetylcholine receptor M1>
5

>  <Muscarinic acetylcholine receptor M2>
5.62

>  <Muscarinic acetylcholine receptor M3>
5

>  <Muscarinic acetylcholine receptor M4>
5.36

>  <Muscarinic acetylcholine receptor M5>
5

$$$$
MEPYRAMINE
  Marvin  02231216192D 0   1.00000     0.00000     0

 21 22  0  0  0  0  0  0  0  0999 V2000
   -6.0198    1.4523    0.0000 O   0  0  0  0  0  0  0  0  0
   -6.7343    1.0398    0.0000 C   0  0  0  0  0  0  0  0  0
   -5.3053    1.0398    0.0000 C   0  0  0  0  0  0  0  0  0
   -4.5908    1.4523    0.0000 C   0  0  0  0  0  0  0  0  0
   -3.8764    1.0398    0.0000 C   0  0  0  0  0  0  0  0  0
   -3.8764    0.2148    0.0000 C   0  0  0  0  0  0  0  0  0
   -4.5908   -0.1977    0.0000 C   0  0  0  0  0  0  0  0  0
   -5.3053    0.2148    0.0000 C   0  0  0  0  0  0  0  0  0
   -3.1619   -0.1977    0.0000 C   0  0  0  0  0  0  0  0  0
   -2.4474    0.2148    0.0000 N   0  0  0  0  0  0  0  0  0
   -1.7330   -0.1977    0.0000 C   0  0  0  0  0  0  0  0  0
   -1.0185    0.2148    0.0000 C   0  0  0  0  0  0  0  0  0
   -0.3040   -0.1977    0.0000 N   0  0  0  0  0  0  0  0  0
    0.4104    0.2148    0.0000 C   0  0  0  0  0  0  0  0  0
   -0.3040   -1.0227    0.0000 C   0  0  0  0  0  0  0  0  0
   -2.4474    1.0398    0.0000 C   0  0  0  0  0  0  0  0  0
   -3.1619    1.4523    0.0000 N   0  0  0  0  0  0  0  0  0
   -3.1619    2.2773    0.0000 C   0  0  0  0  0  0  0  0  0
   -2.4474    2.6898    0.0000 C   0  0  0  0  0  0  0  0  0
   -1.7330    2.2773    0.0000 C   0  0  0  0  0  0  0  0  0
   -1.7330    1.4523    0.0000 C   0  0  0  0  0  0  0  0  0
  1  2  1  0  0  0  0
  1  3  1  0  0  0  0
  3  4  4  0  0  0  0
  3  8  4  0  0  0  0
  4  5  4  0  0  0  0
  5  6  4  0  0  0  0
  6  7  4  0  0  0  0
  6  9  1  0  0  0  0
  7  8  4  0  0  0  0
  9 10  1  0  0  0  0
 10 11  1  0  0  0  0
 10 16  1  0  0  0  0
 11 12  1  0  0  0  0
 12 13  1  0  0  0  0
 13 14  1  0  0  0  0
 13 15  1  0  0  0  0
 16 17  4  0  0  0  0
 16 21  4  0  0  0  0
 17 18  4  0  0  0  0
 18 19  4  0  0  0  0
 19 20  4  0  0  0  0
 20 21  4  0  0  0  0
M  END
>  <Name_Molregno>
MEPYRAMINE

>  <5-HT1A>
5

>  <5-HT2A>
5.7

>  <5-HT3>
5

>  <HISTAMINE H1>
8.65

>  <HISTAMINE H3>
5

$$$$
MESULERGINE
  Marvin  02231216192D 0   1.00000     0.00000     0

 25 28  0  0  1  0  0  0  0  0999 V2000
   -3.5897   -2.1386    0.0000 S   0  0  0  0  0  0  0  0  0
   -4.0013   -1.4236    0.0000 O   0  0  0  0  0  0  0  0  0
   -3.1780   -2.8535    0.0000 O   0  0  0  0  0  0  0  0  0
   -2.8747   -1.7269    0.0000 N   0  0  0  0  0  0  0  0  0
   -2.8737   -0.9019    0.0000 C   0  0  0  0  0  0  0  0  0
   -2.1588   -0.4903    0.0000 C   0  0  0  0  0  0  0  0  0
   -2.1578    0.3347    0.0000 C   0  0  0  0  0  0  0  0  0
   -2.8717    0.7481    0.0000 C   0  0  0  0  0  0  0  0  0
   -3.5867    0.3364    0.0000 N   0  0  0  0  0  0  0  0  0
   -3.5877   -0.4886    0.0000 C   0  0  0  0  0  0  0  0  0
   -4.3007    0.7498    0.0000 C   0  0  0  0  0  0  0  0  0
   -2.8703    1.5722    0.0000 C   0  0  0  0  0  0  0  0  0
   -2.1578    1.9847    0.0000 C   0  0  0  0  0  0  0  0  0
   -1.4453    1.5722    0.0000 C   0  0  0  0  0  0  0  0  0
   -1.4453    0.7472    0.0000 C   0  0  0  0  0  0  0  0  0
   -0.7274    0.3347    0.0000 C   0  0  0  0  0  0  0  0  0
   -0.0149    0.7472    0.0000 C   0  0  0  0  0  0  0  0  0
   -0.0149    1.5722    0.0000 C   0  0  0  0  0  0  0  0  0
   -0.7274    1.9847    0.0000 C   0  0  0  0  0  0  0  0  0
   -1.0328    2.8419    0.0000 N   0  0  0  0  0  0  0  0  0
   -1.8578    2.8419    0.0000 C   0  0  0  0  0  0  0  0  0
   -0.5573    3.5161    0.0000 C   0  0  0  0  0  0  0  0  0
   -4.3046   -2.5502    0.0000 N   0  0  0  0  0  0  0  0  0
   -4.3056   -3.3752    0.0000 C   0  0  0  0  0  0  0  0  0
   -5.0186   -2.1368    0.0000 C   0  0  0  0  0  0  0  0  0
  1  2  2  0  0  0  0
  1  3  2  0  0  0  0
  1  4  1  0  0  0  0
  1 23  1  0  0  0  0
  4  5  1  0  0  0  0
  5  6  1  0  0  0  0
  5 10  1  0  0  0  0
  6  7  1  0  0  0  0
  7  8  1  0  0  0  0
  7 15  1  0  0  0  0
  8  9  1  0  0  0  0
  8 12  1  0  0  0  0
  9 10  1  0  0  0  0
  9 11  1  0  0  0  0
 12 13  1  0  0  0  0
 13 14  4  0  0  0  0
 13 21  4  0  0  0  0
 14 15  4  0  0  0  0
 14 19  4  0  0  0  0
 15 16  4  0  0  0  0
 16 17  4  0  0  0  0
 17 18  4  0  0  0  0
 18 19  4  0  0  0  0
 19 20  4  0  0  0  0
 20 21  4  0  0  0  0
 20 22  1  0  0  0  0
 23 24  1  0  0  0  0
 23 25  1  0  0  0  0
M  END
>  <Name_Molregno>
MESULERGINE

>  <5-HT1A>
6.61

>  <5-HT1B>
6.09

>  <5-HT1D>
5.33

>  <5-HT2A>
7.19

>  <5-HT2C>
8.71

>  <5-HT6>
5.59

>  <5-HT7>
7.74

$$$$
METERGOLINE
  Marvin  02231216192D 0   1.00000     0.00000     0

 30 34  0  0  1  0  0  0  0  0999 V2000
   -3.9736   -2.5674    0.0000 O   0  0  0  0  0  0  0  0  0
   -3.9745   -3.3924    0.0000 C   0  0  0  0  0  0  0  0  0
   -4.6895   -3.8041    0.0000 C   0  0  0  0  0  0  0  0  0
   -4.6905   -4.6291    0.0000 C   0  0  0  0  0  0  0  0  0
   -5.4055   -5.0407    0.0000 C   0  0  0  0  0  0  0  0  0
   -6.1194   -4.6274    0.0000 C   0  0  0  0  0  0  0  0  0
   -6.1184   -3.8024    0.0000 C   0  0  0  0  0  0  0  0  0
   -5.4035   -3.3907    0.0000 C   0  0  0  0  0  0  0  0  0
   -3.2586   -2.1558    0.0000 C   0  0  0  0  0  0  0  0  0
   -2.5446   -2.5692    0.0000 O   0  0  0  0  0  0  0  0  0
   -3.2576   -1.3308    0.0000 N   0  0  0  0  0  0  0  0  0
   -2.5426   -0.9192    0.0000 C   0  0  0  0  0  0  0  0  0
   -2.5417   -0.0942    0.0000 C   0  0  0  0  0  0  0  0  0
   -1.8267    0.3175    0.0000 C   0  0  0  0  0  0  0  0  0
   -1.8257    1.1425    0.0000 C   0  0  0  0  0  0  0  0  0
   -2.5397    1.5558    0.0000 C   0  0  0  0  0  0  0  0  0
   -3.2546    1.1442    0.0000 N   0  0  0  0  0  0  0  0  0
   -3.2556    0.3192    0.0000 C   0  0  0  0  0  0  0  0  0
   -3.9686    1.5575    0.0000 C   0  0  0  0  0  0  0  0  0
   -2.5382    2.3800    0.0000 C   0  0  0  0  0  0  0  0  0
   -1.8257    2.7925    0.0000 C   0  0  0  0  0  0  0  0  0
   -1.1132    2.3800    0.0000 C   0  0  0  0  0  0  0  0  0
   -1.1132    1.5550    0.0000 C   0  0  0  0  0  0  0  0  0
   -0.3953    1.1425    0.0000 C   0  0  0  0  0  0  0  0  0
    0.3172    1.5550    0.0000 C   0  0  0  0  0  0  0  0  0
    0.3172    2.3800    0.0000 C   0  0  0  0  0  0  0  0  0
   -0.3953    2.7925    0.0000 C   0  0  0  0  0  0  0  0  0
   -0.7007    3.6496    0.0000 N   0  0  0  0  0  0  0  0  0
   -1.5257    3.6496    0.0000 C   0  0  0  0  0  0  0  0  0
   -0.2252    4.3238    0.0000 C   0  0  0  0  0  0  0  0  0
  1  2  1  0  0  0  0
  1  9  1  0  0  0  0
  2  3  1  0  0  0  0
  3  4  4  0  0  0  0
  3  8  4  0  0  0  0
  4  5  4  0  0  0  0
  5  6  4  0  0  0  0
  6  7  4  0  0  0  0
  7  8  4  0  0  0  0
  9 10  2  0  0  0  0
  9 11  1  0  0  0  0
 11 12  1  0  0  0  0
 12 13  1  0  0  0  0
 13 14  1  0  0  0  0
 13 18  1  0  0  0  0
 14 15  1  0  0  0  0
 15 16  1  0  0  0  0
 15 23  1  0  0  0  0
 16 17  1  0  0  0  0
 16 20  1  0  0  0  0
 17 18  1  0  0  0  0
 17 19  1  0  0  0  0
 20 21  1  0  0  0  0
 21 22  4  0  0  0  0
 21 29  4  0  0  0  0
 22 23  4  0  0  0  0
 22 27  4  0  0  0  0
 23 24  4  0  0  0  0
 24 25  4  0  0  0  0
 25 26  4  0  0  0  0
 26 27  4  0  0  0  0
 27 28  4  0  0  0  0
 28 29  4  0  0  0  0
 28 30  1  0  0  0  0
M  END
>  <Name_Molregno>
METERGOLINE

>  <5-HT1A>
8.36

>  <5-HT1B>
8

>  <5-HT1D>
8.83

>  <5-HT1E>
6.03

>  <5-HT2A>
9.28

>  <5-HT2C>
9.24

>  <5-HT6>
6.81

>  <5-HT7>
8.31

$$$$
METHAMPHETAMINE
  Marvin  02231216192D 0   1.00000     0.00000     0

 11 11  0  0  1  0  0  0  0  0999 V2000
    1.4662    1.5280    0.0000 N   0  0  0  0  0  0  0  0  0
    1.4662    0.7030    0.0000 C   0  0  0  0  0  0  0  0  0
    2.1807    0.2905    0.0000 C   0  0  0  0  0  0  0  0  0
    2.1807   -0.5345    0.0000 C   0  0  0  0  0  0  0  0  0
    2.8952   -0.9470    0.0000 C   0  0  0  0  0  0  0  0  0
    2.8952   -1.7720    0.0000 C   0  0  0  0  0  0  0  0  0
    2.1807   -2.1845    0.0000 C   0  0  0  0  0  0  0  0  0
    1.4662   -1.7720    0.0000 C   0  0  0  0  0  0  0  0  0
    1.4662   -0.9470    0.0000 C   0  0  0  0  0  0  0  0  0
    0.7518    0.2905    0.0000 C   0  0  0  0  0  0  0  0  0
    0.7518    1.9405    0.0000 C   0  0  0  0  0  0  0  0  0
  1  2  1  0  0  0  0
  1 11  1  0  0  0  0
  2  3  1  0  0  0  0
  2 10  1  0  0  0  0
  3  4  1  0  0  0  0
  4  5  4  0  0  0  0
  4  9  4  0  0  0  0
  5  6  4  0  0  0  0
  6  7  4  0  0  0  0
  7  8  4  0  0  0  0
  8  9  4  0  0  0  0
M  END
>  <Name_Molregno>
METHAMPHETAMINE

>  <5-HT1A>
5

>  <Alpha-2A>
5.38

>  <Alpha-2B>
6.13

>  <Alpha-2C>
6.09

>  <DOPAMINE D1>
5

>  <DOPAMINE D2>
5

>  <Dopamine transporter>
7.61

>  <Norepinephrine transporter>
6.96

>  <Serotonin transporter>
6.13

$$$$
Methcathinone
  Marvin  02231216192D 0   1.00000     0.00000     0

 12 12  0  0  1  0  0  0  0  0999 V2000
    1.9192   -0.0549    0.0000 O   0  0  0  0  0  0  0  0  0
    1.2047   -0.4674    0.0000 C   0  0  0  0  0  0  0  0  0
    0.4903   -0.0549    0.0000 C   0  0  0  0  0  0  0  0  0
    0.4903    0.7701    0.0000 N   0  0  0  0  0  0  0  0  0
   -0.2242    1.1826    0.0000 C   0  0  0  0  0  0  0  0  0
   -0.2242   -0.4674    0.0000 C   0  0  0  0  0  0  0  0  0
    1.2047   -1.2924    0.0000 C   0  0  0  0  0  0  0  0  0
    1.9192   -1.7049    0.0000 C   0  0  0  0  0  0  0  0  0
    1.9192   -2.5299    0.0000 C   0  0  0  0  0  0  0  0  0
    1.2047   -2.9424    0.0000 C   0  0  0  0  0  0  0  0  0
    0.4903   -2.5299    0.0000 C   0  0  0  0  0  0  0  0  0
    0.4903   -1.7049    0.0000 C   0  0  0  0  0  0  0  0  0
  1  2  2  0  0  0  0
  2  3  1  0  0  0  0
  2  7  1  0  0  0  0
  3  4  1  0  0  0  0
  3  6  1  0  0  0  0
  4  5  1  0  0  0  0
  7  8  4  0  0  0  0
  7 12  4  0  0  0  0
  8  9  4  0  0  0  0
  9 10  4  0  0  0  0
 10 11  4  0  0  0  0
 11 12  4  0  0  0  0
M  END
>  <Name_Molregno>
Methcathinone

>  <5-HT1A>
5

>  <5-HT1B>
5

>  <5-HT1D>
5

>  <5-HT1E>
5

>  <5-HT3>
5

>  <5-HT5>
5

>  <5-HT6>
5

>  <5-HT7>
6

>  <Alpha-1A>
5

>  <Alpha-1B>
5

>  <Alpha-2A>
5.04

>  <Alpha-2B>
5.81

>  <Alpha-2C>
6.22

>  <Beta-1>
5

>  <Beta-2>
5

>  <DOPAMINE D1>
5

>  <DOPAMINE D2>
5

>  <DOPAMINE D4>
5

>  <DOPAMINE D5>
5

>  <Dopamine transporter>
6.41

>  <HISTAMINE H1>
5

>  <HISTAMINE H2>
5

>  <HISTAMINE H4>
5

>  <Muscarinic acetylcholine receptor M1>
5

>  <Muscarinic acetylcholine receptor M2>
5

>  <Muscarinic acetylcholine receptor M3>
5

>  <Muscarinic acetylcholine receptor M4>
5

>  <Muscarinic acetylcholine receptor M5>
5

>  <Norepinephrine transporter>
6.87

>  <Serotonin transporter>
5.38

$$$$
METHERGINE
  Marvin  02231216192D 0   1.00000     0.00000     0

 25 28  0  0  1  0  0  0  0  0999 V2000
    1.9439   -4.3219    0.0000 O   0  0  0  0  0  0  0  0  0
    1.9449   -3.4969    0.0000 C   0  0  0  0  0  0  0  0  0
    2.6599   -3.0852    0.0000 C   0  0  0  0  0  0  0  0  0
    2.6609   -2.2602    0.0000 N   0  0  0  0  0  0  0  0  0
    3.3758   -1.8486    0.0000 C   0  0  0  0  0  0  0  0  0
    4.0898   -2.2620    0.0000 O   0  0  0  0  0  0  0  0  0
    3.3768   -1.0236    0.0000 C   0  0  0  0  0  0  0  0  0
    4.0918   -0.6120    0.0000 C   0  0  0  0  0  0  0  0  0
    4.0928    0.2130    0.0000 C   0  0  0  0  0  0  0  0  0
    3.3788    0.6264    0.0000 C   0  0  0  0  0  0  0  0  0
    2.6638    0.2147    0.0000 N   0  0  0  0  0  0  0  0  0
    2.6628   -0.6102    0.0000 C   0  0  0  0  0  0  0  0  0
    1.9498    0.6281    0.0000 C   0  0  0  0  0  0  0  0  0
    3.3803    1.4505    0.0000 C   0  0  0  0  0  0  0  0  0
    4.0928    1.8630    0.0000 C   0  0  0  0  0  0  0  0  0
    4.8053    1.4505    0.0000 C   0  0  0  0  0  0  0  0  0
    4.8053    0.6255    0.0000 C   0  0  0  0  0  0  0  0  0
    5.5231    0.2130    0.0000 C   0  0  0  0  0  0  0  0  0
    6.2356    0.6255    0.0000 C   0  0  0  0  0  0  0  0  0
    6.2356    1.4505    0.0000 C   0  0  0  0  0  0  0  0  0
    5.5231    1.8630    0.0000 C   0  0  0  0  0  0  0  0  0
    5.2178    2.7202    0.0000 N   0  0  0  0  0  0  0  0  0
    4.3928    2.7202    0.0000 C   0  0  0  0  0  0  0  0  0
    3.3738   -3.4986    0.0000 C   0  0  0  0  0  0  0  0  0
    3.3729   -4.3236    0.0000 C   0  0  0  0  0  0  0  0  0
  1  2  1  0  0  0  0
  2  3  1  0  0  0  0
  3  4  1  0  0  0  0
  3 24  1  0  0  0  0
  4  5  1  0  0  0  0
  5  6  2  0  0  0  0
  5  7  1  0  0  0  0
  7  8  1  0  0  0  0
  7 12  1  0  0  0  0
  8  9  2  0  0  0  0
  9 10  1  0  0  0  0
  9 17  1  0  0  0  0
 10 11  1  0  0  0  0
 10 14  1  0  0  0  0
 11 12  1  0  0  0  0
 11 13  1  0  0  0  0
 14 15  1  0  0  0  0
 15 16  4  0  0  0  0
 15 23  4  0  0  0  0
 16 17  4  0  0  0  0
 16 21  4  0  0  0  0
 17 18  4  0  0  0  0
 18 19  4  0  0  0  0
 19 20  4  0  0  0  0
 20 21  4  0  0  0  0
 21 22  4  0  0  0  0
 22 23  4  0  0  0  0
 24 25  1  0  0  0  0
M  STY  1   1 DAT
M  SAL   1  1  22
M  SDT   1 MRV_IMPLICIT_H                                        
M  SDD   1     0.0000    0.0000    DR    ALL  0       0  
M  SED   1 IMPL_H1
M  END
>  <Name_Molregno>
METHERGINE

>  <5-HT1A>
8.76

>  <5-HT1E>
7.05

>  <5-HT2A>
9.2

>  <5-HT2C>
7.85

$$$$
METHIOTHEPIN
  Marvin  02231216192D 0   1.00000     0.00000     0

 24 27  0  0  1  0  0  0  0  0999 V2000
    0.1974    0.1481    0.0000 S   0  0  0  0  0  0  0  0  0
    0.9407   -0.2099    0.0000 C   0  0  0  0  0  0  0  0  0
    1.1243   -1.0142    0.0000 C   0  0  0  0  0  0  0  0  0
    1.9127   -1.2574    0.0000 C   0  0  0  0  0  0  0  0  0
    2.5174   -0.6962    0.0000 C   0  0  0  0  0  0  0  0  0
    3.3058   -0.9394    0.0000 S   0  0  0  0  0  0  0  0  0
    3.9106   -0.3783    0.0000 C   0  0  0  0  0  0  0  0  0
    2.3339    0.1081    0.0000 C   0  0  0  0  0  0  0  0  0
    1.5455    0.3512    0.0000 C   0  0  0  0  0  0  0  0  0
    0.6099   -1.6592    0.0000 C   0  0  0  0  0  0  0  0  0
    0.9679   -2.4025    0.0000 N   0  0  0  0  0  0  0  0  0
    1.7906   -2.4642    0.0000 C   0  0  0  0  0  0  0  0  0
    2.1486   -3.2075    0.0000 C   0  0  0  0  0  0  0  0  0
    1.6838   -3.8891    0.0000 N   0  0  0  0  0  0  0  0  0
    0.8611   -3.8275    0.0000 C   0  0  0  0  0  0  0  0  0
    0.5032   -3.0842    0.0000 C   0  0  0  0  0  0  0  0  0
    2.0418   -4.6324    0.0000 C   0  0  0  0  0  0  0  0  0
   -0.2151   -1.6592    0.0000 C   0  0  0  0  0  0  0  0  0
   -0.7294   -1.0142    0.0000 C   0  0  0  0  0  0  0  0  0
   -0.5459   -0.2099    0.0000 C   0  0  0  0  0  0  0  0  0
   -1.1506    0.3512    0.0000 C   0  0  0  0  0  0  0  0  0
   -1.9390    0.1081    0.0000 C   0  0  0  0  0  0  0  0  0
   -2.1225   -0.6962    0.0000 C   0  0  0  0  0  0  0  0  0
   -1.5178   -1.2574    0.0000 C   0  0  0  0  0  0  0  0  0
  1  2  1  0  0  0  0
  1 20  1  0  0  0  0
  2  3  4  0  0  0  0
  2  9  4  0  0  0  0
  3  4  4  0  0  0  0
  3 10  1  0  0  0  0
  4  5  4  0  0  0  0
  5  6  1  0  0  0  0
  5  8  4  0  0  0  0
  6  7  1  0  0  0  0
  8  9  4  0  0  0  0
 10 11  1  0  0  0  0
 10 18  1  0  0  0  0
 11 12  1  0  0  0  0
 11 16  1  0  0  0  0
 12 13  1  0  0  0  0
 13 14  1  0  0  0  0
 14 15  1  0  0  0  0
 14 17  1  0  0  0  0
 15 16  1  0  0  0  0
 18 19  1  0  0  0  0
 19 20  4  0  0  0  0
 19 24  4  0  0  0  0
 20 21  4  0  0  0  0
 21 22  4  0  0  0  0
 22 23  4  0  0  0  0
 23 24  4  0  0  0  0
M  END
>  <Name_Molregno>
METHIOTHEPIN

>  <5-HT1A>
7.52

>  <5-HT1B>
8.41

>  <5-HT1D>
7.85

>  <5-HT1E>
6.75

>  <5-HT2A>
9.25

>  <5-HT2C>
8.91

>  <5-HT5>
9

>  <5-HT6>
9.26

>  <5-HT7>
8.57

$$$$
METHYLPHENIDATE
  Marvin  02231216192D 0   1.00000     0.00000     0

 17 18  0  0  1  0  0  0  0  0999 V2000
   -0.3749   -0.6902    0.0000 O   0  0  0  0  0  0  0  0  0
    0.3395   -0.2777    0.0000 C   0  0  0  0  0  0  0  0  0
    0.3395    0.5473    0.0000 O   0  0  0  0  0  0  0  0  0
    1.0540   -0.6902    0.0000 C   0  0  0  0  0  0  0  0  0
    1.0540   -1.5152    0.0000 C   0  0  0  0  0  0  0  0  0
    1.7685   -1.9277    0.0000 N   0  0  0  0  0  0  0  0  0
    1.7685   -2.7527    0.0000 C   0  0  0  0  0  0  0  0  0
    1.0540   -3.1652    0.0000 C   0  0  0  0  0  0  0  0  0
    0.3395   -2.7527    0.0000 C   0  0  0  0  0  0  0  0  0
    0.3395   -1.9277    0.0000 C   0  0  0  0  0  0  0  0  0
    1.7685   -0.2777    0.0000 C   0  0  0  0  0  0  0  0  0
    1.7685    0.5473    0.0000 C   0  0  0  0  0  0  0  0  0
    2.4829    0.9598    0.0000 C   0  0  0  0  0  0  0  0  0
    3.1974    0.5473    0.0000 C   0  0  0  0  0  0  0  0  0
    3.1974   -0.2777    0.0000 C   0  0  0  0  0  0  0  0  0
    2.4829   -0.6902    0.0000 C   0  0  0  0  0  0  0  0  0
   -0.3749   -1.5152    0.0000 C   0  0  0  0  0  0  0  0  0
  1  2  1  0  0  0  0
  1 17  1  0  0  0  0
  2  3  2  0  0  0  0
  2  4  1  0  0  0  0
  4  5  1  0  0  0  0
  4 11  1  0  0  0  0
  5  6  1  0  0  0  0
  5 10  1  0  0  0  0
  6  7  1  0  0  0  0
  7  8  1  0  0  0  0
  8  9  1  0  0  0  0
  9 10  1  0  0  0  0
 11 12  4  0  0  0  0
 11 16  4  0  0  0  0
 12 13  4  0  0  0  0
 13 14  4  0  0  0  0
 14 15  4  0  0  0  0
 15 16  4  0  0  0  0
M  END
>  <Name_Molregno>
METHYLPHENIDATE

>  <5-HT1A>
5

>  <5-HT1B>
5

>  <5-HT1E>
5

>  <5-HT3>
5

>  <5-HT5>
5

>  <5-HT6>
5

>  <5-HT7>
5

>  <Alpha-1A>
5

>  <Alpha-1B>
5

>  <Alpha-2A>
5.25

>  <Alpha-2B>
5.61

>  <Alpha-2C>
6.07

>  <DOPAMINE D1>
5

>  <DOPAMINE D2>
5

>  <Dopamine transporter>
7.28

>  <Muscarinic acetylcholine receptor M1>
5

>  <Muscarinic acetylcholine receptor M2>
5

>  <Muscarinic acetylcholine receptor M3>
5

>  <Muscarinic acetylcholine receptor M4>
5

>  <Muscarinic acetylcholine receptor M5>
5

>  <Norepinephrine transporter>
6.46

>  <Serotonin transporter>
5

$$$$
METHYSERGIDE
  Marvin  02231216192D 0   1.00000     0.00000     0

 26 29  0  0  1  0  0  0  0  0999 V2000
   -5.6466   -4.8655    0.0000 O   0  0  0  0  0  0  0  0  0
   -5.6457   -4.0405    0.0000 C   0  0  0  0  0  0  0  0  0
   -4.9307   -3.6289    0.0000 C   0  0  0  0  0  0  0  0  0
   -4.9297   -2.8039    0.0000 N   0  0  0  0  0  0  0  0  0
   -4.2147   -2.3922    0.0000 C   0  0  0  0  0  0  0  0  0
   -3.5008   -2.8056    0.0000 O   0  0  0  0  0  0  0  0  0
   -4.2138   -1.5672    0.0000 C   0  0  0  0  0  0  0  0  0
   -3.4988   -1.1556    0.0000 C   0  0  0  0  0  0  0  0  0
   -3.4978   -0.3306    0.0000 C   0  0  0  0  0  0  0  0  0
   -4.2118    0.0828    0.0000 C   0  0  0  0  0  0  0  0  0
   -4.9267   -0.3289    0.0000 N   0  0  0  0  0  0  0  0  0
   -4.9277   -1.1539    0.0000 C   0  0  0  0  0  0  0  0  0
   -5.6407    0.0845    0.0000 C   0  0  0  0  0  0  0  0  0
   -4.2103    0.9069    0.0000 C   0  0  0  0  0  0  0  0  0
   -3.4978    1.3194    0.0000 C   0  0  0  0  0  0  0  0  0
   -2.7853    0.9069    0.0000 C   0  0  0  0  0  0  0  0  0
   -2.7853    0.0819    0.0000 C   0  0  0  0  0  0  0  0  0
   -2.0674   -0.3306    0.0000 C   0  0  0  0  0  0  0  0  0
   -1.3549    0.0819    0.0000 C   0  0  0  0  0  0  0  0  0
   -1.3549    0.9069    0.0000 C   0  0  0  0  0  0  0  0  0
   -2.0674    1.3194    0.0000 C   0  0  0  0  0  0  0  0  0
   -2.3728    2.1766    0.0000 N   0  0  0  0  0  0  0  0  0
   -3.1978    2.1766    0.0000 C   0  0  0  0  0  0  0  0  0
   -1.8973    2.8507    0.0000 C   0  0  0  0  0  0  0  0  0
   -4.2167   -4.0422    0.0000 C   0  0  0  0  0  0  0  0  0
   -4.2177   -4.8672    0.0000 C   0  0  0  0  0  0  0  0  0
  1  2  1  0  0  0  0
  2  3  1  0  0  0  0
  3  4  1  0  0  0  0
  3 25  1  0  0  0  0
  4  5  1  0  0  0  0
  5  6  2  0  0  0  0
  5  7  1  0  0  0  0
  7  8  1  0  0  0  0
  7 12  1  0  0  0  0
  8  9  2  0  0  0  0
  9 10  1  0  0  0  0
  9 17  1  0  0  0  0
 10 11  1  0  0  0  0
 10 14  1  0  0  0  0
 11 12  1  0  0  0  0
 11 13  1  0  0  0  0
 14 15  1  0  0  0  0
 15 16  4  0  0  0  0
 15 23  4  0  0  0  0
 16 17  4  0  0  0  0
 16 21  4  0  0  0  0
 17 18  4  0  0  0  0
 18 19  4  0  0  0  0
 19 20  4  0  0  0  0
 20 21  4  0  0  0  0
 21 22  4  0  0  0  0
 22 23  4  0  0  0  0
 22 24  1  0  0  0  0
 25 26  1  0  0  0  0
M  END
>  <Name_Molregno>
METHYSERGIDE

>  <5-HT1A>
7.81

>  <5-HT1B>
7.91

>  <5-HT1D>
7.56

>  <5-HT1E>
6.71

>  <5-HT2A>
8.05

>  <5-HT2C>
8.69

>  <5-HT3>
5

>  <5-HT5>
5

>  <5-HT6>
6.82

>  <5-HT7>
7.32

>  <Alpha-1A>
5

>  <Alpha-1B>
5

>  <Alpha-2A>
6.77

>  <Alpha-2B>
6.97

>  <Alpha-2C>
7.05

>  <Beta-1>
5

>  <Beta-2>
5

>  <DOPAMINE D1>
5

>  <DOPAMINE D2>
5

>  <DOPAMINE D4>
5

>  <DOPAMINE D5>
5

>  <Dopamine transporter>
5

>  <HISTAMINE H1>
5.26

>  <HISTAMINE H2>
5

>  <Muscarinic acetylcholine receptor M1>
5.26

>  <Muscarinic acetylcholine receptor M2>
5.21

>  <Muscarinic acetylcholine receptor M3>
5.33

>  <Muscarinic acetylcholine receptor M4>
5

>  <Muscarinic acetylcholine receptor M5>
5

>  <Norepinephrine transporter>
5

>  <Serotonin transporter>
5

$$$$
METOCLOPRAMIDE
  Marvin  02231216192D 0   1.00000     0.00000     0

 20 20  0  0  0  0  0  0  0  0999 V2000
   -0.1329    0.9766    0.0000 Cl  0  0  0  0  0  0  0  0  0
    0.2796    0.2621    0.0000 C   0  0  0  0  0  0  0  0  0
    1.1046    0.2621    0.0000 C   0  0  0  0  0  0  0  0  0
    1.5171   -0.4524    0.0000 C   0  0  0  0  0  0  0  0  0
    2.3421   -0.4524    0.0000 C   0  0  0  0  0  0  0  0  0
    2.7546    0.2621    0.0000 O   0  0  0  0  0  0  0  0  0
    2.7546   -1.1669    0.0000 N   0  0  0  0  0  0  0  0  0
    3.5796   -1.1669    0.0000 C   0  0  0  0  0  0  0  0  0
    3.9921   -1.8813    0.0000 C   0  0  0  0  0  0  0  0  0
    4.8171   -1.8813    0.0000 N   0  0  0  0  0  0  0  0  0
    5.2296   -2.5958    0.0000 C   0  0  0  0  0  0  0  0  0
    6.0546   -2.5958    0.0000 C   0  0  0  0  0  0  0  0  0
    5.2296   -1.1669    0.0000 C   0  0  0  0  0  0  0  0  0
    6.0546   -1.1669    0.0000 C   0  0  0  0  0  0  0  0  0
    1.1046   -1.1669    0.0000 C   0  0  0  0  0  0  0  0  0
    1.5171   -1.8813    0.0000 O   0  0  0  0  0  0  0  0  0
    1.1046   -2.5958    0.0000 C   0  0  0  0  0  0  0  0  0
    0.2796   -1.1669    0.0000 C   0  0  0  0  0  0  0  0  0
   -0.1329   -0.4524    0.0000 C   0  0  0  0  0  0  0  0  0
   -0.9579   -0.4524    0.0000 N   0  0  0  0  0  0  0  0  0
  1  2  1  0  0  0  0
  2  3  4  0  0  0  0
  2 19  4  0  0  0  0
  3  4  4  0  0  0  0
  4  5  1  0  0  0  0
  4 15  4  0  0  0  0
  5  6  2  0  0  0  0
  5  7  1  0  0  0  0
  7  8  1  0  0  0  0
  8  9  1  0  0  0  0
  9 10  1  0  0  0  0
 10 11  1  0  0  0  0
 10 13  1  0  0  0  0
 11 12  1  0  0  0  0
 13 14  1  0  0  0  0
 15 16  1  0  0  0  0
 15 18  4  0  0  0  0
 16 17  1  0  0  0  0
 18 19  4  0  0  0  0
 19 20  1  0  0  0  0
M  END
>  <Name_Molregno>
METOCLOPRAMIDE

>  <5-HT1A>
5

>  <5-HT1D>
5

>  <5-HT3>
6.16

>  <DOPAMINE D1>
5

>  <DOPAMINE D2>
7.19

>  <DOPAMINE D3>
7.69

$$$$
MIANSERIN
  Marvin  02231216192D 0   1.00000     0.00000     0

 20 23  0  0  1  0  0  0  0  0999 V2000
   -0.0097    0.0139    0.0000 N   0  0  0  0  0  0  0  0  0
    0.8153    0.0139    0.0000 C   0  0  0  0  0  0  0  0  0
    1.3296   -0.6312    0.0000 C   0  0  0  0  0  0  0  0  0
    1.1460   -1.4355    0.0000 C   0  0  0  0  0  0  0  0  0
    0.4028   -1.7934    0.0000 C   0  0  0  0  0  0  0  0  0
   -0.3405   -1.4355    0.0000 C   0  0  0  0  0  0  0  0  0
   -0.5241   -0.6312    0.0000 C   0  0  0  0  0  0  0  0  0
   -1.3125   -0.3880    0.0000 C   0  0  0  0  0  0  0  0  0
   -1.9172   -0.9491    0.0000 C   0  0  0  0  0  0  0  0  0
   -1.7337   -1.7534    0.0000 C   0  0  0  0  0  0  0  0  0
   -0.9453   -1.9966    0.0000 C   0  0  0  0  0  0  0  0  0
    1.7508   -1.9966    0.0000 C   0  0  0  0  0  0  0  0  0
    2.5392   -1.7534    0.0000 C   0  0  0  0  0  0  0  0  0
    2.7227   -0.9491    0.0000 C   0  0  0  0  0  0  0  0  0
    2.1180   -0.3880    0.0000 C   0  0  0  0  0  0  0  0  0
    1.2278    0.7283    0.0000 C   0  0  0  0  0  0  0  0  0
    0.8153    1.4428    0.0000 N   0  0  0  0  0  0  0  0  0
   -0.0097    1.4428    0.0000 C   0  0  0  0  0  0  0  0  0
   -0.4222    0.7283    0.0000 C   0  0  0  0  0  0  0  0  0
    1.2278    2.1573    0.0000 C   0  0  0  0  0  0  0  0  0
  1  2  1  0  0  0  0
  1  7  1  0  0  0  0
  1 19  1  0  0  0  0
  2  3  1  0  0  0  0
  2 16  1  0  0  0  0
  3  4  4  0  0  0  0
  3 15  4  0  0  0  0
  4  5  1  0  0  0  0
  4 12  4  0  0  0  0
  5  6  1  0  0  0  0
  6  7  4  0  0  0  0
  6 11  4  0  0  0  0
  7  8  4  0  0  0  0
  8  9  4  0  0  0  0
  9 10  4  0  0  0  0
 10 11  4  0  0  0  0
 12 13  4  0  0  0  0
 13 14  4  0  0  0  0
 14 15  4  0  0  0  0
 16 17  1  0  0  0  0
 17 18  1  0  0  0  0
 17 20  1  0  0  0  0
 18 19  1  0  0  0  0
M  END
>  <Name_Molregno>
MIANSERIN

>  <5-HT1A>
6.15

>  <5-HT1D>
6.53

>  <5-HT2A>
8.13

>  <5-HT2C>
8.5

>  <5-HT6>
7.2

>  <5-HT7>
7.28

>  <Alpha-2A>
8.32

>  <Alpha-2B>
7.57

>  <Alpha-2C>
8.42

>  <DOPAMINE D1>
6.11

>  <DOPAMINE D2>
5.69

>  <DOPAMINE D3>
5.55

>  <Dopamine transporter>
5.03

>  <HISTAMINE H1>
9.13

>  <HISTAMINE H4>
6.12

>  <Norepinephrine transporter>
7.15

>  <Serotonin transporter>
5.4

$$$$
MIRTAZAPINE
  Marvin  02231216192D 0   1.00000     0.00000     0

 20 23  0  0  1  0  0  0  0  0999 V2000
   -2.9515    1.3173    0.0000 N   0  0  0  0  0  0  0  0  0
   -2.1632    1.0741    0.0000 C   0  0  0  0  0  0  0  0  0
   -1.6488    1.7191    0.0000 N   0  0  0  0  0  0  0  0  0
   -0.8238    1.7191    0.0000 C   0  0  0  0  0  0  0  0  0
   -0.3094    1.0741    0.0000 C   0  0  0  0  0  0  0  0  0
   -0.4930    0.2698    0.0000 C   0  0  0  0  0  0  0  0  0
   -1.2363   -0.0881    0.0000 C   0  0  0  0  0  0  0  0  0
   -1.9796    0.2698    0.0000 C   0  0  0  0  0  0  0  0  0
   -2.5844   -0.2913    0.0000 C   0  0  0  0  0  0  0  0  0
   -3.3727   -0.0482    0.0000 C   0  0  0  0  0  0  0  0  0
   -3.5563    0.7562    0.0000 C   0  0  0  0  0  0  0  0  0
    0.1118   -0.2913    0.0000 C   0  0  0  0  0  0  0  0  0
    0.9001   -0.0482    0.0000 C   0  0  0  0  0  0  0  0  0
    1.0837    0.7562    0.0000 C   0  0  0  0  0  0  0  0  0
    0.4789    1.3173    0.0000 C   0  0  0  0  0  0  0  0  0
   -0.4113    2.4336    0.0000 C   0  0  0  0  0  0  0  0  0
   -0.8238    3.1481    0.0000 N   0  0  0  0  0  0  0  0  0
   -1.6488    3.1481    0.0000 C   0  0  0  0  0  0  0  0  0
   -2.0613    2.4336    0.0000 C   0  0  0  0  0  0  0  0  0
   -0.4113    3.8626    0.0000 C   0  0  0  0  0  0  0  0  0
  1  2  4  0  0  0  0
  1 11  4  0  0  0  0
  2  3  1  0  0  0  0
  2  8  4  0  0  0  0
  3  4  1  0  0  0  0
  3 19  1  0  0  0  0
  4  5  1  0  0  0  0
  4 16  1  0  0  0  0
  5  6  4  0  0  0  0
  5 15  4  0  0  0  0
  6  7  1  0  0  0  0
  6 12  4  0  0  0  0
  7  8  1  0  0  0  0
  8  9  4  0  0  0  0
  9 10  4  0  0  0  0
 10 11  4  0  0  0  0
 12 13  4  0  0  0  0
 13 14  4  0  0  0  0
 14 15  4  0  0  0  0
 16 17  1  0  0  0  0
 17 18  1  0  0  0  0
 17 20  1  0  0  0  0
 18 19  1  0  0  0  0
M  END
>  <Name_Molregno>
MIRTAZAPINE

>  <5-HT1A>
7.74

>  <5-HT2A>
7.16

>  <5-HT2C>
7.41

>  <5-HT7>
6.58

>  <Alpha-2A>
7.7

>  <Alpha-2C>
7.74

>  <DOPAMINE D1>
5.38

>  <DOPAMINE D2>
5.26

>  <DOPAMINE D3>
6.06

>  <DOPAMINE D4>
7.6

>  <Dopamine transporter>
5

>  <HISTAMINE H1>
8.8

>  <Norepinephrine transporter>
5.29

>  <Serotonin transporter>
5

$$$$
MOLINDONE
  Marvin  02231216192D 0   1.00000     0.00000     0

 20 22  0  0  1  0  0  0  0  0999 V2000
    0.1066   -1.7192    0.0000 O   0  0  0  0  0  0  0  0  0
   -0.6079   -2.1317    0.0000 C   0  0  0  0  0  0  0  0  0
   -1.3224   -1.7192    0.0000 C   0  0  0  0  0  0  0  0  0
   -1.3224   -0.8942    0.0000 N   0  0  0  0  0  0  0  0  0
   -0.6079   -0.4817    0.0000 C   0  0  0  0  0  0  0  0  0
    0.1066   -0.8942    0.0000 C   0  0  0  0  0  0  0  0  0
   -2.0368   -0.4817    0.0000 C   0  0  0  0  0  0  0  0  0
   -2.7513   -0.8942    0.0000 C   0  0  0  0  0  0  0  0  0
   -2.7513   -1.7192    0.0000 C   0  0  0  0  0  0  0  0  0
   -3.4658   -2.1317    0.0000 C   0  0  0  0  0  0  0  0  0
   -4.1803   -1.7192    0.0000 C   0  0  0  0  0  0  0  0  0
   -4.9649   -1.9741    0.0000 N   0  0  0  0  0  0  0  0  0
   -5.4498   -1.3067    0.0000 C   0  0  0  0  0  0  0  0  0
   -6.2748   -1.3067    0.0000 C   0  0  0  0  0  0  0  0  0
   -4.9649   -0.6392    0.0000 C   0  0  0  0  0  0  0  0  0
   -4.1803   -0.8942    0.0000 C   0  0  0  0  0  0  0  0  0
   -3.4658   -0.4817    0.0000 C   0  0  0  0  0  0  0  0  0
   -3.4658    0.3433    0.0000 O   0  0  0  0  0  0  0  0  0
   -5.2198    0.1454    0.0000 C   0  0  0  0  0  0  0  0  0
   -4.6678    0.7585    0.0000 C   0  0  0  0  0  0  0  0  0
  1  2  1  0  0  0  0
  1  6  1  0  0  0  0
  2  3  1  0  0  0  0
  3  4  1  0  0  0  0
  4  5  1  0  0  0  0
  4  7  1  0  0  0  0
  5  6  1  0  0  0  0
  7  8  1  0  0  0  0
  8  9  1  0  0  0  0
  8 17  1  0  0  0  0
  9 10  1  0  0  0  0
 10 11  1  0  0  0  0
 11 12  4  0  0  0  0
 11 16  4  0  0  0  0
 12 13  4  0  0  0  0
 13 14  1  0  0  0  0
 13 15  4  0  0  0  0
 15 16  4  0  0  0  0
 15 19  1  0  0  0  0
 16 17  1  0  0  0  0
 17 18  2  0  0  0  0
 19 20  1  0  0  0  0
M  STY  1   1 DAT
M  SAL   1  1  12
M  SDT   1 MRV_IMPLICIT_H                                        
M  SDD   1     0.0000    0.0000    DR    ALL  0       0  
M  SED   1 IMPL_H1
M  END
>  <Name_Molregno>
MOLINDONE

>  <5-HT1A>
5.42

>  <5-HT2A>
5.41

>  <5-HT2C>
5

>  <5-HT6>
6

>  <5-HT7>
6.05

>  <Alpha-1A>
5.58

>  <Alpha-2A>
5.96

>  <Alpha-2B>
6.25

>  <Alpha-2C>
6.76

>  <DOPAMINE D2>
7.74

>  <DOPAMINE D3>
7.39

>  <DOPAMINE D4>
5.99

>  <HISTAMINE H1>
5.17

>  <Muscarinic acetylcholine receptor M3>
5

$$$$
N-(4-Acetamidophenyl)indomethacinamide
  Marvin  02231216192D 0   1.00000     0.00000     0

 37 40  0  0  0  0  0  0  0  0999 V2000
    0.5106    2.7433    0.0000 Cl  0  0  0  0  0  0  0  0  0
    1.3311    2.6571    0.0000 C   0  0  0  0  0  0  0  0  0
    1.8160    3.3245    0.0000 C   0  0  0  0  0  0  0  0  0
    2.6365    3.2383    0.0000 C   0  0  0  0  0  0  0  0  0
    2.9720    2.4846    0.0000 C   0  0  0  0  0  0  0  0  0
    2.4871    1.8172    0.0000 C   0  0  0  0  0  0  0  0  0
    1.6666    1.9034    0.0000 C   0  0  0  0  0  0  0  0  0
    3.7925    2.3984    0.0000 C   0  0  0  0  0  0  0  0  0
    4.2774    3.0658    0.0000 O   0  0  0  0  0  0  0  0  0
    4.1281    1.6447    0.0000 N   0  0  0  0  0  0  0  0  0
    3.7156    0.9302    0.0000 C   0  0  0  0  0  0  0  0  0
    4.2676    0.3171    0.0000 C   0  0  0  0  0  0  0  0  0
    4.0127   -0.4675    0.0000 C   0  0  0  0  0  0  0  0  0
    3.2057   -0.6390    0.0000 C   0  0  0  0  0  0  0  0  0
    2.9508   -1.4236    0.0000 O   0  0  0  0  0  0  0  0  0
    2.1438   -1.5952    0.0000 C   0  0  0  0  0  0  0  0  0
    2.6537   -0.0259    0.0000 C   0  0  0  0  0  0  0  0  0
    2.9086    0.7587    0.0000 C   0  0  0  0  0  0  0  0  0
    5.0213    0.6527    0.0000 C   0  0  0  0  0  0  0  0  0
    5.7358    0.2402    0.0000 C   0  0  0  0  0  0  0  0  0
    5.7358   -0.5848    0.0000 C   0  0  0  0  0  0  0  0  0
    5.0213   -0.9973    0.0000 O   0  0  0  0  0  0  0  0  0
    6.4502   -0.9973    0.0000 N   0  0  0  0  0  0  0  0  0
    7.1647   -0.5848    0.0000 C   0  0  0  0  0  0  0  0  0
    7.1647    0.2402    0.0000 C   0  0  0  0  0  0  0  0  0
    7.8792    0.6527    0.0000 C   0  0  0  0  0  0  0  0  0
    7.8792    1.4777    0.0000 C   0  0  0  0  0  0  0  0  0
    8.5936    1.8902    0.0000 C   0  0  0  0  0  0  0  0  0
    9.3081    1.4777    0.0000 C   0  0  0  0  0  0  0  0  0
   10.0226    1.8902    0.0000 N   0  0  0  0  0  0  0  0  0
   10.7371    1.4777    0.0000 C   0  0  0  0  0  0  0  0  0
   11.4515    1.8902    0.0000 O   0  0  0  0  0  0  0  0  0
   10.7371    0.6527    0.0000 C   0  0  0  0  0  0  0  0  0
    9.3081    0.6527    0.0000 C   0  0  0  0  0  0  0  0  0
    8.5936    0.2402    0.0000 C   0  0  0  0  0  0  0  0  0
    4.9351    1.4732    0.0000 C   0  0  0  0  0  0  0  0  0
    5.5481    2.0252    0.0000 C   0  0  0  0  0  0  0  0  0
  1  2  1  0  0  0  0
  2  3  4  0  0  0  0
  2  7  4  0  0  0  0
  3  4  4  0  0  0  0
  4  5  4  0  0  0  0
  5  6  4  0  0  0  0
  5  8  1  0  0  0  0
  6  7  4  0  0  0  0
  8  9  2  0  0  0  0
  8 10  1  0  0  0  0
 10 11  4  0  0  0  0
 10 36  4  0  0  0  0
 11 12  4  0  0  0  0
 11 18  4  0  0  0  0
 12 13  4  0  0  0  0
 12 19  4  0  0  0  0
 13 14  4  0  0  0  0
 14 15  1  0  0  0  0
 14 17  4  0  0  0  0
 15 16  1  0  0  0  0
 17 18  4  0  0  0  0
 19 20  1  0  0  0  0
 19 36  4  0  0  0  0
 20 21  1  0  0  0  0
 21 22  2  0  0  0  0
 21 23  1  0  0  0  0
 23 24  1  0  0  0  0
 24 25  1  0  0  0  0
 25 26  1  0  0  0  0
 26 27  4  0  0  0  0
 26 35  4  0  0  0  0
 27 28  4  0  0  0  0
 28 29  4  0  0  0  0
 29 30  1  0  0  0  0
 29 34  4  0  0  0  0
 30 31  1  0  0  0  0
 31 32  2  0  0  0  0
 31 33  1  0  0  0  0
 34 35  4  0  0  0  0
 36 37  1  0  0  0  0
M  END
>  <Name_Molregno>
N-(4-Acetamidophenyl)indomethacinamide

>  <5-HT1A>
5

>  <5-HT1B>
5

>  <5-HT1E>
5

>  <5-HT2A>
5

>  <5-HT3>
5

>  <5-HT6>
5

>  <5-HT7>
5

>  <Alpha-1A>
5

>  <Alpha-1B>
5

>  <Alpha-2A>
5

>  <Alpha-2B>
5

>  <Alpha-2C>
5

>  <DOPAMINE D1>
5

>  <DOPAMINE D2>
5

>  <DOPAMINE D5>
5

>  <Dopamine transporter>
5

>  <HISTAMINE H1>
5

>  <HISTAMINE H2>
5

>  <HISTAMINE H4>
5

>  <Muscarinic acetylcholine receptor M2>
5

>  <Muscarinic acetylcholine receptor M5>
5

>  <Serotonin transporter>
5

$$$$
Naproxen
  Marvin  02231216192D 0   1.00000     0.00000     0

 17 18  0  0  1  0  0  0  0  0999 V2000
   -5.3383   -1.4581    0.0000 O   0  0  0  0  0  0  0  0  0
   -6.0528   -1.0456    0.0000 C   0  0  0  0  0  0  0  0  0
   -4.6238   -1.0456    0.0000 C   0  0  0  0  0  0  0  0  0
   -3.9093   -1.4581    0.0000 C   0  0  0  0  0  0  0  0  0
   -3.1949   -1.0456    0.0000 C   0  0  0  0  0  0  0  0  0
   -3.1949   -0.2206    0.0000 C   0  0  0  0  0  0  0  0  0
   -2.4804    0.1919    0.0000 C   0  0  0  0  0  0  0  0  0
   -1.7659   -0.2206    0.0000 C   0  0  0  0  0  0  0  0  0
   -1.7659   -1.0456    0.0000 C   0  0  0  0  0  0  0  0  0
   -2.4804   -1.4581    0.0000 C   0  0  0  0  0  0  0  0  0
   -1.0515    0.1919    0.0000 C   0  0  0  0  0  0  0  0  0
   -0.3370   -0.2206    0.0000 C   0  0  0  0  0  0  0  0  0
    0.3775    0.1919    0.0000 O   0  0  0  0  0  0  0  0  0
   -0.3370   -1.0456    0.0000 O   0  0  0  0  0  0  0  0  0
   -1.0515    1.0169    0.0000 C   0  0  0  0  0  0  0  0  0
   -3.9093    0.1919    0.0000 C   0  0  0  0  0  0  0  0  0
   -4.6238   -0.2206    0.0000 C   0  0  0  0  0  0  0  0  0
  1  2  1  0  0  0  0
  1  3  1  0  0  0  0
  3  4  4  0  0  0  0
  3 17  4  0  0  0  0
  4  5  4  0  0  0  0
  5  6  4  0  0  0  0
  5 10  4  0  0  0  0
  6  7  4  0  0  0  0
  6 16  4  0  0  0  0
  7  8  4  0  0  0  0
  8  9  4  0  0  0  0
  8 11  1  0  0  0  0
  9 10  4  0  0  0  0
 11 12  1  0  0  0  0
 11 15  1  0  0  0  0
 12 13  1  0  0  0  0
 12 14  2  0  0  0  0
 16 17  4  0  0  0  0
M  END
>  <Name_Molregno>
Naproxen

>  <5-HT1A>
5

>  <5-HT1B>
5

>  <5-HT1D>
5

>  <5-HT1E>
5

>  <5-HT2A>
5

>  <5-HT3>
5

>  <5-HT5>
5

>  <5-HT6>
5

>  <5-HT7>
5

>  <Alpha-1A>
5

>  <Alpha-1B>
5

>  <Alpha-2A>
5

>  <Alpha-2B>
5

>  <Alpha-2C>
5

>  <DOPAMINE D1>
5

>  <DOPAMINE D2>
5

>  <DOPAMINE D4>
5

>  <DOPAMINE D5>
5

>  <Dopamine transporter>
5

>  <HISTAMINE H1>
5

>  <HISTAMINE H2>
5

>  <HISTAMINE H4>
5

>  <Muscarinic acetylcholine receptor M2>
5

>  <Muscarinic acetylcholine receptor M5>
5

>  <Norepinephrine transporter>
5

>  <Serotonin transporter>
5

$$$$
N-DESMETHYLCLOZAPINE
  Marvin  02231216192D 0   1.00000     0.00000     0

 22 25  0  0  0  0  0  0  0  0999 V2000
   -0.3818   -1.7384    0.0000 Cl  0  0  0  0  0  0  0  0  0
    0.4065   -1.9816    0.0000 C   0  0  0  0  0  0  0  0  0
    1.0113   -1.4204    0.0000 C   0  0  0  0  0  0  0  0  0
    1.7996   -1.6636    0.0000 C   0  0  0  0  0  0  0  0  0
    2.3140   -1.0186    0.0000 N   0  0  0  0  0  0  0  0  0
    3.1390   -1.0186    0.0000 C   0  0  0  0  0  0  0  0  0
    3.4969   -0.2753    0.0000 N   0  0  0  0  0  0  0  0  0
    3.0322    0.4063    0.0000 C   0  0  0  0  0  0  0  0  0
    3.3902    1.1496    0.0000 C   0  0  0  0  0  0  0  0  0
    4.2129    1.2113    0.0000 N   0  0  0  0  0  0  0  0  0
    4.6776    0.5296    0.0000 C   0  0  0  0  0  0  0  0  0
    4.3196   -0.2137    0.0000 C   0  0  0  0  0  0  0  0  0
    3.6534   -1.6636    0.0000 C   0  0  0  0  0  0  0  0  0
    3.4698   -2.4679    0.0000 C   0  0  0  0  0  0  0  0  0
    2.7265   -2.8259    0.0000 N   0  0  0  0  0  0  0  0  0
    1.9832   -2.4679    0.0000 C   0  0  0  0  0  0  0  0  0
    1.3784   -3.0291    0.0000 C   0  0  0  0  0  0  0  0  0
    0.5901   -2.7859    0.0000 C   0  0  0  0  0  0  0  0  0
    4.0746   -3.0291    0.0000 C   0  0  0  0  0  0  0  0  0
    4.8629   -2.7859    0.0000 C   0  0  0  0  0  0  0  0  0
    5.0465   -1.9816    0.0000 C   0  0  0  0  0  0  0  0  0
    4.4417   -1.4204    0.0000 C   0  0  0  0  0  0  0  0  0
  1  2  1  0  0  0  0
  2  3  4  0  0  0  0
  2 18  4  0  0  0  0
  3  4  4  0  0  0  0
  4  5  1  0  0  0  0
  4 16  4  0  0  0  0
  5  6  1  0  0  0  0
  6  7  1  0  0  0  0
  6 13  2  0  0  0  0
  7  8  1  0  0  0  0
  7 12  1  0  0  0  0
  8  9  1  0  0  0  0
  9 10  1  0  0  0  0
 10 11  1  0  0  0  0
 11 12  1  0  0  0  0
 13 14  1  0  0  0  0
 13 22  1  0  0  0  0
 14 15  2  0  0  0  0
 14 19  1  0  0  0  0
 15 16  1  0  0  0  0
 16 17  4  0  0  0  0
 17 18  4  0  0  0  0
 19 20  2  0  0  0  0
 20 21  1  0  0  0  0
 21 22  2  0  0  0  0
M  END
>  <Name_Molregno>
N-DESMETHYLCLOZAPINE

>  <5-HT1A>
7.86

>  <5-HT1B>
6.39

>  <5-HT1D>
6.32

>  <5-HT1E>
6.41

>  <5-HT2A>
7.96

>  <5-HT3>
6.57

>  <5-HT5>
6.46

>  <5-HT6>
7.94

>  <5-HT7>
7.22

>  <Alpha-1A>
6.98

>  <Alpha-1B>
7.07

>  <Alpha-2A>
6.86

>  <Alpha-2B>
7.02

>  <Alpha-2C>
6.93

>  <Beta-1>
5.2

>  <Beta-2>
5.33

>  <DOPAMINE D1>
7.84

>  <DOPAMINE D2>
7

>  <DOPAMINE D3>
6.82

>  <DOPAMINE D4>
7.28

>  <DOPAMINE D5>
6.55

>  <Dopamine transporter>
5

>  <HISTAMINE H1>
8.47

>  <HISTAMINE H2>
6.46

>  <HISTAMINE H4>
5.99

>  <Muscarinic acetylcholine receptor M1>
7.17

>  <Muscarinic acetylcholine receptor M2>
6.38

>  <Muscarinic acetylcholine receptor M3>
7.02

>  <Muscarinic acetylcholine receptor M4>
6.77

>  <Muscarinic acetylcholine receptor M5>
7.45

>  <Norepinephrine transporter>
6.31

>  <Serotonin transporter>
6.5

$$$$
Nebivolol
  Marvin  02231216192D 0   1.00000     0.00000     0

 29 32  0  0  1  0  0  0  0  0999 V2000
   -0.1485    1.9655    0.0000 F   0  0  0  0  0  0  0  0  0
    0.5659    1.5530    0.0000 C   0  0  0  0  0  0  0  0  0
    1.2804    1.9655    0.0000 C   0  0  0  0  0  0  0  0  0
    1.9949    1.5530    0.0000 C   0  0  0  0  0  0  0  0  0
    2.7094    1.9655    0.0000 C   0  0  0  0  0  0  0  0  0
    3.4238    1.5530    0.0000 C   0  0  0  0  0  0  0  0  0
    3.4238    0.7280    0.0000 C   0  0  0  0  0  0  0  0  0
    2.7094    0.3155    0.0000 O   0  0  0  0  0  0  0  0  0
    1.9949    0.7280    0.0000 C   0  0  0  0  0  0  0  0  0
    1.2804    0.3155    0.0000 C   0  0  0  0  0  0  0  0  0
    0.5659    0.7280    0.0000 C   0  0  0  0  0  0  0  0  0
    4.1383    0.3155    0.0000 C   0  0  0  0  0  0  0  0  0
    4.1383   -0.5095    0.0000 O   0  0  0  0  0  0  0  0  0
    4.8528    0.7280    0.0000 C   0  0  0  0  0  0  0  0  0
    5.5672    0.3155    0.0000 N   0  0  0  0  0  0  0  0  0
    6.2817    0.7280    0.0000 C   0  0  0  0  0  0  0  0  0
    6.9962    0.3155    0.0000 C   0  0  0  0  0  0  0  0  0
    6.9962   -0.5095    0.0000 O   0  0  0  0  0  0  0  0  0
    7.7106    0.7280    0.0000 C   0  0  0  0  0  0  0  0  0
    8.4251    0.3155    0.0000 O   0  0  0  0  0  0  0  0  0
    9.1396    0.7280    0.0000 C   0  0  0  0  0  0  0  0  0
    9.1396    1.5530    0.0000 C   0  0  0  0  0  0  0  0  0
    9.8541    1.9655    0.0000 C   0  0  0  0  0  0  0  0  0
   10.5685    1.5530    0.0000 C   0  0  0  0  0  0  0  0  0
   11.2830    1.9655    0.0000 F   0  0  0  0  0  0  0  0  0
   10.5685    0.7280    0.0000 C   0  0  0  0  0  0  0  0  0
    9.8541    0.3155    0.0000 C   0  0  0  0  0  0  0  0  0
    8.4251    1.9655    0.0000 C   0  0  0  0  0  0  0  0  0
    7.7106    1.5530    0.0000 C   0  0  0  0  0  0  0  0  0
  1  2  1  0  0  0  0
  2  3  4  0  0  0  0
  2 11  4  0  0  0  0
  3  4  4  0  0  0  0
  4  5  1  0  0  0  0
  4  9  4  0  0  0  0
  5  6  1  0  0  0  0
  6  7  1  0  0  0  0
  7  8  1  0  0  0  0
  7 12  1  0  0  0  0
  8  9  1  0  0  0  0
  9 10  4  0  0  0  0
 10 11  4  0  0  0  0
 12 13  1  0  0  0  0
 12 14  1  0  0  0  0
 14 15  1  0  0  0  0
 15 16  1  0  0  0  0
 16 17  1  0  0  0  0
 17 18  1  0  0  0  0
 17 19  1  0  0  0  0
 19 20  1  0  0  0  0
 19 29  1  0  0  0  0
 20 21  1  0  0  0  0
 21 22  4  0  0  0  0
 21 27  4  0  0  0  0
 22 23  4  0  0  0  0
 22 28  1  0  0  0  0
 23 24  4  0  0  0  0
 24 25  1  0  0  0  0
 24 26  4  0  0  0  0
 26 27  4  0  0  0  0
 28 29  1  0  0  0  0
M  END
>  <Name_Molregno>
Nebivolol

>  <5-HT1A>
7.59

$$$$
Nefazodone
  Marvin  02231216192D 0   1.00000     0.00000     0

 33 36  0  0  0  0  0  0  0  0999 V2000
   -0.9304    2.1702    0.0000 Cl  0  0  0  0  0  0  0  0  0
   -1.6449    2.5827    0.0000 C   0  0  0  0  0  0  0  0  0
   -2.3594    2.1702    0.0000 C   0  0  0  0  0  0  0  0  0
   -3.0738    2.5827    0.0000 C   0  0  0  0  0  0  0  0  0
   -3.7883    2.1702    0.0000 N   0  0  0  0  0  0  0  0  0
   -3.7883    1.3452    0.0000 C   0  0  0  0  0  0  0  0  0
   -4.5028    0.9327    0.0000 C   0  0  0  0  0  0  0  0  0
   -5.2172    1.3452    0.0000 N   0  0  0  0  0  0  0  0  0
   -5.2172    2.1702    0.0000 C   0  0  0  0  0  0  0  0  0
   -4.5028    2.5827    0.0000 C   0  0  0  0  0  0  0  0  0
   -5.9317    0.9327    0.0000 C   0  0  0  0  0  0  0  0  0
   -5.9317    0.1077    0.0000 C   0  0  0  0  0  0  0  0  0
   -6.6462   -0.3048    0.0000 C   0  0  0  0  0  0  0  0  0
   -6.6462   -1.1298    0.0000 N   0  0  0  0  0  0  0  0  0
   -5.9787   -1.6147    0.0000 N   0  0  0  0  0  0  0  0  0
   -6.2337   -2.3994    0.0000 C   0  0  0  0  0  0  0  0  0
   -7.0587   -2.3994    0.0000 N   0  0  0  0  0  0  0  0  0
   -7.5436   -3.0668    0.0000 C   0  0  0  0  0  0  0  0  0
   -8.3641   -2.9806    0.0000 C   0  0  0  0  0  0  0  0  0
   -8.8490   -3.6480    0.0000 O   0  0  0  0  0  0  0  0  0
   -9.6695   -3.5618    0.0000 C   0  0  0  0  0  0  0  0  0
  -10.1544   -4.2292    0.0000 C   0  0  0  0  0  0  0  0  0
  -10.9749   -4.1430    0.0000 C   0  0  0  0  0  0  0  0  0
  -11.3104   -3.3893    0.0000 C   0  0  0  0  0  0  0  0  0
  -10.8255   -2.7219    0.0000 C   0  0  0  0  0  0  0  0  0
  -10.0050   -2.8081    0.0000 C   0  0  0  0  0  0  0  0  0
   -7.3136   -1.6147    0.0000 C   0  0  0  0  0  0  0  0  0
   -8.0982   -1.3598    0.0000 O   0  0  0  0  0  0  0  0  0
   -5.7488   -3.0668    0.0000 C   0  0  0  0  0  0  0  0  0
   -6.0843   -3.8205    0.0000 C   0  0  0  0  0  0  0  0  0
   -3.0738    3.4077    0.0000 C   0  0  0  0  0  0  0  0  0
   -2.3594    3.8202    0.0000 C   0  0  0  0  0  0  0  0  0
   -1.6449    3.4077    0.0000 C   0  0  0  0  0  0  0  0  0
  1  2  1  0  0  0  0
  2  3  4  0  0  0  0
  2 33  4  0  0  0  0
  3  4  4  0  0  0  0
  4  5  1  0  0  0  0
  4 31  4  0  0  0  0
  5  6  1  0  0  0  0
  5 10  1  0  0  0  0
  6  7  1  0  0  0  0
  7  8  1  0  0  0  0
  8  9  1  0  0  0  0
  8 11  1  0  0  0  0
  9 10  1  0  0  0  0
 11 12  1  0  0  0  0
 12 13  1  0  0  0  0
 13 14  1  0  0  0  0
 14 15  1  0  0  0  0
 14 27  1  0  0  0  0
 15 16  2  0  0  0  0
 16 17  1  0  0  0  0
 16 29  1  0  0  0  0
 17 18  1  0  0  0  0
 17 27  1  0  0  0  0
 18 19  1  0  0  0  0
 19 20  1  0  0  0  0
 20 21  1  0  0  0  0
 21 22  4  0  0  0  0
 21 26  4  0  0  0  0
 22 23  4  0  0  0  0
 23 24  4  0  0  0  0
 24 25  4  0  0  0  0
 25 26  4  0  0  0  0
 27 28  2  0  0  0  0
 29 30  1  0  0  0  0
 31 32  4  0  0  0  0
 32 33  4  0  0  0  0
M  END
>  <Name_Molregno>
Nefazodone

>  <5-HT1A>
7.1

>  <DOPAMINE D2>
6.04

>  <Dopamine transporter>
6.44

>  <HISTAMINE H1>
5

>  <Norepinephrine transporter>
6.27

>  <Serotonin transporter>
6.43

$$$$
NEMONAPRIDE
  Marvin  02231216192D 0   1.00000     0.00000     0

 27 29  0  0  1  0  0  0  0  0999 V2000
    5.2060    2.2336    0.0000 Cl  0  0  0  0  0  0  0  0  0
    4.4916    1.8211    0.0000 C   0  0  0  0  0  0  0  0  0
    4.4916    0.9961    0.0000 C   0  0  0  0  0  0  0  0  0
    3.7771    0.5836    0.0000 C   0  0  0  0  0  0  0  0  0
    3.7771   -0.2414    0.0000 C   0  0  0  0  0  0  0  0  0
    4.4916   -0.6539    0.0000 O   0  0  0  0  0  0  0  0  0
    3.0626   -0.6539    0.0000 N   0  0  0  0  0  0  0  0  0
    3.0626   -1.4789    0.0000 C   0  0  0  0  0  0  0  0  0
    3.7300   -1.9638    0.0000 C   0  0  0  0  0  0  0  0  0
    3.4751   -2.7484    0.0000 C   0  0  0  0  0  0  0  0  0
    2.6501   -2.7484    0.0000 N   0  0  0  0  0  0  0  0  0
    2.1652   -3.4159    0.0000 C   0  0  0  0  0  0  0  0  0
    2.5007   -4.1696    0.0000 C   0  0  0  0  0  0  0  0  0
    3.3212   -4.2558    0.0000 C   0  0  0  0  0  0  0  0  0
    3.6568   -5.0095    0.0000 C   0  0  0  0  0  0  0  0  0
    3.1719   -5.6769    0.0000 C   0  0  0  0  0  0  0  0  0
    2.3514   -5.5907    0.0000 C   0  0  0  0  0  0  0  0  0
    2.0158   -4.8370    0.0000 C   0  0  0  0  0  0  0  0  0
    2.3952   -1.9638    0.0000 C   0  0  0  0  0  0  0  0  0
    1.6105   -1.7089    0.0000 C   0  0  0  0  0  0  0  0  0
    3.0626    0.9961    0.0000 C   0  0  0  0  0  0  0  0  0
    2.3481    0.5836    0.0000 O   0  0  0  0  0  0  0  0  0
    1.6337    0.9961    0.0000 C   0  0  0  0  0  0  0  0  0
    3.0626    1.8211    0.0000 C   0  0  0  0  0  0  0  0  0
    3.7771    2.2336    0.0000 C   0  0  0  0  0  0  0  0  0
    3.7771    3.0586    0.0000 N   0  0  0  0  0  0  0  0  0
    3.0626    3.4711    0.0000 C   0  0  0  0  0  0  0  0  0
  1  2  1  0  0  0  0
  2  3  4  0  0  0  0
  2 25  4  0  0  0  0
  3  4  4  0  0  0  0
  4  5  1  0  0  0  0
  4 21  4  0  0  0  0
  5  6  2  0  0  0  0
  5  7  1  0  0  0  0
  7  8  1  0  0  0  0
  8  9  1  0  0  0  0
  8 19  1  0  0  0  0
  9 10  1  0  0  0  0
 10 11  1  0  0  0  0
 11 12  1  0  0  0  0
 11 19  1  0  0  0  0
 12 13  1  0  0  0  0
 13 14  4  0  0  0  0
 13 18  4  0  0  0  0
 14 15  4  0  0  0  0
 15 16  4  0  0  0  0
 16 17  4  0  0  0  0
 17 18  4  0  0  0  0
 19 20  1  0  0  0  0
 21 22  1  0  0  0  0
 21 24  4  0  0  0  0
 22 23  1  0  0  0  0
 24 25  4  0  0  0  0
 25 26  1  0  0  0  0
 26 27  1  0  0  0  0
M  END
>  <Name_Molregno>
NEMONAPRIDE

>  <5-HT1A>
7.82

>  <DOPAMINE D1>
5.58

>  <DOPAMINE D2>
10.31

>  <DOPAMINE D3>
9.7

>  <DOPAMINE D4>
9.97

$$$$
nimesulide
  Marvin  02231216192D 0   1.00000     0.00000     0

 21 22  0  0  0  0  0  0  0  0999 V2000
    3.1126    1.9121    0.0000 S   0  0  0  0  0  0  0  0  0
    3.8271    2.3246    0.0000 O   0  0  0  0  0  0  0  0  0
    2.7001    2.6266    0.0000 O   0  0  0  0  0  0  0  0  0
    2.3982    1.4996    0.0000 N   0  0  0  0  0  0  0  0  0
    2.3982    0.6746    0.0000 C   0  0  0  0  0  0  0  0  0
    3.1126    0.2621    0.0000 C   0  0  0  0  0  0  0  0  0
    3.1126   -0.5629    0.0000 C   0  0  0  0  0  0  0  0  0
    2.3982   -0.9754    0.0000 C   0  0  0  0  0  0  0  0  0
    2.3982   -1.8004    0.0000 N   0  3  0  0  0  0  0  0  0
    1.6837   -2.2129    0.0000 O   0  5  0  0  0  0  0  0  0
    3.1126   -2.2129    0.0000 O   0  5  0  0  0  0  0  0  0
    1.6837   -0.5629    0.0000 C   0  0  0  0  0  0  0  0  0
    1.6837    0.2621    0.0000 C   0  0  0  0  0  0  0  0  0
    0.9692    0.6746    0.0000 O   0  0  0  0  0  0  0  0  0
    0.9692    1.4996    0.0000 C   0  0  0  0  0  0  0  0  0
    0.2548    1.9121    0.0000 C   0  0  0  0  0  0  0  0  0
    0.2548    2.7371    0.0000 C   0  0  0  0  0  0  0  0  0
    0.9692    3.1496    0.0000 C   0  0  0  0  0  0  0  0  0
    1.6837    2.7371    0.0000 C   0  0  0  0  0  0  0  0  0
    1.6837    1.9121    0.0000 C   0  0  0  0  0  0  0  0  0
    3.5251    1.1976    0.0000 C   0  0  0  0  0  0  0  0  0
  1  2  2  0  0  0  0
  1  3  2  0  0  0  0
  1  4  1  0  0  0  0
  1 21  1  0  0  0  0
  4  5  1  0  0  0  0
  5  6  4  0  0  0  0
  5 13  4  0  0  0  0
  6  7  4  0  0  0  0
  7  8  4  0  0  0  0
  8  9  1  0  0  0  0
  8 12  4  0  0  0  0
  9 10  1  0  0  0  0
  9 11  1  0  0  0  0
 12 13  4  0  0  0  0
 13 14  1  0  0  0  0
 14 15  1  0  0  0  0
 15 16  4  0  0  0  0
 15 20  4  0  0  0  0
 16 17  4  0  0  0  0
 17 18  4  0  0  0  0
 18 19  4  0  0  0  0
 19 20  4  0  0  0  0
M  CHG  3   9   1  10  -1  11  -1
M  END
>  <Name_Molregno>
nimesulide

>  <5-HT1A>
5

>  <5-HT1B>
5

>  <5-HT1D>
5

>  <5-HT1E>
5

>  <5-HT2A>
5

>  <5-HT3>
5

>  <5-HT5>
5

>  <5-HT6>
5

>  <5-HT7>
5

>  <Alpha-1A>
5

>  <Alpha-1B>
5

>  <Alpha-2A>
5

>  <Alpha-2B>
5

>  <Alpha-2C>
5

>  <DOPAMINE D1>
5

>  <DOPAMINE D2>
5

>  <DOPAMINE D4>
5

>  <DOPAMINE D5>
5

>  <Dopamine transporter>
5

>  <HISTAMINE H1>
5

>  <HISTAMINE H2>
5

>  <HISTAMINE H4>
5

>  <Muscarinic acetylcholine receptor M2>
5

>  <Muscarinic acetylcholine receptor M5>
5

>  <Norepinephrine transporter>
5

>  <Serotonin transporter>
5

$$$$
NOMIFENSINE
  Marvin  02231216192D 0   1.00000     0.00000     0

 18 20  0  0  1  0  0  0  0  0999 V2000
    1.4401   -2.6248    0.0000 N   0  0  0  0  0  0  0  0  0
    1.4401   -1.7998    0.0000 C   0  0  0  0  0  0  0  0  0
    2.1546   -1.3873    0.0000 C   0  0  0  0  0  0  0  0  0
    2.1546   -0.5623    0.0000 C   0  0  0  0  0  0  0  0  0
    1.4401   -0.1498    0.0000 C   0  0  0  0  0  0  0  0  0
    0.7256   -0.5623    0.0000 C   0  0  0  0  0  0  0  0  0
    0.7256   -1.3873    0.0000 C   0  0  0  0  0  0  0  0  0
    2.8690   -0.1498    0.0000 C   0  0  0  0  0  0  0  0  0
    3.5835   -0.5623    0.0000 C   0  0  0  0  0  0  0  0  0
    3.5835   -1.3873    0.0000 N   0  0  0  0  0  0  0  0  0
    2.8690   -1.7998    0.0000 C   0  0  0  0  0  0  0  0  0
    4.2980   -1.7998    0.0000 C   0  0  0  0  0  0  0  0  0
    2.8690    0.6752    0.0000 C   0  0  0  0  0  0  0  0  0
    2.1546    1.0877    0.0000 C   0  0  0  0  0  0  0  0  0
    2.1546    1.9127    0.0000 C   0  0  0  0  0  0  0  0  0
    2.8690    2.3252    0.0000 C   0  0  0  0  0  0  0  0  0
    3.5835    1.9127    0.0000 C   0  0  0  0  0  0  0  0  0
    3.5835    1.0877    0.0000 C   0  0  0  0  0  0  0  0  0
  1  2  1  0  0  0  0
  2  3  4  0  0  0  0
  2  7  4  0  0  0  0
  3  4  4  0  0  0  0
  3 11  1  0  0  0  0
  4  5  4  0  0  0  0
  4  8  1  0  0  0  0
  5  6  4  0  0  0  0
  6  7  4  0  0  0  0
  8  9  1  0  0  0  0
  8 13  1  0  0  0  0
  9 10  1  0  0  0  0
 10 11  1  0  0  0  0
 10 12  1  0  0  0  0
 13 14  4  0  0  0  0
 13 18  4  0  0  0  0
 14 15  4  0  0  0  0
 15 16  4  0  0  0  0
 16 17  4  0  0  0  0
 17 18  4  0  0  0  0
M  END
>  <Name_Molregno>
NOMIFENSINE

>  <5-HT1A>
5.93

>  <DOPAMINE D1>
5

>  <DOPAMINE D2>
5

>  <Dopamine transporter>
7.31

>  <HISTAMINE H1>
5.57

>  <Norepinephrine transporter>
7.67

>  <Serotonin transporter>
5.65

$$$$
Norephedrine
  Marvin  02231216192D 0   1.00000     0.00000     0

 11 11  0  0  1  0  0  0  0  0999 V2000
    1.9974    0.2298    0.0000 O   0  0  0  0  0  0  0  0  0
    1.2829   -0.1827    0.0000 C   0  0  0  0  0  0  0  0  0
    0.5684    0.2298    0.0000 C   0  0  0  0  0  0  0  0  0
    0.5684    1.0548    0.0000 N   0  0  0  0  0  0  0  0  0
   -0.1461   -0.1827    0.0000 C   0  0  0  0  0  0  0  0  0
    1.2829   -1.0077    0.0000 C   0  0  0  0  0  0  0  0  0
    1.9974   -1.4202    0.0000 C   0  0  0  0  0  0  0  0  0
    1.9974   -2.2452    0.0000 C   0  0  0  0  0  0  0  0  0
    1.2829   -2.6577    0.0000 C   0  0  0  0  0  0  0  0  0
    0.5684   -2.2452    0.0000 C   0  0  0  0  0  0  0  0  0
    0.5684   -1.4202    0.0000 C   0  0  0  0  0  0  0  0  0
  1  2  1  0  0  0  0
  2  3  1  0  0  0  0
  2  6  1  0  0  0  0
  3  4  1  0  0  0  0
  3  5  1  0  0  0  0
  6  7  4  0  0  0  0
  6 11  4  0  0  0  0
  7  8  4  0  0  0  0
  8  9  4  0  0  0  0
  9 10  4  0  0  0  0
 10 11  4  0  0  0  0
M  END
>  <Name_Molregno>
Norephedrine

>  <5-HT1A>
5

>  <5-HT1B>
5

>  <5-HT1D>
5

>  <5-HT1E>
5

>  <5-HT3>
5

>  <5-HT5>
5

>  <5-HT6>
5

>  <5-HT7>
5.04

>  <Alpha-1A>
5

>  <Alpha-1B>
5

>  <Alpha-2A>
5.64

>  <Alpha-2B>
5.73

>  <Alpha-2C>
6.04

>  <Beta-1>
5

>  <Beta-2>
5

>  <DOPAMINE D1>
5

>  <DOPAMINE D2>
5

>  <DOPAMINE D4>
5

>  <DOPAMINE D5>
5

>  <Dopamine transporter>
5.76

>  <HISTAMINE H1>
5

>  <HISTAMINE H2>
5

>  <HISTAMINE H4>
5

>  <Muscarinic acetylcholine receptor M1>
5.04

>  <Muscarinic acetylcholine receptor M2>
5

>  <Muscarinic acetylcholine receptor M3>
5

>  <Muscarinic acetylcholine receptor M4>
5

>  <Muscarinic acetylcholine receptor M5>
5

>  <Norepinephrine transporter>
6.34

>  <Serotonin transporter>
5

$$$$
NOREPINEPHRINE
  Marvin  02231216192D 0   1.00000     0.00000     0

 12 12  0  0  1  0  0  0  0  0999 V2000
    3.1670    0.8378    0.0000 O   0  0  0  0  0  0  0  0  0
    2.4525    0.4253    0.0000 C   0  0  0  0  0  0  0  0  0
    2.4525   -0.3997    0.0000 C   0  0  0  0  0  0  0  0  0
    1.7381   -0.8122    0.0000 C   0  0  0  0  0  0  0  0  0
    1.0236   -0.3997    0.0000 C   0  0  0  0  0  0  0  0  0
    1.0236    0.4253    0.0000 C   0  0  0  0  0  0  0  0  0
    1.7381    0.8378    0.0000 C   0  0  0  0  0  0  0  0  0
    1.7381    1.6628    0.0000 O   0  0  0  0  0  0  0  0  0
    1.7381   -1.6372    0.0000 C   0  0  0  0  0  0  0  0  0
    2.4525   -2.0497    0.0000 O   0  0  0  0  0  0  0  0  0
    1.0236   -2.0497    0.0000 C   0  0  0  0  0  0  0  0  0
    1.0236   -2.8747    0.0000 N   0  0  0  0  0  0  0  0  0
  1  2  1  0  0  0  0
  2  3  4  0  0  0  0
  2  7  4  0  0  0  0
  3  4  4  0  0  0  0
  4  5  4  0  0  0  0
  4  9  1  0  0  0  0
  5  6  4  0  0  0  0
  6  7  4  0  0  0  0
  7  8  1  0  0  0  0
  9 10  1  0  0  0  0
  9 11  1  0  0  0  0
 11 12  1  0  0  0  0
M  END
>  <Name_Molregno>
NOREPINEPHRINE

>  <5-HT1A>
5

>  <5-HT2A>
5

>  <5-HT3>
5

>  <5-HT7>
5

>  <Alpha-1A>
5.33

>  <Alpha-1B>
5.1

>  <Alpha-2A>
6.32

>  <Alpha-2B>
6.02

>  <Alpha-2C>
6.43

>  <Beta-1>
5.45

>  <Beta-2>
4.9

>  <DOPAMINE D1>
5

>  <DOPAMINE D2>
5

>  <DOPAMINE D5>
5

>  <Dopamine transporter>
5.02

$$$$
Norfenfluramine
  Marvin  02231216192D 0   1.00000     0.00000     0

 14 14  0  0  1  0  0  0  0  0999 V2000
    0.4631   -1.9707    0.0000 F   0  0  0  0  0  0  0  0  0
    1.1776   -1.5582    0.0000 C   0  0  0  0  0  0  0  0  0
    1.5901   -2.2727    0.0000 F   0  0  0  0  0  0  0  0  0
    0.7651   -0.8437    0.0000 F   0  0  0  0  0  0  0  0  0
    1.8921   -1.1457    0.0000 C   0  0  0  0  0  0  0  0  0
    1.8921   -0.3207    0.0000 C   0  0  0  0  0  0  0  0  0
    2.6065    0.0918    0.0000 C   0  0  0  0  0  0  0  0  0
    3.3210   -0.3207    0.0000 C   0  0  0  0  0  0  0  0  0
    3.3210   -1.1457    0.0000 C   0  0  0  0  0  0  0  0  0
    2.6065   -1.5582    0.0000 C   0  0  0  0  0  0  0  0  0
    2.6065    0.9168    0.0000 C   0  0  0  0  0  0  0  0  0
    3.3210    1.3293    0.0000 C   0  0  0  0  0  0  0  0  0
    3.3210    2.1543    0.0000 N   0  0  0  0  0  0  0  0  0
    4.0355    0.9168    0.0000 C   0  0  0  0  0  0  0  0  0
  1  2  1  0  0  0  0
  2  3  1  0  0  0  0
  2  4  1  0  0  0  0
  2  5  1  0  0  0  0
  5  6  4  0  0  0  0
  5 10  4  0  0  0  0
  6  7  4  0  0  0  0
  7  8  4  0  0  0  0
  7 11  1  0  0  0  0
  8  9  4  0  0  0  0
  9 10  4  0  0  0  0
 11 12  1  0  0  0  0
 12 13  1  0  0  0  0
 12 14  1  0  0  0  0
M  END
>  <Name_Molregno>
Norfenfluramine

>  <5-HT1A>
5.77

>  <5-HT1B>
5.57

>  <5-HT1D>
5.88

>  <5-HT1E>
5

>  <5-HT3>
5

>  <5-HT5>
5

>  <5-HT6>
5

>  <5-HT7>
6.44

>  <Alpha-1A>
5.11

>  <Alpha-1B>
5

>  <Alpha-2A>
5.42

>  <Alpha-2B>
5.75

>  <Alpha-2C>
6.08

>  <Beta-1>
5

>  <Beta-2>
5

>  <DOPAMINE D1>
5

>  <DOPAMINE D2>
5

>  <DOPAMINE D4>
5

>  <DOPAMINE D5>
5

>  <Dopamine transporter>
5

>  <HISTAMINE H1>
5

>  <HISTAMINE H2>
5

>  <Muscarinic acetylcholine receptor M1>
5.42

>  <Muscarinic acetylcholine receptor M2>
5.24

>  <Muscarinic acetylcholine receptor M3>
6.04

>  <Muscarinic acetylcholine receptor M4>
5.31

>  <Muscarinic acetylcholine receptor M5>
5.78

>  <Norepinephrine transporter>
5

>  <Serotonin transporter>
5

$$$$
NORTRYPTYLINE
  Marvin  02231216192D 0   1.00000     0.00000     0

 20 22  0  0  0  0  0  0  0  0999 V2000
    0.9332    1.7261    0.0000 N   0  0  0  0  0  0  0  0  0
    1.6477    1.3136    0.0000 C   0  0  0  0  0  0  0  0  0
    2.3622    1.7261    0.0000 C   0  0  0  0  0  0  0  0  0
    3.0767    1.3136    0.0000 C   0  0  0  0  0  0  0  0  0
    3.0767    0.4886    0.0000 C   0  0  0  0  0  0  0  0  0
    3.8200    0.1307    0.0000 C   0  0  0  0  0  0  0  0  0
    4.0035   -0.6736    0.0000 C   0  0  0  0  0  0  0  0  0
    3.4892   -1.3186    0.0000 C   0  0  0  0  0  0  0  0  0
    2.6642   -1.3186    0.0000 C   0  0  0  0  0  0  0  0  0
    2.1498   -0.6736    0.0000 C   0  0  0  0  0  0  0  0  0
    2.3334    0.1307    0.0000 C   0  0  0  0  0  0  0  0  0
    1.7286    0.6918    0.0000 C   0  0  0  0  0  0  0  0  0
    0.9402    0.4487    0.0000 C   0  0  0  0  0  0  0  0  0
    0.7567   -0.3557    0.0000 C   0  0  0  0  0  0  0  0  0
    1.3614   -0.9168    0.0000 C   0  0  0  0  0  0  0  0  0
    4.7919   -0.9168    0.0000 C   0  0  0  0  0  0  0  0  0
    5.3966   -0.3557    0.0000 C   0  0  0  0  0  0  0  0  0
    5.2131    0.4487    0.0000 C   0  0  0  0  0  0  0  0  0
    4.4247    0.6918    0.0000 C   0  0  0  0  0  0  0  0  0
    0.2188    1.3136    0.0000 C   0  0  0  0  0  0  0  0  0
  1  2  1  0  0  0  0
  1 20  1  0  0  0  0
  2  3  1  0  0  0  0
  3  4  1  0  0  0  0
  4  5  2  0  0  0  0
  5  6  1  0  0  0  0
  5 11  1  0  0  0  0
  6  7  4  0  0  0  0
  6 19  4  0  0  0  0
  7  8  1  0  0  0  0
  7 16  4  0  0  0  0
  8  9  1  0  0  0  0
  9 10  1  0  0  0  0
 10 11  4  0  0  0  0
 10 15  4  0  0  0  0
 11 12  4  0  0  0  0
 12 13  4  0  0  0  0
 13 14  4  0  0  0  0
 14 15  4  0  0  0  0
 16 17  4  0  0  0  0
 17 18  4  0  0  0  0
 18 19  4  0  0  0  0
M  END
>  <Name_Molregno>
NORTRYPTYLINE

>  <5-HT1A>
6.53

>  <DOPAMINE D2>
5.59

>  <Dopamine transporter>
5.72

>  <HISTAMINE H1>
8.03

>  <Muscarinic acetylcholine receptor M1>
7.4

>  <Muscarinic acetylcholine receptor M2>
6.96

>  <Muscarinic acetylcholine receptor M3>
7.3

>  <Muscarinic acetylcholine receptor M4>
7.08

>  <Muscarinic acetylcholine receptor M5>
7.01

>  <Norepinephrine transporter>
8.34

>  <Serotonin transporter>
7.27

$$$$
Ocaperidone
  Marvin  02231216192D 0   1.00000     0.00000     0

 31 35  0  0  0  0  0  0  0  0999 V2000
    1.7758   -2.6889    0.0000 F   0  0  0  0  0  0  0  0  0
    2.0308   -1.9043    0.0000 C   0  0  0  0  0  0  0  0  0
    1.4788   -1.2912    0.0000 C   0  0  0  0  0  0  0  0  0
    1.7337   -0.5066    0.0000 C   0  0  0  0  0  0  0  0  0
    1.3212    0.2079    0.0000 O   0  0  0  0  0  0  0  0  0
    1.8732    0.8210    0.0000 N   0  0  0  0  0  0  0  0  0
    2.6269    0.4854    0.0000 C   0  0  0  0  0  0  0  0  0
    2.5407   -0.3350    0.0000 C   0  0  0  0  0  0  0  0  0
    3.0927   -0.9481    0.0000 C   0  0  0  0  0  0  0  0  0
    2.8378   -1.7327    0.0000 C   0  0  0  0  0  0  0  0  0
    3.3414    0.8979    0.0000 C   0  0  0  0  0  0  0  0  0
    3.3414    1.7229    0.0000 C   0  0  0  0  0  0  0  0  0
    4.0558    2.1354    0.0000 C   0  0  0  0  0  0  0  0  0
    4.7703    1.7229    0.0000 N   0  0  0  0  0  0  0  0  0
    4.7703    0.8979    0.0000 C   0  0  0  0  0  0  0  0  0
    4.0558    0.4854    0.0000 C   0  0  0  0  0  0  0  0  0
    5.4848    2.1354    0.0000 C   0  0  0  0  0  0  0  0  0
    6.1993    1.7229    0.0000 C   0  0  0  0  0  0  0  0  0
    6.9137    2.1354    0.0000 C   0  0  0  0  0  0  0  0  0
    7.6282    1.7229    0.0000 C   0  0  0  0  0  0  0  0  0
    7.6282    0.8979    0.0000 O   0  0  0  0  0  0  0  0  0
    8.3427    2.1354    0.0000 N   0  0  0  0  0  0  0  0  0
    8.3427    2.9604    0.0000 C   0  0  0  0  0  0  0  0  0
    7.6282    3.3729    0.0000 N   0  0  0  0  0  0  0  0  0
    6.9137    2.9604    0.0000 C   0  0  0  0  0  0  0  0  0
    6.1993    3.3729    0.0000 C   0  0  0  0  0  0  0  0  0
    9.0571    3.3729    0.0000 C   0  0  0  0  0  0  0  0  0
    9.7716    2.9604    0.0000 C   0  0  0  0  0  0  0  0  0
    9.7716    2.1354    0.0000 C   0  0  0  0  0  0  0  0  0
    9.0571    1.7229    0.0000 C   0  0  0  0  0  0  0  0  0
    9.0571    4.1979    0.0000 C   0  0  0  0  0  0  0  0  0
  1  2  1  0  0  0  0
  2  3  4  0  0  0  0
  2 10  4  0  0  0  0
  3  4  4  0  0  0  0
  4  5  4  0  0  0  0
  4  8  4  0  0  0  0
  5  6  4  0  0  0  0
  6  7  4  0  0  0  0
  7  8  4  0  0  0  0
  7 11  1  0  0  0  0
  8  9  4  0  0  0  0
  9 10  4  0  0  0  0
 11 12  1  0  0  0  0
 11 16  1  0  0  0  0
 12 13  1  0  0  0  0
 13 14  1  0  0  0  0
 14 15  1  0  0  0  0
 14 17  1  0  0  0  0
 15 16  1  0  0  0  0
 17 18  1  0  0  0  0
 18 19  1  0  0  0  0
 19 20  1  0  0  0  0
 19 25  2  0  0  0  0
 20 21  2  0  0  0  0
 20 22  1  0  0  0  0
 22 23  1  0  0  0  0
 22 30  1  0  0  0  0
 23 24  2  0  0  0  0
 23 27  1  0  0  0  0
 24 25  1  0  0  0  0
 25 26  1  0  0  0  0
 27 28  2  0  0  0  0
 27 31  1  0  0  0  0
 28 29  1  0  0  0  0
 29 30  2  0  0  0  0
M  END
>  <Name_Molregno>
Ocaperidone

>  <5-HT1A>
7.86

>  <DOPAMINE D2>
9.7

>  <DOPAMINE D3>
8.84

>  <DOPAMINE D4>
8.18

$$$$
OLANZAPINE
  Marvin  02231216192D 0   1.00000     0.00000     0

 22 25  0  0  0  0  0  0  0  0999 V2000
   -1.5954    3.4952    0.0000 S   0  0  0  0  0  0  0  0  0
   -0.8919    3.0642    0.0000 C   0  0  0  0  0  0  0  0  0
   -0.1447    3.4138    0.0000 N   0  0  0  0  0  0  0  0  0
    0.5946    3.0476    0.0000 C   0  0  0  0  0  0  0  0  0
    0.7691    2.2413    0.0000 C   0  0  0  0  0  0  0  0  0
    0.2476    1.6020    0.0000 N   0  0  0  0  0  0  0  0  0
   -0.5774    1.6113    0.0000 C   0  0  0  0  0  0  0  0  0
   -0.9436    0.8720    0.0000 N   0  0  0  0  0  0  0  0  0
   -0.4865    0.1852    0.0000 C   0  0  0  0  0  0  0  0  0
   -0.8527   -0.5540    0.0000 C   0  0  0  0  0  0  0  0  0
   -1.6761   -0.6065    0.0000 N   0  0  0  0  0  0  0  0  0
   -2.1332    0.0803    0.0000 C   0  0  0  0  0  0  0  0  0
   -1.7669    0.8196    0.0000 C   0  0  0  0  0  0  0  0  0
   -2.0423   -1.3458    0.0000 C   0  0  0  0  0  0  0  0  0
   -1.0845    2.2620    0.0000 C   0  0  0  0  0  0  0  0  0
   -1.9069    2.1972    0.0000 C   0  0  0  0  0  0  0  0  0
   -2.2227    2.9594    0.0000 C   0  0  0  0  0  0  0  0  0
   -3.0249    3.1520    0.0000 C   0  0  0  0  0  0  0  0  0
    1.5547    1.9893    0.0000 C   0  0  0  0  0  0  0  0  0
    2.1657    2.5436    0.0000 C   0  0  0  0  0  0  0  0  0
    1.9912    3.3499    0.0000 C   0  0  0  0  0  0  0  0  0
    1.2056    3.6019    0.0000 C   0  0  0  0  0  0  0  0  0
  1  2  1  0  0  0  0
  1 17  1  0  0  0  0
  2  3  2  0  0  0  0
  2 15  1  0  0  0  0
  3  4  1  0  0  0  0
  4  5  4  0  0  0  0
  4 22  4  0  0  0  0
  5  6  1  0  0  0  0
  5 19  4  0  0  0  0
  6  7  1  0  0  0  0
  7  8  1  0  0  0  0
  7 15  2  0  0  0  0
  8  9  1  0  0  0  0
  8 13  1  0  0  0  0
  9 10  1  0  0  0  0
 10 11  1  0  0  0  0
 11 12  1  0  0  0  0
 11 14  1  0  0  0  0
 12 13  1  0  0  0  0
 15 16  1  0  0  0  0
 16 17  2  0  0  0  0
 17 18  1  0  0  0  0
 19 20  4  0  0  0  0
 20 21  4  0  0  0  0
 21 22  4  0  0  0  0
M  END
>  <Name_Molregno>
OLANZAPINE

>  <5-HT1A>
5.77

>  <5-HT1B>
6.23

>  <5-HT1D>
6.3

>  <5-HT1E>
5.66

>  <5-HT2A>
8.46

>  <5-HT2C>
7.86

>  <5-HT3>
6.69

>  <5-HT5>
5.92

>  <5-HT6>
7.97

>  <5-HT7>
6.73

>  <Alpha-1A>
6.95

>  <Alpha-1B>
6.58

>  <Alpha-2A>
6.51

>  <Alpha-2B>
6.97

>  <Alpha-2C>
7.21

>  <Beta-1>
5.15

>  <Beta-2>
5.15

>  <DOPAMINE D1>
7.3

>  <DOPAMINE D2>
7.67

>  <DOPAMINE D3>
7.53

>  <DOPAMINE D4>
7.73

>  <DOPAMINE D5>
7.09

>  <Dopamine transporter>
5

>  <HISTAMINE H1>
8.96

>  <HISTAMINE H2>
7.36

>  <HISTAMINE H4>
5

>  <Muscarinic acetylcholine receptor M1>
7.99

>  <Muscarinic acetylcholine receptor M2>
6.93

>  <Muscarinic acetylcholine receptor M3>
7.33

>  <Muscarinic acetylcholine receptor M4>
7.35

>  <Muscarinic acetylcholine receptor M5>
7.78

>  <Norepinephrine transporter>
5

>  <Serotonin transporter>
5.48

$$$$
OLANZAPINE-2
  Marvin  02231216192D 0   1.00000     0.00000     0

 22 25  0  0  0  0  0  0  0  0999 V2000
   -1.5954    3.4952    0.0000 S   0  0  0  0  0  0  0  0  0
   -0.8919    3.0642    0.0000 C   0  0  0  0  0  0  0  0  0
   -0.1447    3.4138    0.0000 N   0  0  0  0  0  0  0  0  0
    0.5946    3.0476    0.0000 C   0  0  0  0  0  0  0  0  0
    0.7691    2.2413    0.0000 C   0  0  0  0  0  0  0  0  0
    0.2476    1.6020    0.0000 N   0  0  0  0  0  0  0  0  0
   -0.5774    1.6113    0.0000 C   0  0  0  0  0  0  0  0  0
   -0.9436    0.8720    0.0000 N   0  0  0  0  0  0  0  0  0
   -0.4865    0.1852    0.0000 C   0  0  0  0  0  0  0  0  0
   -0.8527   -0.5540    0.0000 C   0  0  0  0  0  0  0  0  0
   -1.6761   -0.6065    0.0000 N   0  0  0  0  0  0  0  0  0
   -2.1332    0.0803    0.0000 C   0  0  0  0  0  0  0  0  0
   -1.7669    0.8196    0.0000 C   0  0  0  0  0  0  0  0  0
   -2.0423   -1.3458    0.0000 C   0  0  0  0  0  0  0  0  0
   -1.0845    2.2620    0.0000 C   0  0  0  0  0  0  0  0  0
   -1.9069    2.1972    0.0000 C   0  0  0  0  0  0  0  0  0
   -2.2227    2.9594    0.0000 C   0  0  0  0  0  0  0  0  0
   -3.0249    3.1520    0.0000 C   0  0  0  0  0  0  0  0  0
    1.5547    1.9893    0.0000 C   0  0  0  0  0  0  0  0  0
    2.1657    2.5436    0.0000 C   0  0  0  0  0  0  0  0  0
    1.9912    3.3499    0.0000 C   0  0  0  0  0  0  0  0  0
    1.2056    3.6019    0.0000 C   0  0  0  0  0  0  0  0  0
  1  2  4  0  0  0  0
  1 17  4  0  0  0  0
  2  3  1  0  0  0  0
  2 15  4  0  0  0  0
  3  4  1  0  0  0  0
  4  5  4  0  0  0  0
  4 22  4  0  0  0  0
  5  6  1  0  0  0  0
  5 19  4  0  0  0  0
  6  7  2  0  0  0  0
  7  8  1  0  0  0  0
  7 15  1  0  0  0  0
  8  9  1  0  0  0  0
  8 13  1  0  0  0  0
  9 10  1  0  0  0  0
 10 11  1  0  0  0  0
 11 12  1  0  0  0  0
 11 14  1  0  0  0  0
 12 13  1  0  0  0  0
 15 16  4  0  0  0  0
 16 17  4  0  0  0  0
 17 18  1  0  0  0  0
 19 20  4  0  0  0  0
 20 21  4  0  0  0  0
 21 22  4  0  0  0  0
M  END
>  <Name_Molregno>
OLANZAPINE-2

>  <5-HT1A>
5.68

>  <5-HT2A>
8.66

>  <5-HT2C>
8.05

>  <5-HT3>
6.7

>  <5-HT6>
7.8

>  <5-HT7>
6.77

>  <Alpha-2A>
6.72

>  <Alpha-2C>
7.09

>  <DOPAMINE D1>
7.28

>  <DOPAMINE D2>
7.63

>  <DOPAMINE D3>
7.47

>  <DOPAMINE D4>
7.3

>  <HISTAMINE H1>
8.74

>  <Muscarinic acetylcholine receptor M1>
8.16

>  <Muscarinic acetylcholine receptor M4>
7.9

>  <Serotonin transporter>
4.82

$$$$
ONDANSETRON
  Marvin  02231216192D 0   1.00000     0.00000     0

 22 25  0  0  1  0  0  0  0  0999 V2000
   -0.0587   -2.1575    0.0000 O   0  0  0  0  0  0  0  0  0
    0.1963   -1.3729    0.0000 C   0  0  0  0  0  0  0  0  0
   -0.3558   -0.7598    0.0000 C   0  0  0  0  0  0  0  0  0
   -0.1008    0.0249    0.0000 C   0  0  0  0  0  0  0  0  0
   -0.7683    0.5098    0.0000 N   0  0  0  0  0  0  0  0  0
   -1.4357    0.0249    0.0000 C   0  0  0  0  0  0  0  0  0
   -1.1808   -0.7598    0.0000 C   0  0  0  0  0  0  0  0  0
   -1.7328   -1.3729    0.0000 C   0  0  0  0  0  0  0  0  0
   -2.5398   -1.2013    0.0000 C   0  0  0  0  0  0  0  0  0
   -2.7947   -0.4167    0.0000 C   0  0  0  0  0  0  0  0  0
   -2.2427    0.1964    0.0000 C   0  0  0  0  0  0  0  0  0
   -0.7683    1.3348    0.0000 C   0  0  0  0  0  0  0  0  0
    0.7061    0.1964    0.0000 C   0  0  0  0  0  0  0  0  0
    1.2582   -0.4167    0.0000 C   0  0  0  0  0  0  0  0  0
    1.0032   -1.2013    0.0000 C   0  0  0  0  0  0  0  0  0
    1.5553   -1.8144    0.0000 C   0  0  0  0  0  0  0  0  0
    1.3003   -2.5990    0.0000 N   0  0  0  0  0  0  0  0  0
    0.5157   -2.8540    0.0000 C   0  0  0  0  0  0  0  0  0
    0.5157   -3.6790    0.0000 C   0  0  0  0  0  0  0  0  0
    1.3003   -3.9339    0.0000 N   0  0  0  0  0  0  0  0  0
    1.7853   -3.2665    0.0000 C   0  0  0  0  0  0  0  0  0
    2.6103   -3.2665    0.0000 C   0  0  0  0  0  0  0  0  0
  1  2  2  0  0  0  0
  2  3  1  0  0  0  0
  2 15  1  0  0  0  0
  3  4  4  0  0  0  0
  3  7  4  0  0  0  0
  4  5  4  0  0  0  0
  4 13  1  0  0  0  0
  5  6  4  0  0  0  0
  5 12  1  0  0  0  0
  6  7  4  0  0  0  0
  6 11  4  0  0  0  0
  7  8  4  0  0  0  0
  8  9  4  0  0  0  0
  9 10  4  0  0  0  0
 10 11  4  0  0  0  0
 13 14  1  0  0  0  0
 14 15  1  0  0  0  0
 15 16  1  0  0  0  0
 16 17  1  0  0  0  0
 17 18  4  0  0  0  0
 17 21  4  0  0  0  0
 18 19  4  0  0  0  0
 19 20  4  0  0  0  0
 20 21  4  0  0  0  0
 21 22  1  0  0  0  0
M  END
>  <Name_Molregno>
ONDANSETRON

>  <5-HT1A>
5

>  <5-HT3>
8.15

>  <DOPAMINE D1>
5

>  <DOPAMINE D2>
5

$$$$
ORG-5222
  Marvin  02231216192D 0   1.00000     0.00000     0

 20 23  0  0  1  0  0  0  0  0999 V2000
   -0.0754   -0.1702    0.0000 Cl  0  0  0  0  0  0  0  0  0
    0.7129   -0.4133    0.0000 C   0  0  0  0  0  0  0  0  0
    1.3177    0.1478    0.0000 C   0  0  0  0  0  0  0  0  0
    2.1060   -0.0954    0.0000 C   0  0  0  0  0  0  0  0  0
    2.6204    0.5496    0.0000 C   0  0  0  0  0  0  0  0  0
    3.4454    0.5496    0.0000 C   0  0  0  0  0  0  0  0  0
    3.9598   -0.0954    0.0000 C   0  0  0  0  0  0  0  0  0
    3.7762   -0.8997    0.0000 C   0  0  0  0  0  0  0  0  0
    3.0329   -1.2576    0.0000 O   0  0  0  0  0  0  0  0  0
    2.2896   -0.8997    0.0000 C   0  0  0  0  0  0  0  0  0
    1.6849   -1.4608    0.0000 C   0  0  0  0  0  0  0  0  0
    0.8965   -1.2176    0.0000 C   0  0  0  0  0  0  0  0  0
    4.3810   -1.4608    0.0000 C   0  0  0  0  0  0  0  0  0
    5.1693   -1.2176    0.0000 C   0  0  0  0  0  0  0  0  0
    5.3529   -0.4133    0.0000 C   0  0  0  0  0  0  0  0  0
    4.7482    0.1478    0.0000 C   0  0  0  0  0  0  0  0  0
    3.7004    1.3343    0.0000 C   0  0  0  0  0  0  0  0  0
    3.0329    1.8192    0.0000 N   0  0  0  0  0  0  0  0  0
    2.3655    1.3343    0.0000 C   0  0  0  0  0  0  0  0  0
    3.0329    2.6442    0.0000 C   0  0  0  0  0  0  0  0  0
  1  2  1  0  0  0  0
  2  3  4  0  0  0  0
  2 12  4  0  0  0  0
  3  4  4  0  0  0  0
  4  5  1  0  0  0  0
  4 10  4  0  0  0  0
  5  6  1  0  0  0  0
  5 19  1  0  0  0  0
  6  7  1  0  0  0  0
  6 17  1  0  0  0  0
  7  8  4  0  0  0  0
  7 16  4  0  0  0  0
  8  9  1  0  0  0  0
  8 13  4  0  0  0  0
  9 10  1  0  0  0  0
 10 11  4  0  0  0  0
 11 12  4  0  0  0  0
 13 14  4  0  0  0  0
 14 15  4  0  0  0  0
 15 16  4  0  0  0  0
 17 18  1  0  0  0  0
 18 19  1  0  0  0  0
 18 20  1  0  0  0  0
M  END
>  <Name_Molregno>
ORG-5222

>  <5-HT1A>
7.7

>  <5-HT1B>
8.34

>  <5-HT1D>
8.07

>  <5-HT1E>
7.69

>  <5-HT2A>
9.41

>  <5-HT2C>
9.63

>  <5-HT3>
6.35

>  <5-HT5>
8.4

>  <5-HT6>
8.85

>  <5-HT7>
9.05

>  <Alpha-1A>
8.36

>  <Alpha-1B>
8.41

>  <Alpha-2A>
8.08

>  <Alpha-2B>
8.64

>  <Alpha-2C>
7.82

>  <Beta-1>
5.3

>  <Beta-2>
5.3

>  <DOPAMINE D1>
8.54

>  <DOPAMINE D2>
8.72

>  <DOPAMINE D3>
8.74

>  <DOPAMINE D4>
8.58

>  <DOPAMINE D5>
7.64

>  <Dopamine transporter>
5.5

>  <HISTAMINE H1>
8.91

>  <HISTAMINE H2>
8.64

>  <HISTAMINE H4>
5

>  <Muscarinic acetylcholine receptor M1>
7.61

>  <Muscarinic acetylcholine receptor M2>
7.1

>  <Muscarinic acetylcholine receptor M3>
7.41

>  <Muscarinic acetylcholine receptor M4>
5

>  <Muscarinic acetylcholine receptor M5>
8.02

>  <Norepinephrine transporter>
5

>  <Serotonin transporter>
5.5

$$$$
PARECOXIB
  Marvin  02231216192D 0   1.00000     0.00000     0

 26 28  0  0  0  0  0  0  0  0999 V2000
    3.2898   -1.2399    0.0000 S   0  0  0  0  0  0  0  0  0
    3.7023   -0.5254    0.0000 O   0  0  0  0  0  0  0  0  0
    2.8773   -1.9544    0.0000 O   0  0  0  0  0  0  0  0  0
    4.0042   -1.6524    0.0000 N   0  0  0  0  0  0  0  0  0
    4.7187   -1.2399    0.0000 C   0  0  0  0  0  0  0  0  0
    4.7187   -0.4149    0.0000 O   0  0  0  0  0  0  0  0  0
    5.4332   -1.6524    0.0000 C   0  0  0  0  0  0  0  0  0
    6.1476   -1.2399    0.0000 C   0  0  0  0  0  0  0  0  0
    2.5753   -0.8274    0.0000 C   0  0  0  0  0  0  0  0  0
    1.8608   -1.2399    0.0000 C   0  0  0  0  0  0  0  0  0
    1.1463   -0.8274    0.0000 C   0  0  0  0  0  0  0  0  0
    1.1463   -0.0024    0.0000 C   0  0  0  0  0  0  0  0  0
    1.8608    0.4101    0.0000 C   0  0  0  0  0  0  0  0  0
    2.5753   -0.0024    0.0000 C   0  0  0  0  0  0  0  0  0
    0.4319    0.4101    0.0000 C   0  0  0  0  0  0  0  0  0
   -0.3218    0.0745    0.0000 C   0  0  0  0  0  0  0  0  0
   -0.8738    0.6876    0.0000 N   0  0  0  0  0  0  0  0  0
   -0.4613    1.4021    0.0000 O   0  0  0  0  0  0  0  0  0
    0.3456    1.2306    0.0000 C   0  0  0  0  0  0  0  0  0
    0.9587    1.7826    0.0000 C   0  0  0  0  0  0  0  0  0
   -0.4933   -0.7324    0.0000 C   0  0  0  0  0  0  0  0  0
    0.1198   -1.2845    0.0000 C   0  0  0  0  0  0  0  0  0
   -0.0518   -2.0914    0.0000 C   0  0  0  0  0  0  0  0  0
   -0.8364   -2.3464    0.0000 C   0  0  0  0  0  0  0  0  0
   -1.4495   -1.7943    0.0000 C   0  0  0  0  0  0  0  0  0
   -1.2779   -0.9874    0.0000 C   0  0  0  0  0  0  0  0  0
  1  2  2  0  0  0  0
  1  3  2  0  0  0  0
  1  4  1  0  0  0  0
  1  9  1  0  0  0  0
  4  5  1  0  0  0  0
  5  6  2  0  0  0  0
  5  7  1  0  0  0  0
  7  8  1  0  0  0  0
  9 10  4  0  0  0  0
  9 14  4  0  0  0  0
 10 11  4  0  0  0  0
 11 12  4  0  0  0  0
 12 13  4  0  0  0  0
 12 15  1  0  0  0  0
 13 14  4  0  0  0  0
 15 16  4  0  0  0  0
 15 19  4  0  0  0  0
 16 17  4  0  0  0  0
 16 21  1  0  0  0  0
 17 18  4  0  0  0  0
 18 19  4  0  0  0  0
 19 20  1  0  0  0  0
 21 22  4  0  0  0  0
 21 26  4  0  0  0  0
 22 23  4  0  0  0  0
 23 24  4  0  0  0  0
 24 25  4  0  0  0  0
 25 26  4  0  0  0  0
M  END
>  <Name_Molregno>
PARECOXIB

>  <5-HT1A>
5

>  <5-HT1B>
5

>  <5-HT1D>
5

>  <5-HT1E>
5

>  <5-HT2A>
5

>  <5-HT3>
5

>  <5-HT6>
5

>  <5-HT7>
5

>  <Alpha-1A>
5

>  <Alpha-1B>
5

>  <Alpha-2A>
5

>  <Alpha-2B>
5

>  <Alpha-2C>
5

>  <DOPAMINE D1>
5

>  <DOPAMINE D2>
5

>  <DOPAMINE D4>
5

>  <DOPAMINE D5>
5

>  <Dopamine transporter>
5

>  <HISTAMINE H1>
5

>  <HISTAMINE H2>
5

>  <HISTAMINE H4>
5

>  <Muscarinic acetylcholine receptor M2>
5

>  <Muscarinic acetylcholine receptor M5>
5

>  <Norepinephrine transporter>
5

>  <Serotonin transporter>
5

$$$$
PAROXETINE
  Marvin  02231216192D 0   1.00000     0.00000     0

 24 27  0  0  1  0  0  0  0  0999 V2000
   -1.1156    1.2820    0.0000 F   0  0  0  0  0  0  0  0  0
   -1.1156    0.4570    0.0000 C   0  0  0  0  0  0  0  0  0
   -0.4011    0.0445    0.0000 C   0  0  0  0  0  0  0  0  0
   -0.4011   -0.7805    0.0000 C   0  0  0  0  0  0  0  0  0
   -1.1156   -1.1930    0.0000 C   0  0  0  0  0  0  0  0  0
   -1.8301   -0.7805    0.0000 C   0  0  0  0  0  0  0  0  0
   -1.8301    0.0445    0.0000 C   0  0  0  0  0  0  0  0  0
   -1.1156   -2.0180    0.0000 C   0  0  0  0  0  0  0  0  0
   -0.4011   -2.4305    0.0000 C   0  0  0  0  0  0  0  0  0
   -0.4011   -3.2555    0.0000 C   0  0  0  0  0  0  0  0  0
   -1.1156   -3.6680    0.0000 N   0  0  0  0  0  0  0  0  0
   -1.8301   -3.2555    0.0000 C   0  0  0  0  0  0  0  0  0
   -1.8301   -2.4305    0.0000 C   0  0  0  0  0  0  0  0  0
   -2.5445   -2.0180    0.0000 C   0  0  0  0  0  0  0  0  0
   -3.2590   -2.4305    0.0000 O   0  0  0  0  0  0  0  0  0
   -3.9735   -2.0180    0.0000 C   0  0  0  0  0  0  0  0  0
   -4.6880   -2.4305    0.0000 C   0  0  0  0  0  0  0  0  0
   -5.4024   -2.0180    0.0000 C   0  0  0  0  0  0  0  0  0
   -6.1870   -2.2729    0.0000 O   0  0  0  0  0  0  0  0  0
   -6.6720   -1.6055    0.0000 C   0  0  0  0  0  0  0  0  0
   -6.1870   -0.9380    0.0000 O   0  0  0  0  0  0  0  0  0
   -5.4024   -1.1930    0.0000 C   0  0  0  0  0  0  0  0  0
   -4.6880   -0.7805    0.0000 C   0  0  0  0  0  0  0  0  0
   -3.9735   -1.1930    0.0000 C   0  0  0  0  0  0  0  0  0
  1  2  1  0  0  0  0
  2  3  4  0  0  0  0
  2  7  4  0  0  0  0
  3  4  4  0  0  0  0
  4  5  4  0  0  0  0
  5  6  4  0  0  0  0
  5  8  1  0  0  0  0
  6  7  4  0  0  0  0
  8  9  1  0  0  0  0
  8 13  1  0  0  0  0
  9 10  1  0  0  0  0
 10 11  1  0  0  0  0
 11 12  1  0  0  0  0
 12 13  1  0  0  0  0
 13 14  1  0  0  0  0
 14 15  1  0  0  0  0
 15 16  1  0  0  0  0
 16 17  4  0  0  0  0
 16 24  4  0  0  0  0
 17 18  4  0  0  0  0
 18 19  1  0  0  0  0
 18 22  4  0  0  0  0
 19 20  1  0  0  0  0
 20 21  1  0  0  0  0
 21 22  1  0  0  0  0
 22 23  4  0  0  0  0
 23 24  4  0  0  0  0
M  END
>  <Name_Molregno>
PAROXETINE

>  <5-HT1A>
5

>  <5-HT2A>
5

>  <5-HT2C>
5

>  <DOPAMINE D2>
5

>  <Dopamine transporter>
6.33

>  <HISTAMINE H1>
5

>  <Muscarinic acetylcholine receptor M1>
6.83

>  <Muscarinic acetylcholine receptor M2>
6.47

>  <Muscarinic acetylcholine receptor M3>
7.1

>  <Muscarinic acetylcholine receptor M4>
6.49

>  <Muscarinic acetylcholine receptor M5>
6.19

>  <Norepinephrine transporter>
7.03

>  <Serotonin transporter>
9.7

$$$$
PBR28
  Marvin  02231216192D 0   1.00000     0.00000     0

 26 28  0  0  0  0  0  0  0  0999 V2000
    0.4191    0.0796    0.0000 O   0  0  0  0  0  0  0  0  0
    0.4191   -0.7454    0.0000 C   0  0  0  0  0  0  0  0  0
    1.1336   -1.1579    0.0000 C   0  0  0  0  0  0  0  0  0
    1.1336   -1.9829    0.0000 C   0  0  0  0  0  0  0  0  0
    0.4191   -2.3954    0.0000 C   0  0  0  0  0  0  0  0  0
   -0.2953   -1.9829    0.0000 C   0  0  0  0  0  0  0  0  0
   -0.2953   -1.1579    0.0000 C   0  0  0  0  0  0  0  0  0
   -1.0098   -0.7454    0.0000 N   0  0  0  0  0  0  0  0  0
   -1.7243   -1.1579    0.0000 C   0  0  0  0  0  0  0  0  0
   -2.4387   -0.7454    0.0000 C   0  0  0  0  0  0  0  0  0
   -2.4387    0.0796    0.0000 C   0  0  0  0  0  0  0  0  0
   -3.1532    0.4921    0.0000 C   0  0  0  0  0  0  0  0  0
   -3.8677    0.0796    0.0000 C   0  0  0  0  0  0  0  0  0
   -3.8677   -0.7454    0.0000 C   0  0  0  0  0  0  0  0  0
   -3.1532   -1.1579    0.0000 C   0  0  0  0  0  0  0  0  0
   -3.1532   -1.9829    0.0000 O   0  0  0  0  0  0  0  0  0
   -3.8677   -2.3954    0.0000 C   0  0  0  0  0  0  0  0  0
   -1.0098    0.0796    0.0000 C   0  0  0  0  0  0  0  0  0
   -1.7243    0.4921    0.0000 O   0  0  0  0  0  0  0  0  0
   -0.2953    0.4921    0.0000 C   0  0  0  0  0  0  0  0  0
    1.1336    0.4921    0.0000 C   0  0  0  0  0  0  0  0  0
    1.1336    1.3171    0.0000 C   0  0  0  0  0  0  0  0  0
    1.8481    1.7296    0.0000 C   0  0  0  0  0  0  0  0  0
    2.5626    1.3171    0.0000 C   0  0  0  0  0  0  0  0  0
    2.5626    0.4921    0.0000 C   0  0  0  0  0  0  0  0  0
    1.8481    0.0796    0.0000 C   0  0  0  0  0  0  0  0  0
  1  2  1  0  0  0  0
  1 21  1  0  0  0  0
  2  3  4  0  0  0  0
  2  7  4  0  0  0  0
  3  4  4  0  0  0  0
  4  5  4  0  0  0  0
  5  6  4  0  0  0  0
  6  7  4  0  0  0  0
  7  8  1  0  0  0  0
  8  9  1  0  0  0  0
  8 18  1  0  0  0  0
  9 10  1  0  0  0  0
 10 11  4  0  0  0  0
 10 15  4  0  0  0  0
 11 12  4  0  0  0  0
 12 13  4  0  0  0  0
 13 14  4  0  0  0  0
 14 15  4  0  0  0  0
 15 16  1  0  0  0  0
 16 17  1  0  0  0  0
 18 19  2  0  0  0  0
 18 20  1  0  0  0  0
 21 22  4  0  0  0  0
 21 26  4  0  0  0  0
 22 23  4  0  0  0  0
 23 24  4  0  0  0  0
 24 25  4  0  0  0  0
 25 26  4  0  0  0  0
M  END
>  <Name_Molregno>
PBR28

>  <5-HT1A>
5

>  <5-HT1B>
5

>  <5-HT1D>
5

>  <5-HT1E>
5

>  <5-HT2A>
5

>  <5-HT3>
5

>  <5-HT5>
5

>  <5-HT6>
5

>  <5-HT7>
5

>  <Alpha-1A>
5

>  <Alpha-1B>
5

>  <Alpha-2A>
5

>  <Alpha-2B>
5

>  <Alpha-2C>
5

>  <Beta-1>
5

>  <Beta-2>
5

>  <DOPAMINE D1>
5

>  <DOPAMINE D2>
5

>  <DOPAMINE D4>
5

>  <Dopamine transporter>
5

>  <HISTAMINE H1>
5

>  <HISTAMINE H2>
5

>  <HISTAMINE H4>
5

>  <Muscarinic acetylcholine receptor M2>
5

>  <Muscarinic acetylcholine receptor M5>
5

>  <Norepinephrine transporter>
5

>  <Serotonin transporter>
5

$$$$
PERGOLIDE
  Marvin  02231216192D 0   1.00000     0.00000     0

 22 25  0  0  1  0  0  0  0  0999 V2000
    2.3775   -0.9399    0.0000 S   0  0  0  0  0  0  0  0  0
    1.6635   -0.5265    0.0000 C   0  0  0  0  0  0  0  0  0
    1.6645    0.2985    0.0000 C   0  0  0  0  0  0  0  0  0
    2.3795    0.7101    0.0000 C   0  0  0  0  0  0  0  0  0
    2.3805    1.5351    0.0000 C   0  0  0  0  0  0  0  0  0
    1.6665    1.9485    0.0000 C   0  0  0  0  0  0  0  0  0
    0.9515    1.5368    0.0000 N   0  0  0  0  0  0  0  0  0
    0.9505    0.7118    0.0000 C   0  0  0  0  0  0  0  0  0
    0.2376    1.9502    0.0000 C   0  0  0  0  0  0  0  0  0
   -0.4774    1.5385    0.0000 C   0  0  0  0  0  0  0  0  0
   -1.1914    1.9519    0.0000 C   0  0  0  0  0  0  0  0  0
    1.6680    2.7726    0.0000 C   0  0  0  0  0  0  0  0  0
    2.3805    3.1851    0.0000 C   0  0  0  0  0  0  0  0  0
    3.0930    2.7726    0.0000 C   0  0  0  0  0  0  0  0  0
    3.0930    1.9476    0.0000 C   0  0  0  0  0  0  0  0  0
    3.8108    1.5351    0.0000 C   0  0  0  0  0  0  0  0  0
    4.5233    1.9476    0.0000 C   0  0  0  0  0  0  0  0  0
    4.5233    2.7726    0.0000 C   0  0  0  0  0  0  0  0  0
    3.8108    3.1851    0.0000 C   0  0  0  0  0  0  0  0  0
    3.5055    4.0422    0.0000 N   0  0  0  0  0  0  0  0  0
    2.6805    4.0422    0.0000 C   0  0  0  0  0  0  0  0  0
    2.3765   -1.7649    0.0000 C   0  0  0  0  0  0  0  0  0
  1  2  1  0  0  0  0
  1 22  1  0  0  0  0
  2  3  1  0  0  0  0
  3  4  1  0  0  0  0
  3  8  1  0  0  0  0
  4  5  1  0  0  0  0
  5  6  1  0  0  0  0
  5 15  1  0  0  0  0
  6  7  1  0  0  0  0
  6 12  1  0  0  0  0
  7  8  1  0  0  0  0
  7  9  1  0  0  0  0
  9 10  1  0  0  0  0
 10 11  1  0  0  0  0
 12 13  1  0  0  0  0
 13 14  4  0  0  0  0
 13 21  4  0  0  0  0
 14 15  4  0  0  0  0
 14 19  4  0  0  0  0
 15 16  4  0  0  0  0
 16 17  4  0  0  0  0
 17 18  4  0  0  0  0
 18 19  4  0  0  0  0
 19 20  4  0  0  0  0
 20 21  4  0  0  0  0
M  STY  1   1 DAT
M  SAL   1  1  20
M  SDT   1 MRV_IMPLICIT_H                                        
M  SDD   1     0.0000    0.0000    DR    ALL  0       0  
M  SED   1 IMPL_H1
M  END
>  <Name_Molregno>
PERGOLIDE

>  <5-HT1A>
8.56

>  <5-HT1B>
6.55

>  <5-HT1D>
7.88

>  <5-HT2A>
8.08

>  <5-HT2C>
6.53

>  <Alpha-1A>
5.98

>  <Alpha-1B>
6.16

>  <Alpha-2A>
7.3

>  <Alpha-2B>
7.49

>  <Alpha-2C>
7.17

>  <Beta-1>
5

>  <Beta-2>
5

>  <DOPAMINE D1>
6.17

>  <DOPAMINE D2>
7.8

>  <DOPAMINE D3>
8.59

>  <DOPAMINE D4>
7.25

>  <DOPAMINE D5>
6.76

$$$$
PERPHENAZINE
  Marvin  02231216192D 0   1.00000     0.00000     0

 27 30  0  0  0  0  0  0  0  0999 V2000
   -5.2850   -0.3290    0.0000 Cl  0  0  0  0  0  0  0  0  0
   -4.5705    0.0835    0.0000 C   0  0  0  0  0  0  0  0  0
   -3.8561   -0.3290    0.0000 C   0  0  0  0  0  0  0  0  0
   -3.1416    0.0835    0.0000 C   0  0  0  0  0  0  0  0  0
   -2.4271   -0.3290    0.0000 N   0  0  0  0  0  0  0  0  0
   -1.7126    0.0835    0.0000 C   0  0  0  0  0  0  0  0  0
   -1.7126    0.9085    0.0000 C   0  0  0  0  0  0  0  0  0
   -2.4271    1.3210    0.0000 S   0  0  0  0  0  0  0  0  0
   -3.1416    0.9085    0.0000 C   0  0  0  0  0  0  0  0  0
   -3.8561    1.3210    0.0000 C   0  0  0  0  0  0  0  0  0
   -4.5705    0.9085    0.0000 C   0  0  0  0  0  0  0  0  0
   -0.9982    1.3210    0.0000 C   0  0  0  0  0  0  0  0  0
   -0.2837    0.9085    0.0000 C   0  0  0  0  0  0  0  0  0
   -0.2837    0.0835    0.0000 C   0  0  0  0  0  0  0  0  0
   -0.9982   -0.3290    0.0000 C   0  0  0  0  0  0  0  0  0
   -2.4271   -1.1540    0.0000 C   0  0  0  0  0  0  0  0  0
   -3.1416   -1.5665    0.0000 C   0  0  0  0  0  0  0  0  0
   -3.1416   -2.3915    0.0000 C   0  0  0  0  0  0  0  0  0
   -3.8561   -2.8040    0.0000 N   0  0  0  0  0  0  0  0  0
   -3.8561   -3.6290    0.0000 C   0  0  0  0  0  0  0  0  0
   -4.5705   -4.0415    0.0000 C   0  0  0  0  0  0  0  0  0
   -5.2850   -3.6290    0.0000 N   0  0  0  0  0  0  0  0  0
   -5.2850   -2.8040    0.0000 C   0  0  0  0  0  0  0  0  0
   -4.5705   -2.3915    0.0000 C   0  0  0  0  0  0  0  0  0
   -5.9995   -4.0415    0.0000 C   0  0  0  0  0  0  0  0  0
   -6.7139   -3.6290    0.0000 C   0  0  0  0  0  0  0  0  0
   -7.4284   -4.0415    0.0000 O   0  0  0  0  0  0  0  0  0
  1  2  1  0  0  0  0
  2  3  4  0  0  0  0
  2 11  4  0  0  0  0
  3  4  4  0  0  0  0
  4  5  1  0  0  0  0
  4  9  4  0  0  0  0
  5  6  1  0  0  0  0
  5 16  1  0  0  0  0
  6  7  4  0  0  0  0
  6 15  4  0  0  0  0
  7  8  1  0  0  0  0
  7 12  4  0  0  0  0
  8  9  1  0  0  0  0
  9 10  4  0  0  0  0
 10 11  4  0  0  0  0
 12 13  4  0  0  0  0
 13 14  4  0  0  0  0
 14 15  4  0  0  0  0
 16 17  1  0  0  0  0
 17 18  1  0  0  0  0
 18 19  1  0  0  0  0
 19 20  1  0  0  0  0
 19 24  1  0  0  0  0
 20 21  1  0  0  0  0
 21 22  1  0  0  0  0
 22 23  1  0  0  0  0
 22 25  1  0  0  0  0
 23 24  1  0  0  0  0
 25 26  1  0  0  0  0
 26 27  1  0  0  0  0
M  END
>  <Name_Molregno>
PERPHENAZINE

>  <5-HT1A>
6.38

>  <5-HT2A>
8.25

>  <5-HT2C>
6.88

>  <5-HT6>
7.77

>  <5-HT7>
7.64

>  <Alpha-1A>
8

>  <Alpha-2A>
6.09

>  <Alpha-2B>
6.98

>  <Alpha-2C>
7.07

>  <DOPAMINE D2>
9.26

>  <DOPAMINE D3>
9.52

>  <DOPAMINE D4>
7.59

>  <HISTAMINE H1>
8.09

>  <Muscarinic acetylcholine receptor M3>
5.73

$$$$
PHENTOLAMINE
  Marvin  02231216192D 0   1.00000     0.00000     0

 21 23  0  0  0  0  0  0  0  0999 V2000
    4.7921    2.7933    0.0000 O   0  0  0  0  0  0  0  0  0
    4.0777    2.3808    0.0000 C   0  0  0  0  0  0  0  0  0
    4.0777    1.5558    0.0000 C   0  0  0  0  0  0  0  0  0
    3.3632    1.1433    0.0000 C   0  0  0  0  0  0  0  0  0
    3.3632    0.3183    0.0000 N   0  0  0  0  0  0  0  0  0
    4.0777   -0.0942    0.0000 C   0  0  0  0  0  0  0  0  0
    4.0777   -0.9192    0.0000 C   0  0  0  0  0  0  0  0  0
    4.7451   -1.4042    0.0000 N   0  0  0  0  0  0  0  0  0
    4.4902   -2.1888    0.0000 C   0  0  0  0  0  0  0  0  0
    3.6652   -2.1888    0.0000 C   0  0  0  0  0  0  0  0  0
    3.4102   -1.4042    0.0000 N   0  0  0  0  0  0  0  0  0
    2.6487   -0.0942    0.0000 C   0  0  0  0  0  0  0  0  0
    2.6487   -0.9192    0.0000 C   0  0  0  0  0  0  0  0  0
    1.9343   -1.3317    0.0000 C   0  0  0  0  0  0  0  0  0
    1.2198   -0.9192    0.0000 C   0  0  0  0  0  0  0  0  0
    1.2198   -0.0942    0.0000 C   0  0  0  0  0  0  0  0  0
    1.9343    0.3183    0.0000 C   0  0  0  0  0  0  0  0  0
    0.5053   -1.3317    0.0000 C   0  0  0  0  0  0  0  0  0
    2.6487    1.5558    0.0000 C   0  0  0  0  0  0  0  0  0
    2.6487    2.3808    0.0000 C   0  0  0  0  0  0  0  0  0
    3.3632    2.7933    0.0000 C   0  0  0  0  0  0  0  0  0
  1  2  1  0  0  0  0
  2  3  4  0  0  0  0
  2 21  4  0  0  0  0
  3  4  4  0  0  0  0
  4  5  1  0  0  0  0
  4 19  4  0  0  0  0
  5  6  1  0  0  0  0
  5 12  1  0  0  0  0
  6  7  1  0  0  0  0
  7  8  1  0  0  0  0
  7 11  2  0  0  0  0
  8  9  1  0  0  0  0
  9 10  1  0  0  0  0
 10 11  1  0  0  0  0
 12 13  4  0  0  0  0
 12 17  4  0  0  0  0
 13 14  4  0  0  0  0
 14 15  4  0  0  0  0
 15 16  4  0  0  0  0
 15 18  1  0  0  0  0
 16 17  4  0  0  0  0
 19 20  4  0  0  0  0
 20 21  4  0  0  0  0
M  END
>  <Name_Molregno>
PHENTOLAMINE

>  <5-HT1A>
5.67

>  <5-HT2A>
5.61

>  <Alpha-1A>
8.39

>  <Alpha-1B>
7.32

>  <Alpha-2A>
8.07

>  <Alpha-2B>
7.82

>  <Alpha-2C>
7.59

>  <DOPAMINE D1>
5

>  <DOPAMINE D2>
5

>  <HISTAMINE H1>
5.4

$$$$
PIMOZIDE
  Marvin  02231216192D 0   1.00000     0.00000     0

 34 38  0  0  0  0  0  0  0  0999 V2000
    3.4878   -7.4849    0.0000 F   0  0  0  0  0  0  0  0  0
    3.7428   -6.7002    0.0000 C   0  0  0  0  0  0  0  0  0
    3.1908   -6.0871    0.0000 C   0  0  0  0  0  0  0  0  0
    3.4457   -5.3025    0.0000 C   0  0  0  0  0  0  0  0  0
    4.2527   -5.1310    0.0000 C   0  0  0  0  0  0  0  0  0
    4.8047   -5.7441    0.0000 C   0  0  0  0  0  0  0  0  0
    4.5498   -6.5287    0.0000 C   0  0  0  0  0  0  0  0  0
    4.5076   -4.3464    0.0000 C   0  0  0  0  0  0  0  0  0
    3.9556   -3.7333    0.0000 C   0  0  0  0  0  0  0  0  0
    4.2105   -2.9487    0.0000 C   0  0  0  0  0  0  0  0  0
    3.6585   -2.3356    0.0000 C   0  0  0  0  0  0  0  0  0
    3.9134   -1.5509    0.0000 N   0  0  0  0  0  0  0  0  0
    3.3614   -0.9378    0.0000 C   0  0  0  0  0  0  0  0  0
    3.6163   -0.1532    0.0000 C   0  0  0  0  0  0  0  0  0
    4.4233    0.0183    0.0000 C   0  0  0  0  0  0  0  0  0
    4.6782    0.8029    0.0000 N   0  0  0  0  0  0  0  0  0
    5.4629    1.0579    0.0000 C   0  0  0  0  0  0  0  0  0
    5.4629    1.8829    0.0000 C   0  0  0  0  0  0  0  0  0
    4.6782    2.1378    0.0000 N   0  0  0  0  0  0  0  0  0
    4.1933    1.4704    0.0000 C   0  0  0  0  0  0  0  0  0
    3.3683    1.4704    0.0000 O   0  0  0  0  0  0  0  0  0
    6.1773    2.2954    0.0000 C   0  0  0  0  0  0  0  0  0
    6.8918    1.8829    0.0000 C   0  0  0  0  0  0  0  0  0
    6.8918    1.0579    0.0000 C   0  0  0  0  0  0  0  0  0
    6.1773    0.6454    0.0000 C   0  0  0  0  0  0  0  0  0
    4.9753   -0.5948    0.0000 C   0  0  0  0  0  0  0  0  0
    4.7204   -1.3794    0.0000 C   0  0  0  0  0  0  0  0  0
    5.3146   -4.1748    0.0000 C   0  0  0  0  0  0  0  0  0
    5.5695   -3.3902    0.0000 C   0  0  0  0  0  0  0  0  0
    6.3765   -3.2187    0.0000 C   0  0  0  0  0  0  0  0  0
    6.9285   -3.8318    0.0000 C   0  0  0  0  0  0  0  0  0
    7.7355   -3.6603    0.0000 F   0  0  0  0  0  0  0  0  0
    6.6736   -4.6164    0.0000 C   0  0  0  0  0  0  0  0  0
    5.8666   -4.7879    0.0000 C   0  0  0  0  0  0  0  0  0
  1  2  1  0  0  0  0
  2  3  4  0  0  0  0
  2  7  4  0  0  0  0
  3  4  4  0  0  0  0
  4  5  4  0  0  0  0
  5  6  4  0  0  0  0
  5  8  1  0  0  0  0
  6  7  4  0  0  0  0
  8  9  1  0  0  0  0
  8 28  1  0  0  0  0
  9 10  1  0  0  0  0
 10 11  1  0  0  0  0
 11 12  1  0  0  0  0
 12 13  1  0  0  0  0
 12 27  1  0  0  0  0
 13 14  1  0  0  0  0
 14 15  1  0  0  0  0
 15 16  1  0  0  0  0
 15 26  1  0  0  0  0
 16 17  1  0  0  0  0
 16 20  1  0  0  0  0
 17 18  4  0  0  0  0
 17 25  4  0  0  0  0
 18 19  1  0  0  0  0
 18 22  4  0  0  0  0
 19 20  1  0  0  0  0
 20 21  2  0  0  0  0
 22 23  4  0  0  0  0
 23 24  4  0  0  0  0
 24 25  4  0  0  0  0
 26 27  1  0  0  0  0
 28 29  4  0  0  0  0
 28 34  4  0  0  0  0
 29 30  4  0  0  0  0
 30 31  4  0  0  0  0
 31 32  1  0  0  0  0
 31 33  4  0  0  0  0
 33 34  4  0  0  0  0
M  END
>  <Name_Molregno>
PIMOZIDE

>  <5-HT1A>
6.48

>  <5-HT1D>
5.51

>  <5-HT2A>
7.56

>  <5-HT2C>
5.92

>  <5-HT6>
7.15

>  <5-HT7>
9.3

>  <Alpha-1A>
6.7

>  <Alpha-2A>
5.8

>  <Alpha-2B>
6.09

>  <Alpha-2C>
6.42

>  <DOPAMINE D1>
5

>  <DOPAMINE D2>
8.86

>  <DOPAMINE D3>
9.05

>  <DOPAMINE D4>
8.74

>  <HISTAMINE H1>
6.88

>  <Muscarinic acetylcholine receptor M3>
5.71

$$$$
PIPAMPERONE
  Marvin  02231216192D 0   1.00000     0.00000     0

 27 29  0  0  0  0  0  0  0  0999 V2000
    0.0224    0.7508    0.0000 F   0  0  0  0  0  0  0  0  0
    0.7369    0.3383    0.0000 C   0  0  0  0  0  0  0  0  0
    1.4513    0.7508    0.0000 C   0  0  0  0  0  0  0  0  0
    2.1658    0.3383    0.0000 C   0  0  0  0  0  0  0  0  0
    2.1658   -0.4867    0.0000 C   0  0  0  0  0  0  0  0  0
    1.4513   -0.8992    0.0000 C   0  0  0  0  0  0  0  0  0
    0.7369   -0.4867    0.0000 C   0  0  0  0  0  0  0  0  0
    2.8803   -0.8992    0.0000 C   0  0  0  0  0  0  0  0  0
    2.8803   -1.7242    0.0000 O   0  0  0  0  0  0  0  0  0
    3.5947   -0.4867    0.0000 C   0  0  0  0  0  0  0  0  0
    4.3092   -0.8992    0.0000 C   0  0  0  0  0  0  0  0  0
    5.0237   -0.4867    0.0000 C   0  0  0  0  0  0  0  0  0
    5.7382   -0.8992    0.0000 N   0  0  0  0  0  0  0  0  0
    6.4526   -0.4867    0.0000 C   0  0  0  0  0  0  0  0  0
    7.1671   -0.8992    0.0000 C   0  0  0  0  0  0  0  0  0
    7.1671   -1.7242    0.0000 C   0  0  0  0  0  0  0  0  0
    7.9796   -1.5809    0.0000 N   0  0  0  0  0  0  0  0  0
    8.2617   -0.8057    0.0000 C   0  0  0  0  0  0  0  0  0
    9.0742   -0.6624    0.0000 C   0  0  0  0  0  0  0  0  0
    9.6045   -1.2944    0.0000 C   0  0  0  0  0  0  0  0  0
    9.3223   -2.0696    0.0000 C   0  0  0  0  0  0  0  0  0
    8.5099   -2.2129    0.0000 C   0  0  0  0  0  0  0  0  0
    6.4526   -2.1367    0.0000 C   0  0  0  0  0  0  0  0  0
    5.7382   -1.7242    0.0000 C   0  0  0  0  0  0  0  0  0
    7.4493   -2.4994    0.0000 C   0  0  0  0  0  0  0  0  0
    6.9190   -3.1314    0.0000 O   0  0  0  0  0  0  0  0  0
    8.2617   -2.6427    0.0000 N   0  0  0  0  0  0  0  0  0
  1  2  1  0  0  0  0
  2  3  4  0  0  0  0
  2  7  4  0  0  0  0
  3  4  4  0  0  0  0
  4  5  4  0  0  0  0
  5  6  4  0  0  0  0
  5  8  1  0  0  0  0
  6  7  4  0  0  0  0
  8  9  2  0  0  0  0
  8 10  1  0  0  0  0
 10 11  1  0  0  0  0
 11 12  1  0  0  0  0
 12 13  1  0  0  0  0
 13 14  1  0  0  0  0
 13 24  1  0  0  0  0
 14 15  1  0  0  0  0
 15 16  1  0  0  0  0
 16 17  1  0  0  0  0
 16 23  1  0  0  0  0
 16 25  1  0  0  0  0
 17 18  1  0  0  0  0
 17 22  1  0  0  0  0
 18 19  1  0  0  0  0
 19 20  1  0  0  0  0
 20 21  1  0  0  0  0
 21 22  1  0  0  0  0
 23 24  1  0  0  0  0
 25 26  2  0  0  0  0
 25 27  1  0  0  0  0
M  END
>  <Name_Molregno>
PIPAMPERONE

>  <5-HT1A>
5.56

>  <5-HT1B>
6.8

>  <5-HT1D>
6.19

>  <5-HT1E>
5.3

>  <5-HT2A>
8.21

>  <5-HT2C>
6.64

>  <Alpha-2A>
6.07

>  <Alpha-2B>
7.46

>  <Alpha-2C>
6.54

>  <Beta-1>
5.3

>  <Beta-2>
5.3

>  <DOPAMINE D2>
6.94

>  <DOPAMINE D3>
6.6

>  <DOPAMINE D4>
8.29

>  <HISTAMINE H1>
5.62

>  <Serotonin transporter>
6

$$$$
PIRENPERONE
  Marvin  02231216192D 0   1.00000     0.00000     0

 29 32  0  0  0  0  0  0  0  0999 V2000
    2.3505   -3.5857    0.0000 F   0  0  0  0  0  0  0  0  0
    2.3505   -2.7607    0.0000 C   0  0  0  0  0  0  0  0  0
    1.6360   -2.3482    0.0000 C   0  0  0  0  0  0  0  0  0
    1.6360   -1.5232    0.0000 C   0  0  0  0  0  0  0  0  0
    2.3505   -1.1107    0.0000 C   0  0  0  0  0  0  0  0  0
    3.0649   -1.5232    0.0000 C   0  0  0  0  0  0  0  0  0
    3.0649   -2.3482    0.0000 C   0  0  0  0  0  0  0  0  0
    2.3505   -0.2857    0.0000 C   0  0  0  0  0  0  0  0  0
    1.6360    0.1268    0.0000 O   0  0  0  0  0  0  0  0  0
    3.0649    0.1268    0.0000 C   0  0  0  0  0  0  0  0  0
    3.0649    0.9518    0.0000 C   0  0  0  0  0  0  0  0  0
    3.7794    1.3643    0.0000 C   0  0  0  0  0  0  0  0  0
    4.4939    0.9518    0.0000 N   0  0  0  0  0  0  0  0  0
    4.4939    0.1268    0.0000 C   0  0  0  0  0  0  0  0  0
    3.7794   -0.2857    0.0000 C   0  0  0  0  0  0  0  0  0
    5.2083    1.3643    0.0000 C   0  0  0  0  0  0  0  0  0
    5.9228    0.9518    0.0000 C   0  0  0  0  0  0  0  0  0
    6.6373    1.3643    0.0000 C   0  0  0  0  0  0  0  0  0
    7.3518    0.9518    0.0000 C   0  0  0  0  0  0  0  0  0
    7.3518    0.1268    0.0000 O   0  0  0  0  0  0  0  0  0
    8.0662    1.3643    0.0000 N   0  0  0  0  0  0  0  0  0
    8.0662    2.1893    0.0000 C   0  0  0  0  0  0  0  0  0
    7.3518    2.6018    0.0000 N   0  0  0  0  0  0  0  0  0
    6.6373    2.1893    0.0000 C   0  0  0  0  0  0  0  0  0
    5.9228    2.6018    0.0000 C   0  0  0  0  0  0  0  0  0
    8.7807    2.6018    0.0000 C   0  0  0  0  0  0  0  0  0
    9.4952    2.1893    0.0000 C   0  0  0  0  0  0  0  0  0
    9.4952    1.3643    0.0000 C   0  0  0  0  0  0  0  0  0
    8.7807    0.9518    0.0000 C   0  0  0  0  0  0  0  0  0
  1  2  1  0  0  0  0
  2  3  4  0  0  0  0
  2  7  4  0  0  0  0
  3  4  4  0  0  0  0
  4  5  4  0  0  0  0
  5  6  4  0  0  0  0
  5  8  1  0  0  0  0
  6  7  4  0  0  0  0
  8  9  2  0  0  0  0
  8 10  1  0  0  0  0
 10 11  1  0  0  0  0
 10 15  1  0  0  0  0
 11 12  1  0  0  0  0
 12 13  1  0  0  0  0
 13 14  1  0  0  0  0
 13 16  1  0  0  0  0
 14 15  1  0  0  0  0
 16 17  1  0  0  0  0
 17 18  1  0  0  0  0
 18 19  1  0  0  0  0
 18 24  2  0  0  0  0
 19 20  2  0  0  0  0
 19 21  1  0  0  0  0
 21 22  1  0  0  0  0
 21 29  1  0  0  0  0
 22 23  2  0  0  0  0
 22 26  1  0  0  0  0
 23 24  1  0  0  0  0
 24 25  1  0  0  0  0
 26 27  2  0  0  0  0
 27 28  1  0  0  0  0
 28 29  2  0  0  0  0
M  END
>  <Name_Molregno>
PIRENPERONE

>  <5-HT1A>
6.25

>  <5-HT2A>
8.97

>  <5-HT2C>
7.2

>  <5-HT7>
8.19

$$$$
Piribedil
  Marvin  02231216192D 0   1.00000     0.00000     0

 22 25  0  0  0  0  0  0  0  0999 V2000
   -6.9931    0.7446    0.0000 O   0  0  0  0  0  0  0  0  0
   -6.2084    0.4897    0.0000 C   0  0  0  0  0  0  0  0  0
   -5.4940    0.9022    0.0000 C   0  0  0  0  0  0  0  0  0
   -4.7795    0.4897    0.0000 C   0  0  0  0  0  0  0  0  0
   -4.7795   -0.3353    0.0000 C   0  0  0  0  0  0  0  0  0
   -5.4940   -0.7478    0.0000 C   0  0  0  0  0  0  0  0  0
   -6.2084   -0.3353    0.0000 C   0  0  0  0  0  0  0  0  0
   -6.9931   -0.5902    0.0000 O   0  0  0  0  0  0  0  0  0
   -7.4780    0.0772    0.0000 C   0  0  0  0  0  0  0  0  0
   -4.0650    0.9022    0.0000 C   0  0  0  0  0  0  0  0  0
   -3.3506    0.4897    0.0000 N   0  0  0  0  0  0  0  0  0
   -2.6361    0.9022    0.0000 C   0  0  0  0  0  0  0  0  0
   -1.9216    0.4897    0.0000 C   0  0  0  0  0  0  0  0  0
   -1.9216   -0.3353    0.0000 N   0  0  0  0  0  0  0  0  0
   -2.6361   -0.7478    0.0000 C   0  0  0  0  0  0  0  0  0
   -3.3506   -0.3353    0.0000 C   0  0  0  0  0  0  0  0  0
   -1.2071   -0.7478    0.0000 C   0  0  0  0  0  0  0  0  0
   -0.4927   -0.3353    0.0000 N   0  0  0  0  0  0  0  0  0
    0.2218   -0.7478    0.0000 C   0  0  0  0  0  0  0  0  0
    0.2218   -1.5728    0.0000 C   0  0  0  0  0  0  0  0  0
   -0.4927   -1.9853    0.0000 C   0  0  0  0  0  0  0  0  0
   -1.2071   -1.5728    0.0000 N   0  0  0  0  0  0  0  0  0
  1  2  1  0  0  0  0
  1  9  1  0  0  0  0
  2  3  4  0  0  0  0
  2  7  4  0  0  0  0
  3  4  4  0  0  0  0
  4  5  4  0  0  0  0
  4 10  1  0  0  0  0
  5  6  4  0  0  0  0
  6  7  4  0  0  0  0
  7  8  1  0  0  0  0
  8  9  1  0  0  0  0
 10 11  1  0  0  0  0
 11 12  1  0  0  0  0
 11 16  1  0  0  0  0
 12 13  1  0  0  0  0
 13 14  1  0  0  0  0
 14 15  1  0  0  0  0
 14 17  1  0  0  0  0
 15 16  1  0  0  0  0
 17 18  4  0  0  0  0
 17 22  4  0  0  0  0
 18 19  4  0  0  0  0
 19 20  4  0  0  0  0
 20 21  4  0  0  0  0
 21 22  4  0  0  0  0
M  END
>  <Name_Molregno>
Piribedil

>  <5-HT1A>
6.35

>  <5-HT1B>
5

>  <5-HT1D>
5

>  <5-HT2A>
5

>  <5-HT2C>
5

>  <Alpha-1A>
6.09

>  <Alpha-1B>
5.21

>  <Alpha-2A>
7.05

>  <Alpha-2B>
6.54

>  <Alpha-2C>
7.16

>  <Beta-1>
5

>  <Beta-2>
5

>  <DOPAMINE D1>
5

>  <DOPAMINE D2>
6.88

>  <DOPAMINE D3>
6.63

>  <DOPAMINE D4>
6.51

>  <DOPAMINE D5>
5

>  <Norepinephrine transporter>
5

$$$$
Piroxicam
  Marvin  02231216192D 0   1.00000     0.00000     0

 23 25  0  0  0  0  0  0  0  0999 V2000
    2.3267    1.3854    0.0000 S   0  0  0  0  0  0  0  0  0
    1.7964    2.0174    0.0000 O   0  0  0  0  0  0  0  0  0
    2.8570    2.0174    0.0000 O   0  0  0  0  0  0  0  0  0
    1.6123    0.9729    0.0000 N   0  0  0  0  0  0  0  0  0
    0.8978    1.3854    0.0000 C   0  0  0  0  0  0  0  0  0
    1.6123    0.1479    0.0000 C   0  0  0  0  0  0  0  0  0
    0.8978   -0.2646    0.0000 C   0  0  0  0  0  0  0  0  0
    0.1833    0.1479    0.0000 O   0  0  0  0  0  0  0  0  0
    0.8978   -1.0896    0.0000 N   0  0  0  0  0  0  0  0  0
    0.1833   -1.5021    0.0000 C   0  0  0  0  0  0  0  0  0
    0.1833   -2.3271    0.0000 N   0  0  0  0  0  0  0  0  0
   -0.5311   -2.7396    0.0000 C   0  0  0  0  0  0  0  0  0
   -1.2456   -2.3271    0.0000 C   0  0  0  0  0  0  0  0  0
   -1.2456   -1.5021    0.0000 C   0  0  0  0  0  0  0  0  0
   -0.5311   -1.0896    0.0000 C   0  0  0  0  0  0  0  0  0
    2.3267   -0.2646    0.0000 C   0  0  0  0  0  0  0  0  0
    2.3267   -1.0896    0.0000 O   0  0  0  0  0  0  0  0  0
    3.0412    0.1479    0.0000 C   0  0  0  0  0  0  0  0  0
    3.0412    0.9729    0.0000 C   0  0  0  0  0  0  0  0  0
    3.7557    1.3854    0.0000 C   0  0  0  0  0  0  0  0  0
    4.4702    0.9729    0.0000 C   0  0  0  0  0  0  0  0  0
    4.4702    0.1479    0.0000 C   0  0  0  0  0  0  0  0  0
    3.7557   -0.2646    0.0000 C   0  0  0  0  0  0  0  0  0
  1  2  2  0  0  0  0
  1  3  2  0  0  0  0
  1  4  1  0  0  0  0
  1 19  1  0  0  0  0
  4  5  1  0  0  0  0
  4  6  1  0  0  0  0
  6  7  2  0  0  0  0
  6 16  1  0  0  0  0
  7  8  1  0  0  0  0
  7  9  1  0  0  0  0
  9 10  1  0  0  0  0
 10 11  4  0  0  0  0
 10 15  4  0  0  0  0
 11 12  4  0  0  0  0
 12 13  4  0  0  0  0
 13 14  4  0  0  0  0
 14 15  4  0  0  0  0
 16 17  2  0  0  0  0
 16 18  1  0  0  0  0
 18 19  4  0  0  0  0
 18 23  4  0  0  0  0
 19 20  4  0  0  0  0
 20 21  4  0  0  0  0
 21 22  4  0  0  0  0
 22 23  4  0  0  0  0
M  END
>  <Name_Molregno>
Piroxicam

>  <5-HT1A>
5

>  <5-HT1B>
5

>  <5-HT1D>
5

>  <5-HT1E>
5

>  <5-HT2A>
5

>  <5-HT3>
5

>  <5-HT5>
5

>  <5-HT6>
5

>  <Alpha-1A>
5

>  <Alpha-1B>
5

>  <Alpha-2A>
5

>  <Alpha-2B>
5

>  <Alpha-2C>
5

>  <DOPAMINE D1>
5

>  <DOPAMINE D2>
5

>  <DOPAMINE D4>
5

>  <DOPAMINE D5>
5

>  <Dopamine transporter>
5

>  <HISTAMINE H1>
5

>  <HISTAMINE H2>
5

>  <Muscarinic acetylcholine receptor M2>
5

>  <Muscarinic acetylcholine receptor M5>
5

>  <Norepinephrine transporter>
5

>  <Serotonin transporter>
5

$$$$
PIZOTIFEN
  Marvin  02231216192D 0   1.00000     0.00000     0

 21 24  0  0  0  0  0  0  0  0999 V2000
    2.6977    3.4379    0.0000 S   0  0  0  0  0  0  0  0  0
    1.8753    3.3732    0.0000 C   0  0  0  0  0  0  0  0  0
    1.6827    2.5709    0.0000 C   0  0  0  0  0  0  0  0  0
    2.3861    2.1399    0.0000 C   0  0  0  0  0  0  0  0  0
    3.0135    2.6757    0.0000 C   0  0  0  0  0  0  0  0  0
    0.9354    2.2213    0.0000 C   0  0  0  0  0  0  0  0  0
    0.1962    2.5876    0.0000 C   0  0  0  0  0  0  0  0  0
    0.0216    3.3939    0.0000 C   0  0  0  0  0  0  0  0  0
    0.5432    4.0331    0.0000 C   0  0  0  0  0  0  0  0  0
    1.3681    4.0239    0.0000 C   0  0  0  0  0  0  0  0  0
   -0.7640    3.6458    0.0000 C   0  0  0  0  0  0  0  0  0
   -1.3750    3.0915    0.0000 C   0  0  0  0  0  0  0  0  0
   -1.2004    2.2852    0.0000 C   0  0  0  0  0  0  0  0  0
   -0.4148    2.0332    0.0000 C   0  0  0  0  0  0  0  0  0
    0.9262    1.3964    0.0000 C   0  0  0  0  0  0  0  0  0
    1.6360    0.9759    0.0000 C   0  0  0  0  0  0  0  0  0
    1.6268    0.1510    0.0000 C   0  0  0  0  0  0  0  0  0
    0.9078   -0.2535    0.0000 N   0  0  0  0  0  0  0  0  0
    0.1980    0.1669    0.0000 C   0  0  0  0  0  0  0  0  0
    0.2072    0.9919    0.0000 C   0  0  0  0  0  0  0  0  0
    0.8986   -1.0785    0.0000 C   0  0  0  0  0  0  0  0  0
  1  2  4  0  0  0  0
  1  5  4  0  0  0  0
  2  3  4  0  0  0  0
  2 10  1  0  0  0  0
  3  4  4  0  0  0  0
  3  6  1  0  0  0  0
  4  5  4  0  0  0  0
  6  7  1  0  0  0  0
  6 15  2  0  0  0  0
  7  8  4  0  0  0  0
  7 14  4  0  0  0  0
  8  9  1  0  0  0  0
  8 11  4  0  0  0  0
  9 10  1  0  0  0  0
 11 12  4  0  0  0  0
 12 13  4  0  0  0  0
 13 14  4  0  0  0  0
 15 16  1  0  0  0  0
 15 20  1  0  0  0  0
 16 17  1  0  0  0  0
 17 18  1  0  0  0  0
 18 19  1  0  0  0  0
 18 21  1  0  0  0  0
 19 20  1  0  0  0  0
M  END
>  <Name_Molregno>
PIZOTIFEN

>  <5-HT1A>
6.7

$$$$
PRAZOSIN
  Marvin  02231216192D 0   1.00000     0.00000     0

 28 31  0  0  0  0  0  0  0  0999 V2000
    1.9686   -3.1357    0.0000 O   0  0  0  0  0  0  0  0  0
    1.7137   -3.9204    0.0000 C   0  0  0  0  0  0  0  0  0
    0.8887   -3.9204    0.0000 C   0  0  0  0  0  0  0  0  0
    0.6338   -3.1357    0.0000 C   0  0  0  0  0  0  0  0  0
    1.3012   -2.6508    0.0000 C   0  0  0  0  0  0  0  0  0
    1.3012   -1.8258    0.0000 C   0  0  0  0  0  0  0  0  0
    0.5867   -1.4133    0.0000 O   0  0  0  0  0  0  0  0  0
    2.0157   -1.4133    0.0000 N   0  0  0  0  0  0  0  0  0
    2.0157   -0.5883    0.0000 C   0  0  0  0  0  0  0  0  0
    2.7302   -0.1758    0.0000 C   0  0  0  0  0  0  0  0  0
    3.4446   -0.5883    0.0000 N   0  0  0  0  0  0  0  0  0
    3.4446   -1.4133    0.0000 C   0  0  0  0  0  0  0  0  0
    2.7302   -1.8258    0.0000 C   0  0  0  0  0  0  0  0  0
    4.1591   -0.1758    0.0000 C   0  0  0  0  0  0  0  0  0
    4.1591    0.6492    0.0000 N   0  0  0  0  0  0  0  0  0
    4.8736    1.0617    0.0000 C   0  0  0  0  0  0  0  0  0
    4.8736    1.8867    0.0000 N   0  0  0  0  0  0  0  0  0
    5.5880    0.6492    0.0000 C   0  0  0  0  0  0  0  0  0
    6.3025    1.0617    0.0000 C   0  0  0  0  0  0  0  0  0
    7.0170    0.6492    0.0000 C   0  0  0  0  0  0  0  0  0
    7.7314    1.0617    0.0000 O   0  0  0  0  0  0  0  0  0
    7.7314    1.8867    0.0000 C   0  0  0  0  0  0  0  0  0
    7.0170   -0.1758    0.0000 C   0  0  0  0  0  0  0  0  0
    7.7314   -0.5883    0.0000 O   0  0  0  0  0  0  0  0  0
    7.7314   -1.4133    0.0000 C   0  0  0  0  0  0  0  0  0
    6.3025   -0.5883    0.0000 C   0  0  0  0  0  0  0  0  0
    5.5880   -0.1758    0.0000 C   0  0  0  0  0  0  0  0  0
    4.8736   -0.5883    0.0000 N   0  0  0  0  0  0  0  0  0
  1  2  4  0  0  0  0
  1  5  4  0  0  0  0
  2  3  4  0  0  0  0
  3  4  4  0  0  0  0
  4  5  4  0  0  0  0
  5  6  1  0  0  0  0
  6  7  2  0  0  0  0
  6  8  1  0  0  0  0
  8  9  1  0  0  0  0
  8 13  1  0  0  0  0
  9 10  1  0  0  0  0
 10 11  1  0  0  0  0
 11 12  1  0  0  0  0
 11 14  1  0  0  0  0
 12 13  1  0  0  0  0
 14 15  4  0  0  0  0
 14 28  4  0  0  0  0
 15 16  4  0  0  0  0
 16 17  1  0  0  0  0
 16 18  4  0  0  0  0
 18 19  4  0  0  0  0
 18 27  4  0  0  0  0
 19 20  4  0  0  0  0
 20 21  1  0  0  0  0
 20 23  4  0  0  0  0
 21 22  1  0  0  0  0
 23 24  1  0  0  0  0
 23 26  4  0  0  0  0
 24 25  1  0  0  0  0
 26 27  4  0  0  0  0
 27 28  4  0  0  0  0
M  END
>  <Name_Molregno>
PRAZOSIN

>  <5-HT1A>
5

>  <5-HT2A>
6.92

>  <5-HT3>
5

>  <5-HT7>
5

>  <Alpha-1A>
9.14

>  <Alpha-1B>
9.33

>  <Alpha-2A>
5.84

>  <Alpha-2B>
7.11

>  <Alpha-2C>
7.52

$$$$
PROCHLORPERAZINE
  Marvin  02231216192D 0   1.00000     0.00000     0

 25 28  0  0  0  0  0  0  0  0999 V2000
   -5.2156   -0.6691    0.0000 Cl  0  0  0  0  0  0  0  0  0
   -4.5011   -0.2566    0.0000 C   0  0  0  0  0  0  0  0  0
   -3.7866   -0.6691    0.0000 C   0  0  0  0  0  0  0  0  0
   -3.0722   -0.2566    0.0000 C   0  0  0  0  0  0  0  0  0
   -2.3577   -0.6691    0.0000 N   0  0  0  0  0  0  0  0  0
   -1.6432   -0.2566    0.0000 C   0  0  0  0  0  0  0  0  0
   -1.6432    0.5684    0.0000 C   0  0  0  0  0  0  0  0  0
   -2.3577    0.9809    0.0000 S   0  0  0  0  0  0  0  0  0
   -3.0722    0.5684    0.0000 C   0  0  0  0  0  0  0  0  0
   -3.7866    0.9809    0.0000 C   0  0  0  0  0  0  0  0  0
   -4.5011    0.5684    0.0000 C   0  0  0  0  0  0  0  0  0
   -0.9287    0.9809    0.0000 C   0  0  0  0  0  0  0  0  0
   -0.2143    0.5684    0.0000 C   0  0  0  0  0  0  0  0  0
   -0.2143   -0.2566    0.0000 C   0  0  0  0  0  0  0  0  0
   -0.9287   -0.6691    0.0000 C   0  0  0  0  0  0  0  0  0
   -2.3577   -1.4941    0.0000 C   0  0  0  0  0  0  0  0  0
   -3.0722   -1.9066    0.0000 C   0  0  0  0  0  0  0  0  0
   -3.0722   -2.7316    0.0000 C   0  0  0  0  0  0  0  0  0
   -3.7866   -3.1441    0.0000 N   0  0  0  0  0  0  0  0  0
   -3.7866   -3.9691    0.0000 C   0  0  0  0  0  0  0  0  0
   -4.5011   -4.3816    0.0000 C   0  0  0  0  0  0  0  0  0
   -5.2156   -3.9691    0.0000 N   0  0  0  0  0  0  0  0  0
   -5.2156   -3.1441    0.0000 C   0  0  0  0  0  0  0  0  0
   -4.5011   -2.7316    0.0000 C   0  0  0  0  0  0  0  0  0
   -5.9300   -4.3816    0.0000 C   0  0  0  0  0  0  0  0  0
  1  2  1  0  0  0  0
  2  3  4  0  0  0  0
  2 11  4  0  0  0  0
  3  4  4  0  0  0  0
  4  5  1  0  0  0  0
  4  9  4  0  0  0  0
  5  6  1  0  0  0  0
  5 16  1  0  0  0  0
  6  7  4  0  0  0  0
  6 15  4  0  0  0  0
  7  8  1  0  0  0  0
  7 12  4  0  0  0  0
  8  9  1  0  0  0  0
  9 10  4  0  0  0  0
 10 11  4  0  0  0  0
 12 13  4  0  0  0  0
 13 14  4  0  0  0  0
 14 15  4  0  0  0  0
 16 17  1  0  0  0  0
 17 18  1  0  0  0  0
 18 19  1  0  0  0  0
 19 20  1  0  0  0  0
 19 24  1  0  0  0  0
 20 21  1  0  0  0  0
 21 22  1  0  0  0  0
 22 23  1  0  0  0  0
 22 25  1  0  0  0  0
 23 24  1  0  0  0  0
M  END
>  <Name_Molregno>
PROCHLORPERAZINE

>  <5-HT1A>
5.23

>  <5-HT2A>
7.82

>  <5-HT2C>
6.91

>  <DOPAMINE D2>
8.76

>  <DOPAMINE D3>
8.61

>  <DOPAMINE D4>
7.3

>  <HISTAMINE H1>
7.72

$$$$
PROMAZINE
  Marvin  02231216192D 0   1.00000     0.00000     0

 20 22  0  0  0  0  0  0  0  0999 V2000
   -0.5198    0.6932    0.0000 S   0  0  0  0  0  0  0  0  0
    0.1947    0.2807    0.0000 C   0  0  0  0  0  0  0  0  0
    0.9091    0.6932    0.0000 C   0  0  0  0  0  0  0  0  0
    0.9091    1.5182    0.0000 N   0  0  0  0  0  0  0  0  0
    0.1947    1.9307    0.0000 C   0  0  0  0  0  0  0  0  0
   -0.5198    1.5182    0.0000 C   0  0  0  0  0  0  0  0  0
   -1.2343    1.9307    0.0000 C   0  0  0  0  0  0  0  0  0
   -1.2343    2.7557    0.0000 C   0  0  0  0  0  0  0  0  0
   -0.5198    3.1682    0.0000 C   0  0  0  0  0  0  0  0  0
    0.1947    2.7557    0.0000 C   0  0  0  0  0  0  0  0  0
    1.6236    1.9307    0.0000 C   0  0  0  0  0  0  0  0  0
    2.3381    1.5182    0.0000 C   0  0  0  0  0  0  0  0  0
    3.0525    1.9307    0.0000 C   0  0  0  0  0  0  0  0  0
    3.7670    1.5182    0.0000 N   0  0  0  0  0  0  0  0  0
    4.4815    1.9307    0.0000 C   0  0  0  0  0  0  0  0  0
    3.7670    0.6932    0.0000 C   0  0  0  0  0  0  0  0  0
    1.6236    0.2807    0.0000 C   0  0  0  0  0  0  0  0  0
    1.6236   -0.5443    0.0000 C   0  0  0  0  0  0  0  0  0
    0.9091   -0.9568    0.0000 C   0  0  0  0  0  0  0  0  0
    0.1947   -0.5443    0.0000 C   0  0  0  0  0  0  0  0  0
  1  2  1  0  0  0  0
  1  6  1  0  0  0  0
  2  3  4  0  0  0  0
  2 20  4  0  0  0  0
  3  4  1  0  0  0  0
  3 17  4  0  0  0  0
  4  5  1  0  0  0  0
  4 11  1  0  0  0  0
  5  6  4  0  0  0  0
  5 10  4  0  0  0  0
  6  7  4  0  0  0  0
  7  8  4  0  0  0  0
  8  9  4  0  0  0  0
  9 10  4  0  0  0  0
 11 12  1  0  0  0  0
 12 13  1  0  0  0  0
 13 14  1  0  0  0  0
 14 15  1  0  0  0  0
 14 16  1  0  0  0  0
 17 18  4  0  0  0  0
 18 19  4  0  0  0  0
 19 20  4  0  0  0  0
M  END
>  <Name_Molregno>
PROMAZINE

>  <5-HT1A>
5

>  <5-HT2A>
7.8

>  <DOPAMINE D2>
6.7

>  <DOPAMINE D3>
6.8

>  <HISTAMINE H1>
8.7

$$$$
Propanolol
  Marvin  02231216192D 0   1.00000     0.00000     0

 19 20  0  0  1  0  0  0  0  0999 V2000
   -0.0029    0.3857    0.0000 O   0  0  0  0  0  0  0  0  0
    0.7115   -0.0268    0.0000 C   0  0  0  0  0  0  0  0  0
    1.4260    0.3857    0.0000 C   0  0  0  0  0  0  0  0  0
    1.4260    1.2107    0.0000 O   0  0  0  0  0  0  0  0  0
    2.1405   -0.0268    0.0000 C   0  0  0  0  0  0  0  0  0
    2.8550    0.3857    0.0000 N   0  0  0  0  0  0  0  0  0
    3.5694   -0.0268    0.0000 C   0  0  0  0  0  0  0  0  0
    4.2839    0.3857    0.0000 C   0  0  0  0  0  0  0  0  0
    3.5694   -0.8518    0.0000 C   0  0  0  0  0  0  0  0  0
   -0.7174   -0.0268    0.0000 C   0  0  0  0  0  0  0  0  0
   -1.4319    0.3857    0.0000 C   0  0  0  0  0  0  0  0  0
   -2.1463   -0.0268    0.0000 C   0  0  0  0  0  0  0  0  0
   -2.1463   -0.8518    0.0000 C   0  0  0  0  0  0  0  0  0
   -1.4319   -1.2643    0.0000 C   0  0  0  0  0  0  0  0  0
   -0.7174   -0.8518    0.0000 C   0  0  0  0  0  0  0  0  0
   -2.8608    0.3857    0.0000 C   0  0  0  0  0  0  0  0  0
   -2.8608    1.2107    0.0000 C   0  0  0  0  0  0  0  0  0
   -2.1463    1.6232    0.0000 C   0  0  0  0  0  0  0  0  0
   -1.4319    1.2107    0.0000 C   0  0  0  0  0  0  0  0  0
  1  2  1  0  0  0  0
  1 10  1  0  0  0  0
  2  3  1  0  0  0  0
  3  4  1  0  0  0  0
  3  5  1  0  0  0  0
  5  6  1  0  0  0  0
  6  7  1  0  0  0  0
  7  8  1  0  0  0  0
  7  9  1  0  0  0  0
 10 11  4  0  0  0  0
 10 15  4  0  0  0  0
 11 12  4  0  0  0  0
 11 19  4  0  0  0  0
 12 13  4  0  0  0  0
 12 16  4  0  0  0  0
 13 14  4  0  0  0  0
 14 15  4  0  0  0  0
 16 17  4  0  0  0  0
 17 18  4  0  0  0  0
 18 19  4  0  0  0  0
M  END
>  <Name_Molregno>
Propanolol

>  <5-HT1A>
6.57

>  <5-HT1B>
5.87

>  <5-HT1D>
5.35

>  <5-HT2A>
5.3

>  <5-HT3>
5

>  <Beta-1>
9.34

>  <Beta-2>
9.68

>  <DOPAMINE D1>
5

>  <DOPAMINE D2>
5

>  <HISTAMINE H1>
5

$$$$
Prucalopride
  Marvin  02231216192D 0   1.00000     0.00000     0

 25 27  0  0  0  0  0  0  0  0999 V2000
   -0.3739   -1.3965    0.0000 Cl  0  0  0  0  0  0  0  0  0
    0.3406   -1.8090    0.0000 C   0  0  0  0  0  0  0  0  0
    1.0551   -1.3965    0.0000 C   0  0  0  0  0  0  0  0  0
    1.7696   -1.8090    0.0000 C   0  0  0  0  0  0  0  0  0
    1.7696   -2.6340    0.0000 C   0  0  0  0  0  0  0  0  0
    2.3827   -3.1861    0.0000 O   0  0  0  0  0  0  0  0  0
    2.0471   -3.9397    0.0000 C   0  0  0  0  0  0  0  0  0
    1.2266   -3.8535    0.0000 C   0  0  0  0  0  0  0  0  0
    1.0551   -3.0465    0.0000 C   0  0  0  0  0  0  0  0  0
    0.3406   -2.6340    0.0000 C   0  0  0  0  0  0  0  0  0
   -0.3739   -3.0465    0.0000 N   0  0  0  0  0  0  0  0  0
    2.4840   -1.3965    0.0000 C   0  0  0  0  0  0  0  0  0
    3.1985   -1.8090    0.0000 O   0  0  0  0  0  0  0  0  0
    2.4840   -0.5715    0.0000 N   0  0  0  0  0  0  0  0  0
    3.1985   -0.1590    0.0000 C   0  0  0  0  0  0  0  0  0
    3.1985    0.6660    0.0000 C   0  0  0  0  0  0  0  0  0
    3.9130    1.0785    0.0000 C   0  0  0  0  0  0  0  0  0
    4.6274    0.6660    0.0000 N   0  0  0  0  0  0  0  0  0
    4.6274   -0.1590    0.0000 C   0  0  0  0  0  0  0  0  0
    3.9130   -0.5715    0.0000 C   0  0  0  0  0  0  0  0  0
    5.3419    1.0785    0.0000 C   0  0  0  0  0  0  0  0  0
    6.0564    0.6660    0.0000 C   0  0  0  0  0  0  0  0  0
    6.7709    1.0785    0.0000 C   0  0  0  0  0  0  0  0  0
    7.4853    0.6660    0.0000 O   0  0  0  0  0  0  0  0  0
    8.1998    1.0785    0.0000 C   0  0  0  0  0  0  0  0  0
  1  2  1  0  0  0  0
  2  3  4  0  0  0  0
  2 10  4  0  0  0  0
  3  4  4  0  0  0  0
  4  5  4  0  0  0  0
  4 12  1  0  0  0  0
  5  6  1  0  0  0  0
  5  9  4  0  0  0  0
  6  7  1  0  0  0  0
  7  8  1  0  0  0  0
  8  9  1  0  0  0  0
  9 10  4  0  0  0  0
 10 11  1  0  0  0  0
 12 13  2  0  0  0  0
 12 14  1  0  0  0  0
 14 15  1  0  0  0  0
 15 16  1  0  0  0  0
 15 20  1  0  0  0  0
 16 17  1  0  0  0  0
 17 18  1  0  0  0  0
 18 19  1  0  0  0  0
 18 21  1  0  0  0  0
 19 20  1  0  0  0  0
 21 22  1  0  0  0  0
 22 23  1  0  0  0  0
 23 24  1  0  0  0  0
 24 25  1  0  0  0  0
M  END
>  <Name_Molregno>
Prucalopride

>  <5-HT1A>
5

>  <5-HT1B>
5

>  <5-HT1D>
5

>  <5-HT1E>
5

>  <5-HT2A>
5

>  <5-HT2C>
5

>  <5-HT5>
5

>  <5-HT6>
5

>  <5-HT7>
5

>  <Alpha-2A>
5

>  <Alpha-2B>
5

>  <Alpha-2C>
5

>  <Beta-1>
5

>  <Beta-2>
5

>  <DOPAMINE D2>
5

>  <DOPAMINE D3>
5

>  <DOPAMINE D4>
5.63

>  <HISTAMINE H1>
5

>  <Serotonin transporter>
5

$$$$
PSILOCIN
  Marvin  02231216192D 0   1.00000     0.00000     0

 15 16  0  0  0  0  0  0  0  0999 V2000
    1.2794   -2.2041    0.0000 O   0  0  0  0  0  0  0  0  0
    1.2794   -1.3791    0.0000 C   0  0  0  0  0  0  0  0  0
    0.5650   -0.9666    0.0000 C   0  0  0  0  0  0  0  0  0
    0.5650   -0.1416    0.0000 C   0  0  0  0  0  0  0  0  0
   -0.2197    0.1134    0.0000 N   0  0  0  0  0  0  0  0  0
   -0.7046   -0.5541    0.0000 C   0  0  0  0  0  0  0  0  0
   -0.2197   -1.2215    0.0000 C   0  0  0  0  0  0  0  0  0
   -0.4746   -2.0061    0.0000 C   0  0  0  0  0  0  0  0  0
   -1.2816   -2.1777    0.0000 C   0  0  0  0  0  0  0  0  0
   -1.5365   -2.9623    0.0000 N   0  0  0  0  0  0  0  0  0
   -2.3435   -3.1338    0.0000 C   0  0  0  0  0  0  0  0  0
   -0.9845   -3.5754    0.0000 C   0  0  0  0  0  0  0  0  0
    1.2794    0.2709    0.0000 C   0  0  0  0  0  0  0  0  0
    1.9939   -0.1416    0.0000 C   0  0  0  0  0  0  0  0  0
    1.9939   -0.9666    0.0000 C   0  0  0  0  0  0  0  0  0
  1  2  1  0  0  0  0
  2  3  4  0  0  0  0
  2 15  4  0  0  0  0
  3  4  4  0  0  0  0
  3  7  4  0  0  0  0
  4  5  4  0  0  0  0
  4 13  4  0  0  0  0
  5  6  4  0  0  0  0
  6  7  4  0  0  0  0
  7  8  1  0  0  0  0
  8  9  1  0  0  0  0
  9 10  1  0  0  0  0
 10 11  1  0  0  0  0
 10 12  1  0  0  0  0
 13 14  4  0  0  0  0
 14 15  4  0  0  0  0
M  STY  1   1 DAT
M  SAL   1  1   5
M  SDT   1 MRV_IMPLICIT_H                                        
M  SDD   1     0.0000    0.0000    DR    ALL  0       0  
M  SED   1 IMPL_H1
M  END
>  <Name_Molregno>
PSILOCIN

>  <5-HT1A>
6.78

>  <5-HT1B>
6.66

>  <5-HT1D>
7.44

>  <5-HT1E>
7.28

>  <5-HT2A>
6.97

>  <5-HT3>
5

>  <5-HT5>
7.08

>  <5-HT6>
7.24

>  <5-HT7>
8.46

>  <Alpha-1A>
5

>  <Alpha-1B>
5

>  <Alpha-2A>
5.86

>  <Alpha-2B>
5.72

>  <Alpha-2C>
5

>  <Beta-1>
5

>  <DOPAMINE D1>
5

>  <DOPAMINE D2>
5

>  <DOPAMINE D4>
5

>  <DOPAMINE D5>
5

>  <Dopamine transporter>
5

>  <HISTAMINE H1>
6.52

>  <HISTAMINE H2>
5

>  <HISTAMINE H4>
5

>  <Muscarinic acetylcholine receptor M2>
5

>  <Muscarinic acetylcholine receptor M5>
5

>  <Norepinephrine transporter>
5

>  <Serotonin transporter>
5.42

$$$$
PSILOCYBIN
  Marvin  02231216192D 0   1.00000     0.00000     0

 19 20  0  0  0  0  0  0  0  0999 V2000
    0.6946   -2.4480    0.0000 P   0  0  0  0  0  0  0  0  0
   -0.0199   -2.0355    0.0000 O   0  0  0  0  0  0  0  0  0
   -0.0199   -1.2105    0.0000 C   0  0  0  0  0  0  0  0  0
   -0.7343   -0.7980    0.0000 C   0  0  0  0  0  0  0  0  0
   -0.7343    0.0270    0.0000 C   0  0  0  0  0  0  0  0  0
   -1.5190    0.2819    0.0000 N   0  0  0  0  0  0  0  0  0
   -2.0039   -0.3855    0.0000 C   0  0  0  0  0  0  0  0  0
   -1.5190   -1.0530    0.0000 C   0  0  0  0  0  0  0  0  0
   -1.7739   -1.8376    0.0000 C   0  0  0  0  0  0  0  0  0
   -2.5809   -2.0091    0.0000 C   0  0  0  0  0  0  0  0  0
   -2.8358   -2.7937    0.0000 N   0  0  0  0  0  0  0  0  0
   -3.6428   -2.9653    0.0000 C   0  0  0  0  0  0  0  0  0
   -2.2838   -3.4068    0.0000 C   0  0  0  0  0  0  0  0  0
   -0.0199    0.4395    0.0000 C   0  0  0  0  0  0  0  0  0
    0.6946    0.0270    0.0000 C   0  0  0  0  0  0  0  0  0
    0.6946   -0.7980    0.0000 C   0  0  0  0  0  0  0  0  0
    1.4091   -2.8605    0.0000 O   0  0  0  0  0  0  0  0  0
    0.2821   -3.1625    0.0000 O   0  0  0  0  0  0  0  0  0
    1.1071   -1.7336    0.0000 O   0  0  0  0  0  0  0  0  0
  1  2  1  0  0  0  0
  1 17  2  0  0  0  0
  1 18  1  0  0  0  0
  1 19  1  0  0  0  0
  2  3  1  0  0  0  0
  3  4  4  0  0  0  0
  3 16  4  0  0  0  0
  4  5  4  0  0  0  0
  4  8  4  0  0  0  0
  5  6  4  0  0  0  0
  5 14  4  0  0  0  0
  6  7  4  0  0  0  0
  7  8  4  0  0  0  0
  8  9  1  0  0  0  0
  9 10  1  0  0  0  0
 10 11  1  0  0  0  0
 11 12  1  0  0  0  0
 11 13  1  0  0  0  0
 14 15  4  0  0  0  0
 15 16  4  0  0  0  0
M  STY  1   1 DAT
M  SAL   1  1   6
M  SDT   1 MRV_IMPLICIT_H                                        
M  SDD   1     0.0000    0.0000    DR    ALL  0       0  
M  SED   1 IMPL_H1
M  END
>  <Name_Molregno>
PSILOCYBIN

>  <5-HT1A>
5

>  <5-HT1B>
5

>  <5-HT1D>
5.67

>  <5-HT1E>
6.71

>  <5-HT2A>
5

>  <5-HT3>
5

>  <5-HT5>
5.21

>  <5-HT6>
6.38

>  <5-HT7>
6.22

>  <Alpha-1A>
5

>  <Alpha-1B>
5

>  <Alpha-2A>
5

>  <Alpha-2B>
5

>  <Alpha-2C>
5

>  <DOPAMINE D1>
5

>  <DOPAMINE D2>
5

>  <DOPAMINE D4>
5

>  <DOPAMINE D5>
5

>  <Dopamine transporter>
5

>  <HISTAMINE H1>
5

>  <HISTAMINE H2>
5

>  <HISTAMINE H4>
5

>  <Muscarinic acetylcholine receptor M2>
5

>  <Muscarinic acetylcholine receptor M5>
5

>  <Norepinephrine transporter>
5

>  <Serotonin transporter>
5

$$$$
Quercetin
  Marvin  02231216192D 0   1.00000     0.00000     0

 22 24  0  0  0  0  0  0  0  0999 V2000
    0.2617    0.1403    0.0000 O   0  0  0  0  0  0  0  0  0
    0.9762    0.5528    0.0000 C   0  0  0  0  0  0  0  0  0
    0.9762    1.3778    0.0000 C   0  0  0  0  0  0  0  0  0
    0.2617    1.7903    0.0000 C   0  0  0  0  0  0  0  0  0
    0.2617    2.6153    0.0000 O   0  0  0  0  0  0  0  0  0
   -0.4528    1.3778    0.0000 C   0  0  0  0  0  0  0  0  0
   -1.1672    1.7903    0.0000 O   0  0  0  0  0  0  0  0  0
   -0.4528    0.5528    0.0000 C   0  0  0  0  0  0  0  0  0
   -1.1672    0.1403    0.0000 C   0  0  0  0  0  0  0  0  0
   -1.1672   -0.6847    0.0000 C   0  0  0  0  0  0  0  0  0
   -1.8817   -1.0972    0.0000 C   0  0  0  0  0  0  0  0  0
   -1.8817   -1.9222    0.0000 O   0  0  0  0  0  0  0  0  0
   -2.5962   -0.6847    0.0000 C   0  0  0  0  0  0  0  0  0
   -3.3106   -1.0972    0.0000 O   0  0  0  0  0  0  0  0  0
   -2.5962    0.1403    0.0000 C   0  0  0  0  0  0  0  0  0
   -1.8817    0.5528    0.0000 C   0  0  0  0  0  0  0  0  0
    1.6907    1.7903    0.0000 C   0  0  0  0  0  0  0  0  0
    1.6907    2.6153    0.0000 O   0  0  0  0  0  0  0  0  0
    2.4051    1.3778    0.0000 C   0  0  0  0  0  0  0  0  0
    2.4051    0.5528    0.0000 C   0  0  0  0  0  0  0  0  0
    3.1196    0.1403    0.0000 O   0  0  0  0  0  0  0  0  0
    1.6907    0.1403    0.0000 C   0  0  0  0  0  0  0  0  0
  1  2  1  0  0  0  0
  1  8  1  0  0  0  0
  2  3  4  0  0  0  0
  2 22  4  0  0  0  0
  3  4  1  0  0  0  0
  3 17  4  0  0  0  0
  4  5  2  0  0  0  0
  4  6  1  0  0  0  0
  6  7  1  0  0  0  0
  6  8  2  0  0  0  0
  8  9  1  0  0  0  0
  9 10  4  0  0  0  0
  9 16  4  0  0  0  0
 10 11  4  0  0  0  0
 11 12  1  0  0  0  0
 11 13  4  0  0  0  0
 13 14  1  0  0  0  0
 13 15  4  0  0  0  0
 15 16  4  0  0  0  0
 17 18  1  0  0  0  0
 17 19  4  0  0  0  0
 19 20  4  0  0  0  0
 20 21  1  0  0  0  0
 20 22  4  0  0  0  0
M  END
>  <Name_Molregno>
Quercetin

>  <5-HT1A>
5

>  <5-HT1D>
5

>  <5-HT3>
5

>  <5-HT5>
5

>  <5-HT6>
5

>  <5-HT7>
5

>  <Alpha-1A>
5

>  <Alpha-1B>
5

>  <Alpha-2A>
5

>  <Alpha-2B>
5

>  <Alpha-2C>
5

>  <DOPAMINE D1>
5

>  <DOPAMINE D5>
5

>  <Muscarinic acetylcholine receptor M1>
5

>  <Muscarinic acetylcholine receptor M2>
5

>  <Muscarinic acetylcholine receptor M3>
5

>  <Muscarinic acetylcholine receptor M4>
5

>  <Muscarinic acetylcholine receptor M5>
5

>  <Norepinephrine transporter>
5

>  <Serotonin transporter>
5

$$$$
Quercitrin
  Marvin  02231216192D 0   1.00000     0.00000     0

 32 35  0  0  1  0  0  0  0  0999 V2000
    1.5011    1.5398    0.0000 O   0  0  0  0  0  0  0  0  0
    1.5011    2.3648    0.0000 C   0  0  0  0  0  0  0  0  0
    2.2156    2.7773    0.0000 C   0  0  0  0  0  0  0  0  0
    0.7866    2.7773    0.0000 C   0  0  0  0  0  0  0  0  0
    0.7866    3.6023    0.0000 O   0  0  0  0  0  0  0  0  0
    0.0722    2.3648    0.0000 C   0  0  0  0  0  0  0  0  0
   -0.6423    2.7773    0.0000 O   0  0  0  0  0  0  0  0  0
    0.0722    1.5398    0.0000 C   0  0  0  0  0  0  0  0  0
   -0.6423    1.1273    0.0000 O   0  0  0  0  0  0  0  0  0
    0.7866    1.1273    0.0000 C   0  0  0  0  0  0  0  0  0
    0.7866    0.3023    0.0000 O   0  0  0  0  0  0  0  0  0
    1.5011   -0.1102    0.0000 C   0  0  0  0  0  0  0  0  0
    1.5011   -0.9352    0.0000 C   0  0  0  0  0  0  0  0  0
    2.2156   -1.3477    0.0000 O   0  0  0  0  0  0  0  0  0
    2.9300   -0.9352    0.0000 C   0  0  0  0  0  0  0  0  0
    2.9300   -0.1102    0.0000 C   0  0  0  0  0  0  0  0  0
    2.2156    0.3023    0.0000 C   0  0  0  0  0  0  0  0  0
    2.2156    1.1273    0.0000 O   0  0  0  0  0  0  0  0  0
    3.6445    0.3023    0.0000 C   0  0  0  0  0  0  0  0  0
    3.6445    1.1273    0.0000 O   0  0  0  0  0  0  0  0  0
    4.3590   -0.1102    0.0000 C   0  0  0  0  0  0  0  0  0
    4.3590   -0.9352    0.0000 C   0  0  0  0  0  0  0  0  0
    5.0734   -1.3477    0.0000 O   0  0  0  0  0  0  0  0  0
    3.6445   -1.3477    0.0000 C   0  0  0  0  0  0  0  0  0
    0.7866   -1.3477    0.0000 C   0  0  0  0  0  0  0  0  0
    0.7866   -2.1727    0.0000 C   0  0  0  0  0  0  0  0  0
    0.0722   -2.5852    0.0000 C   0  0  0  0  0  0  0  0  0
    0.0722   -3.4102    0.0000 O   0  0  0  0  0  0  0  0  0
   -0.6423   -2.1727    0.0000 C   0  0  0  0  0  0  0  0  0
   -1.3568   -2.5852    0.0000 O   0  0  0  0  0  0  0  0  0
   -0.6423   -1.3477    0.0000 C   0  0  0  0  0  0  0  0  0
    0.0722   -0.9352    0.0000 C   0  0  0  0  0  0  0  0  0
  1  2  1  0  0  0  0
  1 10  1  0  0  0  0
  2  3  1  0  0  0  0
  2  4  1  0  0  0  0
  4  5  1  0  0  0  0
  4  6  1  0  0  0  0
  6  7  1  0  0  0  0
  6  8  1  0  0  0  0
  8  9  1  0  0  0  0
  8 10  1  0  0  0  0
 10 11  1  0  0  0  0
 11 12  1  0  0  0  0
 12 13  2  0  0  0  0
 12 17  1  0  0  0  0
 13 14  1  0  0  0  0
 13 25  1  0  0  0  0
 14 15  1  0  0  0  0
 15 16  1  0  0  0  0
 15 24  2  0  0  0  0
 16 17  2  0  0  0  0
 16 19  1  0  0  0  0
 17 18  1  0  0  0  0
 19 20  1  0  0  0  0
 19 21  2  0  0  0  0
 21 22  1  0  0  0  0
 22 23  2  0  0  0  0
 22 24  1  0  0  0  0
 25 26  4  0  0  0  0
 25 32  4  0  0  0  0
 26 27  4  0  0  0  0
 27 28  1  0  0  0  0
 27 29  4  0  0  0  0
 29 30  1  0  0  0  0
 29 31  4  0  0  0  0
 31 32  4  0  0  0  0
M  END
>  <Name_Molregno>
Quercitrin

>  <5-HT1A>
5

>  <5-HT1D>
5

>  <5-HT3>
5

>  <5-HT5>
5

>  <5-HT6>
5

>  <5-HT7>
5

>  <Alpha-1A>
5

>  <Alpha-1B>
5

>  <Alpha-2A>
5

>  <Alpha-2B>
5

>  <Alpha-2C>
5

>  <DOPAMINE D1>
5

>  <DOPAMINE D5>
5

>  <Muscarinic acetylcholine receptor M1>
5

>  <Muscarinic acetylcholine receptor M2>
5

>  <Muscarinic acetylcholine receptor M3>
5

>  <Muscarinic acetylcholine receptor M4>
5

>  <Muscarinic acetylcholine receptor M5>
5

>  <Norepinephrine transporter>
5

>  <Serotonin transporter>
5

$$$$
QUETIAPINE
  Marvin  02231216192D 0   1.00000     0.00000     0

 27 30  0  0  0  0  0  0  0  0999 V2000
    0.4015    1.2563    0.0000 S   0  0  0  0  0  0  0  0  0
    1.2173    1.3793    0.0000 C   0  0  0  0  0  0  0  0  0
    1.8221    0.8181    0.0000 C   0  0  0  0  0  0  0  0  0
    2.6104    1.0613    0.0000 C   0  0  0  0  0  0  0  0  0
    2.7940    1.8656    0.0000 C   0  0  0  0  0  0  0  0  0
    2.1892    2.4268    0.0000 C   0  0  0  0  0  0  0  0  0
    1.4009    2.1836    0.0000 C   0  0  0  0  0  0  0  0  0
    1.7604   -0.0046    0.0000 C   0  0  0  0  0  0  0  0  0
    1.0788   -0.4693    0.0000 N   0  0  0  0  0  0  0  0  0
    0.2904   -0.2261    0.0000 C   0  0  0  0  0  0  0  0  0
   -0.0110    0.5418    0.0000 C   0  0  0  0  0  0  0  0  0
   -0.8268    0.6648    0.0000 C   0  0  0  0  0  0  0  0  0
   -1.3412    0.0198    0.0000 C   0  0  0  0  0  0  0  0  0
   -1.0398   -0.7482    0.0000 C   0  0  0  0  0  0  0  0  0
   -0.2240   -0.8711    0.0000 C   0  0  0  0  0  0  0  0  0
    2.4749   -0.4171    0.0000 N   0  0  0  0  0  0  0  0  0
    3.1893   -0.0046    0.0000 C   0  0  0  0  0  0  0  0  0
    3.9038   -0.4171    0.0000 C   0  0  0  0  0  0  0  0  0
    3.9038   -1.2421    0.0000 N   0  0  0  0  0  0  0  0  0
    3.1893   -1.6546    0.0000 C   0  0  0  0  0  0  0  0  0
    2.4749   -1.2421    0.0000 C   0  0  0  0  0  0  0  0  0
    4.6183   -1.6546    0.0000 C   0  0  0  0  0  0  0  0  0
    5.3328   -1.2421    0.0000 C   0  0  0  0  0  0  0  0  0
    6.0472   -1.6546    0.0000 O   0  0  0  0  0  0  0  0  0
    6.7617   -1.2421    0.0000 C   0  0  0  0  0  0  0  0  0
    7.4762   -1.6546    0.0000 C   0  0  0  0  0  0  0  0  0
    8.1906   -1.2421    0.0000 O   0  0  0  0  0  0  0  0  0
  1  2  1  0  0  0  0
  1 11  1  0  0  0  0
  2  3  4  0  0  0  0
  2  7  4  0  0  0  0
  3  4  4  0  0  0  0
  3  8  1  0  0  0  0
  4  5  4  0  0  0  0
  5  6  4  0  0  0  0
  6  7  4  0  0  0  0
  8  9  2  0  0  0  0
  8 16  1  0  0  0  0
  9 10  1  0  0  0  0
 10 11  4  0  0  0  0
 10 15  4  0  0  0  0
 11 12  4  0  0  0  0
 12 13  4  0  0  0  0
 13 14  4  0  0  0  0
 14 15  4  0  0  0  0
 16 17  1  0  0  0  0
 16 21  1  0  0  0  0
 17 18  1  0  0  0  0
 18 19  1  0  0  0  0
 19 20  1  0  0  0  0
 19 22  1  0  0  0  0
 20 21  1  0  0  0  0
 22 23  1  0  0  0  0
 23 24  1  0  0  0  0
 24 25  1  0  0  0  0
 25 26  1  0  0  0  0
 26 27  1  0  0  0  0
M  END
>  <Name_Molregno>
QUETIAPINE

>  <5-HT1A>
6.59

>  <5-HT1B>
5.83

>  <5-HT1D>
5.52

>  <5-HT1E>
5.76

>  <5-HT2A>
6.76

>  <5-HT2C>
5.82

>  <5-HT3>
5

>  <5-HT5>
5.51

>  <5-HT6>
6.35

>  <5-HT7>
6.74

>  <Alpha-1A>
7.66

>  <Alpha-1B>
7.41

>  <Alpha-2A>
5.51

>  <Alpha-2B>
6.44

>  <Alpha-2C>
7.18

>  <Beta-1>
5.15

>  <Beta-2>
5.15

>  <DOPAMINE D1>
5.95

>  <DOPAMINE D2>
6.51

>  <DOPAMINE D3>
6.59

>  <DOPAMINE D4>
5.77

>  <DOPAMINE D5>
5.79

>  <Dopamine transporter>
5

>  <HISTAMINE H1>
8.1

>  <HISTAMINE H2>
5

>  <HISTAMINE H4>
5

>  <Muscarinic acetylcholine receptor M1>
6.71

>  <Muscarinic acetylcholine receptor M2>
6.03

>  <Muscarinic acetylcholine receptor M3>
5.69

>  <Muscarinic acetylcholine receptor M4>
6.5

>  <Muscarinic acetylcholine receptor M5>
5.58

>  <Norepinephrine transporter>
5

>  <Serotonin transporter>
5.18

$$$$
QUIPAZINE
  Marvin  02231216192D 0   1.00000     0.00000     0

 16 18  0  0  0  0  0  0  0  0999 V2000
    0.2326    0.1177    0.0000 N   0  0  0  0  0  0  0  0  0
    0.9471    0.5302    0.0000 C   0  0  0  0  0  0  0  0  0
    0.9471    1.3552    0.0000 C   0  0  0  0  0  0  0  0  0
    0.2326    1.7677    0.0000 C   0  0  0  0  0  0  0  0  0
   -0.4818    1.3552    0.0000 C   0  0  0  0  0  0  0  0  0
   -0.4818    0.5302    0.0000 C   0  0  0  0  0  0  0  0  0
   -1.1963    0.1177    0.0000 N   0  0  0  0  0  0  0  0  0
   -1.1963   -0.7073    0.0000 C   0  0  0  0  0  0  0  0  0
   -1.9108   -1.1198    0.0000 C   0  0  0  0  0  0  0  0  0
   -2.6252   -0.7073    0.0000 N   0  0  0  0  0  0  0  0  0
   -2.6252    0.1177    0.0000 C   0  0  0  0  0  0  0  0  0
   -1.9108    0.5302    0.0000 C   0  0  0  0  0  0  0  0  0
    1.6616    1.7677    0.0000 C   0  0  0  0  0  0  0  0  0
    2.3761    1.3552    0.0000 C   0  0  0  0  0  0  0  0  0
    2.3761    0.5302    0.0000 C   0  0  0  0  0  0  0  0  0
    1.6616    0.1177    0.0000 C   0  0  0  0  0  0  0  0  0
  1  2  4  0  0  0  0
  1  6  4  0  0  0  0
  2  3  4  0  0  0  0
  2 16  4  0  0  0  0
  3  4  4  0  0  0  0
  3 13  4  0  0  0  0
  4  5  4  0  0  0  0
  5  6  4  0  0  0  0
  6  7  1  0  0  0  0
  7  8  1  0  0  0  0
  7 12  1  0  0  0  0
  8  9  1  0  0  0  0
  9 10  1  0  0  0  0
 10 11  1  0  0  0  0
 11 12  1  0  0  0  0
 13 14  4  0  0  0  0
 14 15  4  0  0  0  0
 15 16  4  0  0  0  0
M  END
>  <Name_Molregno>
QUIPAZINE

>  <5-HT1A>
5.39

>  <5-HT1B>
6

>  <5-HT1D>
5.8

>  <5-HT2A>
6.53

>  <5-HT2C>
6.87

>  <5-HT3>
8.42

>  <5-HT6>
5.44

>  <DOPAMINE D1>
5

>  <DOPAMINE D2>
5

$$$$
RESERPINE
  Marvin  02231216192D 0   1.00000     0.00000     0

 44 49  0  0  1  0  0  0  0  0999 V2000
    0.2364    0.7485    0.0000 O   0  0  0  0  0  0  0  0  0
   -0.0358   -0.0303    0.0000 C   0  0  0  0  0  0  0  0  0
   -0.3021    1.3736    0.0000 C   0  0  0  0  0  0  0  0  0
   -1.1126    1.2198    0.0000 C   0  0  0  0  0  0  0  0  0
   -1.6510    1.8449    0.0000 C   0  0  0  0  0  0  0  0  0
   -1.3789    2.6238    0.0000 C   0  0  0  0  0  0  0  0  0
   -0.5683    2.7775    0.0000 C   0  0  0  0  0  0  0  0  0
   -0.0299    2.1524    0.0000 C   0  0  0  0  0  0  0  0  0
    0.7806    2.3061    0.0000 O   0  0  0  0  0  0  0  0  0
    1.3190    1.6810    0.0000 C   0  0  0  0  0  0  0  0  0
    1.0469    0.9022    0.0000 O   0  0  0  0  0  0  0  0  0
    2.1296    1.8348    0.0000 C   0  0  0  0  0  0  0  0  0
    2.4017    2.6136    0.0000 C   0  0  0  0  0  0  0  0  0
    3.2123    2.7673    0.0000 C   0  0  0  0  0  0  0  0  0
    3.4844    3.5461    0.0000 O   0  0  0  0  0  0  0  0  0
    4.2950    3.6998    0.0000 C   0  0  0  0  0  0  0  0  0
    3.7507    2.1422    0.0000 C   0  0  0  0  0  0  0  0  0
    4.5613    2.2959    0.0000 O   0  0  0  0  0  0  0  0  0
    5.0997    1.6708    0.0000 C   0  0  0  0  0  0  0  0  0
    3.4786    1.3634    0.0000 C   0  0  0  0  0  0  0  0  0
    4.0170    0.7383    0.0000 O   0  0  0  0  0  0  0  0  0
    3.7448   -0.0405    0.0000 C   0  0  0  0  0  0  0  0  0
    2.6680    1.2097    0.0000 C   0  0  0  0  0  0  0  0  0
   -1.9173    3.2489    0.0000 C   0  0  0  0  0  0  0  0  0
   -2.7278    3.0951    0.0000 N   0  0  0  0  0  0  0  0  0
   -3.0000    2.3163    0.0000 C   0  0  0  0  0  0  0  0  0
   -2.4616    1.6912    0.0000 C   0  0  0  0  0  0  0  0  0
   -3.8105    2.1626    0.0000 C   0  0  0  0  0  0  0  0  0
   -4.2386    1.4574    0.0000 N   0  0  0  0  0  0  0  0  0
   -5.0416    1.6466    0.0000 C   0  0  0  0  0  0  0  0  0
   -5.7196    1.1765    0.0000 C   0  0  0  0  0  0  0  0  0
   -6.4657    1.5285    0.0000 C   0  0  0  0  0  0  0  0  0
   -7.1437    1.0584    0.0000 O   0  0  0  0  0  0  0  0  0
   -7.0755    0.2362    0.0000 C   0  0  0  0  0  0  0  0  0
   -6.5339    2.3507    0.0000 C   0  0  0  0  0  0  0  0  0
   -5.8559    2.8208    0.0000 C   0  0  0  0  0  0  0  0  0
   -5.1098    2.4688    0.0000 C   0  0  0  0  0  0  0  0  0
   -4.3489    2.7877    0.0000 C   0  0  0  0  0  0  0  0  0
   -4.0768    3.5665    0.0000 C   0  0  0  0  0  0  0  0  0
   -3.2662    3.7202    0.0000 C   0  0  0  0  0  0  0  0  0
   -1.3847    0.4410    0.0000 C   0  0  0  0  0  0  0  0  0
   -0.8463   -0.1841    0.0000 O   0  0  0  0  0  0  0  0  0
   -1.1185   -0.9629    0.0000 C   0  0  0  0  0  0  0  0  0
   -2.1953    0.2873    0.0000 O   0  0  0  0  0  0  0  0  0
  1  2  1  0  0  0  0
  1  3  1  0  0  0  0
  3  4  1  0  0  0  0
  3  8  1  0  0  0  0
  4  5  1  0  0  0  0
  4 41  1  0  0  0  0
  5  6  1  0  0  0  0
  5 27  1  0  0  0  0
  6  7  1  0  0  0  0
  6 24  1  0  0  0  0
  7  8  1  0  0  0  0
  8  9  1  0  0  0  0
  9 10  1  0  0  0  0
 10 11  2  0  0  0  0
 10 12  1  0  0  0  0
 12 13  4  0  0  0  0
 12 23  4  0  0  0  0
 13 14  4  0  0  0  0
 14 15  1  0  0  0  0
 14 17  4  0  0  0  0
 15 16  1  0  0  0  0
 17 18  1  0  0  0  0
 17 20  4  0  0  0  0
 18 19  1  0  0  0  0
 20 21  1  0  0  0  0
 20 23  4  0  0  0  0
 21 22  1  0  0  0  0
 24 25  1  0  0  0  0
 25 26  1  0  0  0  0
 25 40  1  0  0  0  0
 26 27  1  0  0  0  0
 26 28  1  0  0  0  0
 28 29  4  0  0  0  0
 28 38  4  0  0  0  0
 29 30  4  0  0  0  0
 30 31  4  0  0  0  0
 30 37  4  0  0  0  0
 31 32  4  0  0  0  0
 32 33  1  0  0  0  0
 32 35  4  0  0  0  0
 33 34  1  0  0  0  0
 35 36  4  0  0  0  0
 36 37  4  0  0  0  0
 37 38  4  0  0  0  0
 38 39  1  0  0  0  0
 39 40  1  0  0  0  0
 41 42  1  0  0  0  0
 41 44  2  0  0  0  0
 42 43  1  0  0  0  0
M  STY  1   1 DAT
M  SAL   1  1  29
M  SDT   1 MRV_IMPLICIT_H                                        
M  SDD   1     0.0000    0.0000    DR    ALL  0       0  
M  SED   1 IMPL_H1
M  END
>  <Name_Molregno>
RESERPINE

>  <5-HT1A>
5.74

>  <DOPAMINE D1>
5.41

>  <DOPAMINE D2>
6.23

>  <DOPAMINE D3>
6.22

>  <Dopamine transporter>
5

$$$$
RISPERIDONE
  Marvin  02231216192D 0   1.00000     0.00000     0

 30 34  0  0  0  0  0  0  0  0999 V2000
    1.8325   -2.9394    0.0000 F   0  0  0  0  0  0  0  0  0
    2.0875   -2.1548    0.0000 C   0  0  0  0  0  0  0  0  0
    1.5354   -1.5417    0.0000 C   0  0  0  0  0  0  0  0  0
    1.7904   -0.7571    0.0000 C   0  0  0  0  0  0  0  0  0
    1.3779   -0.0426    0.0000 O   0  0  0  0  0  0  0  0  0
    1.9299    0.5705    0.0000 N   0  0  0  0  0  0  0  0  0
    2.6836    0.2349    0.0000 C   0  0  0  0  0  0  0  0  0
    2.5974   -0.5856    0.0000 C   0  0  0  0  0  0  0  0  0
    3.1494   -1.1987    0.0000 C   0  0  0  0  0  0  0  0  0
    2.8945   -1.9833    0.0000 C   0  0  0  0  0  0  0  0  0
    3.3981    0.6474    0.0000 C   0  0  0  0  0  0  0  0  0
    3.3981    1.4724    0.0000 C   0  0  0  0  0  0  0  0  0
    4.1125    1.8849    0.0000 C   0  0  0  0  0  0  0  0  0
    4.8270    1.4724    0.0000 N   0  0  0  0  0  0  0  0  0
    4.8270    0.6474    0.0000 C   0  0  0  0  0  0  0  0  0
    4.1125    0.2349    0.0000 C   0  0  0  0  0  0  0  0  0
    5.5415    1.8849    0.0000 C   0  0  0  0  0  0  0  0  0
    6.2559    1.4724    0.0000 C   0  0  0  0  0  0  0  0  0
    6.9704    1.8849    0.0000 C   0  0  0  0  0  0  0  0  0
    7.6849    1.4724    0.0000 C   0  0  0  0  0  0  0  0  0
    7.6849    0.6474    0.0000 O   0  0  0  0  0  0  0  0  0
    8.3994    1.8849    0.0000 N   0  0  0  0  0  0  0  0  0
    8.3994    2.7099    0.0000 C   0  0  0  0  0  0  0  0  0
    7.6849    3.1224    0.0000 N   0  0  0  0  0  0  0  0  0
    6.9704    2.7099    0.0000 C   0  0  0  0  0  0  0  0  0
    6.2559    3.1224    0.0000 C   0  0  0  0  0  0  0  0  0
    9.1138    3.1224    0.0000 C   0  0  0  0  0  0  0  0  0
    9.8283    2.7099    0.0000 C   0  0  0  0  0  0  0  0  0
    9.8283    1.8849    0.0000 C   0  0  0  0  0  0  0  0  0
    9.1138    1.4724    0.0000 C   0  0  0  0  0  0  0  0  0
  1  2  1  0  0  0  0
  2  3  4  0  0  0  0
  2 10  4  0  0  0  0
  3  4  4  0  0  0  0
  4  5  4  0  0  0  0
  4  8  4  0  0  0  0
  5  6  4  0  0  0  0
  6  7  4  0  0  0  0
  7  8  4  0  0  0  0
  7 11  1  0  0  0  0
  8  9  4  0  0  0  0
  9 10  4  0  0  0  0
 11 12  1  0  0  0  0
 11 16  1  0  0  0  0
 12 13  1  0  0  0  0
 13 14  1  0  0  0  0
 14 15  1  0  0  0  0
 14 17  1  0  0  0  0
 15 16  1  0  0  0  0
 17 18  1  0  0  0  0
 18 19  1  0  0  0  0
 19 20  1  0  0  0  0
 19 25  2  0  0  0  0
 20 21  2  0  0  0  0
 20 22  1  0  0  0  0
 22 23  1  0  0  0  0
 22 30  1  0  0  0  0
 23 24  2  0  0  0  0
 23 27  1  0  0  0  0
 24 25  1  0  0  0  0
 25 26  1  0  0  0  0
 27 28  1  0  0  0  0
 28 29  1  0  0  0  0
 29 30  1  0  0  0  0
M  END
>  <Name_Molregno>
RISPERIDONE

>  <5-HT1A>
6.52

>  <5-HT1B>
7.66

>  <5-HT1D>
7.6

>  <5-HT1E>
5.44

>  <5-HT2A>
9.35

>  <5-HT2C>
7.74

>  <5-HT3>
5

>  <5-HT5>
6.69

>  <5-HT6>
5.7

>  <5-HT7>
8.4

>  <Alpha-1A>
8.38

>  <Alpha-1B>
8.05

>  <Alpha-2A>
7.46

>  <Alpha-2B>
7.34

>  <Alpha-2C>
8.56

>  <Beta-1>
5.15

>  <Beta-2>
5.15

>  <DOPAMINE D1>
6.61

>  <DOPAMINE D2>
8.58

>  <DOPAMINE D3>
8.17

>  <DOPAMINE D4>
8.17

>  <DOPAMINE D5>
7.03

>  <Dopamine transporter>
5

>  <HISTAMINE H1>
7.79

>  <HISTAMINE H2>
6.92

>  <HISTAMINE H4>
5

>  <Muscarinic acetylcholine receptor M1>
5.22

>  <Muscarinic acetylcholine receptor M2>
5.14

>  <Muscarinic acetylcholine receptor M3>
5

>  <Muscarinic acetylcholine receptor M4>
5.18

>  <Muscarinic acetylcholine receptor M5>
5

>  <Norepinephrine transporter>
5

>  <Serotonin transporter>
5.67

$$$$
RITANSERIN
  Marvin  02231216192D 0   1.00000     0.00000     0

 34 38  0  0  0  0  0  0  0  0999 V2000
   -9.6255    1.6331    0.0000 S   0  0  0  0  0  0  0  0  0
  -10.1104    0.9657    0.0000 C   0  0  0  0  0  0  0  0  0
   -9.6255    0.2982    0.0000 C   0  0  0  0  0  0  0  0  0
   -8.8409    0.5532    0.0000 N   0  0  0  0  0  0  0  0  0
   -8.8409    1.3782    0.0000 C   0  0  0  0  0  0  0  0  0
   -8.1264    1.7907    0.0000 N   0  0  0  0  0  0  0  0  0
   -7.4119    1.3782    0.0000 C   0  0  0  0  0  0  0  0  0
   -6.6974    1.7907    0.0000 C   0  0  0  0  0  0  0  0  0
   -7.4119    0.5532    0.0000 C   0  0  0  0  0  0  0  0  0
   -6.6974    0.1407    0.0000 C   0  0  0  0  0  0  0  0  0
   -5.9830    0.5532    0.0000 C   0  0  0  0  0  0  0  0  0
   -5.2685    0.1407    0.0000 N   0  0  0  0  0  0  0  0  0
   -4.5540    0.5532    0.0000 C   0  0  0  0  0  0  0  0  0
   -3.8396    0.1407    0.0000 C   0  0  0  0  0  0  0  0  0
   -3.8396   -0.6843    0.0000 C   0  0  0  0  0  0  0  0  0
   -4.5540   -1.0968    0.0000 C   0  0  0  0  0  0  0  0  0
   -5.2685   -0.6843    0.0000 C   0  0  0  0  0  0  0  0  0
   -3.1251   -1.0968    0.0000 C   0  0  0  0  0  0  0  0  0
   -3.1251   -1.9218    0.0000 C   0  0  0  0  0  0  0  0  0
   -2.4106   -2.3343    0.0000 C   0  0  0  0  0  0  0  0  0
   -2.4106   -3.1593    0.0000 C   0  0  0  0  0  0  0  0  0
   -3.1251   -3.5718    0.0000 C   0  0  0  0  0  0  0  0  0
   -3.1251   -4.3968    0.0000 F   0  0  0  0  0  0  0  0  0
   -3.8396   -3.1593    0.0000 C   0  0  0  0  0  0  0  0  0
   -3.8396   -2.3343    0.0000 C   0  0  0  0  0  0  0  0  0
   -2.4106   -0.6843    0.0000 C   0  0  0  0  0  0  0  0  0
   -2.4106    0.1407    0.0000 C   0  0  0  0  0  0  0  0  0
   -1.6961    0.5532    0.0000 C   0  0  0  0  0  0  0  0  0
   -0.9817    0.1407    0.0000 C   0  0  0  0  0  0  0  0  0
   -0.2672    0.5532    0.0000 F   0  0  0  0  0  0  0  0  0
   -0.9817   -0.6843    0.0000 C   0  0  0  0  0  0  0  0  0
   -1.6961   -1.0968    0.0000 C   0  0  0  0  0  0  0  0  0
   -8.1264    0.1407    0.0000 C   0  0  0  0  0  0  0  0  0
   -8.1264   -0.6843    0.0000 O   0  0  0  0  0  0  0  0  0
  1  2  1  0  0  0  0
  1  5  1  0  0  0  0
  2  3  2  0  0  0  0
  3  4  1  0  0  0  0
  4  5  1  0  0  0  0
  4 33  1  0  0  0  0
  5  6  2  0  0  0  0
  6  7  1  0  0  0  0
  7  8  1  0  0  0  0
  7  9  2  0  0  0  0
  9 10  1  0  0  0  0
  9 33  1  0  0  0  0
 10 11  1  0  0  0  0
 11 12  1  0  0  0  0
 12 13  1  0  0  0  0
 12 17  1  0  0  0  0
 13 14  1  0  0  0  0
 14 15  1  0  0  0  0
 15 16  1  0  0  0  0
 15 18  2  0  0  0  0
 16 17  1  0  0  0  0
 18 19  1  0  0  0  0
 18 26  1  0  0  0  0
 19 20  4  0  0  0  0
 19 25  4  0  0  0  0
 20 21  4  0  0  0  0
 21 22  4  0  0  0  0
 22 23  1  0  0  0  0
 22 24  4  0  0  0  0
 24 25  4  0  0  0  0
 26 27  4  0  0  0  0
 26 32  4  0  0  0  0
 27 28  4  0  0  0  0
 28 29  4  0  0  0  0
 29 30  1  0  0  0  0
 29 31  4  0  0  0  0
 31 32  4  0  0  0  0
 33 34  2  0  0  0  0
M  END
>  <Name_Molregno>
RITANSERIN

>  <5-HT1A>
5.53

>  <5-HT1B>
6.56

>  <5-HT1D>
6.29

>  <5-HT2A>
9.14

>  <5-HT2C>
9.04

>  <5-HT3>
5

>  <5-HT6>
7.54

>  <5-HT7>
7.34

>  <DOPAMINE D1>
6.03

>  <DOPAMINE D2>
7.54

>  <DOPAMINE D3>
7.62

>  <DOPAMINE D4>
7.52

$$$$
RIZATRIPTAN
  Marvin  02231216192D 0   1.00000     0.00000     0

 20 22  0  0  0  0  0  0  0  0999 V2000
   -0.1647    0.0914    0.0000 N   0  0  0  0  0  0  0  0  0
   -0.6496    0.7588    0.0000 C   0  0  0  0  0  0  0  0  0
   -0.1647    1.4262    0.0000 C   0  0  0  0  0  0  0  0  0
    0.6200    1.1713    0.0000 C   0  0  0  0  0  0  0  0  0
    1.3344    1.5838    0.0000 C   0  0  0  0  0  0  0  0  0
    2.0489    1.1713    0.0000 C   0  0  0  0  0  0  0  0  0
    2.0489    0.3463    0.0000 C   0  0  0  0  0  0  0  0  0
    1.3344   -0.0662    0.0000 C   0  0  0  0  0  0  0  0  0
    0.6200    0.3463    0.0000 C   0  0  0  0  0  0  0  0  0
    2.7634    1.5838    0.0000 C   0  0  0  0  0  0  0  0  0
    3.4778    1.1713    0.0000 N   0  0  0  0  0  0  0  0  0
    4.2315    1.5068    0.0000 N   0  0  0  0  0  0  0  0  0
    4.7836    0.8938    0.0000 C   0  0  0  0  0  0  0  0  0
    4.3711    0.1793    0.0000 N   0  0  0  0  0  0  0  0  0
    3.5641    0.3508    0.0000 C   0  0  0  0  0  0  0  0  0
   -0.4196    2.2109    0.0000 C   0  0  0  0  0  0  0  0  0
   -1.2266    2.3824    0.0000 C   0  0  0  0  0  0  0  0  0
   -1.4815    3.1670    0.0000 N   0  0  0  0  0  0  0  0  0
   -2.2885    3.3385    0.0000 C   0  0  0  0  0  0  0  0  0
   -0.9295    3.7801    0.0000 C   0  0  0  0  0  0  0  0  0
  1  2  4  0  0  0  0
  1  9  4  0  0  0  0
  2  3  4  0  0  0  0
  3  4  4  0  0  0  0
  3 16  1  0  0  0  0
  4  5  4  0  0  0  0
  4  9  4  0  0  0  0
  5  6  4  0  0  0  0
  6  7  4  0  0  0  0
  6 10  1  0  0  0  0
  7  8  4  0  0  0  0
  8  9  4  0  0  0  0
 10 11  1  0  0  0  0
 11 12  4  0  0  0  0
 11 15  4  0  0  0  0
 12 13  4  0  0  0  0
 13 14  4  0  0  0  0
 14 15  4  0  0  0  0
 16 17  1  0  0  0  0
 17 18  1  0  0  0  0
 18 19  1  0  0  0  0
 18 20  1  0  0  0  0
M  STY  1   1 DAT
M  SAL   1  1   1
M  SDT   1 MRV_IMPLICIT_H                                        
M  SDD   1     0.0000    0.0000    DR    ALL  0       0  
M  SED   1 IMPL_H1
M  END
>  <Name_Molregno>
RIZATRIPTAN

>  <5-HT1A>
6.53

$$$$
ROFECOXIB
  Marvin  02231216192D 0   1.00000     0.00000     0

 22 24  0  0  0  0  0  0  0  0999 V2000
   -1.7307    1.7900    0.0000 S   0  0  0  0  0  0  0  0  0
   -1.7307    2.6150    0.0000 O   0  0  0  0  0  0  0  0  0
   -2.5557    1.7900    0.0000 O   0  0  0  0  0  0  0  0  0
   -0.9057    1.7900    0.0000 C   0  0  0  0  0  0  0  0  0
   -1.7307    0.9650    0.0000 C   0  0  0  0  0  0  0  0  0
   -1.0163    0.5525    0.0000 C   0  0  0  0  0  0  0  0  0
   -1.0163   -0.2725    0.0000 C   0  0  0  0  0  0  0  0  0
   -1.7307   -0.6850    0.0000 C   0  0  0  0  0  0  0  0  0
   -2.4452   -0.2725    0.0000 C   0  0  0  0  0  0  0  0  0
   -2.4452    0.5525    0.0000 C   0  0  0  0  0  0  0  0  0
   -1.7307   -1.5100    0.0000 C   0  0  0  0  0  0  0  0  0
   -1.0633   -1.9950    0.0000 C   0  0  0  0  0  0  0  0  0
   -1.3182   -2.7796    0.0000 O   0  0  0  0  0  0  0  0  0
   -2.1432   -2.7796    0.0000 C   0  0  0  0  0  0  0  0  0
   -2.6282   -3.4470    0.0000 O   0  0  0  0  0  0  0  0  0
   -2.3982   -1.9950    0.0000 C   0  0  0  0  0  0  0  0  0
   -3.1828   -1.7400    0.0000 C   0  0  0  0  0  0  0  0  0
   -3.7959   -2.2920    0.0000 C   0  0  0  0  0  0  0  0  0
   -4.5805   -2.0371    0.0000 C   0  0  0  0  0  0  0  0  0
   -4.7520   -1.2301    0.0000 C   0  0  0  0  0  0  0  0  0
   -4.1390   -0.6781    0.0000 C   0  0  0  0  0  0  0  0  0
   -3.3543   -0.9330    0.0000 C   0  0  0  0  0  0  0  0  0
  1  2  2  0  0  0  0
  1  3  2  0  0  0  0
  1  4  1  0  0  0  0
  1  5  1  0  0  0  0
  5  6  4  0  0  0  0
  5 10  4  0  0  0  0
  6  7  4  0  0  0  0
  7  8  4  0  0  0  0
  8  9  4  0  0  0  0
  8 11  1  0  0  0  0
  9 10  4  0  0  0  0
 11 12  1  0  0  0  0
 11 16  2  0  0  0  0
 12 13  1  0  0  0  0
 13 14  1  0  0  0  0
 14 15  2  0  0  0  0
 14 16  1  0  0  0  0
 16 17  1  0  0  0  0
 17 18  4  0  0  0  0
 17 22  4  0  0  0  0
 18 19  4  0  0  0  0
 19 20  4  0  0  0  0
 20 21  4  0  0  0  0
 21 22  4  0  0  0  0
M  END
>  <Name_Molregno>
ROFECOXIB

>  <5-HT1A>
5

>  <5-HT1B>
5

>  <5-HT1D>
5

>  <5-HT1E>
5

>  <5-HT2A>
5

>  <5-HT3>
5

>  <5-HT6>
5

>  <5-HT7>
5

>  <Alpha-1A>
5

>  <Alpha-1B>
5

>  <Alpha-2A>
5

>  <Alpha-2B>
5

>  <Alpha-2C>
5

>  <DOPAMINE D1>
5

>  <DOPAMINE D2>
5

>  <DOPAMINE D5>
5

>  <Dopamine transporter>
5

>  <HISTAMINE H2>
5

>  <Muscarinic acetylcholine receptor M2>
5

>  <Muscarinic acetylcholine receptor M5>
5

>  <Norepinephrine transporter>
5

>  <Serotonin transporter>
5

$$$$
Ropinirole
  Marvin  02231216192D 0   1.00000     0.00000     0

 19 20  0  0  0  0  0  0  0  0999 V2000
    0.9619   -1.7047    0.0000 O   0  0  0  0  0  0  0  0  0
    1.7869   -1.7047    0.0000 C   0  0  0  0  0  0  0  0  0
    2.2718   -2.3721    0.0000 N   0  0  0  0  0  0  0  0  0
    3.0565   -2.1172    0.0000 C   0  0  0  0  0  0  0  0  0
    3.0565   -1.2922    0.0000 C   0  0  0  0  0  0  0  0  0
    2.2718   -1.0372    0.0000 C   0  0  0  0  0  0  0  0  0
    3.7709   -0.8797    0.0000 C   0  0  0  0  0  0  0  0  0
    4.4854   -1.2922    0.0000 C   0  0  0  0  0  0  0  0  0
    4.4854   -2.1172    0.0000 C   0  0  0  0  0  0  0  0  0
    3.7709   -2.5297    0.0000 C   0  0  0  0  0  0  0  0  0
    3.7709   -0.0547    0.0000 C   0  0  0  0  0  0  0  0  0
    3.0565    0.3578    0.0000 C   0  0  0  0  0  0  0  0  0
    3.0565    1.1828    0.0000 N   0  0  0  0  0  0  0  0  0
    2.3420    1.5953    0.0000 C   0  0  0  0  0  0  0  0  0
    2.3420    2.4203    0.0000 C   0  0  0  0  0  0  0  0  0
    1.6275    2.8328    0.0000 C   0  0  0  0  0  0  0  0  0
    3.7709    1.5953    0.0000 C   0  0  0  0  0  0  0  0  0
    3.7709    2.4203    0.0000 C   0  0  0  0  0  0  0  0  0
    4.4854    2.8328    0.0000 C   0  0  0  0  0  0  0  0  0
  1  2  2  0  0  0  0
  2  3  1  0  0  0  0
  2  6  1  0  0  0  0
  3  4  1  0  0  0  0
  4  5  4  0  0  0  0
  4 10  4  0  0  0  0
  5  6  1  0  0  0  0
  5  7  4  0  0  0  0
  7  8  4  0  0  0  0
  7 11  1  0  0  0  0
  8  9  4  0  0  0  0
  9 10  4  0  0  0  0
 11 12  1  0  0  0  0
 12 13  1  0  0  0  0
 13 14  1  0  0  0  0
 13 17  1  0  0  0  0
 14 15  1  0  0  0  0
 15 16  1  0  0  0  0
 17 18  1  0  0  0  0
 18 19  1  0  0  0  0
M  END
>  <Name_Molregno>
Ropinirole

>  <5-HT1A>
6.28

>  <5-HT1B>
5

>  <5-HT1D>
5.86

>  <5-HT2A>
5

>  <5-HT2C>
5

>  <5-HT5>
5

>  <5-HT6>
5

>  <5-HT7>
5.82

>  <Alpha-1A>
5

>  <Alpha-1B>
5

>  <Alpha-2A>
5.73

>  <Alpha-2B>
6.12

>  <Alpha-2C>
5.92

>  <Beta-1>
5

>  <Beta-2>
5

>  <DOPAMINE D1>
5

>  <DOPAMINE D2>
6.45

>  <DOPAMINE D3>
7.5

>  <DOPAMINE D4>
6.07

>  <DOPAMINE D5>
5

$$$$
Roxindole
  Marvin  02231216192D 0   1.00000     0.00000     0

 26 29  0  0  0  0  0  0  0  0999 V2000
   -0.4898   -0.6830    0.0000 O   0  0  0  0  0  0  0  0  0
   -1.2043   -0.2705    0.0000 C   0  0  0  0  0  0  0  0  0
   -1.9188   -0.6830    0.0000 C   0  0  0  0  0  0  0  0  0
   -2.6332   -0.2705    0.0000 C   0  0  0  0  0  0  0  0  0
   -2.6332    0.5545    0.0000 C   0  0  0  0  0  0  0  0  0
   -3.4179    0.8095    0.0000 N   0  0  0  0  0  0  0  0  0
   -3.9028    0.1420    0.0000 C   0  0  0  0  0  0  0  0  0
   -3.4179   -0.5254    0.0000 C   0  0  0  0  0  0  0  0  0
   -3.6728   -1.3100    0.0000 C   0  0  0  0  0  0  0  0  0
   -3.1208   -1.9231    0.0000 C   0  0  0  0  0  0  0  0  0
   -3.3757   -2.7077    0.0000 C   0  0  0  0  0  0  0  0  0
   -2.8237   -3.3208    0.0000 C   0  0  0  0  0  0  0  0  0
   -3.0786   -4.1055    0.0000 N   0  0  0  0  0  0  0  0  0
   -2.5266   -4.7185    0.0000 C   0  0  0  0  0  0  0  0  0
   -2.7815   -5.5032    0.0000 C   0  0  0  0  0  0  0  0  0
   -3.5885   -5.6747    0.0000 C   0  0  0  0  0  0  0  0  0
   -4.1405   -5.0616    0.0000 C   0  0  0  0  0  0  0  0  0
   -3.8856   -4.2770    0.0000 C   0  0  0  0  0  0  0  0  0
   -3.8434   -6.4593    0.0000 C   0  0  0  0  0  0  0  0  0
   -3.2914   -7.0724    0.0000 C   0  0  0  0  0  0  0  0  0
   -3.5463   -7.8570    0.0000 C   0  0  0  0  0  0  0  0  0
   -4.3533   -8.0286    0.0000 C   0  0  0  0  0  0  0  0  0
   -4.9053   -7.4155    0.0000 C   0  0  0  0  0  0  0  0  0
   -4.6504   -6.6308    0.0000 C   0  0  0  0  0  0  0  0  0
   -1.9188    0.9670    0.0000 C   0  0  0  0  0  0  0  0  0
   -1.2043    0.5545    0.0000 C   0  0  0  0  0  0  0  0  0
  1  2  1  0  0  0  0
  2  3  4  0  0  0  0
  2 26  4  0  0  0  0
  3  4  4  0  0  0  0
  4  5  4  0  0  0  0
  4  8  4  0  0  0  0
  5  6  4  0  0  0  0
  5 25  4  0  0  0  0
  6  7  4  0  0  0  0
  7  8  4  0  0  0  0
  8  9  1  0  0  0  0
  9 10  1  0  0  0  0
 10 11  1  0  0  0  0
 11 12  1  0  0  0  0
 12 13  1  0  0  0  0
 13 14  1  0  0  0  0
 13 18  1  0  0  0  0
 14 15  1  0  0  0  0
 15 16  1  0  0  0  0
 16 17  2  0  0  0  0
 16 19  1  0  0  0  0
 17 18  1  0  0  0  0
 19 20  4  0  0  0  0
 19 24  4  0  0  0  0
 20 21  4  0  0  0  0
 21 22  4  0  0  0  0
 22 23  4  0  0  0  0
 23 24  4  0  0  0  0
 25 26  4  0  0  0  0
M  STY  1   1 DAT
M  SAL   1  1   6
M  SDT   1 MRV_IMPLICIT_H                                        
M  SDD   1     0.0000    0.0000    DR    ALL  0       0  
M  SED   1 IMPL_H1
M  END
>  <Name_Molregno>
Roxindole

>  <5-HT1A>
9.94

>  <5-HT1D>
7.2

>  <5-HT2A>
8.18

>  <5-HT2C>
6.51

>  <Alpha-1A>
8.59

>  <Alpha-1B>
8.55

>  <Alpha-2A>
8.21

>  <Alpha-2B>
8.34

>  <Alpha-2C>
8.75

>  <Beta-1>
5.57

>  <Beta-2>
6.03

>  <DOPAMINE D1>
6.33

>  <DOPAMINE D2>
8.45

>  <DOPAMINE D3>
8.93

>  <DOPAMINE D4>
8.23

>  <DOPAMINE D5>
6.72

$$$$
RU24969
  Marvin  02231216192D 0   1.00000     0.00000     0

 17 19  0  0  0  0  0  0  0  0999 V2000
    0.3325   -1.0185    0.0000 O   0  0  0  0  0  0  0  0  0
    1.0469   -0.6060    0.0000 C   0  0  0  0  0  0  0  0  0
   -0.3820   -0.6060    0.0000 C   0  0  0  0  0  0  0  0  0
   -1.0965   -1.0185    0.0000 C   0  0  0  0  0  0  0  0  0
   -1.8109   -0.6060    0.0000 C   0  0  0  0  0  0  0  0  0
   -1.8109    0.2190    0.0000 C   0  0  0  0  0  0  0  0  0
   -2.5956    0.4739    0.0000 N   0  0  0  0  0  0  0  0  0
   -3.0805   -0.1935    0.0000 C   0  0  0  0  0  0  0  0  0
   -2.5956   -0.8609    0.0000 C   0  0  0  0  0  0  0  0  0
   -2.8505   -1.6456    0.0000 C   0  0  0  0  0  0  0  0  0
   -2.2985   -2.2586    0.0000 C   0  0  0  0  0  0  0  0  0
   -2.5534   -3.0433    0.0000 C   0  0  0  0  0  0  0  0  0
   -3.3604   -3.2148    0.0000 N   0  0  0  0  0  0  0  0  0
   -3.9124   -2.6017    0.0000 C   0  0  0  0  0  0  0  0  0
   -3.6575   -1.8171    0.0000 C   0  0  0  0  0  0  0  0  0
   -1.0965    0.6315    0.0000 C   0  0  0  0  0  0  0  0  0
   -0.3820    0.2190    0.0000 C   0  0  0  0  0  0  0  0  0
  1  2  1  0  0  0  0
  1  3  1  0  0  0  0
  3  4  4  0  0  0  0
  3 17  4  0  0  0  0
  4  5  4  0  0  0  0
  5  6  4  0  0  0  0
  5  9  4  0  0  0  0
  6  7  4  0  0  0  0
  6 16  4  0  0  0  0
  7  8  4  0  0  0  0
  8  9  4  0  0  0  0
  9 10  1  0  0  0  0
 10 11  1  0  0  0  0
 10 15  2  0  0  0  0
 11 12  1  0  0  0  0
 12 13  1  0  0  0  0
 13 14  1  0  0  0  0
 14 15  1  0  0  0  0
 16 17  4  0  0  0  0
M  STY  1   1 DAT
M  SAL   1  1   7
M  SDT   1 MRV_IMPLICIT_H                                        
M  SDD   1     0.0000    0.0000    DR    ALL  0       0  
M  SED   1 IMPL_H1
M  END
>  <Name_Molregno>
RU24969

>  <5-HT1A>
8.36

>  <5-HT1B>
7.91

>  <5-HT1D>
7.64

>  <5-HT2A>
6.39

>  <5-HT2C>
6.53

>  <5-HT6>
6.24

$$$$
Rutin
  Marvin  02231216192D 0   1.00000     0.00000     0

 43 47  0  0  1  0  0  0  0  0999 V2000
   -0.5116   -0.2044    0.0000 O   0  0  0  0  0  0  0  0  0
   -0.5116    0.6206    0.0000 C   0  0  0  0  0  0  0  0  0
    0.2029    1.0331    0.0000 C   0  0  0  0  0  0  0  0  0
    0.2029    1.8581    0.0000 O   0  0  0  0  0  0  0  0  0
    0.9173    2.2706    0.0000 C   0  0  0  0  0  0  0  0  0
    0.9173    3.0956    0.0000 O   0  0  0  0  0  0  0  0  0
    1.6318    3.5081    0.0000 C   0  0  0  0  0  0  0  0  0
    1.6318    4.3331    0.0000 C   0  0  0  0  0  0  0  0  0
    2.3463    3.0956    0.0000 C   0  0  0  0  0  0  0  0  0
    3.0608    3.5081    0.0000 O   0  0  0  0  0  0  0  0  0
    2.3463    2.2706    0.0000 C   0  0  0  0  0  0  0  0  0
    3.0608    1.8581    0.0000 O   0  0  0  0  0  0  0  0  0
    1.6318    1.8581    0.0000 C   0  0  0  0  0  0  0  0  0
    1.6318    1.0331    0.0000 O   0  0  0  0  0  0  0  0  0
   -1.2261    1.0331    0.0000 C   0  0  0  0  0  0  0  0  0
   -1.2261    1.8581    0.0000 O   0  0  0  0  0  0  0  0  0
   -1.9405    0.6206    0.0000 C   0  0  0  0  0  0  0  0  0
   -2.6550    1.0331    0.0000 O   0  0  0  0  0  0  0  0  0
   -1.9405   -0.2044    0.0000 C   0  0  0  0  0  0  0  0  0
   -2.6550   -0.6169    0.0000 O   0  0  0  0  0  0  0  0  0
   -1.2261   -0.6169    0.0000 C   0  0  0  0  0  0  0  0  0
   -1.2261   -1.4419    0.0000 O   0  0  0  0  0  0  0  0  0
   -0.5116   -1.8544    0.0000 C   0  0  0  0  0  0  0  0  0
   -0.5116   -2.6794    0.0000 C   0  0  0  0  0  0  0  0  0
    0.2029   -3.0919    0.0000 O   0  0  0  0  0  0  0  0  0
    0.9173   -2.6794    0.0000 C   0  0  0  0  0  0  0  0  0
    0.9173   -1.8544    0.0000 C   0  0  0  0  0  0  0  0  0
    0.2029   -1.4419    0.0000 C   0  0  0  0  0  0  0  0  0
    0.2029   -0.6169    0.0000 O   0  0  0  0  0  0  0  0  0
    1.6318   -1.4419    0.0000 C   0  0  0  0  0  0  0  0  0
    1.6318   -0.6169    0.0000 O   0  0  0  0  0  0  0  0  0
    2.3463   -1.8544    0.0000 C   0  0  0  0  0  0  0  0  0
    2.3463   -2.6794    0.0000 C   0  0  0  0  0  0  0  0  0
    3.0608   -3.0919    0.0000 O   0  0  0  0  0  0  0  0  0
    1.6318   -3.0919    0.0000 C   0  0  0  0  0  0  0  0  0
   -1.2261   -3.0919    0.0000 C   0  0  0  0  0  0  0  0  0
   -1.2261   -3.9169    0.0000 C   0  0  0  0  0  0  0  0  0
   -1.9405   -4.3294    0.0000 C   0  0  0  0  0  0  0  0  0
   -1.9405   -5.1544    0.0000 O   0  0  0  0  0  0  0  0  0
   -2.6550   -3.9169    0.0000 C   0  0  0  0  0  0  0  0  0
   -3.3695   -4.3294    0.0000 O   0  0  0  0  0  0  0  0  0
   -2.6550   -3.0919    0.0000 C   0  0  0  0  0  0  0  0  0
   -1.9405   -2.6794    0.0000 C   0  0  0  0  0  0  0  0  0
  1  2  1  0  0  0  0
  1 21  1  0  0  0  0
  2  3  1  0  0  0  0
  2 15  1  0  0  0  0
  3  4  1  0  0  0  0
  4  5  1  0  0  0  0
  5  6  1  0  0  0  0
  5 13  1  0  0  0  0
  6  7  1  0  0  0  0
  7  8  1  0  0  0  0
  7  9  1  0  0  0  0
  9 10  1  0  0  0  0
  9 11  1  0  0  0  0
 11 12  1  0  0  0  0
 11 13  1  0  0  0  0
 13 14  1  0  0  0  0
 15 16  1  0  0  0  0
 15 17  1  0  0  0  0
 17 18  1  0  0  0  0
 17 19  1  0  0  0  0
 19 20  1  0  0  0  0
 19 21  1  0  0  0  0
 21 22  1  0  0  0  0
 22 23  1  0  0  0  0
 23 24  2  0  0  0  0
 23 28  1  0  0  0  0
 24 25  1  0  0  0  0
 24 36  1  0  0  0  0
 25 26  1  0  0  0  0
 26 27  4  0  0  0  0
 26 35  4  0  0  0  0
 27 28  1  0  0  0  0
 27 30  4  0  0  0  0
 28 29  2  0  0  0  0
 30 31  1  0  0  0  0
 30 32  4  0  0  0  0
 32 33  4  0  0  0  0
 33 34  1  0  0  0  0
 33 35  4  0  0  0  0
 36 37  4  0  0  0  0
 36 43  4  0  0  0  0
 37 38  4  0  0  0  0
 38 39  1  0  0  0  0
 38 40  4  0  0  0  0
 40 41  1  0  0  0  0
 40 42  4  0  0  0  0
 42 43  4  0  0  0  0
M  END
>  <Name_Molregno>
Rutin

>  <5-HT1A>
5

>  <5-HT1D>
5

>  <5-HT3>
5

>  <5-HT5>
5

>  <5-HT6>
5

>  <5-HT7>
5

>  <Alpha-1A>
5

>  <Alpha-1B>
5

>  <Alpha-2A>
5.03

>  <Alpha-2B>
5

>  <Alpha-2C>
5.02

>  <DOPAMINE D1>
5

>  <DOPAMINE D5>
5

>  <Muscarinic acetylcholine receptor M1>
5

>  <Muscarinic acetylcholine receptor M2>
5

>  <Muscarinic acetylcholine receptor M3>
5

>  <Muscarinic acetylcholine receptor M4>
5

>  <Muscarinic acetylcholine receptor M5>
7.45

>  <Norepinephrine transporter>
5

>  <Serotonin transporter>
5

$$$$
SalvinorinA
  Marvin  02231216192D 0   1.00000     0.00000     0

 31 34  0  0  1  0  0  0  0  0999 V2000
   -4.2035   -1.1582    0.0000 O   0  0  0  0  0  0  0  0  0
   -3.7910   -1.8727    0.0000 C   0  0  0  0  0  0  0  0  0
   -2.9660   -1.8727    0.0000 C   0  0  0  0  0  0  0  0  0
   -2.5535   -1.1582    0.0000 C   0  0  0  0  0  0  0  0  0
   -1.7285   -1.1582    0.0000 C   0  0  0  0  0  0  0  0  0
   -1.3160   -0.4437    0.0000 C   0  0  0  0  0  0  0  0  0
   -1.7285    0.2708    0.0000 C   0  0  0  0  0  0  0  0  0
   -2.5535    0.2708    0.0000 C   0  0  0  0  0  0  0  0  0
   -2.9660   -0.4437    0.0000 C   0  0  0  0  0  0  0  0  0
   -3.7910   -0.4437    0.0000 C   0  0  0  0  0  0  0  0  0
   -4.2035    0.2708    0.0000 O   0  0  0  0  0  0  0  0  0
   -0.9035    0.2708    0.0000 C   0  0  0  0  0  0  0  0  0
   -0.4910   -0.4437    0.0000 C   0  0  0  0  0  0  0  0  0
   -0.0785   -1.1582    0.0000 C   0  0  0  0  0  0  0  0  0
   -0.4910   -1.8727    0.0000 C   0  0  0  0  0  0  0  0  0
   -0.0785   -2.5871    0.0000 O   0  0  0  0  0  0  0  0  0
    0.7465   -2.5871    0.0000 C   0  0  0  0  0  0  0  0  0
    1.1590   -3.3016    0.0000 O   0  0  0  0  0  0  0  0  0
    1.1590   -1.8727    0.0000 C   0  0  0  0  0  0  0  0  0
   -1.3160   -1.8727    0.0000 C   0  0  0  0  0  0  0  0  0
   -1.7285   -2.5871    0.0000 O   0  0  0  0  0  0  0  0  0
   -0.0785    0.2708    0.0000 C   0  0  0  0  0  0  0  0  0
   -0.4910    0.9852    0.0000 O   0  0  0  0  0  0  0  0  0
   -0.0785    1.6997    0.0000 C   0  0  0  0  0  0  0  0  0
    0.7465    0.2708    0.0000 O   0  0  0  0  0  0  0  0  0
   -2.1410   -1.8727    0.0000 C   0  0  0  0  0  0  0  0  0
   -4.2035   -2.5871    0.0000 C   0  0  0  0  0  0  0  0  0
   -3.8680   -3.3408    0.0000 C   0  0  0  0  0  0  0  0  0
   -4.4811   -3.8928    0.0000 C   0  0  0  0  0  0  0  0  0
   -5.1956   -3.4803    0.0000 O   0  0  0  0  0  0  0  0  0
   -5.0240   -2.6734    0.0000 C   0  0  0  0  0  0  0  0  0
  1  2  1  0  0  0  0
  1 10  1  0  0  0  0
  2  3  1  0  0  0  0
  2 27  1  0  0  0  0
  3  4  1  0  0  0  0
  4  5  1  0  0  0  0
  4  9  1  0  0  0  0
  4 26  1  0  0  0  0
  5  6  1  0  0  0  0
  5 20  1  0  0  0  0
  6  7  1  0  0  0  0
  6 12  1  0  0  0  0
  6 13  1  0  0  0  0
  7  8  1  0  0  0  0
  8  9  1  0  0  0  0
  9 10  1  0  0  0  0
 10 11  2  0  0  0  0
 13 14  1  0  0  0  0
 13 22  1  0  0  0  0
 14 15  1  0  0  0  0
 15 16  1  0  0  0  0
 15 20  1  0  0  0  0
 16 17  1  0  0  0  0
 17 18  2  0  0  0  0
 17 19  1  0  0  0  0
 20 21  2  0  0  0  0
 22 23  1  0  0  0  0
 22 25  2  0  0  0  0
 23 24  1  0  0  0  0
 27 28  4  0  0  0  0
 27 31  4  0  0  0  0
 28 29  4  0  0  0  0
 29 30  4  0  0  0  0
 30 31  4  0  0  0  0
M  END
>  <Name_Molregno>
SalvinorinA

>  <5-HT1A>
5

>  <5-HT1B>
5

>  <5-HT1D>
5

>  <5-HT1E>
5

>  <5-HT3>
5

>  <5-HT5>
5

>  <5-HT6>
5

>  <5-HT7>
5

>  <Alpha-1A>
5

>  <Alpha-1B>
5

>  <DOPAMINE D1>
5

>  <DOPAMINE D2>
5

>  <DOPAMINE D3>
5

>  <DOPAMINE D5>
5

>  <HISTAMINE H1>
5

>  <Muscarinic acetylcholine receptor M1>
5

>  <Muscarinic acetylcholine receptor M2>
5

>  <Muscarinic acetylcholine receptor M3>
5

>  <Muscarinic acetylcholine receptor M4>
5

>  <Muscarinic acetylcholine receptor M5>
5

>  <Serotonin transporter>
5

$$$$
SERTINDOLE
  Marvin  02231216192D 0   1.00000     0.00000     0

 31 35  0  0  0  0  0  0  0  0999 V2000
    1.9546   -2.6271    0.0000 Cl  0  0  0  0  0  0  0  0  0
    1.2402   -2.2146    0.0000 C   0  0  0  0  0  0  0  0  0
    0.5257   -2.6271    0.0000 C   0  0  0  0  0  0  0  0  0
   -0.1888   -2.2146    0.0000 C   0  0  0  0  0  0  0  0  0
   -0.1888   -1.3896    0.0000 C   0  0  0  0  0  0  0  0  0
   -0.9734   -1.1347    0.0000 N   0  0  0  0  0  0  0  0  0
   -1.4583   -1.8021    0.0000 C   0  0  0  0  0  0  0  0  0
   -0.9734   -2.4695    0.0000 C   0  0  0  0  0  0  0  0  0
   -1.2283   -3.2542    0.0000 C   0  0  0  0  0  0  0  0  0
   -0.6763   -3.8672    0.0000 C   0  0  0  0  0  0  0  0  0
   -0.9312   -4.6519    0.0000 C   0  0  0  0  0  0  0  0  0
   -1.7382   -4.8234    0.0000 N   0  0  0  0  0  0  0  0  0
   -2.2902   -4.2103    0.0000 C   0  0  0  0  0  0  0  0  0
   -2.0353   -3.4257    0.0000 C   0  0  0  0  0  0  0  0  0
   -1.9931   -5.6080    0.0000 C   0  0  0  0  0  0  0  0  0
   -2.8001   -5.7795    0.0000 C   0  0  0  0  0  0  0  0  0
   -3.0551   -6.5642    0.0000 N   0  0  0  0  0  0  0  0  0
   -2.5701   -7.2316    0.0000 C   0  0  0  0  0  0  0  0  0
   -3.0551   -7.8990    0.0000 C   0  0  0  0  0  0  0  0  0
   -3.8397   -7.6441    0.0000 N   0  0  0  0  0  0  0  0  0
   -3.8397   -6.8191    0.0000 C   0  0  0  0  0  0  0  0  0
   -4.5071   -6.3342    0.0000 O   0  0  0  0  0  0  0  0  0
   -1.2283   -0.3500    0.0000 C   0  0  0  0  0  0  0  0  0
   -2.0353   -0.1785    0.0000 C   0  0  0  0  0  0  0  0  0
   -2.2902    0.6061    0.0000 C   0  0  0  0  0  0  0  0  0
   -1.7382    1.2192    0.0000 C   0  0  0  0  0  0  0  0  0
   -1.9931    2.0038    0.0000 F   0  0  0  0  0  0  0  0  0
   -0.9312    1.0477    0.0000 C   0  0  0  0  0  0  0  0  0
   -0.6763    0.2631    0.0000 C   0  0  0  0  0  0  0  0  0
    0.5257   -0.9771    0.0000 C   0  0  0  0  0  0  0  0  0
    1.2402   -1.3896    0.0000 C   0  0  0  0  0  0  0  0  0
  1  2  1  0  0  0  0
  2  3  4  0  0  0  0
  2 31  4  0  0  0  0
  3  4  4  0  0  0  0
  4  5  4  0  0  0  0
  4  8  4  0  0  0  0
  5  6  4  0  0  0  0
  5 30  4  0  0  0  0
  6  7  4  0  0  0  0
  6 23  1  0  0  0  0
  7  8  4  0  0  0  0
  8  9  1  0  0  0  0
  9 10  1  0  0  0  0
  9 14  1  0  0  0  0
 10 11  1  0  0  0  0
 11 12  1  0  0  0  0
 12 13  1  0  0  0  0
 12 15  1  0  0  0  0
 13 14  1  0  0  0  0
 15 16  1  0  0  0  0
 16 17  1  0  0  0  0
 17 18  1  0  0  0  0
 17 21  1  0  0  0  0
 18 19  1  0  0  0  0
 19 20  1  0  0  0  0
 20 21  1  0  0  0  0
 21 22  2  0  0  0  0
 23 24  4  0  0  0  0
 23 29  4  0  0  0  0
 24 25  4  0  0  0  0
 25 26  4  0  0  0  0
 26 27  1  0  0  0  0
 26 28  4  0  0  0  0
 28 29  4  0  0  0  0
 30 31  4  0  0  0  0
M  END
>  <Name_Molregno>
SERTINDOLE

>  <5-HT1A>
6.36

>  <5-HT1B>
7.22

>  <5-HT1D>
7.36

>  <5-HT1E>
6.37

>  <5-HT2A>
9.49

>  <5-HT2C>
8.64

>  <5-HT6>
8.27

>  <5-HT7>
7.55

>  <Alpha-1A>
8.74

>  <Alpha-2A>
6.19

>  <Alpha-2B>
6.35

>  <Alpha-2C>
6.35

>  <Beta-1>
5.3

>  <Beta-2>
5.3

>  <DOPAMINE D2>
8.54

>  <DOPAMINE D3>
8.35

>  <DOPAMINE D4>
8.2

>  <HISTAMINE H1>
6.76

>  <Muscarinic acetylcholine receptor M3>
5.57

>  <Serotonin transporter>
6

$$$$
SERTRALINE
  Marvin  02231216192D 0   1.00000     0.00000     0

 20 22  0  0  1  0  0  0  0  0999 V2000
    3.7848    2.1302    0.0000 Cl  0  0  0  0  0  0  0  0  0
    3.0703    1.7177    0.0000 C   0  0  0  0  0  0  0  0  0
    3.0703    0.8927    0.0000 C   0  0  0  0  0  0  0  0  0
    2.3558    0.4802    0.0000 C   0  0  0  0  0  0  0  0  0
    1.6413    0.8927    0.0000 C   0  0  0  0  0  0  0  0  0
    1.6413    1.7177    0.0000 C   0  0  0  0  0  0  0  0  0
    2.3558    2.1302    0.0000 C   0  0  0  0  0  0  0  0  0
    2.3558    2.9552    0.0000 Cl  0  0  0  0  0  0  0  0  0
    2.3558   -0.3448    0.0000 C   0  0  0  0  0  0  0  0  0
    1.6413   -0.7573    0.0000 C   0  0  0  0  0  0  0  0  0
    1.6413   -1.5823    0.0000 C   0  0  0  0  0  0  0  0  0
    2.3558   -1.9948    0.0000 C   0  0  0  0  0  0  0  0  0
    2.3558   -2.8198    0.0000 N   0  0  0  0  0  0  0  0  0
    3.0703   -3.2323    0.0000 C   0  0  0  0  0  0  0  0  0
    3.0703   -1.5823    0.0000 C   0  0  0  0  0  0  0  0  0
    3.0703   -0.7573    0.0000 C   0  0  0  0  0  0  0  0  0
    3.7848   -0.3448    0.0000 C   0  0  0  0  0  0  0  0  0
    4.4992   -0.7573    0.0000 C   0  0  0  0  0  0  0  0  0
    4.4992   -1.5823    0.0000 C   0  0  0  0  0  0  0  0  0
    3.7848   -1.9948    0.0000 C   0  0  0  0  0  0  0  0  0
  1  2  1  0  0  0  0
  2  3  4  0  0  0  0
  2  7  4  0  0  0  0
  3  4  4  0  0  0  0
  4  5  4  0  0  0  0
  4  9  1  0  0  0  0
  5  6  4  0  0  0  0
  6  7  4  0  0  0  0
  7  8  1  0  0  0  0
  9 10  1  0  0  0  0
  9 16  1  0  0  0  0
 10 11  1  0  0  0  0
 11 12  1  0  0  0  0
 12 13  1  0  0  0  0
 12 15  1  0  0  0  0
 13 14  1  0  0  0  0
 15 16  4  0  0  0  0
 15 20  4  0  0  0  0
 16 17  4  0  0  0  0
 17 18  4  0  0  0  0
 18 19  4  0  0  0  0
 19 20  4  0  0  0  0
M  END
>  <Name_Molregno>
SERTRALINE

>  <5-HT1A>
5

>  <DOPAMINE D2>
5

>  <Dopamine transporter>
7.34

>  <HISTAMINE H1>
5

>  <Muscarinic acetylcholine receptor M1>
6.13

>  <Muscarinic acetylcholine receptor M2>
5.68

>  <Muscarinic acetylcholine receptor M3>
5.89

>  <Muscarinic acetylcholine receptor M4>
5.85

>  <Muscarinic acetylcholine receptor M5>
5.72

>  <Norepinephrine transporter>
6.1

>  <Serotonin transporter>
9.17

$$$$
SKF77434
  Marvin  02231216192D 0   1.00000     0.00000     0

 22 24  0  0  1  0  0  0  0  0999 V2000
   -0.2985    0.9950    0.0000 O   0  0  0  0  0  0  0  0  0
    0.4160    1.4075    0.0000 C   0  0  0  0  0  0  0  0  0
    1.1304    0.9950    0.0000 C   0  0  0  0  0  0  0  0  0
    1.8449    1.4075    0.0000 C   0  0  0  0  0  0  0  0  0
    1.8449    2.2325    0.0000 C   0  0  0  0  0  0  0  0  0
    1.1304    2.6450    0.0000 C   0  0  0  0  0  0  0  0  0
    0.4160    2.2325    0.0000 C   0  0  0  0  0  0  0  0  0
   -0.2985    2.6450    0.0000 O   0  0  0  0  0  0  0  0  0
    2.4899    2.7469    0.0000 C   0  0  0  0  0  0  0  0  0
    3.2942    2.5633    0.0000 C   0  0  0  0  0  0  0  0  0
    3.6522    1.8200    0.0000 N   0  0  0  0  0  0  0  0  0
    3.2942    1.0767    0.0000 C   0  0  0  0  0  0  0  0  0
    2.4899    0.8931    0.0000 C   0  0  0  0  0  0  0  0  0
    2.3063    0.0888    0.0000 C   0  0  0  0  0  0  0  0  0
    2.9111   -0.4723    0.0000 C   0  0  0  0  0  0  0  0  0
    2.7275   -1.2766    0.0000 C   0  0  0  0  0  0  0  0  0
    1.9392   -1.5198    0.0000 C   0  0  0  0  0  0  0  0  0
    1.3344   -0.9587    0.0000 C   0  0  0  0  0  0  0  0  0
    1.5180   -0.1543    0.0000 C   0  0  0  0  0  0  0  0  0
    4.4772    1.8200    0.0000 C   0  0  0  0  0  0  0  0  0
    4.8897    1.1055    0.0000 C   0  0  0  0  0  0  0  0  0
    5.7147    1.1055    0.0000 C   0  0  0  0  0  0  0  0  0
  1  2  1  0  0  0  0
  2  3  4  0  0  0  0
  2  7  4  0  0  0  0
  3  4  4  0  0  0  0
  4  5  4  0  0  0  0
  4 13  1  0  0  0  0
  5  6  4  0  0  0  0
  5  9  1  0  0  0  0
  6  7  4  0  0  0  0
  7  8  1  0  0  0  0
  9 10  1  0  0  0  0
 10 11  1  0  0  0  0
 11 12  1  0  0  0  0
 11 20  1  0  0  0  0
 12 13  1  0  0  0  0
 13 14  1  0  0  0  0
 14 15  4  0  0  0  0
 14 19  4  0  0  0  0
 15 16  4  0  0  0  0
 16 17  4  0  0  0  0
 17 18  4  0  0  0  0
 18 19  4  0  0  0  0
 20 21  1  0  0  0  0
 21 22  2  0  0  0  0
M  END
>  <Name_Molregno>
SKF77434

>  <5-HT1A>
5.68

>  <DOPAMINE D1>
7.14

>  <DOPAMINE D2>
6.24

>  <DOPAMINE D3>
8

$$$$
SKF81297
  Marvin  02231216192D 0   1.00000     0.00000     0

 20 22  0  0  1  0  0  0  0  0999 V2000
    1.6428   -1.7438    0.0000 Cl  0  0  0  0  0  0  0  0  0
    1.6428   -0.9188    0.0000 C   0  0  0  0  0  0  0  0  0
    2.3573   -0.5063    0.0000 C   0  0  0  0  0  0  0  0  0
    2.3573    0.3187    0.0000 C   0  0  0  0  0  0  0  0  0
    1.6428    0.7312    0.0000 C   0  0  0  0  0  0  0  0  0
    0.9283    0.3187    0.0000 C   0  0  0  0  0  0  0  0  0
    0.2139    0.7312    0.0000 O   0  0  0  0  0  0  0  0  0
    0.9283   -0.5063    0.0000 C   0  0  0  0  0  0  0  0  0
    0.2139   -0.9188    0.0000 O   0  0  0  0  0  0  0  0  0
    3.0023    0.8331    0.0000 C   0  0  0  0  0  0  0  0  0
    3.8066    0.6495    0.0000 C   0  0  0  0  0  0  0  0  0
    4.1646   -0.0938    0.0000 N   0  0  0  0  0  0  0  0  0
    3.8066   -0.8371    0.0000 C   0  0  0  0  0  0  0  0  0
    3.0023   -1.0207    0.0000 C   0  0  0  0  0  0  0  0  0
    2.8187    1.6374    0.0000 C   0  0  0  0  0  0  0  0  0
    2.0304    1.8805    0.0000 C   0  0  0  0  0  0  0  0  0
    1.8468    2.6849    0.0000 C   0  0  0  0  0  0  0  0  0
    2.4516    3.2460    0.0000 C   0  0  0  0  0  0  0  0  0
    3.2399    3.0028    0.0000 C   0  0  0  0  0  0  0  0  0
    3.4235    2.1985    0.0000 C   0  0  0  0  0  0  0  0  0
  1  2  1  0  0  0  0
  2  3  4  0  0  0  0
  2  8  4  0  0  0  0
  3  4  4  0  0  0  0
  3 14  1  0  0  0  0
  4  5  4  0  0  0  0
  4 10  1  0  0  0  0
  5  6  4  0  0  0  0
  6  7  1  0  0  0  0
  6  8  4  0  0  0  0
  8  9  1  0  0  0  0
 10 11  1  0  0  0  0
 10 15  1  0  0  0  0
 11 12  1  0  0  0  0
 12 13  1  0  0  0  0
 13 14  1  0  0  0  0
 15 16  4  0  0  0  0
 15 20  4  0  0  0  0
 16 17  4  0  0  0  0
 17 18  4  0  0  0  0
 18 19  4  0  0  0  0
 19 20  4  0  0  0  0
M  END
>  <Name_Molregno>
SKF81297

>  <5-HT1A>
5.26

>  <DOPAMINE D1>
6.95

>  <DOPAMINE D2>
5

>  <DOPAMINE D3>
5.55

$$$$
SKF82958
  Marvin  02231216192D 0   1.00000     0.00000     0

 23 25  0  0  1  0  0  0  0  0999 V2000
   -0.8720   -4.5282    0.0000 Cl  0  0  0  0  0  0  0  0  0
   -0.8720   -3.7032    0.0000 C   0  0  0  0  0  0  0  0  0
   -0.1576   -3.2907    0.0000 C   0  0  0  0  0  0  0  0  0
   -0.1576   -2.4657    0.0000 C   0  0  0  0  0  0  0  0  0
   -0.8720   -2.0532    0.0000 C   0  0  0  0  0  0  0  0  0
   -1.5865   -2.4657    0.0000 C   0  0  0  0  0  0  0  0  0
   -2.3010   -2.0532    0.0000 O   0  0  0  0  0  0  0  0  0
   -1.5865   -3.2907    0.0000 C   0  0  0  0  0  0  0  0  0
   -2.3010   -3.7032    0.0000 O   0  0  0  0  0  0  0  0  0
    0.4875   -1.9514    0.0000 C   0  0  0  0  0  0  0  0  0
    1.2918   -2.1349    0.0000 C   0  0  0  0  0  0  0  0  0
    1.6497   -2.8782    0.0000 N   0  0  0  0  0  0  0  0  0
    1.2918   -3.6215    0.0000 C   0  0  0  0  0  0  0  0  0
    0.4875   -3.8051    0.0000 C   0  0  0  0  0  0  0  0  0
    2.4747   -2.8782    0.0000 C   0  0  0  0  0  0  0  0  0
    2.8872   -3.5927    0.0000 C   0  0  0  0  0  0  0  0  0
    3.7122   -3.5927    0.0000 C   0  0  0  0  0  0  0  0  0
    0.3039   -1.1470    0.0000 C   0  0  0  0  0  0  0  0  0
   -0.4845   -0.9039    0.0000 C   0  0  0  0  0  0  0  0  0
   -0.6681   -0.0996    0.0000 C   0  0  0  0  0  0  0  0  0
   -0.0633    0.4616    0.0000 C   0  0  0  0  0  0  0  0  0
    0.7251    0.2184    0.0000 C   0  0  0  0  0  0  0  0  0
    0.9086   -0.5859    0.0000 C   0  0  0  0  0  0  0  0  0
  1  2  1  0  0  0  0
  2  3  4  0  0  0  0
  2  8  4  0  0  0  0
  3  4  4  0  0  0  0
  3 14  1  0  0  0  0
  4  5  4  0  0  0  0
  4 10  1  0  0  0  0
  5  6  4  0  0  0  0
  6  7  1  0  0  0  0
  6  8  4  0  0  0  0
  8  9  1  0  0  0  0
 10 11  1  0  0  0  0
 10 18  1  0  0  0  0
 11 12  1  0  0  0  0
 12 13  1  0  0  0  0
 12 15  1  0  0  0  0
 13 14  1  0  0  0  0
 15 16  1  0  0  0  0
 16 17  2  0  0  0  0
 18 19  4  0  0  0  0
 18 23  4  0  0  0  0
 19 20  4  0  0  0  0
 20 21  4  0  0  0  0
 21 22  4  0  0  0  0
 22 23  4  0  0  0  0
M  END
>  <Name_Molregno>
SKF82958

>  <5-HT1A>
5.75

>  <DOPAMINE D1>
7.66

>  <DOPAMINE D2>
6.87

>  <DOPAMINE D3>
7.14

$$$$
SPIPERONE
  Marvin  02231216192D 0   1.00000     0.00000     0

 29 32  0  0  0  0  0  0  0  0999 V2000
   10.5422    0.0060    0.0000 F   0  0  0  0  0  0  0  0  0
    9.7172    0.0060    0.0000 C   0  0  0  0  0  0  0  0  0
    9.3047   -0.7084    0.0000 C   0  0  0  0  0  0  0  0  0
    8.4797   -0.7084    0.0000 C   0  0  0  0  0  0  0  0  0
    8.0672    0.0060    0.0000 C   0  0  0  0  0  0  0  0  0
    8.4797    0.7205    0.0000 C   0  0  0  0  0  0  0  0  0
    9.3047    0.7205    0.0000 C   0  0  0  0  0  0  0  0  0
    7.2422    0.0060    0.0000 C   0  0  0  0  0  0  0  0  0
    6.8297    0.7205    0.0000 O   0  0  0  0  0  0  0  0  0
    6.8297   -0.7084    0.0000 C   0  0  0  0  0  0  0  0  0
    6.0047   -0.7084    0.0000 C   0  0  0  0  0  0  0  0  0
    5.5922   -1.4229    0.0000 C   0  0  0  0  0  0  0  0  0
    4.7672   -1.4229    0.0000 N   0  0  0  0  0  0  0  0  0
    4.3547   -2.1374    0.0000 C   0  0  0  0  0  0  0  0  0
    3.5297   -2.1374    0.0000 C   0  0  0  0  0  0  0  0  0
    3.1172   -1.4229    0.0000 C   0  0  0  0  0  0  0  0  0
    2.6323   -2.0903    0.0000 N   0  0  0  0  0  0  0  0  0
    1.8476   -1.8354    0.0000 C   0  0  0  0  0  0  0  0  0
    1.8476   -1.0104    0.0000 N   0  0  0  0  0  0  0  0  0
    2.6323   -0.7555    0.0000 C   0  0  0  0  0  0  0  0  0
    2.8872    0.0292    0.0000 O   0  0  0  0  0  0  0  0  0
    2.8872   -2.8750    0.0000 C   0  0  0  0  0  0  0  0  0
    3.6942   -3.0465    0.0000 C   0  0  0  0  0  0  0  0  0
    3.9491   -3.8311    0.0000 C   0  0  0  0  0  0  0  0  0
    3.3971   -4.4442    0.0000 C   0  0  0  0  0  0  0  0  0
    2.5901   -4.2727    0.0000 C   0  0  0  0  0  0  0  0  0
    2.3352   -3.4880    0.0000 C   0  0  0  0  0  0  0  0  0
    3.5297   -0.7084    0.0000 C   0  0  0  0  0  0  0  0  0
    4.3547   -0.7084    0.0000 C   0  0  0  0  0  0  0  0  0
  1  2  1  0  0  0  0
  2  3  4  0  0  0  0
  2  7  4  0  0  0  0
  3  4  4  0  0  0  0
  4  5  4  0  0  0  0
  5  6  4  0  0  0  0
  5  8  1  0  0  0  0
  6  7  4  0  0  0  0
  8  9  2  0  0  0  0
  8 10  1  0  0  0  0
 10 11  1  0  0  0  0
 11 12  1  0  0  0  0
 12 13  1  0  0  0  0
 13 14  1  0  0  0  0
 13 29  1  0  0  0  0
 14 15  1  0  0  0  0
 15 16  1  0  0  0  0
 16 17  1  0  0  0  0
 16 20  1  0  0  0  0
 16 28  1  0  0  0  0
 17 18  1  0  0  0  0
 17 22  1  0  0  0  0
 18 19  1  0  0  0  0
 19 20  1  0  0  0  0
 20 21  2  0  0  0  0
 22 23  4  0  0  0  0
 22 27  4  0  0  0  0
 23 24  4  0  0  0  0
 24 25  4  0  0  0  0
 25 26  4  0  0  0  0
 26 27  4  0  0  0  0
 28 29  1  0  0  0  0
M  END
>  <Name_Molregno>
SPIPERONE

>  <5-HT1A>
7

>  <5-HT1B>
5.5

>  <5-HT1D>
5.4

>  <5-HT1E>
5.3

>  <5-HT2A>
8.65

>  <5-HT2C>
6.12

>  <5-HT5>
4.2

>  <5-HT6>
5.8

>  <5-HT7>
7.17

>  <Alpha-1A>
7.9

>  <Alpha-1B>
8.51

>  <DOPAMINE D1>
6.42

>  <DOPAMINE D2>
10.02

>  <DOPAMINE D3>
9.55

>  <DOPAMINE D4>
9.31

>  <DOPAMINE D5>
5.35

>  <HISTAMINE H1>
6.4

$$$$
SPIROXATRINE
  Marvin  02231216192D 0   1.00000     0.00000     0

 28 32  0  0  1  0  0  0  0  0999 V2000
    0.6932    2.0959    0.0000 O   0  0  0  0  0  0  0  0  0
    1.1057    2.8104    0.0000 C   0  0  0  0  0  0  0  0  0
    0.6932    3.5248    0.0000 C   0  0  0  0  0  0  0  0  0
   -0.1318    3.5248    0.0000 O   0  0  0  0  0  0  0  0  0
   -0.5443    2.8104    0.0000 C   0  0  0  0  0  0  0  0  0
   -0.1318    2.0959    0.0000 C   0  0  0  0  0  0  0  0  0
   -0.5443    1.3814    0.0000 C   0  0  0  0  0  0  0  0  0
   -1.3693    1.3814    0.0000 N   0  0  0  0  0  0  0  0  0
   -1.7818    0.6670    0.0000 C   0  0  0  0  0  0  0  0  0
   -2.6068    0.6670    0.0000 C   0  0  0  0  0  0  0  0  0
   -3.0193    1.3814    0.0000 C   0  0  0  0  0  0  0  0  0
   -3.5043    0.7140    0.0000 N   0  0  0  0  0  0  0  0  0
   -4.2889    0.9689    0.0000 C   0  0  0  0  0  0  0  0  0
   -4.2889    1.7939    0.0000 N   0  0  0  0  0  0  0  0  0
   -3.5043    2.0489    0.0000 C   0  0  0  0  0  0  0  0  0
   -3.2493    2.8335    0.0000 O   0  0  0  0  0  0  0  0  0
   -3.2493   -0.0706    0.0000 C   0  0  0  0  0  0  0  0  0
   -2.4424   -0.2422    0.0000 C   0  0  0  0  0  0  0  0  0
   -2.1874   -1.0268    0.0000 C   0  0  0  0  0  0  0  0  0
   -2.7395   -1.6399    0.0000 C   0  0  0  0  0  0  0  0  0
   -3.5464   -1.4684    0.0000 C   0  0  0  0  0  0  0  0  0
   -3.8014   -0.6837    0.0000 C   0  0  0  0  0  0  0  0  0
   -2.6068    2.0959    0.0000 C   0  0  0  0  0  0  0  0  0
   -1.7818    2.0959    0.0000 C   0  0  0  0  0  0  0  0  0
    1.1057    4.2393    0.0000 C   0  0  0  0  0  0  0  0  0
    1.9307    4.2393    0.0000 C   0  0  0  0  0  0  0  0  0
    2.3432    3.5248    0.0000 C   0  0  0  0  0  0  0  0  0
    1.9307    2.8104    0.0000 C   0  0  0  0  0  0  0  0  0
  1  2  1  0  0  0  0
  1  6  1  0  0  0  0
  2  3  4  0  0  0  0
  2 28  4  0  0  0  0
  3  4  1  0  0  0  0
  3 25  4  0  0  0  0
  4  5  1  0  0  0  0
  5  6  1  0  0  0  0
  6  7  1  0  0  0  0
  7  8  1  0  0  0  0
  8  9  1  0  0  0  0
  8 24  1  0  0  0  0
  9 10  1  0  0  0  0
 10 11  1  0  0  0  0
 11 12  1  0  0  0  0
 11 15  1  0  0  0  0
 11 23  1  0  0  0  0
 12 13  1  0  0  0  0
 12 17  1  0  0  0  0
 13 14  1  0  0  0  0
 14 15  1  0  0  0  0
 15 16  2  0  0  0  0
 17 18  4  0  0  0  0
 17 22  4  0  0  0  0
 18 19  4  0  0  0  0
 19 20  4  0  0  0  0
 20 21  4  0  0  0  0
 21 22  4  0  0  0  0
 23 24  1  0  0  0  0
 25 26  4  0  0  0  0
 26 27  4  0  0  0  0
 27 28  4  0  0  0  0
M  END
>  <Name_Molregno>
SPIROXATRINE

>  <5-HT1A>
8.67

>  <Alpha-2A>
7.69

>  <Alpha-2B>
9.09

>  <Alpha-2C>
9.42

$$$$
SR144528
  Marvin  02231216192D 0   1.00000     0.00000     0

 34 38  0  0  1  0  0  0  0  0999 V2000
   -3.4859   -7.8445    0.0000 Cl  0  0  0  0  0  0  0  0  0
   -3.3410   -7.0323    0.0000 C   0  0  0  0  0  0  0  0  0
   -3.9720   -6.5008    0.0000 C   0  0  0  0  0  0  0  0  0
   -3.8271   -5.6886    0.0000 C   0  0  0  0  0  0  0  0  0
   -3.0513   -5.4080    0.0000 C   0  0  0  0  0  0  0  0  0
   -2.4203   -5.9395    0.0000 C   0  0  0  0  0  0  0  0  0
   -2.5652   -6.7517    0.0000 C   0  0  0  0  0  0  0  0  0
   -1.9343   -7.2833    0.0000 C   0  0  0  0  0  0  0  0  0
   -2.9064   -4.5958    0.0000 C   0  0  0  0  0  0  0  0  0
   -3.4783   -4.0012    0.0000 N   0  0  0  0  0  0  0  0  0
   -3.0895   -3.2735    0.0000 N   0  0  0  0  0  0  0  0  0
   -2.2773   -3.4184    0.0000 C   0  0  0  0  0  0  0  0  0
   -2.1641   -4.2356    0.0000 C   0  0  0  0  0  0  0  0  0
   -1.6827   -2.8465    0.0000 C   0  0  0  0  0  0  0  0  0
   -1.8807   -2.0456    0.0000 O   0  0  0  0  0  0  0  0  0
   -0.8901   -3.0755    0.0000 N   0  0  0  0  0  0  0  0  0
   -0.2955   -2.5036    0.0000 C   0  0  0  0  0  0  0  0  0
    0.0698   -1.8431    0.0000 C   0  0  0  0  0  0  0  0  0
    0.7101   -1.3929    0.0000 C   0  0  0  0  0  0  0  0  0
    0.5501   -0.5775    0.0000 C   0  0  0  0  0  0  0  0  0
    0.4800   -2.1133    0.0000 C   0  0  0  0  0  0  0  0  0
    1.2105   -2.4836    0.0000 C   0  0  0  0  0  0  0  0  0
    1.5056   -1.8582    0.0000 C   0  0  0  0  0  0  0  0  0
    0.4788   -2.9383    0.0000 C   0  0  0  0  0  0  0  0  0
   -0.7153   -1.5897    0.0000 C   0  0  0  0  0  0  0  0  0
   -0.2665   -1.0898    0.0000 C   0  0  0  0  0  0  0  0  0
   -4.2955   -4.1144    0.0000 C   0  0  0  0  0  0  0  0  0
   -4.8021   -3.4633    0.0000 C   0  0  0  0  0  0  0  0  0
   -5.6193   -3.5764    0.0000 C   0  0  0  0  0  0  0  0  0
   -6.1259   -2.9253    0.0000 C   0  0  0  0  0  0  0  0  0
   -5.8153   -2.1610    0.0000 C   0  0  0  0  0  0  0  0  0
   -4.9981   -2.0478    0.0000 C   0  0  0  0  0  0  0  0  0
   -4.4915   -2.6989    0.0000 C   0  0  0  0  0  0  0  0  0
   -6.3219   -1.5099    0.0000 C   0  0  0  0  0  0  0  0  0
  1  2  1  0  0  0  0
  2  3  4  0  0  0  0
  2  7  4  0  0  0  0
  3  4  4  0  0  0  0
  4  5  4  0  0  0  0
  5  6  4  0  0  0  0
  5  9  1  0  0  0  0
  6  7  4  0  0  0  0
  7  8  1  0  0  0  0
  9 10  4  0  0  0  0
  9 13  4  0  0  0  0
 10 11  4  0  0  0  0
 10 27  1  0  0  0  0
 11 12  4  0  0  0  0
 12 13  4  0  0  0  0
 12 14  1  0  0  0  0
 14 15  2  0  0  0  0
 14 16  1  0  0  0  0
 16 17  1  0  0  0  0
 17 18  1  0  0  0  0
 17 21  1  0  0  0  0
 18 19  1  0  0  0  0
 18 25  1  0  0  0  0
 18 26  1  0  0  0  0
 19 20  1  0  0  0  0
 19 23  1  0  0  0  0
 20 21  1  0  0  0  0
 21 22  1  0  0  0  0
 21 24  1  0  0  0  0
 22 23  1  0  0  0  0
 27 28  1  0  0  0  0
 28 29  4  0  0  0  0
 28 33  4  0  0  0  0
 29 30  4  0  0  0  0
 30 31  4  0  0  0  0
 31 32  4  0  0  0  0
 31 34  1  0  0  0  0
 32 33  4  0  0  0  0
M  END
>  <Name_Molregno>
SR144528

>  <5-HT1A>
5

>  <5-HT1B>
5

>  <5-HT1D>
5

>  <5-HT2A>
5

>  <5-HT2C>
5

>  <5-HT3>
5

>  <Beta-1>
5

>  <Beta-2>
5

>  <DOPAMINE D1>
5

>  <DOPAMINE D2>
5

>  <DOPAMINE D3>
5

>  <DOPAMINE D4>
5

>  <HISTAMINE H1>
5

>  <HISTAMINE H2>
5

>  <HISTAMINE H3>
5

>  <Muscarinic acetylcholine receptor M1>
5

>  <Muscarinic acetylcholine receptor M2>
5

>  <Muscarinic acetylcholine receptor M4>
5

$$$$
SR46349B
  Marvin  02231216192D 0   1.00000     0.00000     0

 24 25  0  0  0  0  0  0  0  0999 V2000
   -0.7835    2.8630    0.0000 F   0  0  0  0  0  0  0  0  0
   -0.0691    3.2755    0.0000 C   0  0  0  0  0  0  0  0  0
   -0.0691    4.1005    0.0000 C   0  0  0  0  0  0  0  0  0
    0.6454    4.5130    0.0000 C   0  0  0  0  0  0  0  0  0
    1.3599    4.1005    0.0000 C   0  0  0  0  0  0  0  0  0
    1.3599    3.2755    0.0000 C   0  0  0  0  0  0  0  0  0
    0.6454    2.8630    0.0000 C   0  0  0  0  0  0  0  0  0
    0.6454    2.0380    0.0000 C   0  0  0  0  0  0  0  0  0
    1.3599    1.6255    0.0000 N   0  0  0  0  0  0  0  0  0
    2.0743    2.0380    0.0000 O   0  0  0  0  0  0  0  0  0
    2.7888    1.6255    0.0000 C   0  0  0  0  0  0  0  0  0
    3.5033    2.0380    0.0000 C   0  0  0  0  0  0  0  0  0
    4.2177    1.6255    0.0000 N   0  0  0  0  0  0  0  0  0
    4.9322    2.0380    0.0000 C   0  0  0  0  0  0  0  0  0
    4.2177    0.8005    0.0000 C   0  0  0  0  0  0  0  0  0
   -0.0691    1.6255    0.0000 C   0  0  0  0  0  0  0  0  0
   -0.0691    0.8005    0.0000 C   0  0  0  0  0  0  0  0  0
   -0.7835    0.3880    0.0000 C   0  0  0  0  0  0  0  0  0
   -0.7835   -0.4370    0.0000 C   0  0  0  0  0  0  0  0  0
   -1.4980   -0.8495    0.0000 C   0  0  0  0  0  0  0  0  0
   -2.2125   -0.4370    0.0000 C   0  0  0  0  0  0  0  0  0
   -2.9270   -0.8495    0.0000 O   0  0  0  0  0  0  0  0  0
   -2.2125    0.3880    0.0000 C   0  0  0  0  0  0  0  0  0
   -1.4980    0.8005    0.0000 C   0  0  0  0  0  0  0  0  0
  1  2  1  0  0  0  0
  2  3  4  0  0  0  0
  2  7  4  0  0  0  0
  3  4  4  0  0  0  0
  4  5  4  0  0  0  0
  5  6  4  0  0  0  0
  6  7  4  0  0  0  0
  7  8  1  0  0  0  0
  8  9  1  0  0  0  0
  8 16  2  0  0  0  0
  9 10  1  0  0  0  0
 10 11  1  0  0  0  0
 11 12  1  0  0  0  0
 12 13  1  0  0  0  0
 13 14  1  0  0  0  0
 13 15  1  0  0  0  0
 16 17  1  0  0  0  0
 17 18  2  0  0  0  0
 18 19  1  0  0  0  0
 18 24  1  0  0  0  0
 19 20  2  0  0  0  0
 20 21  1  0  0  0  0
 21 22  2  0  0  0  0
 21 23  1  0  0  0  0
 23 24  2  0  0  0  0
M  END
>  <Name_Molregno>
SR46349B

>  <5-HT1A>
5.6

>  <5-HT2A>
9

>  <5-HT2C>
8.09

>  <5-HT5>
5.76

>  <5-HT6>
5.41

>  <Alpha-2A>
6.14

>  <Alpha-2C>
5.67

>  <DOPAMINE D1>
5

>  <Dopamine transporter>
5.25

>  <Muscarinic acetylcholine receptor M1>
6.14

>  <Muscarinic acetylcholine receptor M2>
5

>  <Muscarinic acetylcholine receptor M3>
5.62

>  <Muscarinic acetylcholine receptor M4>
5.44

>  <Muscarinic acetylcholine receptor M5>
5.52

>  <Norepinephrine transporter>
6.13

$$$$
SULPIRIDE
  Marvin  02231216192D 0   1.00000     0.00000     0

 23 24  0  0  1  0  0  0  0  0999 V2000
   -2.6543    0.9455    0.0000 S   0  0  0  0  0  0  0  0  0
   -2.6543    1.7705    0.0000 O   0  0  0  0  0  0  0  0  0
   -3.4793    0.9455    0.0000 O   0  0  0  0  0  0  0  0  0
   -1.8293    0.9455    0.0000 N   0  0  0  0  0  0  0  0  0
   -2.6543    0.1205    0.0000 C   0  0  0  0  0  0  0  0  0
   -1.9398   -0.2920    0.0000 C   0  0  0  0  0  0  0  0  0
   -1.9398   -1.1170    0.0000 C   0  0  0  0  0  0  0  0  0
   -1.2253   -1.5295    0.0000 C   0  0  0  0  0  0  0  0  0
   -0.5109   -1.1170    0.0000 O   0  0  0  0  0  0  0  0  0
   -1.2253   -2.3545    0.0000 N   0  0  0  0  0  0  0  0  0
   -0.5109   -2.7670    0.0000 C   0  0  0  0  0  0  0  0  0
   -0.5109   -3.5920    0.0000 C   0  0  0  0  0  0  0  0  0
    0.1566   -4.0770    0.0000 N   0  0  0  0  0  0  0  0  0
   -0.0984   -4.8616    0.0000 C   0  0  0  0  0  0  0  0  0
   -0.9234   -4.8616    0.0000 C   0  0  0  0  0  0  0  0  0
   -1.1783   -4.0770    0.0000 C   0  0  0  0  0  0  0  0  0
    0.9412   -3.8220    0.0000 C   0  0  0  0  0  0  0  0  0
    1.1127   -3.0150    0.0000 C   0  0  0  0  0  0  0  0  0
   -2.6543   -1.5295    0.0000 C   0  0  0  0  0  0  0  0  0
   -2.6543   -2.3545    0.0000 O   0  0  0  0  0  0  0  0  0
   -3.3687   -2.7670    0.0000 C   0  0  0  0  0  0  0  0  0
   -3.3687   -1.1170    0.0000 C   0  0  0  0  0  0  0  0  0
   -3.3687   -0.2920    0.0000 C   0  0  0  0  0  0  0  0  0
  1  2  2  0  0  0  0
  1  3  2  0  0  0  0
  1  4  1  0  0  0  0
  1  5  1  0  0  0  0
  5  6  4  0  0  0  0
  5 23  4  0  0  0  0
  6  7  4  0  0  0  0
  7  8  1  0  0  0  0
  7 19  4  0  0  0  0
  8  9  2  0  0  0  0
  8 10  1  0  0  0  0
 10 11  1  0  0  0  0
 11 12  1  0  0  0  0
 12 13  1  0  0  0  0
 12 16  1  0  0  0  0
 13 14  1  0  0  0  0
 13 17  1  0  0  0  0
 14 15  1  0  0  0  0
 15 16  1  0  0  0  0
 17 18  1  0  0  0  0
 19 20  1  0  0  0  0
 19 22  4  0  0  0  0
 20 21  1  0  0  0  0
 22 23  4  0  0  0  0
M  END
>  <Name_Molregno>
SULPIRIDE

>  <5-HT1A>
5

>  <5-HT3>
5

>  <DOPAMINE D1>
5

>  <DOPAMINE D2>
7.23

>  <DOPAMINE D3>
7.64

>  <DOPAMINE D4>
6.54

>  <DOPAMINE D5>
5

$$$$
SUMATRIPTAN
  Marvin  02231216192D 0   1.00000     0.00000     0

 20 21  0  0  0  0  0  0  0  0999 V2000
   -0.2094    0.6280    0.0000 S   0  0  0  0  0  0  0  0  0
   -0.6219    1.3424    0.0000 O   0  0  0  0  0  0  0  0  0
    0.2031   -0.0865    0.0000 O   0  0  0  0  0  0  0  0  0
    0.5050    1.0405    0.0000 N   0  0  0  0  0  0  0  0  0
    1.2195    0.6280    0.0000 C   0  0  0  0  0  0  0  0  0
   -0.9239    0.2155    0.0000 C   0  0  0  0  0  0  0  0  0
   -1.6384    0.6280    0.0000 C   0  0  0  0  0  0  0  0  0
   -2.3529    0.2155    0.0000 C   0  0  0  0  0  0  0  0  0
   -3.0673    0.6280    0.0000 C   0  0  0  0  0  0  0  0  0
   -3.0673    1.4530    0.0000 C   0  0  0  0  0  0  0  0  0
   -3.8519    1.7079    0.0000 N   0  0  0  0  0  0  0  0  0
   -4.3369    1.0405    0.0000 C   0  0  0  0  0  0  0  0  0
   -3.8519    0.3730    0.0000 C   0  0  0  0  0  0  0  0  0
   -4.1069   -0.4116    0.0000 C   0  0  0  0  0  0  0  0  0
   -3.5549   -1.0247    0.0000 C   0  0  0  0  0  0  0  0  0
   -3.8098   -1.8093    0.0000 N   0  0  0  0  0  0  0  0  0
   -4.6168   -1.9808    0.0000 C   0  0  0  0  0  0  0  0  0
   -3.2578   -2.4224    0.0000 C   0  0  0  0  0  0  0  0  0
   -2.3529    1.8655    0.0000 C   0  0  0  0  0  0  0  0  0
   -1.6384    1.4530    0.0000 C   0  0  0  0  0  0  0  0  0
  1  2  2  0  0  0  0
  1  3  2  0  0  0  0
  1  4  1  0  0  0  0
  1  6  1  0  0  0  0
  4  5  1  0  0  0  0
  6  7  1  0  0  0  0
  7  8  4  0  0  0  0
  7 20  4  0  0  0  0
  8  9  4  0  0  0  0
  9 10  4  0  0  0  0
  9 13  4  0  0  0  0
 10 11  4  0  0  0  0
 10 19  4  0  0  0  0
 11 12  4  0  0  0  0
 12 13  4  0  0  0  0
 13 14  1  0  0  0  0
 14 15  1  0  0  0  0
 15 16  1  0  0  0  0
 16 17  1  0  0  0  0
 16 18  1  0  0  0  0
 19 20  4  0  0  0  0
M  STY  1   1 DAT
M  SAL   1  1  11
M  SDT   1 MRV_IMPLICIT_H                                        
M  SDD   1     0.0000    0.0000    DR    ALL  0       0  
M  SED   1 IMPL_H1
M  END
>  <Name_Molregno>
SUMATRIPTAN

>  <5-HT1A>
6.38

>  <5-HT1B>
7.95

>  <5-HT1D>
8.46

>  <5-HT1E>
5.63

>  <5-HT2A>
5

>  <5-HT2C>
5

>  <5-HT6>
5.3

>  <5-HT7>
6.01

$$$$
TERGURIDE
  Marvin  02231216192D 0   1.00000     0.00000     0

 25 28  0  0  1  0  0  0  0  0999 V2000
   -0.3965   -3.1617    0.0000 O   0  0  0  0  0  0  0  0  0
    0.3175   -3.5751    0.0000 C   0  0  0  0  0  0  0  0  0
    1.0325   -3.1634    0.0000 N   0  0  0  0  0  0  0  0  0
    1.0334   -2.3384    0.0000 C   0  0  0  0  0  0  0  0  0
    1.7484   -1.9268    0.0000 C   0  0  0  0  0  0  0  0  0
    1.7494   -1.1018    0.0000 C   0  0  0  0  0  0  0  0  0
    1.0354   -0.6884    0.0000 C   0  0  0  0  0  0  0  0  0
    0.3205   -1.1001    0.0000 N   0  0  0  0  0  0  0  0  0
    0.3195   -1.9251    0.0000 C   0  0  0  0  0  0  0  0  0
   -0.3935   -0.6867    0.0000 C   0  0  0  0  0  0  0  0  0
    1.0369    0.1357    0.0000 C   0  0  0  0  0  0  0  0  0
    1.7494    0.5482    0.0000 C   0  0  0  0  0  0  0  0  0
    2.4619    0.1357    0.0000 C   0  0  0  0  0  0  0  0  0
    2.4619   -0.6893    0.0000 C   0  0  0  0  0  0  0  0  0
    3.1798   -1.1018    0.0000 C   0  0  0  0  0  0  0  0  0
    3.8923   -0.6893    0.0000 C   0  0  0  0  0  0  0  0  0
    3.8923    0.1357    0.0000 C   0  0  0  0  0  0  0  0  0
    3.1798    0.5482    0.0000 C   0  0  0  0  0  0  0  0  0
    2.8744    1.4054    0.0000 N   0  0  0  0  0  0  0  0  0
    2.0494    1.4054    0.0000 C   0  0  0  0  0  0  0  0  0
    0.3165   -4.4001    0.0000 N   0  0  0  0  0  0  0  0  0
   -0.3985   -4.8117    0.0000 C   0  0  0  0  0  0  0  0  0
   -0.3994   -5.6367    0.0000 C   0  0  0  0  0  0  0  0  0
    1.0305   -4.8134    0.0000 C   0  0  0  0  0  0  0  0  0
    1.0295   -5.6384    0.0000 C   0  0  0  0  0  0  0  0  0
  1  2  2  0  0  0  0
  2  3  1  0  0  0  0
  2 21  1  0  0  0  0
  3  4  1  0  0  0  0
  4  5  1  0  0  0  0
  4  9  1  0  0  0  0
  5  6  1  0  0  0  0
  6  7  1  0  0  0  0
  6 14  1  0  0  0  0
  7  8  1  0  0  0  0
  7 11  1  0  0  0  0
  8  9  1  0  0  0  0
  8 10  1  0  0  0  0
 11 12  1  0  0  0  0
 12 13  4  0  0  0  0
 12 20  4  0  0  0  0
 13 14  4  0  0  0  0
 13 18  4  0  0  0  0
 14 15  4  0  0  0  0
 15 16  4  0  0  0  0
 16 17  4  0  0  0  0
 17 18  4  0  0  0  0
 18 19  4  0  0  0  0
 19 20  4  0  0  0  0
 21 22  1  0  0  0  0
 21 24  1  0  0  0  0
 22 23  1  0  0  0  0
 24 25  1  0  0  0  0
M  STY  1   1 DAT
M  SAL   1  1  19
M  SDT   1 MRV_IMPLICIT_H                                        
M  SDD   1     0.0000    0.0000    DR    ALL  0       0  
M  SED   1 IMPL_H1
M  END
>  <Name_Molregno>
TERGURIDE

>  <5-HT1A>
8.46

>  <5-HT1B>
6.59

>  <5-HT1D>
7.79

>  <5-HT2A>
8.32

>  <5-HT2C>
7.32

>  <Alpha-1A>
8.45

>  <Alpha-1B>
7.46

>  <Alpha-2A>
9.53

>  <Alpha-2B>
9.35

>  <Alpha-2C>
9.12

>  <Beta-1>
6.18

>  <Beta-2>
7.7

>  <DOPAMINE D1>
7.55

>  <DOPAMINE D2>
9.06

>  <DOPAMINE D3>
9

>  <DOPAMINE D4>
8.18

>  <DOPAMINE D5>
7.63

$$$$
TERTATOLOL
  Marvin  02231216192D 0   1.00000     0.00000     0

 20 21  0  0  1  0  0  0  0  0999 V2000
    0.2340   -1.0636    0.0000 S   0  0  0  0  0  0  0  0  0
    0.2340   -0.2386    0.0000 C   0  0  0  0  0  0  0  0  0
   -0.4805    0.1739    0.0000 C   0  0  0  0  0  0  0  0  0
   -1.1949   -0.2386    0.0000 C   0  0  0  0  0  0  0  0  0
   -1.1949   -1.0636    0.0000 C   0  0  0  0  0  0  0  0  0
   -0.4805   -1.4761    0.0000 C   0  0  0  0  0  0  0  0  0
   -0.4805    0.9989    0.0000 C   0  0  0  0  0  0  0  0  0
    0.2340    1.4114    0.0000 C   0  0  0  0  0  0  0  0  0
    0.9485    0.9989    0.0000 C   0  0  0  0  0  0  0  0  0
    0.9485    0.1739    0.0000 C   0  0  0  0  0  0  0  0  0
    1.6630   -0.2386    0.0000 O   0  0  0  0  0  0  0  0  0
    2.3774    0.1739    0.0000 C   0  0  0  0  0  0  0  0  0
    3.0919   -0.2386    0.0000 C   0  0  0  0  0  0  0  0  0
    3.0919   -1.0636    0.0000 O   0  0  0  0  0  0  0  0  0
    3.8064    0.1739    0.0000 C   0  0  0  0  0  0  0  0  0
    4.5208   -0.2386    0.0000 N   0  0  0  0  0  0  0  0  0
    5.2353    0.1739    0.0000 C   0  0  0  0  0  0  0  0  0
    5.9498    0.5864    0.0000 C   0  0  0  0  0  0  0  0  0
    5.6478   -0.5406    0.0000 C   0  0  0  0  0  0  0  0  0
    4.8228    0.8884    0.0000 C   0  0  0  0  0  0  0  0  0
  1  2  1  0  0  0  0
  1  6  1  0  0  0  0
  2  3  4  0  0  0  0
  2 10  4  0  0  0  0
  3  4  1  0  0  0  0
  3  7  4  0  0  0  0
  4  5  1  0  0  0  0
  5  6  1  0  0  0  0
  7  8  4  0  0  0  0
  8  9  4  0  0  0  0
  9 10  4  0  0  0  0
 10 11  1  0  0  0  0
 11 12  1  0  0  0  0
 12 13  1  0  0  0  0
 13 14  1  0  0  0  0
 13 15  1  0  0  0  0
 15 16  1  0  0  0  0
 16 17  1  0  0  0  0
 17 18  1  0  0  0  0
 17 19  1  0  0  0  0
 17 20  1  0  0  0  0
M  END
>  <Name_Molregno>
TERTATOLOL

>  <5-HT1A>
8.17

>  <DOPAMINE D2>
5

>  <DOPAMINE D3>
5

$$$$
THIORIDAZINE
  Marvin  02231216192D 0   1.00000     0.00000     0

 25 28  0  0  1  0  0  0  0  0999 V2000
    1.0601   -0.3753    0.0000 S   0  0  0  0  0  0  0  0  0
    1.7746    0.0372    0.0000 C   0  0  0  0  0  0  0  0  0
    1.7746    0.8622    0.0000 C   0  0  0  0  0  0  0  0  0
    1.0601    1.2747    0.0000 N   0  0  0  0  0  0  0  0  0
    0.3456    0.8622    0.0000 C   0  0  0  0  0  0  0  0  0
    0.3456    0.0372    0.0000 C   0  0  0  0  0  0  0  0  0
   -0.3689   -0.3753    0.0000 C   0  0  0  0  0  0  0  0  0
   -1.0833    0.0372    0.0000 C   0  0  0  0  0  0  0  0  0
   -1.0833    0.8622    0.0000 C   0  0  0  0  0  0  0  0  0
   -0.3689    1.2747    0.0000 C   0  0  0  0  0  0  0  0  0
    1.0601    2.0997    0.0000 C   0  0  0  0  0  0  0  0  0
    0.3456    2.5122    0.0000 C   0  0  0  0  0  0  0  0  0
    0.3456    3.3372    0.0000 C   0  0  0  0  0  0  0  0  0
   -0.3689    3.7497    0.0000 N   0  0  0  0  0  0  0  0  0
   -0.3689    4.5747    0.0000 C   0  0  0  0  0  0  0  0  0
    0.3456    4.9872    0.0000 C   0  0  0  0  0  0  0  0  0
    1.0601    4.5747    0.0000 C   0  0  0  0  0  0  0  0  0
    1.0601    3.7497    0.0000 C   0  0  0  0  0  0  0  0  0
   -1.0833    3.3372    0.0000 C   0  0  0  0  0  0  0  0  0
    2.4890    1.2747    0.0000 C   0  0  0  0  0  0  0  0  0
    3.2035    0.8622    0.0000 C   0  0  0  0  0  0  0  0  0
    3.9180    1.2747    0.0000 S   0  0  0  0  0  0  0  0  0
    3.9180    2.0997    0.0000 C   0  0  0  0  0  0  0  0  0
    3.2035    0.0372    0.0000 C   0  0  0  0  0  0  0  0  0
    2.4890   -0.3753    0.0000 C   0  0  0  0  0  0  0  0  0
  1  2  1  0  0  0  0
  1  6  1  0  0  0  0
  2  3  4  0  0  0  0
  2 25  4  0  0  0  0
  3  4  1  0  0  0  0
  3 20  4  0  0  0  0
  4  5  1  0  0  0  0
  4 11  1  0  0  0  0
  5  6  4  0  0  0  0
  5 10  4  0  0  0  0
  6  7  4  0  0  0  0
  7  8  4  0  0  0  0
  8  9  4  0  0  0  0
  9 10  4  0  0  0  0
 11 12  1  0  0  0  0
 12 13  1  0  0  0  0
 13 14  1  0  0  0  0
 13 18  1  0  0  0  0
 14 15  1  0  0  0  0
 14 19  1  0  0  0  0
 15 16  1  0  0  0  0
 16 17  1  0  0  0  0
 17 18  1  0  0  0  0
 20 21  4  0  0  0  0
 21 22  1  0  0  0  0
 21 24  4  0  0  0  0
 22 23  1  0  0  0  0
 24 25  4  0  0  0  0
M  END
>  <Name_Molregno>
THIORIDAZINE

>  <5-HT1A>
6.85

>  <5-HT1B>
6.96

>  <5-HT1D>
6.24

>  <5-HT1E>
6.71

>  <5-HT2A>
7.95

>  <5-HT2C>
7.28

>  <5-HT3>
5

>  <5-HT5>
6.44

>  <5-HT6>
7.24

>  <5-HT7>
7.05

>  <Alpha-1A>
8.6

>  <Alpha-1B>
8.62

>  <Alpha-2A>
6.87

>  <Alpha-2B>
6.47

>  <Alpha-2C>
7.13

>  <Beta-1>
5

>  <Beta-2>
5

>  <DOPAMINE D1>
7.03

>  <DOPAMINE D2>
8.31

>  <DOPAMINE D3>
8.59

>  <DOPAMINE D4>
8.21

>  <DOPAMINE D5>
6.6

>  <Dopamine transporter>
5.77

>  <HISTAMINE H1>
7.79

>  <HISTAMINE H2>
6.87

>  <HISTAMINE H4>
5.62

>  <Muscarinic acetylcholine receptor M1>
8.21

>  <Muscarinic acetylcholine receptor M2>
7.26

>  <Muscarinic acetylcholine receptor M3>
7.6

>  <Muscarinic acetylcholine receptor M4>
7.38

>  <Muscarinic acetylcholine receptor M5>
7.9

>  <Norepinephrine transporter>
6.07

>  <Serotonin transporter>
5.9

$$$$
TRANYLCYPROMINE
  Marvin  02231216192D 0   1.00000     0.00000     0

 10 11  0  0  1  0  0  0  0  0999 V2000
    3.0600    1.1452    0.0000 N   0  0  0  0  0  0  0  0  0
    3.0600    0.3202    0.0000 C   0  0  0  0  0  0  0  0  0
    3.4725   -0.3943    0.0000 C   0  0  0  0  0  0  0  0  0
    2.6475   -0.3943    0.0000 C   0  0  0  0  0  0  0  0  0
    1.9330   -0.8068    0.0000 C   0  0  0  0  0  0  0  0  0
    1.9330   -1.6318    0.0000 C   0  0  0  0  0  0  0  0  0
    1.2185   -2.0443    0.0000 C   0  0  0  0  0  0  0  0  0
    0.5040   -1.6318    0.0000 C   0  0  0  0  0  0  0  0  0
    0.5040   -0.8068    0.0000 C   0  0  0  0  0  0  0  0  0
    1.2185   -0.3943    0.0000 C   0  0  0  0  0  0  0  0  0
  1  2  1  0  0  0  0
  2  3  1  0  0  0  0
  2  4  1  0  0  0  0
  3  4  1  0  0  0  0
  4  5  1  0  0  0  0
  5  6  4  0  0  0  0
  5 10  4  0  0  0  0
  6  7  4  0  0  0  0
  7  8  4  0  0  0  0
  8  9  4  0  0  0  0
  9 10  4  0  0  0  0
M  END
>  <Name_Molregno>
TRANYLCYPROMINE

>  <5-HT1A>
5.22

>  <DOPAMINE D1>
5

>  <DOPAMINE D2>
5

>  <Dopamine transporter>
5.29

>  <Norepinephrine transporter>
5.23

>  <Serotonin transporter>
5

$$$$
TRAZODONE
  Marvin  02231216192D 0   1.00000     0.00000     0

 26 29  0  0  0  0  0  0  0  0999 V2000
    0.6158   -2.7707    0.0000 Cl  0  0  0  0  0  0  0  0  0
    1.4408   -2.7707    0.0000 C   0  0  0  0  0  0  0  0  0
    1.8533   -2.0563    0.0000 C   0  0  0  0  0  0  0  0  0
    2.6783   -2.0563    0.0000 C   0  0  0  0  0  0  0  0  0
    3.0908   -1.3418    0.0000 N   0  0  0  0  0  0  0  0  0
    2.6783   -0.6273    0.0000 C   0  0  0  0  0  0  0  0  0
    3.0908    0.0872    0.0000 C   0  0  0  0  0  0  0  0  0
    3.9158    0.0872    0.0000 N   0  0  0  0  0  0  0  0  0
    4.3283   -0.6273    0.0000 C   0  0  0  0  0  0  0  0  0
    3.9158   -1.3418    0.0000 C   0  0  0  0  0  0  0  0  0
    4.3283    0.8016    0.0000 C   0  0  0  0  0  0  0  0  0
    5.1533    0.8016    0.0000 C   0  0  0  0  0  0  0  0  0
    5.5658    1.5161    0.0000 C   0  0  0  0  0  0  0  0  0
    6.3908    1.5161    0.0000 N   0  0  0  0  0  0  0  0  0
    6.8757    0.8487    0.0000 N   0  0  0  0  0  0  0  0  0
    7.6604    1.1036    0.0000 C   0  0  0  0  0  0  0  0  0
    7.6604    1.9286    0.0000 N   0  0  0  0  0  0  0  0  0
    8.3748    2.3411    0.0000 C   0  0  0  0  0  0  0  0  0
    9.0893    1.9286    0.0000 C   0  0  0  0  0  0  0  0  0
    9.0893    1.1036    0.0000 C   0  0  0  0  0  0  0  0  0
    8.3748    0.6911    0.0000 C   0  0  0  0  0  0  0  0  0
    6.8757    2.1835    0.0000 C   0  0  0  0  0  0  0  0  0
    6.6208    2.9682    0.0000 O   0  0  0  0  0  0  0  0  0
    3.0908   -2.7707    0.0000 C   0  0  0  0  0  0  0  0  0
    2.6783   -3.4852    0.0000 C   0  0  0  0  0  0  0  0  0
    1.8533   -3.4852    0.0000 C   0  0  0  0  0  0  0  0  0
  1  2  1  0  0  0  0
  2  3  4  0  0  0  0
  2 26  4  0  0  0  0
  3  4  4  0  0  0  0
  4  5  1  0  0  0  0
  4 24  4  0  0  0  0
  5  6  1  0  0  0  0
  5 10  1  0  0  0  0
  6  7  1  0  0  0  0
  7  8  1  0  0  0  0
  8  9  1  0  0  0  0
  8 11  1  0  0  0  0
  9 10  1  0  0  0  0
 11 12  1  0  0  0  0
 12 13  1  0  0  0  0
 13 14  1  0  0  0  0
 14 15  1  0  0  0  0
 14 22  1  0  0  0  0
 15 16  2  0  0  0  0
 16 17  1  0  0  0  0
 16 21  1  0  0  0  0
 17 18  1  0  0  0  0
 17 22  1  0  0  0  0
 18 19  2  0  0  0  0
 19 20  1  0  0  0  0
 20 21  2  0  0  0  0
 22 23  2  0  0  0  0
 24 25  4  0  0  0  0
 25 26  4  0  0  0  0
M  END
>  <Name_Molregno>
TRAZODONE

>  <5-HT1A>
6.97

>  <5-HT1B>
5

>  <5-HT1D>
6.97

>  <5-HT1E>
5

>  <5-HT2A>
7.46

>  <5-HT2C>
6.65

>  <5-HT3>
5

>  <5-HT5>
5

>  <5-HT6>
5

>  <5-HT7>
5.75

>  <Alpha-1A>
6.82

>  <Alpha-2A>
6.14

>  <Alpha-2C>
6.81

>  <Beta-1>
5

>  <Beta-2>
5

>  <DOPAMINE D1>
5.43

>  <DOPAMINE D2>
5.42

>  <DOPAMINE D4>
6.15

>  <DOPAMINE D5>
5

>  <Dopamine transporter>
5.07

>  <HISTAMINE H1>
6.31

>  <HISTAMINE H2>
5.48

>  <HISTAMINE H4>
5

>  <Muscarinic acetylcholine receptor M1>
5

>  <Muscarinic acetylcholine receptor M2>
5

>  <Muscarinic acetylcholine receptor M3>
5

>  <Muscarinic acetylcholine receptor M4>
5

>  <Muscarinic acetylcholine receptor M5>
5

>  <Norepinephrine transporter>
5.02

>  <Serotonin transporter>
6.14

$$$$
TRIFLUOPERAZINE
  Marvin  02231216192D 0   1.00000     0.00000     0

 28 31  0  0  0  0  0  0  0  0999 V2000
   -1.0248   -3.8592    0.0000 S   0  0  0  0  0  0  0  0  0
   -0.3103   -3.4467    0.0000 C   0  0  0  0  0  0  0  0  0
   -0.3103   -2.6217    0.0000 C   0  0  0  0  0  0  0  0  0
   -1.0248   -2.2092    0.0000 N   0  0  0  0  0  0  0  0  0
   -1.7393   -2.6217    0.0000 C   0  0  0  0  0  0  0  0  0
   -1.7393   -3.4467    0.0000 C   0  0  0  0  0  0  0  0  0
   -2.4538   -3.8592    0.0000 C   0  0  0  0  0  0  0  0  0
   -3.1682   -3.4467    0.0000 C   0  0  0  0  0  0  0  0  0
   -3.1682   -2.6217    0.0000 C   0  0  0  0  0  0  0  0  0
   -2.4538   -2.2092    0.0000 C   0  0  0  0  0  0  0  0  0
   -1.0248   -1.3842    0.0000 C   0  0  0  0  0  0  0  0  0
   -1.7393   -0.9717    0.0000 C   0  0  0  0  0  0  0  0  0
   -1.7393   -0.1467    0.0000 C   0  0  0  0  0  0  0  0  0
   -2.4538    0.2658    0.0000 N   0  0  0  0  0  0  0  0  0
   -3.1682   -0.1467    0.0000 C   0  0  0  0  0  0  0  0  0
   -3.8827    0.2658    0.0000 C   0  0  0  0  0  0  0  0  0
   -3.8827    1.0908    0.0000 N   0  0  0  0  0  0  0  0  0
   -3.1682    1.5033    0.0000 C   0  0  0  0  0  0  0  0  0
   -2.4538    1.0908    0.0000 C   0  0  0  0  0  0  0  0  0
   -4.5972    1.5033    0.0000 C   0  0  0  0  0  0  0  0  0
    0.4041   -2.2092    0.0000 C   0  0  0  0  0  0  0  0  0
    1.1186   -2.6217    0.0000 C   0  0  0  0  0  0  0  0  0
    1.1186   -3.4467    0.0000 C   0  0  0  0  0  0  0  0  0
    0.4041   -3.8592    0.0000 C   0  0  0  0  0  0  0  0  0
    1.8331   -2.2092    0.0000 C   0  0  0  0  0  0  0  0  0
    2.5475   -1.7967    0.0000 F   0  0  0  0  0  0  0  0  0
    2.2456   -2.9236    0.0000 F   0  0  0  0  0  0  0  0  0
    1.4206   -1.4947    0.0000 F   0  0  0  0  0  0  0  0  0
  1  2  1  0  0  0  0
  1  6  1  0  0  0  0
  2  3  4  0  0  0  0
  2 24  4  0  0  0  0
  3  4  1  0  0  0  0
  3 21  4  0  0  0  0
  4  5  1  0  0  0  0
  4 11  1  0  0  0  0
  5  6  4  0  0  0  0
  5 10  4  0  0  0  0
  6  7  4  0  0  0  0
  7  8  4  0  0  0  0
  8  9  4  0  0  0  0
  9 10  4  0  0  0  0
 11 12  1  0  0  0  0
 12 13  1  0  0  0  0
 13 14  1  0  0  0  0
 14 15  1  0  0  0  0
 14 19  1  0  0  0  0
 15 16  1  0  0  0  0
 16 17  1  0  0  0  0
 17 18  1  0  0  0  0
 17 20  1  0  0  0  0
 18 19  1  0  0  0  0
 21 22  4  0  0  0  0
 22 23  4  0  0  0  0
 22 25  1  0  0  0  0
 23 24  4  0  0  0  0
 25 26  1  0  0  0  0
 25 27  1  0  0  0  0
 25 28  1  0  0  0  0
M  END
>  <Name_Molregno>
TRIFLUOPERAZINE

>  <5-HT1A>
6.02

>  <5-HT2A>
7.78

>  <5-HT2C>
6.42

>  <5-HT6>
6.85

>  <5-HT7>
6.54

>  <Alpha-1A>
7.62

>  <Alpha-2A>
6.18

>  <Alpha-2B>
6.79

>  <Alpha-2C>
6.41

>  <DOPAMINE D2>
8.75

>  <DOPAMINE D3>
9.22

>  <DOPAMINE D4>
7.24

>  <HISTAMINE H1>
7.2

>  <Muscarinic acetylcholine receptor M3>
6

$$$$
TRYPTAMINE
  Marvin  02231216192D 0   1.00000     0.00000     0

 12 13  0  0  0  0  0  0  0  0999 V2000
    0.3098    0.2368    0.0000 N   0  0  0  0  0  0  0  0  0
   -0.1752   -0.4306    0.0000 C   0  0  0  0  0  0  0  0  0
    0.3098   -1.0981    0.0000 C   0  0  0  0  0  0  0  0  0
    1.0944   -0.8431    0.0000 C   0  0  0  0  0  0  0  0  0
    1.0944   -0.0181    0.0000 C   0  0  0  0  0  0  0  0  0
    1.8089    0.3944    0.0000 C   0  0  0  0  0  0  0  0  0
    2.5233   -0.0181    0.0000 C   0  0  0  0  0  0  0  0  0
    2.5233   -0.8431    0.0000 C   0  0  0  0  0  0  0  0  0
    1.8089   -1.2556    0.0000 C   0  0  0  0  0  0  0  0  0
    0.0548   -1.8827    0.0000 C   0  0  0  0  0  0  0  0  0
   -0.7522   -2.0542    0.0000 C   0  0  0  0  0  0  0  0  0
   -1.0071   -2.8389    0.0000 N   0  0  0  0  0  0  0  0  0
  1  2  4  0  0  0  0
  1  5  4  0  0  0  0
  2  3  4  0  0  0  0
  3  4  4  0  0  0  0
  3 10  1  0  0  0  0
  4  5  4  0  0  0  0
  4  9  4  0  0  0  0
  5  6  4  0  0  0  0
  6  7  4  0  0  0  0
  7  8  4  0  0  0  0
  8  9  4  0  0  0  0
 10 11  1  0  0  0  0
 11 12  1  0  0  0  0
M  STY  1   1 DAT
M  SAL   1  1   1
M  SDT   1 MRV_IMPLICIT_H                                        
M  SDD   1     0.0000    0.0000    DR    ALL  0       0  
M  SED   1 IMPL_H1
M  END
>  <Name_Molregno>
TRYPTAMINE

>  <5-HT1A>
6.98

>  <5-HT1B>
6.68

>  <5-HT1D>
7.02

>  <5-HT1E>
5.59

>  <5-HT2A>
6.1

>  <5-HT2C>
6.5

>  <5-HT6>
6.36

>  <5-HT7>
6.83

$$$$
U-101387
  Marvin  02231216192D 0   1.00000     0.00000     0

 28 31  0  0  1  0  0  0  0  0999 V2000
   -4.8510    3.8791    0.0000 S   0  0  0  0  0  0  0  0  0
   -4.8510    4.7041    0.0000 O   0  0  0  0  0  0  0  0  0
   -5.6760    3.8791    0.0000 O   0  0  0  0  0  0  0  0  0
   -4.0260    3.8791    0.0000 N   0  0  0  0  0  0  0  0  0
   -4.8510    3.0541    0.0000 C   0  0  0  0  0  0  0  0  0
   -4.1365    2.6416    0.0000 C   0  0  0  0  0  0  0  0  0
   -4.1365    1.8166    0.0000 C   0  0  0  0  0  0  0  0  0
   -4.8510    1.4041    0.0000 C   0  0  0  0  0  0  0  0  0
   -4.8510    0.5791    0.0000 N   0  0  0  0  0  0  0  0  0
   -4.1365    0.1666    0.0000 C   0  0  0  0  0  0  0  0  0
   -4.1365   -0.6584    0.0000 C   0  0  0  0  0  0  0  0  0
   -4.8510   -1.0709    0.0000 N   0  0  0  0  0  0  0  0  0
   -5.5655   -0.6584    0.0000 C   0  0  0  0  0  0  0  0  0
   -5.5655    0.1666    0.0000 C   0  0  0  0  0  0  0  0  0
   -4.8510   -1.8959    0.0000 C   0  0  0  0  0  0  0  0  0
   -4.1365   -2.3084    0.0000 C   0  0  0  0  0  0  0  0  0
   -4.1365   -3.1334    0.0000 C   0  0  0  0  0  0  0  0  0
   -4.8510   -3.5459    0.0000 O   0  0  0  0  0  0  0  0  0
   -4.8510   -4.3709    0.0000 C   0  0  0  0  0  0  0  0  0
   -4.1365   -4.7834    0.0000 C   0  0  0  0  0  0  0  0  0
   -3.4221   -4.3709    0.0000 C   0  0  0  0  0  0  0  0  0
   -3.4221   -3.5459    0.0000 C   0  0  0  0  0  0  0  0  0
   -2.7076   -3.1334    0.0000 C   0  0  0  0  0  0  0  0  0
   -1.9931   -3.5459    0.0000 C   0  0  0  0  0  0  0  0  0
   -1.9931   -4.3709    0.0000 C   0  0  0  0  0  0  0  0  0
   -2.7076   -4.7834    0.0000 C   0  0  0  0  0  0  0  0  0
   -5.5655    1.8166    0.0000 C   0  0  0  0  0  0  0  0  0
   -5.5655    2.6416    0.0000 C   0  0  0  0  0  0  0  0  0
  1  2  2  0  0  0  0
  1  3  2  0  0  0  0
  1  4  1  0  0  0  0
  1  5  1  0  0  0  0
  5  6  4  0  0  0  0
  5 28  4  0  0  0  0
  6  7  4  0  0  0  0
  7  8  4  0  0  0  0
  8  9  1  0  0  0  0
  8 27  4  0  0  0  0
  9 10  1  0  0  0  0
  9 14  1  0  0  0  0
 10 11  1  0  0  0  0
 11 12  1  0  0  0  0
 12 13  1  0  0  0  0
 12 15  1  0  0  0  0
 13 14  1  0  0  0  0
 15 16  1  0  0  0  0
 16 17  1  0  0  0  0
 17 18  1  0  0  0  0
 17 22  1  0  0  0  0
 18 19  1  0  0  0  0
 19 20  1  0  0  0  0
 20 21  1  0  0  0  0
 21 22  4  0  0  0  0
 21 26  4  0  0  0  0
 22 23  4  0  0  0  0
 23 24  4  0  0  0  0
 24 25  4  0  0  0  0
 25 26  4  0  0  0  0
 27 28  4  0  0  0  0
M  END
>  <Name_Molregno>
U-101387

>  <5-HT1A>
5.46

>  <5-HT6>
5

>  <DOPAMINE D4>
8

$$$$
VALDECOXIB
  Marvin  02231216192D 0   1.00000     0.00000     0

 22 24  0  0  0  0  0  0  0  0999 V2000
   -2.8104    3.0816    0.0000 S   0  0  0  0  0  0  0  0  0
   -2.8104    3.9066    0.0000 O   0  0  0  0  0  0  0  0  0
   -3.6354    3.0816    0.0000 O   0  0  0  0  0  0  0  0  0
   -1.9854    3.0816    0.0000 N   0  0  0  0  0  0  0  0  0
   -2.8104    2.2566    0.0000 C   0  0  0  0  0  0  0  0  0
   -2.0959    1.8441    0.0000 C   0  0  0  0  0  0  0  0  0
   -2.0959    1.0191    0.0000 C   0  0  0  0  0  0  0  0  0
   -2.8104    0.6066    0.0000 C   0  0  0  0  0  0  0  0  0
   -3.5249    1.0191    0.0000 C   0  0  0  0  0  0  0  0  0
   -3.5249    1.8441    0.0000 C   0  0  0  0  0  0  0  0  0
   -2.8104   -0.2184    0.0000 C   0  0  0  0  0  0  0  0  0
   -2.1430   -0.7033    0.0000 C   0  0  0  0  0  0  0  0  0
   -2.3979   -1.4879    0.0000 N   0  0  0  0  0  0  0  0  0
   -3.2229   -1.4879    0.0000 O   0  0  0  0  0  0  0  0  0
   -3.4778   -0.7033    0.0000 C   0  0  0  0  0  0  0  0  0
   -4.2625   -0.4483    0.0000 C   0  0  0  0  0  0  0  0  0
   -1.3583   -0.4483    0.0000 C   0  0  0  0  0  0  0  0  0
   -1.1868    0.3586    0.0000 C   0  0  0  0  0  0  0  0  0
   -0.4022    0.6136    0.0000 C   0  0  0  0  0  0  0  0  0
    0.2109    0.0615    0.0000 C   0  0  0  0  0  0  0  0  0
    0.0394   -0.7454    0.0000 C   0  0  0  0  0  0  0  0  0
   -0.7452   -1.0004    0.0000 C   0  0  0  0  0  0  0  0  0
  1  2  2  0  0  0  0
  1  3  2  0  0  0  0
  1  4  1  0  0  0  0
  1  5  1  0  0  0  0
  5  6  4  0  0  0  0
  5 10  4  0  0  0  0
  6  7  4  0  0  0  0
  7  8  4  0  0  0  0
  8  9  4  0  0  0  0
  8 11  1  0  0  0  0
  9 10  4  0  0  0  0
 11 12  4  0  0  0  0
 11 15  4  0  0  0  0
 12 13  4  0  0  0  0
 12 17  1  0  0  0  0
 13 14  4  0  0  0  0
 14 15  4  0  0  0  0
 15 16  1  0  0  0  0
 17 18  4  0  0  0  0
 17 22  4  0  0  0  0
 18 19  4  0  0  0  0
 19 20  4  0  0  0  0
 20 21  4  0  0  0  0
 21 22  4  0  0  0  0
M  END
>  <Name_Molregno>
VALDECOXIB

>  <5-HT1A>
5

>  <5-HT1B>
5

>  <5-HT1D>
5

>  <5-HT1E>
5

>  <5-HT2A>
5

>  <5-HT3>
5

>  <5-HT6>
5

>  <5-HT7>
5

>  <Alpha-1A>
5

>  <Alpha-1B>
5

>  <Alpha-2A>
5

>  <Alpha-2B>
5

>  <Alpha-2C>
5

>  <DOPAMINE D1>
5

>  <DOPAMINE D2>
5

>  <DOPAMINE D5>
5

>  <Dopamine transporter>
5

>  <HISTAMINE H1>
5

>  <HISTAMINE H2>
5

>  <Muscarinic acetylcholine receptor M2>
5

>  <Muscarinic acetylcholine receptor M5>
5

>  <Serotonin transporter>
5

$$$$
valeryl-salicylate
  Marvin  02231216192D 0   1.00000     0.00000     0

 16 16  0  0  0  0  0  0  0  0999 V2000
   -0.4431    0.9218    0.0000 O   0  0  0  0  0  0  0  0  0
    0.2714    1.3343    0.0000 C   0  0  0  0  0  0  0  0  0
    0.2714    2.1593    0.0000 O   0  0  0  0  0  0  0  0  0
    0.9859    0.9218    0.0000 C   0  0  0  0  0  0  0  0  0
    1.7003    1.3343    0.0000 C   0  0  0  0  0  0  0  0  0
    2.4148    0.9218    0.0000 C   0  0  0  0  0  0  0  0  0
    2.4148    0.0968    0.0000 C   0  0  0  0  0  0  0  0  0
   -0.4431    0.0968    0.0000 C   0  0  0  0  0  0  0  0  0
    0.2714   -0.3157    0.0000 C   0  0  0  0  0  0  0  0  0
    0.2714   -1.1407    0.0000 C   0  0  0  0  0  0  0  0  0
   -0.4431   -1.5532    0.0000 C   0  0  0  0  0  0  0  0  0
   -1.1576   -1.1407    0.0000 C   0  0  0  0  0  0  0  0  0
   -1.1576   -0.3157    0.0000 C   0  0  0  0  0  0  0  0  0
   -1.8720    0.0968    0.0000 C   0  0  0  0  0  0  0  0  0
   -2.5865   -0.3157    0.0000 O   0  0  0  0  0  0  0  0  0
   -1.8720    0.9218    0.0000 O   0  0  0  0  0  0  0  0  0
  1  2  1  0  0  0  0
  1  8  1  0  0  0  0
  2  3  2  0  0  0  0
  2  4  1  0  0  0  0
  4  5  1  0  0  0  0
  5  6  1  0  0  0  0
  6  7  1  0  0  0  0
  8  9  4  0  0  0  0
  8 13  4  0  0  0  0
  9 10  4  0  0  0  0
 10 11  4  0  0  0  0
 11 12  4  0  0  0  0
 12 13  4  0  0  0  0
 13 14  1  0  0  0  0
 14 15  1  0  0  0  0
 14 16  2  0  0  0  0
M  END
>  <Name_Molregno>
valeryl-salicylate

>  <5-HT1A>
5

>  <5-HT1B>
5

>  <5-HT1D>
5

>  <5-HT1E>
5

>  <5-HT2A>
5

>  <5-HT3>
5

>  <5-HT5>
5

>  <5-HT6>
5

>  <5-HT7>
5

>  <Alpha-1A>
5

>  <Alpha-1B>
5

>  <Alpha-2A>
5

>  <Alpha-2B>
5

>  <Alpha-2C>
5

>  <DOPAMINE D1>
5

>  <DOPAMINE D2>
5

>  <DOPAMINE D4>
5

>  <DOPAMINE D5>
5

>  <HISTAMINE H1>
5

>  <HISTAMINE H2>
5

>  <HISTAMINE H4>
5

>  <Muscarinic acetylcholine receptor M2>
5

>  <Muscarinic acetylcholine receptor M5>
5

$$$$
Venlafaxine
  Marvin  02231216192D 0   1.00000     0.00000     0

 20 21  0  0  1  0  0  0  0  0999 V2000
    2.4113    2.7171    0.0000 O   0  0  0  0  0  0  0  0  0
    1.6968    3.1296    0.0000 C   0  0  0  0  0  0  0  0  0
    2.4113    1.8921    0.0000 C   0  0  0  0  0  0  0  0  0
    3.1257    1.4796    0.0000 C   0  0  0  0  0  0  0  0  0
    3.1257    0.6546    0.0000 C   0  0  0  0  0  0  0  0  0
    2.4113    0.2421    0.0000 C   0  0  0  0  0  0  0  0  0
    1.6968    0.6546    0.0000 C   0  0  0  0  0  0  0  0  0
    1.6968    1.4796    0.0000 C   0  0  0  0  0  0  0  0  0
    2.4113   -0.5829    0.0000 C   0  0  0  0  0  0  0  0  0
    1.6968   -0.9954    0.0000 C   0  0  0  0  0  0  0  0  0
    1.6968   -1.8204    0.0000 N   0  0  0  0  0  0  0  0  0
    2.4113   -2.2329    0.0000 C   0  0  0  0  0  0  0  0  0
    0.9823   -2.2329    0.0000 C   0  0  0  0  0  0  0  0  0
    3.1257   -0.9954    0.0000 C   0  0  0  0  0  0  0  0  0
    2.5954   -1.6274    0.0000 O   0  0  0  0  0  0  0  0  0
    3.4079   -0.2201    0.0000 C   0  0  0  0  0  0  0  0  0
    4.2204   -0.0769    0.0000 C   0  0  0  0  0  0  0  0  0
    4.7507   -0.7089    0.0000 C   0  0  0  0  0  0  0  0  0
    4.4685   -1.4841    0.0000 C   0  0  0  0  0  0  0  0  0
    3.6560   -1.6274    0.0000 C   0  0  0  0  0  0  0  0  0
  1  2  1  0  0  0  0
  1  3  1  0  0  0  0
  3  4  4  0  0  0  0
  3  8  4  0  0  0  0
  4  5  4  0  0  0  0
  5  6  4  0  0  0  0
  6  7  4  0  0  0  0
  6  9  1  0  0  0  0
  7  8  4  0  0  0  0
  9 10  1  0  0  0  0
  9 14  1  0  0  0  0
 10 11  1  0  0  0  0
 11 12  1  0  0  0  0
 11 13  1  0  0  0  0
 14 15  1  0  0  0  0
 14 16  1  0  0  0  0
 14 20  1  0  0  0  0
 16 17  1  0  0  0  0
 17 18  1  0  0  0  0
 18 19  1  0  0  0  0
 19 20  1  0  0  0  0
M  END
>  <Name_Molregno>
Venlafaxine

>  <5-HT1A>
5

>  <5-HT1B>
5

>  <5-HT1D>
5

>  <5-HT1E>
5

>  <5-HT2A>
5.33

>  <5-HT2C>
5.35

>  <5-HT6>
5.55

>  <5-HT7>
5

>  <Alpha-1A>
5

>  <Alpha-2A>
5.5

>  <DOPAMINE D2>
5

>  <DOPAMINE D3>
5

>  <Dopamine transporter>
5.17

>  <HISTAMINE H1>
5

>  <Muscarinic acetylcholine receptor M1>
5.5

>  <Muscarinic acetylcholine receptor M2>
5.5

>  <Muscarinic acetylcholine receptor M3>
5

>  <Muscarinic acetylcholine receptor M4>
5

>  <Muscarinic acetylcholine receptor M5>
5

>  <Norepinephrine transporter>
5.82

>  <Serotonin transporter>
7.43

$$$$
ZIMELIDINE
  Marvin  02231216192D 0   1.00000     0.00000     0

 19 20  0  0  0  0  0  0  0  0999 V2000
    3.0388    3.1498    0.0000 Br  0  0  0  0  0  0  0  0  0
    3.0388    2.3248    0.0000 C   0  0  0  0  0  0  0  0  0
    3.7533    1.9123    0.0000 C   0  0  0  0  0  0  0  0  0
    3.7533    1.0873    0.0000 C   0  0  0  0  0  0  0  0  0
    3.0388    0.6748    0.0000 C   0  0  0  0  0  0  0  0  0
    2.3243    1.0873    0.0000 C   0  0  0  0  0  0  0  0  0
    2.3243    1.9123    0.0000 C   0  0  0  0  0  0  0  0  0
    3.0388   -0.1502    0.0000 C   0  0  0  0  0  0  0  0  0
    2.3243   -0.5627    0.0000 C   0  0  0  0  0  0  0  0  0
    2.3243   -1.3877    0.0000 C   0  0  0  0  0  0  0  0  0
    1.6099   -1.8002    0.0000 N   0  0  0  0  0  0  0  0  0
    1.6099   -2.6252    0.0000 C   0  0  0  0  0  0  0  0  0
    0.8954   -1.3877    0.0000 C   0  0  0  0  0  0  0  0  0
    3.7533   -0.5627    0.0000 C   0  0  0  0  0  0  0  0  0
    4.4677   -0.1502    0.0000 C   0  0  0  0  0  0  0  0  0
    5.1822   -0.5627    0.0000 C   0  0  0  0  0  0  0  0  0
    5.1822   -1.3877    0.0000 C   0  0  0  0  0  0  0  0  0
    4.4677   -1.8002    0.0000 N   0  0  0  0  0  0  0  0  0
    3.7533   -1.3877    0.0000 C   0  0  0  0  0  0  0  0  0
  1  2  1  0  0  0  0
  2  3  4  0  0  0  0
  2  7  4  0  0  0  0
  3  4  4  0  0  0  0
  4  5  4  0  0  0  0
  5  6  4  0  0  0  0
  5  8  1  0  0  0  0
  6  7  4  0  0  0  0
  8  9  2  0  0  0  0
  8 14  1  0  0  0  0
  9 10  1  0  0  0  0
 10 11  1  0  0  0  0
 11 12  1  0  0  0  0
 11 13  1  0  0  0  0
 14 15  4  0  0  0  0
 14 19  4  0  0  0  0
 15 16  4  0  0  0  0
 16 17  4  0  0  0  0
 17 18  4  0  0  0  0
 18 19  4  0  0  0  0
M  END
>  <Name_Molregno>
ZIMELIDINE

>  <5-HT1A>
5

>  <DOPAMINE D1>
5

>  <DOPAMINE D2>
5.73

>  <Dopamine transporter>
5

>  <Norepinephrine transporter>
5.03

>  <Serotonin transporter>
6.82

$$$$
ZIPRASIDONE
  Marvin  02231216192D 0   1.00000     0.00000     0

 28 32  0  0  0  0  0  0  0  0999 V2000
   -5.2868    0.2535    0.0000 Cl  0  0  0  0  0  0  0  0  0
   -4.7347    0.8666    0.0000 C   0  0  0  0  0  0  0  0  0
   -4.9897    1.6513    0.0000 C   0  0  0  0  0  0  0  0  0
   -4.4376    2.2643    0.0000 C   0  0  0  0  0  0  0  0  0
   -4.5239    3.0848    0.0000 N   0  0  0  0  0  0  0  0  0
   -3.7702    3.4204    0.0000 C   0  0  0  0  0  0  0  0  0
   -3.5987    4.2274    0.0000 O   0  0  0  0  0  0  0  0  0
   -3.2182    2.8073    0.0000 C   0  0  0  0  0  0  0  0  0
   -3.6307    2.0928    0.0000 C   0  0  0  0  0  0  0  0  0
   -3.3757    1.3082    0.0000 C   0  0  0  0  0  0  0  0  0
   -3.9278    0.6951    0.0000 C   0  0  0  0  0  0  0  0  0
   -3.6728   -0.0895    0.0000 C   0  0  0  0  0  0  0  0  0
   -2.8658   -0.2610    0.0000 C   0  0  0  0  0  0  0  0  0
   -2.6109   -1.0457    0.0000 N   0  0  0  0  0  0  0  0  0
   -1.8039   -1.2172    0.0000 C   0  0  0  0  0  0  0  0  0
   -1.5490   -2.0018    0.0000 C   0  0  0  0  0  0  0  0  0
   -2.1010   -2.6149    0.0000 N   0  0  0  0  0  0  0  0  0
   -2.9080   -2.4434    0.0000 C   0  0  0  0  0  0  0  0  0
   -3.1629   -1.6588    0.0000 C   0  0  0  0  0  0  0  0  0
   -1.8461   -3.3995    0.0000 C   0  0  0  0  0  0  0  0  0
   -2.3310   -4.0670    0.0000 N   0  0  0  0  0  0  0  0  0
   -1.8461   -4.7344    0.0000 S   0  0  0  0  0  0  0  0  0
   -1.0615   -4.4795    0.0000 C   0  0  0  0  0  0  0  0  0
   -1.0615   -3.6545    0.0000 C   0  0  0  0  0  0  0  0  0
   -0.3470   -3.2420    0.0000 C   0  0  0  0  0  0  0  0  0
    0.3675   -3.6545    0.0000 C   0  0  0  0  0  0  0  0  0
    0.3675   -4.4795    0.0000 C   0  0  0  0  0  0  0  0  0
   -0.3470   -4.8920    0.0000 C   0  0  0  0  0  0  0  0  0
  1  2  1  0  0  0  0
  2  3  4  0  0  0  0
  2 11  4  0  0  0  0
  3  4  4  0  0  0  0
  4  5  1  0  0  0  0
  4  9  4  0  0  0  0
  5  6  1  0  0  0  0
  6  7  2  0  0  0  0
  6  8  1  0  0  0  0
  8  9  1  0  0  0  0
  9 10  4  0  0  0  0
 10 11  4  0  0  0  0
 11 12  1  0  0  0  0
 12 13  1  0  0  0  0
 13 14  1  0  0  0  0
 14 15  1  0  0  0  0
 14 19  1  0  0  0  0
 15 16  1  0  0  0  0
 16 17  1  0  0  0  0
 17 18  1  0  0  0  0
 17 20  1  0  0  0  0
 18 19  1  0  0  0  0
 20 21  4  0  0  0  0
 20 24  4  0  0  0  0
 21 22  4  0  0  0  0
 22 23  4  0  0  0  0
 23 24  4  0  0  0  0
 23 28  4  0  0  0  0
 24 25  4  0  0  0  0
 25 26  4  0  0  0  0
 26 27  4  0  0  0  0
 27 28  4  0  0  0  0
M  END
>  <Name_Molregno>
ZIPRASIDONE

>  <5-HT1A>
8.19

>  <5-HT1B>
8.7

>  <5-HT1D>
8.32

>  <5-HT1E>
6.17

>  <5-HT2A>
9.54

>  <5-HT2C>
8.82

>  <5-HT3>
5.7

>  <5-HT5>
6.54

>  <5-HT6>
7.17

>  <5-HT7>
8.23

>  <Alpha-1A>
7.74

>  <Alpha-1B>
8.05

>  <Alpha-2A>
6.8

>  <Alpha-2B>
7.32

>  <Alpha-2C>
7.15

>  <Beta-1>
5.3

>  <Beta-2>
5.15

>  <DOPAMINE D1>
7.1

>  <DOPAMINE D2>
8.39

>  <DOPAMINE D3>
8.21

>  <DOPAMINE D4>
7.43

>  <DOPAMINE D5>
6.82

>  <Dopamine transporter>
5

>  <HISTAMINE H1>
7.51

>  <HISTAMINE H2>
5.46

>  <HISTAMINE H4>
5

>  <Muscarinic acetylcholine receptor M1>
5.53

>  <Muscarinic acetylcholine receptor M2>
5.26

>  <Muscarinic acetylcholine receptor M3>
5.3

>  <Muscarinic acetylcholine receptor M4>
5.4

>  <Muscarinic acetylcholine receptor M5>
5.4

>  <Norepinephrine transporter>
7.36

>  <Serotonin transporter>
6.92

$$$$
ZOLMITRIPTAN
  Marvin  02231216192D 0   1.00000     0.00000     0

 21 23  0  0  1  0  0  0  0  0999 V2000
    0.0764    0.1135    0.0000 O   0  0  0  0  0  0  0  0  0
   -0.4756   -0.4996    0.0000 C   0  0  0  0  0  0  0  0  0
   -1.2293   -0.1640    0.0000 C   0  0  0  0  0  0  0  0  0
   -1.1431    0.6565    0.0000 N   0  0  0  0  0  0  0  0  0
   -0.3361    0.8280    0.0000 C   0  0  0  0  0  0  0  0  0
   -0.0006    1.5817    0.0000 O   0  0  0  0  0  0  0  0  0
   -1.9438   -0.5765    0.0000 C   0  0  0  0  0  0  0  0  0
   -2.6583   -0.1640    0.0000 C   0  0  0  0  0  0  0  0  0
   -3.3727   -0.5765    0.0000 C   0  0  0  0  0  0  0  0  0
   -4.0872   -0.1640    0.0000 C   0  0  0  0  0  0  0  0  0
   -4.0872    0.6610    0.0000 C   0  0  0  0  0  0  0  0  0
   -4.8718    0.9159    0.0000 N   0  0  0  0  0  0  0  0  0
   -5.3567    0.2485    0.0000 C   0  0  0  0  0  0  0  0  0
   -4.8718   -0.4189    0.0000 C   0  0  0  0  0  0  0  0  0
   -5.1268   -1.2036    0.0000 C   0  0  0  0  0  0  0  0  0
   -4.5747   -1.8167    0.0000 C   0  0  0  0  0  0  0  0  0
   -4.8297   -2.6013    0.0000 N   0  0  0  0  0  0  0  0  0
   -4.2776   -3.2144    0.0000 C   0  0  0  0  0  0  0  0  0
   -5.6366   -2.7728    0.0000 C   0  0  0  0  0  0  0  0  0
   -3.3727    1.0735    0.0000 C   0  0  0  0  0  0  0  0  0
   -2.6583    0.6610    0.0000 C   0  0  0  0  0  0  0  0  0
  1  2  1  0  0  0  0
  1  5  1  0  0  0  0
  2  3  1  0  0  0  0
  3  4  1  0  0  0  0
  3  7  1  0  0  0  0
  4  5  1  0  0  0  0
  5  6  2  0  0  0  0
  7  8  1  0  0  0  0
  8  9  4  0  0  0  0
  8 21  4  0  0  0  0
  9 10  4  0  0  0  0
 10 11  4  0  0  0  0
 10 14  4  0  0  0  0
 11 12  4  0  0  0  0
 11 20  4  0  0  0  0
 12 13  4  0  0  0  0
 13 14  4  0  0  0  0
 14 15  1  0  0  0  0
 15 16  1  0  0  0  0
 16 17  1  0  0  0  0
 17 18  1  0  0  0  0
 17 19  1  0  0  0  0
 20 21  4  0  0  0  0
M  STY  1   1 DAT
M  SAL   1  1  12
M  SDT   1 MRV_IMPLICIT_H                                        
M  SDD   1     0.0000    0.0000    DR    ALL  0       0  
M  SED   1 IMPL_H1
M  END
>  <Name_Molregno>
ZOLMITRIPTAN

>  <5-HT1A>
7.1

$$$$
ZOTEPINE
  Marvin  02231216192D 0   1.00000     0.00000     0

 22 24  0  0  0  0  0  0  0  0999 V2000
    1.8575   -4.4413    0.0000 Cl  0  0  0  0  0  0  0  0  0
    1.0691   -4.1981    0.0000 C   0  0  0  0  0  0  0  0  0
    0.8856   -3.3938    0.0000 C   0  0  0  0  0  0  0  0  0
    0.0972   -3.1507    0.0000 C   0  0  0  0  0  0  0  0  0
   -0.5076   -3.7118    0.0000 C   0  0  0  0  0  0  0  0  0
   -1.3233   -3.5888    0.0000 S   0  0  0  0  0  0  0  0  0
   -1.7358   -2.8744    0.0000 C   0  0  0  0  0  0  0  0  0
   -1.4344   -2.1064    0.0000 C   0  0  0  0  0  0  0  0  0
   -0.6461   -1.8632    0.0000 C   0  0  0  0  0  0  0  0  0
    0.0356   -2.3280    0.0000 C   0  0  0  0  0  0  0  0  0
    0.7500   -1.9155    0.0000 O   0  0  0  0  0  0  0  0  0
    1.4645   -2.3280    0.0000 C   0  0  0  0  0  0  0  0  0
    2.1790   -1.9155    0.0000 C   0  0  0  0  0  0  0  0  0
    2.8934   -2.3280    0.0000 N   0  0  0  0  0  0  0  0  0
    3.6079   -1.9155    0.0000 C   0  0  0  0  0  0  0  0  0
    2.8934   -3.1530    0.0000 C   0  0  0  0  0  0  0  0  0
   -1.9488   -1.4614    0.0000 C   0  0  0  0  0  0  0  0  0
   -2.7646   -1.5843    0.0000 C   0  0  0  0  0  0  0  0  0
   -3.0660   -2.3523    0.0000 C   0  0  0  0  0  0  0  0  0
   -2.5516   -2.9973    0.0000 C   0  0  0  0  0  0  0  0  0
   -0.3240   -4.5161    0.0000 C   0  0  0  0  0  0  0  0  0
    0.4644   -4.7593    0.0000 C   0  0  0  0  0  0  0  0  0
  1  2  1  0  0  0  0
  2  3  4  0  0  0  0
  2 22  4  0  0  0  0
  3  4  4  0  0  0  0
  4  5  4  0  0  0  0
  4 10  1  0  0  0  0
  5  6  1  0  0  0  0
  5 21  4  0  0  0  0
  6  7  1  0  0  0  0
  7  8  4  0  0  0  0
  7 20  4  0  0  0  0
  8  9  1  0  0  0  0
  8 17  4  0  0  0  0
  9 10  2  0  0  0  0
 10 11  1  0  0  0  0
 11 12  1  0  0  0  0
 12 13  1  0  0  0  0
 13 14  1  0  0  0  0
 14 15  1  0  0  0  0
 14 16  1  0  0  0  0
 17 18  4  0  0  0  0
 18 19  4  0  0  0  0
 19 20  4  0  0  0  0
 21 22  4  0  0  0  0
M  END
>  <Name_Molregno>
ZOTEPINE

>  <5-HT1A>
6.41

>  <5-HT1B>
7.23

>  <5-HT1D>
7.02

>  <5-HT1E>
6.23

>  <5-HT2A>
8.58

>  <5-HT2C>
8.49

>  <5-HT3>
6.33

>  <5-HT5>
7.54

>  <5-HT6>
8.22

>  <5-HT7>
7.92

>  <Alpha-1A>
8.15

>  <Alpha-1B>
8.3

>  <Alpha-2A>
6.68

>  <Alpha-2B>
8.27

>  <Alpha-2C>
7.02

>  <Beta-1>
5.19

>  <Beta-2>
5.32

>  <DOPAMINE D1>
7.15

>  <DOPAMINE D2>
7.98

>  <DOPAMINE D3>
8.19

>  <DOPAMINE D4>
7.57

>  <DOPAMINE D5>
6.61

>  <Dopamine transporter>
5.44

>  <HISTAMINE H1>
8.64

>  <HISTAMINE H2>
6.3

>  <HISTAMINE H4>
5.7

>  <Muscarinic acetylcholine receptor M1>
6.37

>  <Muscarinic acetylcholine receptor M2>
5.92

>  <Muscarinic acetylcholine receptor M3>
6.07

>  <Muscarinic acetylcholine receptor M4>
6.06

>  <Muscarinic acetylcholine receptor M5>
5.8

>  <Norepinephrine transporter>
6.28

>  <Serotonin transporter>
6.41

$$$$
