2150
  Marvin  02231216192D 0   1.00000     0.00000     0

 23 26  0  0  0  0  0  0  0  0999 V2000
    0.0748   -0.9429    0.0000 Cl  0  0  0  0  0  0  0  0  0
    0.8818   -0.7714    0.0000 C   0  0  0  0  0  0  0  0  0
    1.1368    0.0132    0.0000 C   0  0  0  0  0  0  0  0  0
    1.9437    0.1847    0.0000 C   0  0  0  0  0  0  0  0  0
    2.4958   -0.4284    0.0000 C   0  0  0  0  0  0  0  0  0
    3.3027   -0.2568    0.0000 N   0  0  0  0  0  0  0  0  0
    3.5577    0.5278    0.0000 C   0  0  0  0  0  0  0  0  0
    4.3646    0.6993    0.0000 C   0  0  0  0  0  0  0  0  0
    4.9167    0.0862    0.0000 N   0  0  0  0  0  0  0  0  0
    4.6617   -0.6984    0.0000 C   0  0  0  0  0  0  0  0  0
    3.8548   -0.8699    0.0000 C   0  0  0  0  0  0  0  0  0
    5.7237    0.2578    0.0000 C   0  0  0  0  0  0  0  0  0
    5.9786    1.0424    0.0000 C   0  0  0  0  0  0  0  0  0
    6.7632    1.2973    0.0000 C   0  0  0  0  0  0  0  0  0
    6.7632    2.1223    0.0000 C   0  0  0  0  0  0  0  0  0
    5.9786    2.3773    0.0000 N   0  0  0  0  0  0  0  0  0
    5.4937    1.7098    0.0000 C   0  0  0  0  0  0  0  0  0
    7.4777    2.5348    0.0000 C   0  0  0  0  0  0  0  0  0
    8.1922    2.1223    0.0000 C   0  0  0  0  0  0  0  0  0
    8.1922    1.2973    0.0000 C   0  0  0  0  0  0  0  0  0
    7.4777    0.8848    0.0000 C   0  0  0  0  0  0  0  0  0
    2.2408   -1.2130    0.0000 C   0  0  0  0  0  0  0  0  0
    1.4339   -1.3845    0.0000 C   0  0  0  0  0  0  0  0  0
  1  2  1  0  0  0  0
  2  3  4  0  0  0  0
  2 23  4  0  0  0  0
  3  4  4  0  0  0  0
  4  5  4  0  0  0  0
  5  6  1  0  0  0  0
  5 22  4  0  0  0  0
  6  7  1  0  0  0  0
  6 11  1  0  0  0  0
  7  8  1  0  0  0  0
  8  9  1  0  0  0  0
  9 10  1  0  0  0  0
  9 12  1  0  0  0  0
 10 11  1  0  0  0  0
 12 13  1  0  0  0  0
 13 14  4  0  0  0  0
 13 17  4  0  0  0  0
 14 15  4  0  0  0  0
 14 21  4  0  0  0  0
 15 16  4  0  0  0  0
 15 18  4  0  0  0  0
 16 17  4  0  0  0  0
 18 19  4  0  0  0  0
 19 20  4  0  0  0  0
 20 21  4  0  0  0  0
 22 23  4  0  0  0  0
M  STY  1   1 DAT
M  SAL   1  1  16
M  SDT   1 MRV_IMPLICIT_H                                        
M  SDD   1     0.0000    0.0000    DR    ALL  0       0  
M  SED   1 IMPL_H1
M  END
>  <Name_Molregno>
2150

>  <DOPAMINE D2>
7.15

>  <DOPAMINE D3>
6.82

>  <DOPAMINE D4>
8.8

$$$$
2246
  Marvin  02231216192D 0   1.00000     0.00000     0

 23 26  0  0  0  0  0  0  0  0999 V2000
    0.0748    1.8640    0.0000 Cl  0  0  0  0  0  0  0  0  0
    0.8818    1.6925    0.0000 C   0  0  0  0  0  0  0  0  0
    1.4339    2.3056    0.0000 C   0  0  0  0  0  0  0  0  0
    2.2408    2.1340    0.0000 C   0  0  0  0  0  0  0  0  0
    2.4958    1.3494    0.0000 C   0  0  0  0  0  0  0  0  0
    3.3027    1.1779    0.0000 N   0  0  0  0  0  0  0  0  0
    3.8548    1.7910    0.0000 C   0  0  0  0  0  0  0  0  0
    4.6617    1.6194    0.0000 C   0  0  0  0  0  0  0  0  0
    4.9167    0.8348    0.0000 N   0  0  0  0  0  0  0  0  0
    4.3646    0.2217    0.0000 C   0  0  0  0  0  0  0  0  0
    3.5577    0.3933    0.0000 C   0  0  0  0  0  0  0  0  0
    5.7237    0.6633    0.0000 C   0  0  0  0  0  0  0  0  0
    5.9786   -0.1213    0.0000 C   0  0  0  0  0  0  0  0  0
    6.7632   -0.3763    0.0000 C   0  0  0  0  0  0  0  0  0
    7.4777    0.0362    0.0000 C   0  0  0  0  0  0  0  0  0
    8.1922   -0.3763    0.0000 C   0  0  0  0  0  0  0  0  0
    8.1922   -1.2013    0.0000 C   0  0  0  0  0  0  0  0  0
    7.4777   -1.6138    0.0000 N   0  0  0  0  0  0  0  0  0
    6.7632   -1.2013    0.0000 C   0  0  0  0  0  0  0  0  0
    5.9786   -1.4562    0.0000 N   0  0  0  0  0  0  0  0  0
    5.4937   -0.7888    0.0000 C   0  0  0  0  0  0  0  0  0
    1.9437    0.7363    0.0000 C   0  0  0  0  0  0  0  0  0
    1.1368    0.9078    0.0000 C   0  0  0  0  0  0  0  0  0
  1  2  1  0  0  0  0
  2  3  4  0  0  0  0
  2 23  4  0  0  0  0
  3  4  4  0  0  0  0
  4  5  4  0  0  0  0
  5  6  1  0  0  0  0
  5 22  4  0  0  0  0
  6  7  1  0  0  0  0
  6 11  1  0  0  0  0
  7  8  1  0  0  0  0
  8  9  1  0  0  0  0
  9 10  1  0  0  0  0
  9 12  1  0  0  0  0
 10 11  1  0  0  0  0
 12 13  1  0  0  0  0
 13 14  4  0  0  0  0
 13 21  4  0  0  0  0
 14 15  4  0  0  0  0
 14 19  4  0  0  0  0
 15 16  4  0  0  0  0
 16 17  4  0  0  0  0
 17 18  4  0  0  0  0
 18 19  4  0  0  0  0
 19 20  4  0  0  0  0
 20 21  4  0  0  0  0
 22 23  4  0  0  0  0
M  STY  1   1 DAT
M  SAL   1  1  20
M  SDT   1 MRV_IMPLICIT_H                                        
M  SDD   1     0.0000    0.0000    DR    ALL  0       0  
M  SED   1 IMPL_H1
M  END
>  <Name_Molregno>
2246

>  <5-HT1A>
5.18

>  <5-HT1B>
5

>  <5-HT1D>
5

>  <5-HT1E>
5

>  <5-HT2A>
6.17

>  <5-HT2C>
5.5

>  <5-HT5>
5

>  <5-HT6>
5.78

>  <5-HT7>
6.65

>  <DOPAMINE D2>
5.31

>  <DOPAMINE D3>
5.16

>  <DOPAMINE D4>
9.34

$$$$
2361
  Marvin  02231216192D 0   1.00000     0.00000     0

 23 26  0  0  0  0  0  0  0  0999 V2000
    0.0748   -0.9429    0.0000 Cl  0  0  0  0  0  0  0  0  0
    0.8818   -0.7714    0.0000 C   0  0  0  0  0  0  0  0  0
    1.1368    0.0132    0.0000 C   0  0  0  0  0  0  0  0  0
    1.9437    0.1847    0.0000 C   0  0  0  0  0  0  0  0  0
    2.4958   -0.4284    0.0000 C   0  0  0  0  0  0  0  0  0
    3.3027   -0.2568    0.0000 N   0  0  0  0  0  0  0  0  0
    3.5577    0.5278    0.0000 C   0  0  0  0  0  0  0  0  0
    4.3646    0.6993    0.0000 C   0  0  0  0  0  0  0  0  0
    4.9167    0.0862    0.0000 N   0  0  0  0  0  0  0  0  0
    4.6617   -0.6984    0.0000 C   0  0  0  0  0  0  0  0  0
    3.8548   -0.8699    0.0000 C   0  0  0  0  0  0  0  0  0
    5.7237    0.2578    0.0000 C   0  0  0  0  0  0  0  0  0
    5.9786    1.0424    0.0000 C   0  0  0  0  0  0  0  0  0
    6.7632    1.2973    0.0000 C   0  0  0  0  0  0  0  0  0
    6.7632    2.1223    0.0000 N   0  0  0  0  0  0  0  0  0
    5.9786    2.3773    0.0000 N   0  0  0  0  0  0  0  0  0
    5.4937    1.7098    0.0000 C   0  0  0  0  0  0  0  0  0
    7.4777    2.5348    0.0000 C   0  0  0  0  0  0  0  0  0
    8.1922    2.1223    0.0000 C   0  0  0  0  0  0  0  0  0
    8.1922    1.2973    0.0000 C   0  0  0  0  0  0  0  0  0
    7.4777    0.8848    0.0000 C   0  0  0  0  0  0  0  0  0
    2.2408   -1.2130    0.0000 C   0  0  0  0  0  0  0  0  0
    1.4339   -1.3845    0.0000 C   0  0  0  0  0  0  0  0  0
  1  2  1  0  0  0  0
  2  3  4  0  0  0  0
  2 23  4  0  0  0  0
  3  4  4  0  0  0  0
  4  5  4  0  0  0  0
  5  6  1  0  0  0  0
  5 22  4  0  0  0  0
  6  7  1  0  0  0  0
  6 11  1  0  0  0  0
  7  8  1  0  0  0  0
  8  9  1  0  0  0  0
  9 10  1  0  0  0  0
  9 12  1  0  0  0  0
 10 11  1  0  0  0  0
 12 13  1  0  0  0  0
 13 14  4  0  0  0  0
 13 17  4  0  0  0  0
 14 15  4  0  0  0  0
 14 21  4  0  0  0  0
 15 16  4  0  0  0  0
 15 18  4  0  0  0  0
 16 17  4  0  0  0  0
 18 19  4  0  0  0  0
 19 20  4  0  0  0  0
 20 21  4  0  0  0  0
 22 23  4  0  0  0  0
M  END
>  <Name_Molregno>
2361

>  <DOPAMINE D2>
5.52

>  <DOPAMINE D3>
5.34

>  <DOPAMINE D4>
8.51

$$$$
2724
  Marvin  02231216192D 0   1.00000     0.00000     0

 16 17  0  0  1  0  0  0  0  0999 V2000
    1.7558    2.8334    0.0000 O   0  0  0  0  0  0  0  0  0
    1.7558    2.0084    0.0000 C   0  0  0  0  0  0  0  0  0
    2.4703    1.5959    0.0000 C   0  0  0  0  0  0  0  0  0
    2.4703    0.7709    0.0000 C   0  0  0  0  0  0  0  0  0
    1.7558    0.3584    0.0000 C   0  0  0  0  0  0  0  0  0
    1.0413    0.7709    0.0000 C   0  0  0  0  0  0  0  0  0
    1.0413    1.5959    0.0000 C   0  0  0  0  0  0  0  0  0
    3.1847    0.3584    0.0000 C   0  0  0  0  0  0  0  0  0
    3.8992    0.7709    0.0000 C   0  0  0  0  0  0  0  0  0
    4.6137    0.3584    0.0000 C   0  0  0  0  0  0  0  0  0
    4.6137   -0.4666    0.0000 C   0  0  0  0  0  0  0  0  0
    3.8992   -0.8791    0.0000 N   0  0  0  0  0  0  0  0  0
    3.1847   -0.4666    0.0000 C   0  0  0  0  0  0  0  0  0
    3.8992   -1.7041    0.0000 C   0  0  0  0  0  0  0  0  0
    3.1847   -2.1166    0.0000 C   0  0  0  0  0  0  0  0  0
    3.1847   -2.9416    0.0000 C   0  0  0  0  0  0  0  0  0
  1  2  1  0  0  0  0
  2  3  4  0  0  0  0
  2  7  4  0  0  0  0
  3  4  4  0  0  0  0
  4  5  4  0  0  0  0
  4  8  1  0  0  0  0
  5  6  4  0  0  0  0
  6  7  4  0  0  0  0
  8  9  1  0  0  0  0
  8 13  1  0  0  0  0
  9 10  1  0  0  0  0
 10 11  1  0  0  0  0
 11 12  1  0  0  0  0
 12 13  1  0  0  0  0
 12 14  1  0  0  0  0
 14 15  1  0  0  0  0
 15 16  1  0  0  0  0
M  END
>  <Name_Molregno>
2724

>  <5-HT1A>
5.73

>  <5-HT1E>
5

>  <5-HT3>
5

>  <5-HT5>
5

>  <5-HT6>
5

>  <Alpha-1A>
5

>  <Alpha-1B>
5

>  <Beta-2>
5

>  <DOPAMINE D1>
5

>  <DOPAMINE D2>
6.47

>  <DOPAMINE D3>
6.93

>  <DOPAMINE D4>
6.29

>  <DOPAMINE D5>
5.31

>  <Dopamine transporter>
5

>  <Muscarinic acetylcholine receptor M1>
5

>  <Muscarinic acetylcholine receptor M2>
5

>  <Muscarinic acetylcholine receptor M3>
5

>  <Muscarinic acetylcholine receptor M4>
5

>  <Muscarinic acetylcholine receptor M5>
5

>  <Norepinephrine transporter>
5.64

>  <Serotonin transporter>
5

$$$$
4181
  Marvin  02231216192D 0   1.00000     0.00000     0

 29 32  0  0  0  0  0  0  0  0999 V2000
   -7.1712   -1.9465    0.0000 O   0  0  0  0  0  0  0  0  0
   -7.5837   -2.6610    0.0000 C   0  0  0  0  0  0  0  0  0
   -7.5837   -1.2320    0.0000 C   0  0  0  0  0  0  0  0  0
   -8.4087   -1.2320    0.0000 C   0  0  0  0  0  0  0  0  0
   -8.8212   -0.5176    0.0000 C   0  0  0  0  0  0  0  0  0
   -8.4087    0.1969    0.0000 C   0  0  0  0  0  0  0  0  0
   -7.5837    0.1969    0.0000 C   0  0  0  0  0  0  0  0  0
   -7.1712   -0.5176    0.0000 C   0  0  0  0  0  0  0  0  0
   -6.3462   -0.5176    0.0000 N   0  0  0  0  0  0  0  0  0
   -5.9337    0.1969    0.0000 C   0  0  0  0  0  0  0  0  0
   -5.1087    0.1969    0.0000 C   0  0  0  0  0  0  0  0  0
   -4.6962   -0.5176    0.0000 N   0  0  0  0  0  0  0  0  0
   -5.1087   -1.2320    0.0000 C   0  0  0  0  0  0  0  0  0
   -5.9337   -1.2320    0.0000 C   0  0  0  0  0  0  0  0  0
   -3.8712   -0.5176    0.0000 C   0  0  0  0  0  0  0  0  0
   -3.4587    0.1969    0.0000 C   0  0  0  0  0  0  0  0  0
   -2.6337    0.1969    0.0000 C   0  0  0  0  0  0  0  0  0
   -2.2212    0.9114    0.0000 C   0  0  0  0  0  0  0  0  0
   -1.3962    0.9114    0.0000 N   0  0  0  0  0  0  0  0  0
   -0.9112    0.2439    0.0000 C   0  0  0  0  0  0  0  0  0
   -1.1662   -0.5407    0.0000 O   0  0  0  0  0  0  0  0  0
   -0.1266    0.4989    0.0000 C   0  0  0  0  0  0  0  0  0
   -0.1266    1.3239    0.0000 C   0  0  0  0  0  0  0  0  0
    0.5879    1.7364    0.0000 C   0  0  0  0  0  0  0  0  0
    1.3023    1.3239    0.0000 C   0  0  0  0  0  0  0  0  0
    1.3023    0.4989    0.0000 C   0  0  0  0  0  0  0  0  0
    0.5879    0.0864    0.0000 C   0  0  0  0  0  0  0  0  0
   -0.9112    1.5788    0.0000 C   0  0  0  0  0  0  0  0  0
   -1.1662    2.3634    0.0000 O   0  0  0  0  0  0  0  0  0
  1  2  1  0  0  0  0
  1  3  1  0  0  0  0
  3  4  4  0  0  0  0
  3  8  4  0  0  0  0
  4  5  4  0  0  0  0
  5  6  4  0  0  0  0
  6  7  4  0  0  0  0
  7  8  4  0  0  0  0
  8  9  1  0  0  0  0
  9 10  1  0  0  0  0
  9 14  1  0  0  0  0
 10 11  1  0  0  0  0
 11 12  1  0  0  0  0
 12 13  1  0  0  0  0
 12 15  1  0  0  0  0
 13 14  1  0  0  0  0
 15 16  1  0  0  0  0
 16 17  1  0  0  0  0
 17 18  1  0  0  0  0
 18 19  1  0  0  0  0
 19 20  1  0  0  0  0
 19 28  1  0  0  0  0
 20 21  2  0  0  0  0
 20 22  1  0  0  0  0
 22 23  4  0  0  0  0
 22 27  4  0  0  0  0
 23 24  4  0  0  0  0
 23 28  1  0  0  0  0
 24 25  4  0  0  0  0
 25 26  4  0  0  0  0
 26 27  4  0  0  0  0
 28 29  2  0  0  0  0
M  END
>  <Name_Molregno>
4181

>  <5-HT1A>
8.88

>  <Alpha-1A>
9.15

>  <Alpha-1B>
9.02

>  <DOPAMINE D1>
5.35

>  <DOPAMINE D2>
7.33

>  <DOPAMINE D3>
8.47

$$$$
4259
  Marvin  02231216192D 0   1.00000     0.00000     0

 27 31  0  0  1  0  0  0  0  0999 V2000
   -0.2544   -2.3296    0.0000 O   0  0  0  0  0  0  0  0  0
    0.3866   -1.8102    0.0000 C   0  0  0  0  0  0  0  0  0
    0.8114   -1.1029    0.0000 C   0  0  0  0  0  0  0  0  0
    1.6362   -1.1171    0.0000 C   0  0  0  0  0  0  0  0  0
    2.0364   -1.8386    0.0000 N   0  0  0  0  0  0  0  0  0
    1.6117   -2.5458    0.0000 C   0  0  0  0  0  0  0  0  0
    0.7868   -2.5317    0.0000 C   0  0  0  0  0  0  0  0  0
    2.8613   -1.8527    0.0000 C   0  0  0  0  0  0  0  0  0
    3.1740   -1.1970    0.0000 C   0  0  0  0  0  0  0  0  0
    2.8858   -0.4240    0.0000 C   0  0  0  0  0  0  0  0  0
    2.0609   -0.4098    0.0000 C   0  0  0  0  0  0  0  0  0
    1.6608    0.3116    0.0000 C   0  0  0  0  0  0  0  0  0
    2.0855    1.0189    0.0000 C   0  0  0  0  0  0  0  0  0
    2.9104    1.0047    0.0000 C   0  0  0  0  0  0  0  0  0
    3.3105    0.2833    0.0000 C   0  0  0  0  0  0  0  0  0
    4.1283    0.3922    0.0000 C   0  0  0  0  0  0  0  0  0
    4.7234   -0.1792    0.0000 C   0  0  0  0  0  0  0  0  0
    4.6476   -1.0008    0.0000 C   0  0  0  0  0  0  0  0  0
    3.9581   -1.4537    0.0000 C   0  0  0  0  0  0  0  0  0
    4.0056   -2.2773    0.0000 C   0  0  0  0  0  0  0  0  0
    4.7426   -2.6480    0.0000 C   0  0  0  0  0  0  0  0  0
    5.4321   -2.1951    0.0000 C   0  0  0  0  0  0  0  0  0
    5.3846   -1.3714    0.0000 C   0  0  0  0  0  0  0  0  0
   -0.2361   -1.2691    0.0000 C   0  0  0  0  0  0  0  0  0
   -0.8589   -0.7281    0.0000 C   0  0  0  0  0  0  0  0  0
    0.3049   -0.6464    0.0000 C   0  0  0  0  0  0  0  0  0
   -0.7772   -1.8919    0.0000 C   0  0  0  0  0  0  0  0  0
  1  2  1  0  0  0  0
  2  3  1  0  0  0  0
  2  7  1  0  0  0  0
  2 24  1  0  0  0  0
  3  4  1  0  0  0  0
  4  5  1  0  0  0  0
  4 11  1  0  0  0  0
  5  6  1  0  0  0  0
  5  8  1  0  0  0  0
  6  7  1  0  0  0  0
  8  9  1  0  0  0  0
  9 10  1  0  0  0  0
  9 19  1  0  0  0  0
 10 11  4  0  0  0  0
 10 15  4  0  0  0  0
 11 12  4  0  0  0  0
 12 13  4  0  0  0  0
 13 14  4  0  0  0  0
 14 15  4  0  0  0  0
 15 16  1  0  0  0  0
 16 17  1  0  0  0  0
 17 18  1  0  0  0  0
 18 19  4  0  0  0  0
 18 23  4  0  0  0  0
 19 20  4  0  0  0  0
 20 21  4  0  0  0  0
 21 22  4  0  0  0  0
 22 23  4  0  0  0  0
 24 25  1  0  0  0  0
 24 26  1  0  0  0  0
 24 27  1  0  0  0  0
M  END
>  <Name_Molregno>
4259

>  <5-HT1A>
6.08

>  <5-HT2A>
8.67

>  <DOPAMINE D1>
8.63

>  <DOPAMINE D2>
8.72

>  <DOPAMINE D3>
8.22

>  <DOPAMINE D4>
7.2

>  <DOPAMINE D5>
7.57

>  <HISTAMINE H1>
6.55

$$$$
4778
  Marvin  02231216192D 0   1.00000     0.00000     0

 20 22  0  0  1  0  0  0  0  0999 V2000
    0.1938   -0.4763    0.0000 Cl  0  0  0  0  0  0  0  0  0
    0.9083   -0.0638    0.0000 C   0  0  0  0  0  0  0  0  0
    1.6227   -0.4763    0.0000 C   0  0  0  0  0  0  0  0  0
    2.3372   -0.0638    0.0000 C   0  0  0  0  0  0  0  0  0
    2.3372    0.7612    0.0000 C   0  0  0  0  0  0  0  0  0
    1.6227    1.1737    0.0000 C   0  0  0  0  0  0  0  0  0
    0.9083    0.7612    0.0000 C   0  0  0  0  0  0  0  0  0
    0.1938    1.1737    0.0000 O   0  0  0  0  0  0  0  0  0
    2.9822    1.2756    0.0000 C   0  0  0  0  0  0  0  0  0
    3.7865    1.0920    0.0000 C   0  0  0  0  0  0  0  0  0
    4.1445    0.3487    0.0000 N   0  0  0  0  0  0  0  0  0
    3.7865   -0.3946    0.0000 C   0  0  0  0  0  0  0  0  0
    2.9822   -0.5782    0.0000 C   0  0  0  0  0  0  0  0  0
    4.9695    0.3487    0.0000 C   0  0  0  0  0  0  0  0  0
    2.7986    2.0799    0.0000 C   0  0  0  0  0  0  0  0  0
    2.0103    2.3230    0.0000 C   0  0  0  0  0  0  0  0  0
    1.8267    3.1274    0.0000 C   0  0  0  0  0  0  0  0  0
    2.4315    3.6885    0.0000 C   0  0  0  0  0  0  0  0  0
    3.2198    3.4453    0.0000 C   0  0  0  0  0  0  0  0  0
    3.4034    2.6410    0.0000 C   0  0  0  0  0  0  0  0  0
  1  2  1  0  0  0  0
  2  3  4  0  0  0  0
  2  7  4  0  0  0  0
  3  4  4  0  0  0  0
  4  5  4  0  0  0  0
  4 13  1  0  0  0  0
  5  6  4  0  0  0  0
  5  9  1  0  0  0  0
  6  7  4  0  0  0  0
  7  8  1  0  0  0  0
  9 10  1  0  0  0  0
  9 15  1  0  0  0  0
 10 11  1  0  0  0  0
 11 12  1  0  0  0  0
 11 14  1  0  0  0  0
 12 13  1  0  0  0  0
 15 16  4  0  0  0  0
 15 20  4  0  0  0  0
 16 17  4  0  0  0  0
 17 18  4  0  0  0  0
 18 19  4  0  0  0  0
 19 20  4  0  0  0  0
M  END
>  <Name_Molregno>
4778

>  <5-HT1A>
6.18

>  <5-HT2A>
7.88

>  <5-HT2C>
7.39

>  <5-HT3>
5

>  <DOPAMINE D1>
8.84

>  <DOPAMINE D2>
6.09

>  <DOPAMINE D3>
5.65

>  <DOPAMINE D4>
5.51

>  <DOPAMINE D5>
8.49

>  <HISTAMINE H1>
7

$$$$
6593
  Marvin  02231216192D 0   1.00000     0.00000     0

 26 30  0  0  1  0  0  0  0  0999 V2000
    6.3424    1.1120    0.0000 O   0  0  0  0  0  0  0  0  0
    5.8040    0.4869    0.0000 C   0  0  0  0  0  0  0  0  0
    6.0761   -0.2920    0.0000 C   0  0  0  0  0  0  0  0  0
    5.5377   -0.9170    0.0000 C   0  0  0  0  0  0  0  0  0
    4.7272   -0.7633    0.0000 C   0  0  0  0  0  0  0  0  0
    4.4550    0.0155    0.0000 C   0  0  0  0  0  0  0  0  0
    3.6445    0.1692    0.0000 C   0  0  0  0  0  0  0  0  0
    3.1061   -0.4559    0.0000 C   0  0  0  0  0  0  0  0  0
    3.3782   -1.2347    0.0000 N   0  0  0  0  0  0  0  0  0
    4.1888   -1.3884    0.0000 C   0  0  0  0  0  0  0  0  0
    2.8398   -1.8598    0.0000 C   0  0  0  0  0  0  0  0  0
    2.0292   -1.7061    0.0000 C   0  0  0  0  0  0  0  0  0
    1.7571   -0.9272    0.0000 C   0  0  0  0  0  0  0  0  0
    2.2955   -0.3021    0.0000 C   0  0  0  0  0  0  0  0  0
    1.8674    0.4031    0.0000 N   0  0  0  0  0  0  0  0  0
    1.0644    0.2138    0.0000 C   0  0  0  0  0  0  0  0  0
    0.9962   -0.6083    0.0000 C   0  0  0  0  0  0  0  0  0
    0.2501   -0.9604    0.0000 C   0  0  0  0  0  0  0  0  0
   -0.4278   -0.4903    0.0000 C   0  0  0  0  0  0  0  0  0
   -0.3597    0.3319    0.0000 C   0  0  0  0  0  0  0  0  0
    0.3864    0.6840    0.0000 C   0  0  0  0  0  0  0  0  0
    4.9934    0.6406    0.0000 C   0  0  0  0  0  0  0  0  0
    4.7213    1.4194    0.0000 C   0  0  0  0  0  0  0  0  0
    5.2597    2.0445    0.0000 O   0  0  0  0  0  0  0  0  0
    4.9875    2.8233    0.0000 C   0  0  0  0  0  0  0  0  0
    3.9107    1.5731    0.0000 O   0  0  0  0  0  0  0  0  0
  1  2  1  0  0  0  0
  2  3  1  0  0  0  0
  2 22  1  0  0  0  0
  3  4  1  0  0  0  0
  4  5  1  0  0  0  0
  5  6  1  0  0  0  0
  5 10  1  0  0  0  0
  6  7  1  0  0  0  0
  6 22  1  0  0  0  0
  7  8  1  0  0  0  0
  8  9  1  0  0  0  0
  8 14  1  0  0  0  0
  9 10  1  0  0  0  0
  9 11  1  0  0  0  0
 11 12  1  0  0  0  0
 12 13  1  0  0  0  0
 13 14  4  0  0  0  0
 13 17  4  0  0  0  0
 14 15  4  0  0  0  0
 15 16  4  0  0  0  0
 16 17  4  0  0  0  0
 16 21  4  0  0  0  0
 17 18  4  0  0  0  0
 18 19  4  0  0  0  0
 19 20  4  0  0  0  0
 20 21  4  0  0  0  0
 22 23  1  0  0  0  0
 23 24  1  0  0  0  0
 23 26  2  0  0  0  0
 24 25  1  0  0  0  0
M  STY  1   1 DAT
M  SAL   1  1  15
M  SDT   1 MRV_IMPLICIT_H                                        
M  SDD   1     0.0000    0.0000    DR    ALL  0       0  
M  SED   1 IMPL_H1
M  END
>  <Name_Molregno>
6593

>  <5-HT1A>
6.3

>  <5-HT1B>
7.45

>  <5-HT1D>
7.09

>  <5-HT1E>
5.75

>  <5-HT2A>
5.66

>  <5-HT2C>
5.49

>  <5-HT7>
5.55

>  <Alpha-1A>
6.32

>  <Alpha-1B>
6.42

>  <Alpha-2A>
8.74

>  <Alpha-2B>
8.53

>  <Alpha-2C>
9.21

>  <DOPAMINE D1>
5

>  <DOPAMINE D2>
6.48

>  <DOPAMINE D3>
5.5

>  <Serotonin transporter>
6

$$$$
9128
  Marvin  02231216192D 0   1.00000     0.00000     0

 18 19  0  0  1  0  0  0  0  0999 V2000
    1.6714   -3.4629    0.0000 O   0  0  0  0  0  0  0  0  0
    2.3859   -3.0504    0.0000 C   0  0  0  0  0  0  0  0  0
    2.3859   -2.2254    0.0000 C   0  0  0  0  0  0  0  0  0
    1.6714   -1.8129    0.0000 C   0  0  0  0  0  0  0  0  0
    1.6714   -0.9879    0.0000 C   0  0  0  0  0  0  0  0  0
    2.3859   -0.5754    0.0000 C   0  0  0  0  0  0  0  0  0
    2.3859    0.2496    0.0000 N   0  0  0  0  0  0  0  0  0
    1.6714    0.6621    0.0000 C   0  0  0  0  0  0  0  0  0
    1.6714    1.4871    0.0000 C   0  0  0  0  0  0  0  0  0
    0.9569    1.8996    0.0000 C   0  0  0  0  0  0  0  0  0
    3.1003    0.6621    0.0000 C   0  0  0  0  0  0  0  0  0
    3.1003    1.4871    0.0000 C   0  0  0  0  0  0  0  0  0
    3.8148    1.8996    0.0000 C   0  0  0  0  0  0  0  0  0
    3.1003   -0.9879    0.0000 C   0  0  0  0  0  0  0  0  0
    3.1003   -1.8129    0.0000 C   0  0  0  0  0  0  0  0  0
    3.8148   -2.2254    0.0000 C   0  0  0  0  0  0  0  0  0
    3.8148   -3.0504    0.0000 C   0  0  0  0  0  0  0  0  0
    3.1003   -3.4629    0.0000 C   0  0  0  0  0  0  0  0  0
  1  2  1  0  0  0  0
  2  3  4  0  0  0  0
  2 18  4  0  0  0  0
  3  4  1  0  0  0  0
  3 15  4  0  0  0  0
  4  5  1  0  0  0  0
  5  6  1  0  0  0  0
  6  7  1  0  0  0  0
  6 14  1  0  0  0  0
  7  8  1  0  0  0  0
  7 11  1  0  0  0  0
  8  9  1  0  0  0  0
  9 10  1  0  0  0  0
 11 12  1  0  0  0  0
 12 13  1  0  0  0  0
 14 15  1  0  0  0  0
 15 16  4  0  0  0  0
 16 17  4  0  0  0  0
 17 18  4  0  0  0  0
M  END
>  <Name_Molregno>
9128

>  <5-HT1A>
6.46

>  <DOPAMINE D2>
7.23

>  <DOPAMINE D3>
8.61

$$$$
16396
  Marvin  02231216192D 0   1.00000     0.00000     0

 37 41  0  0  0  0  0  0  0  0999 V2000
    9.4469    5.2044    0.0000 O   0  0  0  0  0  0  0  0  0
    9.1920    4.4198    0.0000 N   0  0  0  0  0  0  0  0  0
    8.3670    4.4198    0.0000 C   0  0  0  0  0  0  0  0  0
    8.1121    5.2044    0.0000 N   0  0  0  0  0  0  0  0  0
    8.7795    5.6894    0.0000 C   0  0  0  0  0  0  0  0  0
    8.7795    6.5144    0.0000 C   0  0  0  0  0  0  0  0  0
    7.8821    3.7524    0.0000 C   0  0  0  0  0  0  0  0  0
    8.2176    2.9987    0.0000 C   0  0  0  0  0  0  0  0  0
    7.7327    2.3313    0.0000 C   0  0  0  0  0  0  0  0  0
    8.0683    1.5776    0.0000 C   0  0  0  0  0  0  0  0  0
    6.9122    2.4175    0.0000 C   0  0  0  0  0  0  0  0  0
    6.5767    3.1712    0.0000 C   0  0  0  0  0  0  0  0  0
    7.0616    3.8386    0.0000 C   0  0  0  0  0  0  0  0  0
    6.4273    1.7501    0.0000 C   0  0  0  0  0  0  0  0  0
    6.7629    0.9964    0.0000 C   0  0  0  0  0  0  0  0  0
    6.2779    0.3289    0.0000 C   0  0  0  0  0  0  0  0  0
    5.4575    0.4152    0.0000 C   0  0  0  0  0  0  0  0  0
    5.1219    1.1689    0.0000 C   0  0  0  0  0  0  0  0  0
    5.6068    1.8363    0.0000 C   0  0  0  0  0  0  0  0  0
    4.9725   -0.2523    0.0000 C   0  0  0  0  0  0  0  0  0
    4.1521   -0.1660    0.0000 O   0  0  0  0  0  0  0  0  0
    5.3081   -1.0059    0.0000 N   0  0  0  0  0  0  0  0  0
    4.8232   -1.6734    0.0000 C   0  0  0  0  0  0  0  0  0
    5.1587   -2.4270    0.0000 C   0  0  0  0  0  0  0  0  0
    4.6738   -3.0945    0.0000 C   0  0  0  0  0  0  0  0  0
    5.0094   -3.8482    0.0000 N   0  0  0  0  0  0  0  0  0
    5.8298   -3.9344    0.0000 C   0  0  0  0  0  0  0  0  0
    6.1654   -4.6881    0.0000 C   0  0  0  0  0  0  0  0  0
    5.6805   -5.3555    0.0000 N   0  0  0  0  0  0  0  0  0
    4.8600   -5.2693    0.0000 C   0  0  0  0  0  0  0  0  0
    4.5244   -4.5156    0.0000 C   0  0  0  0  0  0  0  0  0
    6.0160   -6.1092    0.0000 C   0  0  0  0  0  0  0  0  0
    3.8533   -3.0082    0.0000 C   0  0  0  0  0  0  0  0  0
    3.3684   -3.6757    0.0000 O   0  0  0  0  0  0  0  0  0
    2.5479   -3.5894    0.0000 C   0  0  0  0  0  0  0  0  0
    3.5178   -2.2546    0.0000 C   0  0  0  0  0  0  0  0  0
    4.0027   -1.5871    0.0000 C   0  0  0  0  0  0  0  0  0
  1  2  4  0  0  0  0
  1  5  4  0  0  0  0
  2  3  4  0  0  0  0
  3  4  4  0  0  0  0
  3  7  1  0  0  0  0
  4  5  4  0  0  0  0
  5  6  1  0  0  0  0
  7  8  4  0  0  0  0
  7 13  4  0  0  0  0
  8  9  4  0  0  0  0
  9 10  1  0  0  0  0
  9 11  4  0  0  0  0
 11 12  4  0  0  0  0
 11 14  1  0  0  0  0
 12 13  4  0  0  0  0
 14 15  4  0  0  0  0
 14 19  4  0  0  0  0
 15 16  4  0  0  0  0
 16 17  4  0  0  0  0
 17 18  4  0  0  0  0
 17 20  1  0  0  0  0
 18 19  4  0  0  0  0
 20 21  2  0  0  0  0
 20 22  1  0  0  0  0
 22 23  1  0  0  0  0
 23 24  4  0  0  0  0
 23 37  4  0  0  0  0
 24 25  4  0  0  0  0
 25 26  1  0  0  0  0
 25 33  4  0  0  0  0
 26 27  1  0  0  0  0
 26 31  1  0  0  0  0
 27 28  1  0  0  0  0
 28 29  1  0  0  0  0
 29 30  1  0  0  0  0
 29 32  1  0  0  0  0
 30 31  1  0  0  0  0
 33 34  1  0  0  0  0
 33 36  4  0  0  0  0
 34 35  1  0  0  0  0
 36 37  4  0  0  0  0
M  END
>  <Name_Molregno>
16396

>  <5-HT1A>
7.14

>  <5-HT1B>
9.05

>  <5-HT1D>
8.78

>  <5-HT1E>
5.4

>  <5-HT2A>
7.59

>  <5-HT2C>
6.99

>  <5-HT5>
5.2

>  <5-HT6>
5.27

>  <5-HT7>
5.4

>  <DOPAMINE D1>
5

>  <DOPAMINE D2>
5

>  <DOPAMINE D3>
5

>  <DOPAMINE D4>
5

>  <DOPAMINE D5>
5

>  <HISTAMINE H1>
5

>  <Muscarinic acetylcholine receptor M1>
5

>  <Muscarinic acetylcholine receptor M2>
5

>  <Muscarinic acetylcholine receptor M3>
5

>  <Muscarinic acetylcholine receptor M4>
5

>  <Muscarinic acetylcholine receptor M5>
5

$$$$
26653
  Marvin  02231216192D 0   1.00000     0.00000     0

 19 20  0  0  0  0  0  0  0  0999 V2000
   -1.2820   -3.8402    0.0000 S   0  0  0  0  0  0  0  0  0
   -1.6945   -3.1258    0.0000 N   0  0  0  0  0  0  0  0  0
   -1.1424   -2.5127    0.0000 C   0  0  0  0  0  0  0  0  0
   -1.3140   -1.7057    0.0000 C   0  0  0  0  0  0  0  0  0
   -2.0986   -1.4508    0.0000 C   0  0  0  0  0  0  0  0  0
   -2.2701   -0.6438    0.0000 N   0  0  0  0  0  0  0  0  0
   -1.6570   -0.0918    0.0000 C   0  0  0  0  0  0  0  0  0
   -0.8724   -0.3467    0.0000 C   0  0  0  0  0  0  0  0  0
   -0.7009   -1.1537    0.0000 C   0  0  0  0  0  0  0  0  0
   -3.0547   -0.3889    0.0000 C   0  0  0  0  0  0  0  0  0
   -0.3888   -2.8482    0.0000 C   0  0  0  0  0  0  0  0  0
    0.3257   -2.4357    0.0000 O   0  0  0  0  0  0  0  0  0
    1.0402   -2.8482    0.0000 C   0  0  0  0  0  0  0  0  0
    1.7547   -2.4357    0.0000 C   0  0  0  0  0  0  0  0  0
    2.4691   -2.8482    0.0000 C   0  0  0  0  0  0  0  0  0
    3.1836   -2.4357    0.0000 C   0  0  0  0  0  0  0  0  0
    3.8981   -2.8482    0.0000 C   0  0  0  0  0  0  0  0  0
    4.6125   -2.4357    0.0000 C   0  0  0  0  0  0  0  0  0
   -0.4750   -3.6687    0.0000 N   0  0  0  0  0  0  0  0  0
  1  2  4  0  0  0  0
  1 19  4  0  0  0  0
  2  3  4  0  0  0  0
  3  4  1  0  0  0  0
  3 11  4  0  0  0  0
  4  5  1  0  0  0  0
  4  9  2  0  0  0  0
  5  6  1  0  0  0  0
  6  7  1  0  0  0  0
  6 10  1  0  0  0  0
  7  8  1  0  0  0  0
  8  9  1  0  0  0  0
 11 12  1  0  0  0  0
 11 19  4  0  0  0  0
 12 13  1  0  0  0  0
 13 14  1  0  0  0  0
 14 15  1  0  0  0  0
 15 16  1  0  0  0  0
 16 17  1  0  0  0  0
 17 18  1  0  0  0  0
M  END
>  <Name_Molregno>
26653

>  <5-HT1A>
7.2

>  <5-HT1B>
7.3

>  <5-HT1D>
8.2

>  <5-HT1E>
5.6

>  <5-HT2A>
6.9

>  <5-HT2C>
7.4

>  <5-HT6>
5.9

>  <5-HT7>
6.9

>  <Alpha-1B>
5.8

>  <DOPAMINE D2>
6

>  <DOPAMINE D3>
6.4

>  <Muscarinic acetylcholine receptor M1>
6.52

>  <Muscarinic acetylcholine receptor M2>
7.1

>  <Muscarinic acetylcholine receptor M3>
7.25

>  <Muscarinic acetylcholine receptor M4>
7.55

>  <Muscarinic acetylcholine receptor M5>
6.32

$$$$
27981
  Marvin  02231216192D 0   1.00000     0.00000     0

 21 22  0  0  0  0  0  0  0  0999 V2000
   -0.0711   -0.0137    0.0000 O   0  0  0  0  0  0  0  0  0
    0.6434    0.3988    0.0000 C   0  0  0  0  0  0  0  0  0
    1.3579   -0.0137    0.0000 C   0  0  0  0  0  0  0  0  0
    2.0723    0.3988    0.0000 C   0  0  0  0  0  0  0  0  0
    2.7868   -0.0137    0.0000 N   0  0  0  0  0  0  0  0  0
    3.5013    0.3988    0.0000 C   0  0  0  0  0  0  0  0  0
    4.2158   -0.0137    0.0000 C   0  0  0  0  0  0  0  0  0
    4.9302    0.3988    0.0000 O   0  0  0  0  0  0  0  0  0
    5.6447   -0.0137    0.0000 C   0  0  0  0  0  0  0  0  0
    6.3592    0.3988    0.0000 C   0  0  0  0  0  0  0  0  0
    7.0736   -0.0137    0.0000 C   0  0  0  0  0  0  0  0  0
    7.0736   -0.8387    0.0000 C   0  0  0  0  0  0  0  0  0
    7.7881   -1.2512    0.0000 O   0  0  0  0  0  0  0  0  0
    6.3592   -1.2512    0.0000 C   0  0  0  0  0  0  0  0  0
    5.6447   -0.8387    0.0000 C   0  0  0  0  0  0  0  0  0
   -0.7855    0.3988    0.0000 C   0  0  0  0  0  0  0  0  0
   -1.5000   -0.0137    0.0000 C   0  0  0  0  0  0  0  0  0
   -2.2145    0.3988    0.0000 C   0  0  0  0  0  0  0  0  0
   -2.2145    1.2238    0.0000 C   0  0  0  0  0  0  0  0  0
   -1.5000    1.6363    0.0000 C   0  0  0  0  0  0  0  0  0
   -0.7855    1.2238    0.0000 C   0  0  0  0  0  0  0  0  0
  1  2  1  0  0  0  0
  1 16  1  0  0  0  0
  2  3  1  0  0  0  0
  3  4  1  0  0  0  0
  4  5  1  0  0  0  0
  5  6  1  0  0  0  0
  6  7  1  0  0  0  0
  7  8  1  0  0  0  0
  8  9  1  0  0  0  0
  9 10  4  0  0  0  0
  9 15  4  0  0  0  0
 10 11  4  0  0  0  0
 11 12  4  0  0  0  0
 12 13  1  0  0  0  0
 12 14  4  0  0  0  0
 14 15  4  0  0  0  0
 16 17  4  0  0  0  0
 16 21  4  0  0  0  0
 17 18  4  0  0  0  0
 18 19  4  0  0  0  0
 19 20  4  0  0  0  0
 20 21  4  0  0  0  0
M  END
>  <Name_Molregno>
27981

>  <DOPAMINE D2>
6.25

>  <DOPAMINE D3>
6.63

>  <DOPAMINE D4>
8.51

$$$$
32833
  Marvin  02231216192D 0   1.00000     0.00000     0

 17 19  0  0  1  0  0  0  0  0999 V2000
   -1.6280    0.0143    0.0000 O   0  0  0  0  0  0  0  0  0
   -2.0179   -0.7127    0.0000 C   0  0  0  0  0  0  0  0  0
   -1.5833   -1.4139    0.0000 C   0  0  0  0  0  0  0  0  0
   -0.7587   -1.3882    0.0000 C   0  0  0  0  0  0  0  0  0
   -0.3241   -2.0894    0.0000 C   0  0  0  0  0  0  0  0  0
    0.4771   -1.8928    0.0000 N   0  0  0  0  0  0  0  0  0
    0.5377   -1.0700    0.0000 C   0  0  0  0  0  0  0  0  0
   -0.2261   -0.7581    0.0000 C   0  0  0  0  0  0  0  0  0
    1.1071   -2.4254    0.0000 C   0  0  0  0  0  0  0  0  0
    1.8834   -2.1461    0.0000 C   0  0  0  0  0  0  0  0  0
    2.5134   -2.6787    0.0000 C   0  0  0  0  0  0  0  0  0
   -0.7141   -2.8164    0.0000 C   0  0  0  0  0  0  0  0  0
   -1.5387   -2.8422    0.0000 C   0  0  0  0  0  0  0  0  0
   -1.9733   -2.1409    0.0000 C   0  0  0  0  0  0  0  0  0
   -2.7979   -2.1667    0.0000 C   0  0  0  0  0  0  0  0  0
   -3.2325   -1.4654    0.0000 C   0  0  0  0  0  0  0  0  0
   -2.8425   -0.7384    0.0000 C   0  0  0  0  0  0  0  0  0
  1  2  1  0  0  0  0
  2  3  4  0  0  0  0
  2 17  4  0  0  0  0
  3  4  1  0  0  0  0
  3 14  4  0  0  0  0
  4  5  1  0  0  0  0
  4  8  1  0  0  0  0
  5  6  1  0  0  0  0
  5 12  1  0  0  0  0
  6  7  1  0  0  0  0
  6  9  1  0  0  0  0
  7  8  1  0  0  0  0
  9 10  1  0  0  0  0
 10 11  1  0  0  0  0
 12 13  1  0  0  0  0
 13 14  1  0  0  0  0
 14 15  4  0  0  0  0
 15 16  4  0  0  0  0
 16 17  4  0  0  0  0
M  END
>  <Name_Molregno>
32833

>  <5-HT1A>
9.7

>  <5-HT2A>
5.79

>  <5-HT2C>
5.79

>  <DOPAMINE D3>
5.32

>  <DOPAMINE D4>
5.39

$$$$
33681
  Marvin  02231216192D 0   1.00000     0.00000     0

 20 21  0  0  1  0  0  0  0  0999 V2000
   -1.5022   -1.5972    0.0000 O   0  0  0  0  0  0  0  0  0
   -1.5022   -2.4222    0.0000 C   0  0  0  0  0  0  0  0  0
   -2.2166   -1.1847    0.0000 C   0  0  0  0  0  0  0  0  0
   -2.2166   -0.3597    0.0000 C   0  0  0  0  0  0  0  0  0
   -2.9311    0.0528    0.0000 C   0  0  0  0  0  0  0  0  0
   -3.6456   -0.3597    0.0000 C   0  0  0  0  0  0  0  0  0
   -3.6456   -1.1847    0.0000 C   0  0  0  0  0  0  0  0  0
   -2.9311   -1.5972    0.0000 C   0  0  0  0  0  0  0  0  0
   -2.9311    0.8778    0.0000 C   0  0  0  0  0  0  0  0  0
   -3.6456    1.2903    0.0000 C   0  0  0  0  0  0  0  0  0
   -2.2166    1.2903    0.0000 C   0  0  0  0  0  0  0  0  0
   -2.2166    2.1153    0.0000 N   0  0  0  0  0  0  0  0  0
   -2.9311    2.5278    0.0000 C   0  0  0  0  0  0  0  0  0
   -2.9311    3.3528    0.0000 C   0  0  0  0  0  0  0  0  0
   -3.6456    3.7653    0.0000 C   0  0  0  0  0  0  0  0  0
   -1.5022    2.5278    0.0000 C   0  0  0  0  0  0  0  0  0
   -1.5022    3.3528    0.0000 C   0  0  0  0  0  0  0  0  0
   -0.7877    3.7653    0.0000 C   0  0  0  0  0  0  0  0  0
   -1.5022    0.8778    0.0000 C   0  0  0  0  0  0  0  0  0
   -1.5022    0.0528    0.0000 C   0  0  0  0  0  0  0  0  0
  1  2  1  0  0  0  0
  1  3  1  0  0  0  0
  3  4  4  0  0  0  0
  3  8  4  0  0  0  0
  4  5  4  0  0  0  0
  4 20  1  0  0  0  0
  5  6  4  0  0  0  0
  5  9  1  0  0  0  0
  6  7  4  0  0  0  0
  7  8  4  0  0  0  0
  9 10  1  0  0  0  0
  9 11  1  0  0  0  0
 11 12  1  0  0  0  0
 11 19  1  0  0  0  0
 12 13  1  0  0  0  0
 12 16  1  0  0  0  0
 13 14  1  0  0  0  0
 14 15  1  0  0  0  0
 16 17  1  0  0  0  0
 17 18  1  0  0  0  0
 19 20  1  0  0  0  0
M  END
>  <Name_Molregno>
33681

>  <5-HT1A>
6.77

>  <DOPAMINE D3>
8.39

>  <DOPAMINE D4>
7.32

$$$$
33870
  Marvin  02231216192D 0   1.00000     0.00000     0

 31 34  0  0  0  0  0  0  0  0999 V2000
   -7.8766   -2.2666    0.0000 O   0  0  0  0  0  0  0  0  0
   -7.8766   -3.0916    0.0000 C   0  0  0  0  0  0  0  0  0
   -8.5911   -1.8541    0.0000 C   0  0  0  0  0  0  0  0  0
   -9.3056   -2.2666    0.0000 C   0  0  0  0  0  0  0  0  0
  -10.0200   -1.8541    0.0000 C   0  0  0  0  0  0  0  0  0
  -10.0200   -1.0291    0.0000 C   0  0  0  0  0  0  0  0  0
   -9.3056   -0.6166    0.0000 C   0  0  0  0  0  0  0  0  0
   -8.5911   -1.0291    0.0000 C   0  0  0  0  0  0  0  0  0
   -7.8766   -0.6166    0.0000 N   0  0  0  0  0  0  0  0  0
   -7.8766    0.2084    0.0000 C   0  0  0  0  0  0  0  0  0
   -7.1621    0.6209    0.0000 C   0  0  0  0  0  0  0  0  0
   -6.4477    0.2084    0.0000 N   0  0  0  0  0  0  0  0  0
   -6.4477   -0.6166    0.0000 C   0  0  0  0  0  0  0  0  0
   -7.1621   -1.0291    0.0000 C   0  0  0  0  0  0  0  0  0
   -5.7332    0.6209    0.0000 C   0  0  0  0  0  0  0  0  0
   -5.0187    0.2084    0.0000 C   0  0  0  0  0  0  0  0  0
   -4.3043    0.6209    0.0000 C   0  0  0  0  0  0  0  0  0
   -3.5898    0.2084    0.0000 C   0  0  0  0  0  0  0  0  0
   -2.8753    0.6209    0.0000 N   0  0  0  0  0  0  0  0  0
   -2.1608    0.2084    0.0000 C   0  0  0  0  0  0  0  0  0
   -2.1608   -0.6166    0.0000 O   0  0  0  0  0  0  0  0  0
   -1.4464    0.6209    0.0000 C   0  0  0  0  0  0  0  0  0
   -0.7319    0.2084    0.0000 C   0  0  0  0  0  0  0  0  0
   -0.0174    0.6209    0.0000 C   0  0  0  0  0  0  0  0  0
   -0.0174    1.4459    0.0000 C   0  0  0  0  0  0  0  0  0
   -0.7319    1.8584    0.0000 C   0  0  0  0  0  0  0  0  0
   -1.4464    1.4459    0.0000 C   0  0  0  0  0  0  0  0  0
    0.6970    1.8584    0.0000 C   0  0  0  0  0  0  0  0  0
    1.4115    1.4459    0.0000 C   0  0  0  0  0  0  0  0  0
    1.4115    0.6209    0.0000 C   0  0  0  0  0  0  0  0  0
    0.6970    0.2084    0.0000 C   0  0  0  0  0  0  0  0  0
  1  2  1  0  0  0  0
  1  3  1  0  0  0  0
  3  4  4  0  0  0  0
  3  8  4  0  0  0  0
  4  5  4  0  0  0  0
  5  6  4  0  0  0  0
  6  7  4  0  0  0  0
  7  8  4  0  0  0  0
  8  9  1  0  0  0  0
  9 10  1  0  0  0  0
  9 14  1  0  0  0  0
 10 11  1  0  0  0  0
 11 12  1  0  0  0  0
 12 13  1  0  0  0  0
 12 15  1  0  0  0  0
 13 14  1  0  0  0  0
 15 16  1  0  0  0  0
 16 17  1  0  0  0  0
 17 18  1  0  0  0  0
 18 19  1  0  0  0  0
 19 20  1  0  0  0  0
 20 21  2  0  0  0  0
 20 22  1  0  0  0  0
 22 23  4  0  0  0  0
 22 27  4  0  0  0  0
 23 24  4  0  0  0  0
 24 25  4  0  0  0  0
 24 31  4  0  0  0  0
 25 26  4  0  0  0  0
 25 28  4  0  0  0  0
 26 27  4  0  0  0  0
 28 29  4  0  0  0  0
 29 30  4  0  0  0  0
 30 31  4  0  0  0  0
M  END
>  <Name_Molregno>
33870

>  <5-HT1A>
6.93

>  <Alpha-2A>
8.56

>  <DOPAMINE D1>
6.12

>  <DOPAMINE D2>
6.85

>  <DOPAMINE D3>
8.86

>  <DOPAMINE D4>
7.1

$$$$
34432
  Marvin  02231216192D 0   1.00000     0.00000     0

 27 29  0  0  1  0  0  0  0  0999 V2000
    0.7307   -2.9258    0.0000 O   0  0  0  0  0  0  0  0  0
    0.0162   -3.3383    0.0000 C   0  0  0  0  0  0  0  0  0
    0.7307   -2.1008    0.0000 C   0  0  0  0  0  0  0  0  0
    1.4451   -1.6883    0.0000 C   0  0  0  0  0  0  0  0  0
    1.4451   -0.8633    0.0000 C   0  0  0  0  0  0  0  0  0
    2.1596   -0.4508    0.0000 C   0  0  0  0  0  0  0  0  0
    2.8741   -0.8633    0.0000 C   0  0  0  0  0  0  0  0  0
    2.8741   -1.6883    0.0000 C   0  0  0  0  0  0  0  0  0
    2.1596   -2.1008    0.0000 C   0  0  0  0  0  0  0  0  0
    0.7307   -0.4508    0.0000 C   0  0  0  0  0  0  0  0  0
    0.0162   -0.8633    0.0000 C   0  0  0  0  0  0  0  0  0
    0.0162   -1.6883    0.0000 C   0  0  0  0  0  0  0  0  0
   -0.6983   -2.1008    0.0000 C   0  0  0  0  0  0  0  0  0
   -0.6983   -2.9258    0.0000 O   0  0  0  0  0  0  0  0  0
   -1.4128   -1.6883    0.0000 N   0  0  0  0  0  0  0  0  0
   -2.1272   -2.1008    0.0000 C   0  0  0  0  0  0  0  0  0
   -2.8417   -1.6883    0.0000 C   0  0  0  0  0  0  0  0  0
   -3.5954   -2.0239    0.0000 N   0  0  0  0  0  0  0  0  0
   -4.1474   -1.4108    0.0000 C   0  0  0  0  0  0  0  0  0
   -3.7349   -0.6963    0.0000 C   0  0  0  0  0  0  0  0  0
   -2.9279   -0.8678    0.0000 C   0  0  0  0  0  0  0  0  0
   -3.7669   -2.8308    0.0000 C   0  0  0  0  0  0  0  0  0
   -3.1538   -3.3829    0.0000 C   0  0  0  0  0  0  0  0  0
   -3.3253   -4.1898    0.0000 C   0  0  0  0  0  0  0  0  0
   -4.1100   -4.4448    0.0000 C   0  0  0  0  0  0  0  0  0
    0.7307    0.3742    0.0000 C   0  0  0  0  0  0  0  0  0
    0.7307    1.1992    0.0000 N   0  0  0  0  0  0  0  0  0
  1  2  1  0  0  0  0
  1  3  1  0  0  0  0
  3  4  4  0  0  0  0
  3 12  4  0  0  0  0
  4  5  4  0  0  0  0
  4  9  4  0  0  0  0
  5  6  4  0  0  0  0
  5 10  4  0  0  0  0
  6  7  4  0  0  0  0
  7  8  4  0  0  0  0
  8  9  4  0  0  0  0
 10 11  4  0  0  0  0
 10 26  1  0  0  0  0
 11 12  4  0  0  0  0
 12 13  1  0  0  0  0
 13 14  2  0  0  0  0
 13 15  1  0  0  0  0
 15 16  1  0  0  0  0
 16 17  1  0  0  0  0
 17 18  1  0  0  0  0
 17 21  1  0  0  0  0
 18 19  1  0  0  0  0
 18 22  1  0  0  0  0
 19 20  1  0  0  0  0
 20 21  1  0  0  0  0
 22 23  1  0  0  0  0
 23 24  1  0  0  0  0
 24 25  1  0  0  0  0
 26 27  3  0  0  0  0
M  END
>  <Name_Molregno>
34432

>  <DOPAMINE D3>
9.09

$$$$
34600
  Marvin  02231216192D 0   1.00000     0.00000     0

 17 18  0  0  1  0  0  0  0  0999 V2000
   -3.2070   -1.2366    0.0000 O   0  0  0  0  0  0  0  0  0
   -3.9215   -1.6491    0.0000 C   0  0  0  0  0  0  0  0  0
   -3.2070   -0.4116    0.0000 C   0  0  0  0  0  0  0  0  0
   -2.4926    0.0009    0.0000 C   0  0  0  0  0  0  0  0  0
   -2.4926    0.8259    0.0000 C   0  0  0  0  0  0  0  0  0
   -3.2070    1.2384    0.0000 C   0  0  0  0  0  0  0  0  0
   -3.9215    0.8259    0.0000 C   0  0  0  0  0  0  0  0  0
   -3.9215    0.0009    0.0000 C   0  0  0  0  0  0  0  0  0
   -1.7781    1.2384    0.0000 C   0  0  0  0  0  0  0  0  0
   -1.7781    2.0634    0.0000 C   0  0  0  0  0  0  0  0  0
   -1.0636    0.8259    0.0000 C   0  0  0  0  0  0  0  0  0
   -0.3491    1.2384    0.0000 N   0  0  0  0  0  0  0  0  0
   -0.3491    2.0634    0.0000 C   0  0  0  0  0  0  0  0  0
    0.3653    2.4759    0.0000 C   0  0  0  0  0  0  0  0  0
    0.3653    3.3009    0.0000 C   0  0  0  0  0  0  0  0  0
   -1.0636    0.0009    0.0000 C   0  0  0  0  0  0  0  0  0
   -1.7781   -0.4116    0.0000 C   0  0  0  0  0  0  0  0  0
  1  2  1  0  0  0  0
  1  3  1  0  0  0  0
  3  4  4  0  0  0  0
  3  8  4  0  0  0  0
  4  5  4  0  0  0  0
  4 17  1  0  0  0  0
  5  6  4  0  0  0  0
  5  9  1  0  0  0  0
  6  7  4  0  0  0  0
  7  8  4  0  0  0  0
  9 10  1  0  0  0  0
  9 11  1  0  0  0  0
 11 12  1  0  0  0  0
 11 16  1  0  0  0  0
 12 13  1  0  0  0  0
 13 14  1  0  0  0  0
 14 15  1  0  0  0  0
 16 17  1  0  0  0  0
M  END
>  <Name_Molregno>
34600

>  <DOPAMINE D2>
6.92

>  <DOPAMINE D3>
7.37

>  <DOPAMINE D4>
6.9

$$$$
35324
  Marvin  02231216192D 0   1.00000     0.00000     0

 18 19  0  0  1  0  0  0  0  0999 V2000
    0.9450   -1.8585    0.0000 O   0  0  0  0  0  0  0  0  0
    0.5325   -1.1440    0.0000 C   0  0  0  0  0  0  0  0  0
   -0.2925   -1.1440    0.0000 C   0  0  0  0  0  0  0  0  0
   -0.7050   -1.8585    0.0000 C   0  0  0  0  0  0  0  0  0
   -1.5300   -1.8585    0.0000 C   0  0  0  0  0  0  0  0  0
   -1.9425   -2.5729    0.0000 N   0  0  0  0  0  0  0  0  0
   -2.7675   -2.5729    0.0000 C   0  0  0  0  0  0  0  0  0
   -3.1800   -3.2874    0.0000 C   0  0  0  0  0  0  0  0  0
   -4.0050   -3.2874    0.0000 C   0  0  0  0  0  0  0  0  0
   -1.5300   -3.2874    0.0000 C   0  0  0  0  0  0  0  0  0
   -0.7050   -3.2874    0.0000 C   0  0  0  0  0  0  0  0  0
   -0.2925   -4.0019    0.0000 C   0  0  0  0  0  0  0  0  0
   -1.9425   -1.1440    0.0000 C   0  0  0  0  0  0  0  0  0
   -1.5300   -0.4295    0.0000 C   0  0  0  0  0  0  0  0  0
   -0.7050   -0.4295    0.0000 C   0  0  0  0  0  0  0  0  0
   -0.2925    0.2849    0.0000 C   0  0  0  0  0  0  0  0  0
    0.5325    0.2849    0.0000 C   0  0  0  0  0  0  0  0  0
    0.9450   -0.4295    0.0000 C   0  0  0  0  0  0  0  0  0
  1  2  1  0  0  0  0
  2  3  4  0  0  0  0
  2 18  4  0  0  0  0
  3  4  1  0  0  0  0
  3 15  4  0  0  0  0
  4  5  1  0  0  0  0
  5  6  1  0  0  0  0
  5 13  1  0  0  0  0
  6  7  1  0  0  0  0
  6 10  1  0  0  0  0
  7  8  1  0  0  0  0
  8  9  1  0  0  0  0
 10 11  1  0  0  0  0
 11 12  1  0  0  0  0
 13 14  1  0  0  0  0
 14 15  1  0  0  0  0
 15 16  4  0  0  0  0
 16 17  4  0  0  0  0
 17 18  4  0  0  0  0
M  END
>  <Name_Molregno>
35324

>  <5-HT1A>
8.41

>  <5-HT1B>
6.44

>  <5-HT1D>
6.48

>  <5-HT1E>
5.78

>  <5-HT2A>
5.34

>  <5-HT2C>
5.46

>  <5-HT5>
5.6

>  <5-HT6>
5

>  <5-HT7>
6.52

>  <Alpha-1A>
6.21

>  <Alpha-1B>
6

>  <DOPAMINE D1>
5

>  <DOPAMINE D2>
6.1

>  <DOPAMINE D3>
6.35

>  <DOPAMINE D4>
5.38

$$$$
36107
  Marvin  02231216192D 0   1.00000     0.00000     0

 27 29  0  0  0  0  0  0  0  0999 V2000
   -7.5232   -0.4625    0.0000 O   0  0  0  0  0  0  0  0  0
   -8.2377   -0.8750    0.0000 C   0  0  0  0  0  0  0  0  0
   -7.5232    0.3625    0.0000 C   0  0  0  0  0  0  0  0  0
   -8.2377    0.7750    0.0000 C   0  0  0  0  0  0  0  0  0
   -8.2377    1.6000    0.0000 C   0  0  0  0  0  0  0  0  0
   -7.5232    2.0125    0.0000 C   0  0  0  0  0  0  0  0  0
   -6.8087    1.6000    0.0000 C   0  0  0  0  0  0  0  0  0
   -6.8087    0.7750    0.0000 C   0  0  0  0  0  0  0  0  0
   -6.0943    0.3625    0.0000 N   0  0  0  0  0  0  0  0  0
   -5.3798    0.7750    0.0000 C   0  0  0  0  0  0  0  0  0
   -4.6653    0.3625    0.0000 C   0  0  0  0  0  0  0  0  0
   -4.6653   -0.4625    0.0000 N   0  0  0  0  0  0  0  0  0
   -5.3798   -0.8750    0.0000 C   0  0  0  0  0  0  0  0  0
   -6.0943   -0.4625    0.0000 C   0  0  0  0  0  0  0  0  0
   -3.9509   -0.8750    0.0000 C   0  0  0  0  0  0  0  0  0
   -3.2364   -0.4625    0.0000 C   0  0  0  0  0  0  0  0  0
   -2.5219   -0.8750    0.0000 C   0  0  0  0  0  0  0  0  0
   -1.8074   -0.4625    0.0000 C   0  0  0  0  0  0  0  0  0
   -1.0930   -0.8750    0.0000 N   0  0  0  0  0  0  0  0  0
   -0.3785   -0.4625    0.0000 C   0  0  0  0  0  0  0  0  0
   -0.3785    0.3625    0.0000 O   0  0  0  0  0  0  0  0  0
    0.3360   -0.8750    0.0000 C   0  0  0  0  0  0  0  0  0
    1.0504   -0.4625    0.0000 C   0  0  0  0  0  0  0  0  0
    1.7649   -0.8750    0.0000 C   0  0  0  0  0  0  0  0  0
    1.7649   -1.7000    0.0000 C   0  0  0  0  0  0  0  0  0
    1.0504   -2.1125    0.0000 C   0  0  0  0  0  0  0  0  0
    0.3360   -1.7000    0.0000 C   0  0  0  0  0  0  0  0  0
  1  2  1  0  0  0  0
  1  3  1  0  0  0  0
  3  4  4  0  0  0  0
  3  8  4  0  0  0  0
  4  5  4  0  0  0  0
  5  6  4  0  0  0  0
  6  7  4  0  0  0  0
  7  8  4  0  0  0  0
  8  9  1  0  0  0  0
  9 10  1  0  0  0  0
  9 14  1  0  0  0  0
 10 11  1  0  0  0  0
 11 12  1  0  0  0  0
 12 13  1  0  0  0  0
 12 15  1  0  0  0  0
 13 14  1  0  0  0  0
 15 16  1  0  0  0  0
 16 17  1  0  0  0  0
 17 18  1  0  0  0  0
 18 19  1  0  0  0  0
 19 20  1  0  0  0  0
 20 21  2  0  0  0  0
 20 22  1  0  0  0  0
 22 23  4  0  0  0  0
 22 27  4  0  0  0  0
 23 24  4  0  0  0  0
 24 25  4  0  0  0  0
 25 26  4  0  0  0  0
 26 27  4  0  0  0  0
M  END
>  <Name_Molregno>
36107

>  <DOPAMINE D3>
6.89

$$$$
38445
  Marvin  02231216192D 0   1.00000     0.00000     0

 29 32  0  0  0  0  0  0  0  0999 V2000
    9.5911   -1.5592    0.0000 Cl  0  0  0  0  0  0  0  0  0
    8.8766   -1.1467    0.0000 C   0  0  0  0  0  0  0  0  0
    8.1622   -1.5592    0.0000 C   0  0  0  0  0  0  0  0  0
    7.4477   -1.1467    0.0000 C   0  0  0  0  0  0  0  0  0
    7.4477   -0.3217    0.0000 C   0  0  0  0  0  0  0  0  0
    6.6631   -0.0667    0.0000 S   0  0  0  0  0  0  0  0  0
    6.1782   -0.7342    0.0000 C   0  0  0  0  0  0  0  0  0
    5.3532   -0.7342    0.0000 S   0  0  0  0  0  0  0  0  0
    5.3532    0.0908    0.0000 O   0  0  0  0  0  0  0  0  0
    5.3532   -1.5592    0.0000 O   0  0  0  0  0  0  0  0  0
    4.5282   -0.7342    0.0000 N   0  0  0  0  0  0  0  0  0
    4.1157   -0.0197    0.0000 C   0  0  0  0  0  0  0  0  0
    3.2907   -0.0197    0.0000 C   0  0  0  0  0  0  0  0  0
    2.8782    0.6948    0.0000 C   0  0  0  0  0  0  0  0  0
    2.0532    0.6948    0.0000 N   0  0  0  0  0  0  0  0  0
    1.6407   -0.0197    0.0000 C   0  0  0  0  0  0  0  0  0
    0.8157   -0.0197    0.0000 C   0  0  0  0  0  0  0  0  0
    0.4032    0.6948    0.0000 N   0  0  0  0  0  0  0  0  0
    0.8157    1.4092    0.0000 C   0  0  0  0  0  0  0  0  0
    1.6407    1.4092    0.0000 C   0  0  0  0  0  0  0  0  0
    3.2907    1.4092    0.0000 C   0  0  0  0  0  0  0  0  0
    2.8782    2.1237    0.0000 O   0  0  0  0  0  0  0  0  0
    3.2907    2.8382    0.0000 C   0  0  0  0  0  0  0  0  0
    4.1157    1.4092    0.0000 C   0  0  0  0  0  0  0  0  0
    4.5282    0.6948    0.0000 C   0  0  0  0  0  0  0  0  0
    6.6631   -1.4016    0.0000 C   0  0  0  0  0  0  0  0  0
    6.4081   -2.1862    0.0000 C   0  0  0  0  0  0  0  0  0
    8.1622    0.0908    0.0000 C   0  0  0  0  0  0  0  0  0
    8.8766   -0.3217    0.0000 C   0  0  0  0  0  0  0  0  0
  1  2  1  0  0  0  0
  2  3  4  0  0  0  0
  2 29  4  0  0  0  0
  3  4  4  0  0  0  0
  4  5  4  0  0  0  0
  4 26  4  0  0  0  0
  5  6  4  0  0  0  0
  5 28  4  0  0  0  0
  6  7  4  0  0  0  0
  7  8  1  0  0  0  0
  7 26  4  0  0  0  0
  8  9  2  0  0  0  0
  8 10  2  0  0  0  0
  8 11  1  0  0  0  0
 11 12  1  0  0  0  0
 12 13  4  0  0  0  0
 12 25  4  0  0  0  0
 13 14  4  0  0  0  0
 14 15  1  0  0  0  0
 14 21  4  0  0  0  0
 15 16  1  0  0  0  0
 15 20  1  0  0  0  0
 16 17  1  0  0  0  0
 17 18  1  0  0  0  0
 18 19  1  0  0  0  0
 19 20  1  0  0  0  0
 21 22  1  0  0  0  0
 21 24  4  0  0  0  0
 22 23  1  0  0  0  0
 24 25  4  0  0  0  0
 26 27  1  0  0  0  0
 28 29  4  0  0  0  0
M  END
>  <Name_Molregno>
38445

>  <5-HT1A>
6.47

>  <5-HT2A>
5.76

>  <5-HT2C>
6.28

>  <5-HT6>
8.87

>  <5-HT7>
6.59

>  <DOPAMINE D1>
6.92

>  <DOPAMINE D2>
6.34

>  <DOPAMINE D3>
5.88

>  <DOPAMINE D4>
6.89

$$$$
40961
  Marvin  02231216192D 0   1.00000     0.00000     0

 24 27  0  0  0  0  0  0  0  0999 V2000
   -8.4666    1.7569    0.0000 O   0  0  0  0  0  0  0  0  0
   -9.0187    1.1438    0.0000 C   0  0  0  0  0  0  0  0  0
   -7.6597    1.5853    0.0000 C   0  0  0  0  0  0  0  0  0
   -7.1076    2.1984    0.0000 C   0  0  0  0  0  0  0  0  0
   -6.3007    2.0269    0.0000 C   0  0  0  0  0  0  0  0  0
   -6.0457    1.2423    0.0000 C   0  0  0  0  0  0  0  0  0
   -5.2387    1.0708    0.0000 N   0  0  0  0  0  0  0  0  0
   -4.6867    1.6839    0.0000 C   0  0  0  0  0  0  0  0  0
   -3.8797    1.5123    0.0000 C   0  0  0  0  0  0  0  0  0
   -3.6248    0.7277    0.0000 N   0  0  0  0  0  0  0  0  0
   -4.1768    0.1146    0.0000 C   0  0  0  0  0  0  0  0  0
   -4.9838    0.2861    0.0000 C   0  0  0  0  0  0  0  0  0
   -2.8178    0.5562    0.0000 C   0  0  0  0  0  0  0  0  0
   -2.5629   -0.2284    0.0000 C   0  0  0  0  0  0  0  0  0
   -1.7783   -0.4834    0.0000 C   0  0  0  0  0  0  0  0  0
   -1.0638   -0.0709    0.0000 C   0  0  0  0  0  0  0  0  0
   -0.3493   -0.4834    0.0000 C   0  0  0  0  0  0  0  0  0
   -0.3493   -1.3084    0.0000 C   0  0  0  0  0  0  0  0  0
   -1.0638   -1.7209    0.0000 N   0  0  0  0  0  0  0  0  0
   -1.7783   -1.3084    0.0000 C   0  0  0  0  0  0  0  0  0
   -2.5629   -1.5633    0.0000 N   0  0  0  0  0  0  0  0  0
   -3.0478   -0.8959    0.0000 C   0  0  0  0  0  0  0  0  0
   -6.5977    0.6292    0.0000 C   0  0  0  0  0  0  0  0  0
   -7.4047    0.8007    0.0000 C   0  0  0  0  0  0  0  0  0
  1  2  1  0  0  0  0
  1  3  1  0  0  0  0
  3  4  4  0  0  0  0
  3 24  4  0  0  0  0
  4  5  4  0  0  0  0
  5  6  4  0  0  0  0
  6  7  1  0  0  0  0
  6 23  4  0  0  0  0
  7  8  1  0  0  0  0
  7 12  1  0  0  0  0
  8  9  1  0  0  0  0
  9 10  1  0  0  0  0
 10 11  1  0  0  0  0
 10 13  1  0  0  0  0
 11 12  1  0  0  0  0
 13 14  1  0  0  0  0
 14 15  4  0  0  0  0
 14 22  4  0  0  0  0
 15 16  4  0  0  0  0
 15 20  4  0  0  0  0
 16 17  4  0  0  0  0
 17 18  4  0  0  0  0
 18 19  4  0  0  0  0
 19 20  4  0  0  0  0
 20 21  4  0  0  0  0
 21 22  4  0  0  0  0
 23 24  4  0  0  0  0
M  STY  1   1 DAT
M  SAL   1  1  21
M  SDT   1 MRV_IMPLICIT_H                                        
M  SDD   1     0.0000    0.0000    DR    ALL  0       0  
M  SED   1 IMPL_H1
M  END
>  <Name_Molregno>
40961

>  <5-HT1A>
5

>  <5-HT1B>
5

>  <5-HT1D>
5

>  <5-HT1E>
5

>  <5-HT2A>
5

>  <5-HT2C>
5

>  <5-HT5>
5

>  <5-HT6>
5

>  <5-HT7>
5

>  <DOPAMINE D2>
5.82

>  <DOPAMINE D3>
5.41

>  <DOPAMINE D4>
8.89

$$$$
42179
  Marvin  02231216192D 0   1.00000     0.00000     0

 31 34  0  0  0  0  0  0  0  0999 V2000
    0.8929    1.6421    0.0000 O   0  0  0  0  0  0  0  0  0
    1.6074    2.0546    0.0000 C   0  0  0  0  0  0  0  0  0
    0.8929    0.8171    0.0000 C   0  0  0  0  0  0  0  0  0
    1.6074    0.4046    0.0000 C   0  0  0  0  0  0  0  0  0
    1.6074   -0.4204    0.0000 C   0  0  0  0  0  0  0  0  0
    0.8929   -0.8329    0.0000 C   0  0  0  0  0  0  0  0  0
    0.1785   -0.4204    0.0000 C   0  0  0  0  0  0  0  0  0
    0.1785    0.4046    0.0000 C   0  0  0  0  0  0  0  0  0
   -0.5360    0.8171    0.0000 N   0  0  0  0  0  0  0  0  0
   -1.2505    0.4046    0.0000 C   0  0  0  0  0  0  0  0  0
   -1.9649    0.8171    0.0000 C   0  0  0  0  0  0  0  0  0
   -1.9649    1.6421    0.0000 N   0  0  0  0  0  0  0  0  0
   -1.2505    2.0546    0.0000 C   0  0  0  0  0  0  0  0  0
   -0.5360    1.6421    0.0000 C   0  0  0  0  0  0  0  0  0
   -2.6794    2.0546    0.0000 C   0  0  0  0  0  0  0  0  0
   -3.3939    1.6421    0.0000 C   0  0  0  0  0  0  0  0  0
   -4.1083    2.0546    0.0000 N   0  0  0  0  0  0  0  0  0
   -4.8228    1.6421    0.0000 C   0  0  0  0  0  0  0  0  0
   -4.8228    0.8171    0.0000 O   0  0  0  0  0  0  0  0  0
   -5.5373    2.0546    0.0000 C   0  0  0  0  0  0  0  0  0
   -6.2518    1.6421    0.0000 C   0  0  0  0  0  0  0  0  0
   -6.9662    2.0546    0.0000 C   0  0  0  0  0  0  0  0  0
   -6.9662    2.8796    0.0000 C   0  0  0  0  0  0  0  0  0
   -6.2518    3.2921    0.0000 C   0  0  0  0  0  0  0  0  0
   -5.5373    2.8796    0.0000 C   0  0  0  0  0  0  0  0  0
   -4.1083    2.8796    0.0000 C   0  0  0  0  0  0  0  0  0
   -4.8228    3.2921    0.0000 N   0  0  0  0  0  0  0  0  0
   -4.8228    4.1171    0.0000 C   0  0  0  0  0  0  0  0  0
   -4.1083    4.5296    0.0000 C   0  0  0  0  0  0  0  0  0
   -3.3939    4.1171    0.0000 C   0  0  0  0  0  0  0  0  0
   -3.3939    3.2921    0.0000 C   0  0  0  0  0  0  0  0  0
  1  2  1  0  0  0  0
  1  3  1  0  0  0  0
  3  4  4  0  0  0  0
  3  8  4  0  0  0  0
  4  5  4  0  0  0  0
  5  6  4  0  0  0  0
  6  7  4  0  0  0  0
  7  8  4  0  0  0  0
  8  9  1  0  0  0  0
  9 10  1  0  0  0  0
  9 14  1  0  0  0  0
 10 11  1  0  0  0  0
 11 12  1  0  0  0  0
 12 13  1  0  0  0  0
 12 15  1  0  0  0  0
 13 14  1  0  0  0  0
 15 16  1  0  0  0  0
 16 17  1  0  0  0  0
 17 18  1  0  0  0  0
 17 26  1  0  0  0  0
 18 19  2  0  0  0  0
 18 20  1  0  0  0  0
 20 21  1  0  0  0  0
 20 25  1  0  0  0  0
 21 22  1  0  0  0  0
 22 23  1  0  0  0  0
 23 24  1  0  0  0  0
 24 25  1  0  0  0  0
 26 27  4  0  0  0  0
 26 31  4  0  0  0  0
 27 28  4  0  0  0  0
 28 29  4  0  0  0  0
 29 30  4  0  0  0  0
 30 31  4  0  0  0  0
M  END
>  <Name_Molregno>
42179

>  <5-HT1A>
9.12

>  <5-HT1B>
5

>  <5-HT1D>
5

>  <5-HT1E>
5

>  <5-HT2A>
5.2

>  <5-HT5>
5

>  <5-HT6>
5

>  <5-HT7>
5

>  <Alpha-1A>
7.71

>  <Alpha-1B>
6.33

>  <Alpha-2A>
5

>  <Alpha-2B>
5

>  <Alpha-2C>
5.59

>  <DOPAMINE D1>
5

>  <DOPAMINE D2>
6.57

>  <DOPAMINE D3>
7.17

>  <DOPAMINE D4>
7.79

>  <DOPAMINE D5>
5

>  <HISTAMINE H1>
5

>  <HISTAMINE H2>
5

>  <HISTAMINE H4>
5

>  <Muscarinic acetylcholine receptor M2>
5

>  <Muscarinic acetylcholine receptor M5>
5

$$$$
51419
  Marvin  02231216192D 0   1.00000     0.00000     0

 25 28  0  0  1  0  0  0  0  0999 V2000
    0.9178    2.4009    0.0000 S   0  0  0  0  0  0  0  0  0
    0.9178    3.2259    0.0000 C   0  0  0  0  0  0  0  0  0
    0.2503    3.7108    0.0000 C   0  0  0  0  0  0  0  0  0
    1.7024    3.4808    0.0000 C   0  0  0  0  0  0  0  0  0
    2.1873    2.8134    0.0000 N   0  0  0  0  0  0  0  0  0
    1.7024    2.1459    0.0000 C   0  0  0  0  0  0  0  0  0
    1.9573    1.3613    0.0000 N   0  0  0  0  0  0  0  0  0
    2.7643    1.1898    0.0000 C   0  0  0  0  0  0  0  0  0
    3.0192    0.4052    0.0000 C   0  0  0  0  0  0  0  0  0
    2.4672   -0.2079    0.0000 N   0  0  0  0  0  0  0  0  0
    1.6602   -0.0364    0.0000 C   0  0  0  0  0  0  0  0  0
    1.4053    0.7482    0.0000 C   0  0  0  0  0  0  0  0  0
    2.7221   -0.9926    0.0000 C   0  0  0  0  0  0  0  0  0
    3.5291   -1.1641    0.0000 C   0  0  0  0  0  0  0  0  0
    3.7840   -1.9487    0.0000 C   0  0  0  0  0  0  0  0  0
    3.2991   -2.6161    0.0000 N   0  0  0  0  0  0  0  0  0
    3.7840   -3.2836    0.0000 C   0  0  0  0  0  0  0  0  0
    3.5291   -4.0682    0.0000 O   0  0  0  0  0  0  0  0  0
    4.5687   -3.0286    0.0000 C   0  0  0  0  0  0  0  0  0
    4.5687   -2.2036    0.0000 C   0  0  0  0  0  0  0  0  0
    5.2831   -1.7911    0.0000 C   0  0  0  0  0  0  0  0  0
    5.9976   -2.2036    0.0000 C   0  0  0  0  0  0  0  0  0
    5.9976   -3.0286    0.0000 C   0  0  0  0  0  0  0  0  0
    5.2831   -3.4411    0.0000 C   0  0  0  0  0  0  0  0  0
    1.9573    4.2654    0.0000 C   0  0  0  0  0  0  0  0  0
  1  2  4  0  0  0  0
  1  6  4  0  0  0  0
  2  3  1  0  0  0  0
  2  4  4  0  0  0  0
  4  5  4  0  0  0  0
  4 25  1  0  0  0  0
  5  6  4  0  0  0  0
  6  7  1  0  0  0  0
  7  8  1  0  0  0  0
  7 12  1  0  0  0  0
  8  9  1  0  0  0  0
  9 10  1  0  0  0  0
 10 11  1  0  0  0  0
 10 13  1  0  0  0  0
 11 12  1  0  0  0  0
 13 14  1  0  0  0  0
 14 15  1  0  0  0  0
 15 16  1  0  0  0  0
 15 20  1  0  0  0  0
 16 17  1  0  0  0  0
 17 18  2  0  0  0  0
 17 19  1  0  0  0  0
 19 20  4  0  0  0  0
 19 24  4  0  0  0  0
 20 21  4  0  0  0  0
 21 22  4  0  0  0  0
 22 23  4  0  0  0  0
 23 24  4  0  0  0  0
M  END
>  <Name_Molregno>
51419

>  <DOPAMINE D2>
5.3

>  <DOPAMINE D3>
5.52

$$$$
51450
  Marvin  02231216192D 0   1.00000     0.00000     0

 28 32  0  0  1  0  0  0  0  0999 V2000
   -7.4079   -3.8109    0.0000 O   0  0  0  0  0  0  0  0  0
   -7.0723   -3.0572    0.0000 C   0  0  0  0  0  0  0  0  0
   -6.2653   -2.8856    0.0000 N   0  0  0  0  0  0  0  0  0
   -6.1791   -2.0652    0.0000 C   0  0  0  0  0  0  0  0  0
   -6.9328   -1.7296    0.0000 C   0  0  0  0  0  0  0  0  0
   -7.4848   -2.3427    0.0000 C   0  0  0  0  0  0  0  0  0
   -8.2918   -2.1712    0.0000 C   0  0  0  0  0  0  0  0  0
   -8.5467   -1.3866    0.0000 C   0  0  0  0  0  0  0  0  0
   -7.9947   -0.7735    0.0000 C   0  0  0  0  0  0  0  0  0
   -7.1877   -0.9450    0.0000 C   0  0  0  0  0  0  0  0  0
   -5.4646   -1.6527    0.0000 C   0  0  0  0  0  0  0  0  0
   -5.4646   -0.8277    0.0000 C   0  0  0  0  0  0  0  0  0
   -4.7502   -0.4152    0.0000 N   0  0  0  0  0  0  0  0  0
   -4.7502    0.4098    0.0000 C   0  0  0  0  0  0  0  0  0
   -4.0357    0.8223    0.0000 C   0  0  0  0  0  0  0  0  0
   -3.3212    0.4098    0.0000 N   0  0  0  0  0  0  0  0  0
   -3.3212   -0.4152    0.0000 C   0  0  0  0  0  0  0  0  0
   -4.0357   -0.8277    0.0000 C   0  0  0  0  0  0  0  0  0
   -2.6067    0.8223    0.0000 C   0  0  0  0  0  0  0  0  0
   -1.8923    0.4098    0.0000 C   0  0  0  0  0  0  0  0  0
   -1.1778    0.8223    0.0000 C   0  0  0  0  0  0  0  0  0
   -1.1778    1.6473    0.0000 C   0  0  0  0  0  0  0  0  0
   -1.8923    2.0598    0.0000 C   0  0  0  0  0  0  0  0  0
   -2.6067    1.6473    0.0000 C   0  0  0  0  0  0  0  0  0
   -0.4633    2.0598    0.0000 C   0  0  0  0  0  0  0  0  0
    0.2511    1.6473    0.0000 C   0  0  0  0  0  0  0  0  0
    0.2511    0.8223    0.0000 C   0  0  0  0  0  0  0  0  0
   -0.4633    0.4098    0.0000 C   0  0  0  0  0  0  0  0  0
  1  2  2  0  0  0  0
  2  3  1  0  0  0  0
  2  6  1  0  0  0  0
  3  4  1  0  0  0  0
  4  5  1  0  0  0  0
  4 11  1  0  0  0  0
  5  6  4  0  0  0  0
  5 10  4  0  0  0  0
  6  7  4  0  0  0  0
  7  8  4  0  0  0  0
  8  9  4  0  0  0  0
  9 10  4  0  0  0  0
 11 12  1  0  0  0  0
 12 13  1  0  0  0  0
 13 14  1  0  0  0  0
 13 18  1  0  0  0  0
 14 15  1  0  0  0  0
 15 16  1  0  0  0  0
 16 17  1  0  0  0  0
 16 19  1  0  0  0  0
 17 18  1  0  0  0  0
 19 20  4  0  0  0  0
 19 24  4  0  0  0  0
 20 21  4  0  0  0  0
 21 22  4  0  0  0  0
 21 28  4  0  0  0  0
 22 23  4  0  0  0  0
 22 25  4  0  0  0  0
 23 24  4  0  0  0  0
 25 26  4  0  0  0  0
 26 27  4  0  0  0  0
 27 28  4  0  0  0  0
M  END
>  <Name_Molregno>
51450

>  <DOPAMINE D2>
5.3

>  <DOPAMINE D3>
5.52

$$$$
51451
  Marvin  02231216192D 0   1.00000     0.00000     0

 26 29  0  0  1  0  0  0  0  0999 V2000
   -4.1868    3.7827    0.0000 O   0  0  0  0  0  0  0  0  0
   -3.9318    2.9981    0.0000 C   0  0  0  0  0  0  0  0  0
   -4.4168    2.3307    0.0000 N   0  0  0  0  0  0  0  0  0
   -3.9318    1.6632    0.0000 C   0  0  0  0  0  0  0  0  0
   -3.1472    1.9182    0.0000 C   0  0  0  0  0  0  0  0  0
   -3.1472    2.7432    0.0000 C   0  0  0  0  0  0  0  0  0
   -2.4328    3.1557    0.0000 C   0  0  0  0  0  0  0  0  0
   -1.7183    2.7432    0.0000 C   0  0  0  0  0  0  0  0  0
   -1.7183    1.9182    0.0000 C   0  0  0  0  0  0  0  0  0
   -2.4328    1.5057    0.0000 C   0  0  0  0  0  0  0  0  0
   -4.1868    0.8786    0.0000 C   0  0  0  0  0  0  0  0  0
   -3.6348    0.2655    0.0000 C   0  0  0  0  0  0  0  0  0
   -3.8897   -0.5191    0.0000 N   0  0  0  0  0  0  0  0  0
   -3.3377   -1.1322    0.0000 C   0  0  0  0  0  0  0  0  0
   -3.5926   -1.9168    0.0000 C   0  0  0  0  0  0  0  0  0
   -4.3996   -2.0884    0.0000 N   0  0  0  0  0  0  0  0  0
   -4.9516   -1.4753    0.0000 C   0  0  0  0  0  0  0  0  0
   -4.6967   -0.6906    0.0000 C   0  0  0  0  0  0  0  0  0
   -4.6545   -2.8730    0.0000 C   0  0  0  0  0  0  0  0  0
   -4.1025   -3.4861    0.0000 C   0  0  0  0  0  0  0  0  0
   -4.3574   -4.2707    0.0000 C   0  0  0  0  0  0  0  0  0
   -3.8054   -4.8838    0.0000 C   0  0  0  0  0  0  0  0  0
   -5.1644   -4.4422    0.0000 C   0  0  0  0  0  0  0  0  0
   -5.7164   -3.8291    0.0000 C   0  0  0  0  0  0  0  0  0
   -5.4615   -3.0445    0.0000 C   0  0  0  0  0  0  0  0  0
   -5.4193   -5.2268    0.0000 C   0  0  0  0  0  0  0  0  0
  1  2  2  0  0  0  0
  2  3  1  0  0  0  0
  2  6  1  0  0  0  0
  3  4  1  0  0  0  0
  4  5  1  0  0  0  0
  4 11  1  0  0  0  0
  5  6  4  0  0  0  0
  5 10  4  0  0  0  0
  6  7  4  0  0  0  0
  7  8  4  0  0  0  0
  8  9  4  0  0  0  0
  9 10  4  0  0  0  0
 11 12  1  0  0  0  0
 12 13  1  0  0  0  0
 13 14  1  0  0  0  0
 13 18  1  0  0  0  0
 14 15  1  0  0  0  0
 15 16  1  0  0  0  0
 16 17  1  0  0  0  0
 16 19  1  0  0  0  0
 17 18  1  0  0  0  0
 19 20  4  0  0  0  0
 19 25  4  0  0  0  0
 20 21  4  0  0  0  0
 21 22  1  0  0  0  0
 21 23  4  0  0  0  0
 23 24  4  0  0  0  0
 23 26  1  0  0  0  0
 24 25  4  0  0  0  0
M  END
>  <Name_Molregno>
51451

>  <DOPAMINE D2>
5.51

>  <DOPAMINE D3>
5.57

$$$$
51909
  Marvin  02231216192D 0   1.00000     0.00000     0

 26 29  0  0  1  0  0  0  0  0999 V2000
   -4.1868    3.7827    0.0000 O   0  0  0  0  0  0  0  0  0
   -3.9318    2.9981    0.0000 C   0  0  0  0  0  0  0  0  0
   -4.4168    2.3307    0.0000 N   0  0  0  0  0  0  0  0  0
   -3.9318    1.6632    0.0000 C   0  0  0  0  0  0  0  0  0
   -3.1472    1.9182    0.0000 C   0  0  0  0  0  0  0  0  0
   -3.1472    2.7432    0.0000 C   0  0  0  0  0  0  0  0  0
   -2.4328    3.1557    0.0000 C   0  0  0  0  0  0  0  0  0
   -1.7183    2.7432    0.0000 C   0  0  0  0  0  0  0  0  0
   -1.7183    1.9182    0.0000 C   0  0  0  0  0  0  0  0  0
   -2.4328    1.5057    0.0000 C   0  0  0  0  0  0  0  0  0
   -4.1868    0.8786    0.0000 C   0  0  0  0  0  0  0  0  0
   -3.6348    0.2655    0.0000 C   0  0  0  0  0  0  0  0  0
   -3.8897   -0.5191    0.0000 N   0  0  0  0  0  0  0  0  0
   -3.3377   -1.1322    0.0000 C   0  0  0  0  0  0  0  0  0
   -3.5926   -1.9168    0.0000 C   0  0  0  0  0  0  0  0  0
   -4.3996   -2.0884    0.0000 C   0  0  0  0  0  0  0  0  0
   -4.9516   -1.4753    0.0000 C   0  0  0  0  0  0  0  0  0
   -4.6967   -0.6906    0.0000 C   0  0  0  0  0  0  0  0  0
   -4.6545   -2.8730    0.0000 C   0  0  0  0  0  0  0  0  0
   -4.1025   -3.4861    0.0000 C   0  0  0  0  0  0  0  0  0
   -4.3574   -4.2707    0.0000 C   0  0  0  0  0  0  0  0  0
   -3.8054   -4.8838    0.0000 C   0  0  0  0  0  0  0  0  0
   -5.1644   -4.4422    0.0000 C   0  0  0  0  0  0  0  0  0
   -5.7164   -3.8291    0.0000 C   0  0  0  0  0  0  0  0  0
   -5.4615   -3.0445    0.0000 C   0  0  0  0  0  0  0  0  0
   -5.4193   -5.2268    0.0000 C   0  0  0  0  0  0  0  0  0
  1  2  2  0  0  0  0
  2  3  1  0  0  0  0
  2  6  1  0  0  0  0
  3  4  1  0  0  0  0
  4  5  1  0  0  0  0
  4 11  1  0  0  0  0
  5  6  4  0  0  0  0
  5 10  4  0  0  0  0
  6  7  4  0  0  0  0
  7  8  4  0  0  0  0
  8  9  4  0  0  0  0
  9 10  4  0  0  0  0
 11 12  1  0  0  0  0
 12 13  1  0  0  0  0
 13 14  1  0  0  0  0
 13 18  1  0  0  0  0
 14 15  1  0  0  0  0
 15 16  1  0  0  0  0
 16 17  1  0  0  0  0
 16 19  1  0  0  0  0
 17 18  1  0  0  0  0
 19 20  4  0  0  0  0
 19 25  4  0  0  0  0
 20 21  4  0  0  0  0
 21 22  1  0  0  0  0
 21 23  4  0  0  0  0
 23 24  4  0  0  0  0
 23 26  1  0  0  0  0
 24 25  4  0  0  0  0
M  END
>  <Name_Molregno>
51909

>  <DOPAMINE D2>
5.92

>  <DOPAMINE D3>
5.52

$$$$
51978
  Marvin  02231216192D 0   1.00000     0.00000     0

 25 28  0  0  1  0  0  0  0  0999 V2000
   -4.0264    3.5499    0.0000 O   0  0  0  0  0  0  0  0  0
   -3.7714    2.7653    0.0000 C   0  0  0  0  0  0  0  0  0
   -4.2563    2.0978    0.0000 N   0  0  0  0  0  0  0  0  0
   -3.7714    1.4304    0.0000 C   0  0  0  0  0  0  0  0  0
   -2.9868    1.6853    0.0000 C   0  0  0  0  0  0  0  0  0
   -2.9868    2.5103    0.0000 C   0  0  0  0  0  0  0  0  0
   -2.2723    2.9228    0.0000 C   0  0  0  0  0  0  0  0  0
   -1.5579    2.5103    0.0000 C   0  0  0  0  0  0  0  0  0
   -1.5579    1.6853    0.0000 C   0  0  0  0  0  0  0  0  0
   -2.2723    1.2728    0.0000 C   0  0  0  0  0  0  0  0  0
   -4.0264    0.6458    0.0000 C   0  0  0  0  0  0  0  0  0
   -3.4743    0.0327    0.0000 C   0  0  0  0  0  0  0  0  0
   -3.7293   -0.7520    0.0000 N   0  0  0  0  0  0  0  0  0
   -3.1772   -1.3651    0.0000 C   0  0  0  0  0  0  0  0  0
   -3.4322   -2.1497    0.0000 C   0  0  0  0  0  0  0  0  0
   -4.2391   -2.3212    0.0000 N   0  0  0  0  0  0  0  0  0
   -4.7912   -1.7081    0.0000 C   0  0  0  0  0  0  0  0  0
   -4.5362   -0.9235    0.0000 C   0  0  0  0  0  0  0  0  0
   -4.4941   -3.1058    0.0000 C   0  0  0  0  0  0  0  0  0
   -3.9420   -3.7189    0.0000 C   0  0  0  0  0  0  0  0  0
   -4.1970   -4.5035    0.0000 C   0  0  0  0  0  0  0  0  0
   -5.0040   -4.6751    0.0000 C   0  0  0  0  0  0  0  0  0
   -5.5560   -4.0620    0.0000 C   0  0  0  0  0  0  0  0  0
   -5.3011   -3.2774    0.0000 C   0  0  0  0  0  0  0  0  0
   -5.2589   -5.4597    0.0000 C   0  0  0  0  0  0  0  0  0
  1  2  2  0  0  0  0
  2  3  1  0  0  0  0
  2  6  1  0  0  0  0
  3  4  1  0  0  0  0
  4  5  1  0  0  0  0
  4 11  1  0  0  0  0
  5  6  4  0  0  0  0
  5 10  4  0  0  0  0
  6  7  4  0  0  0  0
  7  8  4  0  0  0  0
  8  9  4  0  0  0  0
  9 10  4  0  0  0  0
 11 12  1  0  0  0  0
 12 13  1  0  0  0  0
 13 14  1  0  0  0  0
 13 18  1  0  0  0  0
 14 15  1  0  0  0  0
 15 16  1  0  0  0  0
 16 17  1  0  0  0  0
 16 19  1  0  0  0  0
 17 18  1  0  0  0  0
 19 20  4  0  0  0  0
 19 24  4  0  0  0  0
 20 21  4  0  0  0  0
 21 22  4  0  0  0  0
 22 23  4  0  0  0  0
 22 25  1  0  0  0  0
 23 24  4  0  0  0  0
M  END
>  <Name_Molregno>
51978

>  <DOPAMINE D2>
5.3

>  <DOPAMINE D3>
5.52

$$$$
52198
  Marvin  02231216192D 0   1.00000     0.00000     0

 27 30  0  0  1  0  0  0  0  0999 V2000
    2.8818    5.0163    0.0000 O   0  0  0  0  0  0  0  0  0
    2.0749    5.1878    0.0000 C   0  0  0  0  0  0  0  0  0
    3.1368    4.2317    0.0000 C   0  0  0  0  0  0  0  0  0
    3.9437    4.0602    0.0000 C   0  0  0  0  0  0  0  0  0
    4.1987    3.2755    0.0000 C   0  0  0  0  0  0  0  0  0
    3.6466    2.6624    0.0000 C   0  0  0  0  0  0  0  0  0
    3.9016    1.8778    0.0000 N   0  0  0  0  0  0  0  0  0
    4.7086    1.7063    0.0000 C   0  0  0  0  0  0  0  0  0
    4.9635    0.9217    0.0000 C   0  0  0  0  0  0  0  0  0
    4.4115    0.3086    0.0000 N   0  0  0  0  0  0  0  0  0
    3.6045    0.4801    0.0000 C   0  0  0  0  0  0  0  0  0
    3.3495    1.2647    0.0000 C   0  0  0  0  0  0  0  0  0
    4.6664   -0.4761    0.0000 C   0  0  0  0  0  0  0  0  0
    5.4734   -0.6476    0.0000 C   0  0  0  0  0  0  0  0  0
    5.7283   -1.4322    0.0000 C   0  0  0  0  0  0  0  0  0
    5.2434   -2.0996    0.0000 N   0  0  0  0  0  0  0  0  0
    4.4184   -2.0996    0.0000 C   0  0  0  0  0  0  0  0  0
    5.7283   -2.7671    0.0000 C   0  0  0  0  0  0  0  0  0
    5.4734   -3.5517    0.0000 O   0  0  0  0  0  0  0  0  0
    6.5129   -2.5121    0.0000 C   0  0  0  0  0  0  0  0  0
    6.5129   -1.6871    0.0000 C   0  0  0  0  0  0  0  0  0
    7.2274   -1.2746    0.0000 C   0  0  0  0  0  0  0  0  0
    7.9419   -1.6871    0.0000 C   0  0  0  0  0  0  0  0  0
    7.9419   -2.5121    0.0000 C   0  0  0  0  0  0  0  0  0
    7.2274   -2.9246    0.0000 C   0  0  0  0  0  0  0  0  0
    2.8397    2.8340    0.0000 C   0  0  0  0  0  0  0  0  0
    2.5847    3.6186    0.0000 C   0  0  0  0  0  0  0  0  0
  1  2  1  0  0  0  0
  1  3  1  0  0  0  0
  3  4  4  0  0  0  0
  3 27  4  0  0  0  0
  4  5  4  0  0  0  0
  5  6  4  0  0  0  0
  6  7  1  0  0  0  0
  6 26  4  0  0  0  0
  7  8  1  0  0  0  0
  7 12  1  0  0  0  0
  8  9  1  0  0  0  0
  9 10  1  0  0  0  0
 10 11  1  0  0  0  0
 10 13  1  0  0  0  0
 11 12  1  0  0  0  0
 13 14  1  0  0  0  0
 14 15  1  0  0  0  0
 15 16  1  0  0  0  0
 15 21  1  0  0  0  0
 16 17  1  0  0  0  0
 16 18  1  0  0  0  0
 18 19  2  0  0  0  0
 18 20  1  0  0  0  0
 20 21  4  0  0  0  0
 20 25  4  0  0  0  0
 21 22  4  0  0  0  0
 22 23  4  0  0  0  0
 23 24  4  0  0  0  0
 24 25  4  0  0  0  0
 26 27  4  0  0  0  0
M  END
>  <Name_Molregno>
52198

>  <DOPAMINE D2>
5.3

>  <DOPAMINE D3>
5.52

$$$$
52199
  Marvin  02231216192D 0   1.00000     0.00000     0

 26 29  0  0  1  0  0  0  0  0999 V2000
    2.9753    5.2602    0.0000 Cl  0  0  0  0  0  0  0  0  0
    3.2302    4.4756    0.0000 C   0  0  0  0  0  0  0  0  0
    4.0372    4.3040    0.0000 C   0  0  0  0  0  0  0  0  0
    4.2922    3.5194    0.0000 C   0  0  0  0  0  0  0  0  0
    3.7401    2.9063    0.0000 C   0  0  0  0  0  0  0  0  0
    3.9951    2.1217    0.0000 N   0  0  0  0  0  0  0  0  0
    4.8020    1.9502    0.0000 C   0  0  0  0  0  0  0  0  0
    5.0570    1.1656    0.0000 C   0  0  0  0  0  0  0  0  0
    4.5049    0.5525    0.0000 N   0  0  0  0  0  0  0  0  0
    3.6980    0.7240    0.0000 C   0  0  0  0  0  0  0  0  0
    3.4430    1.5086    0.0000 C   0  0  0  0  0  0  0  0  0
    4.7599   -0.2322    0.0000 C   0  0  0  0  0  0  0  0  0
    5.5669   -0.4037    0.0000 C   0  0  0  0  0  0  0  0  0
    5.8218   -1.1883    0.0000 C   0  0  0  0  0  0  0  0  0
    5.3369   -1.8557    0.0000 N   0  0  0  0  0  0  0  0  0
    4.5119   -1.8557    0.0000 C   0  0  0  0  0  0  0  0  0
    5.8218   -2.5232    0.0000 C   0  0  0  0  0  0  0  0  0
    5.5669   -3.3078    0.0000 O   0  0  0  0  0  0  0  0  0
    6.6064   -2.2682    0.0000 C   0  0  0  0  0  0  0  0  0
    6.6064   -1.4432    0.0000 C   0  0  0  0  0  0  0  0  0
    7.3209   -1.0307    0.0000 C   0  0  0  0  0  0  0  0  0
    8.0354   -1.4432    0.0000 C   0  0  0  0  0  0  0  0  0
    8.0354   -2.2682    0.0000 C   0  0  0  0  0  0  0  0  0
    7.3209   -2.6807    0.0000 C   0  0  0  0  0  0  0  0  0
    2.9332    3.0779    0.0000 C   0  0  0  0  0  0  0  0  0
    2.6782    3.8625    0.0000 C   0  0  0  0  0  0  0  0  0
  1  2  1  0  0  0  0
  2  3  4  0  0  0  0
  2 26  4  0  0  0  0
  3  4  4  0  0  0  0
  4  5  4  0  0  0  0
  5  6  1  0  0  0  0
  5 25  4  0  0  0  0
  6  7  1  0  0  0  0
  6 11  1  0  0  0  0
  7  8  1  0  0  0  0
  8  9  1  0  0  0  0
  9 10  1  0  0  0  0
  9 12  1  0  0  0  0
 10 11  1  0  0  0  0
 12 13  1  0  0  0  0
 13 14  1  0  0  0  0
 14 15  1  0  0  0  0
 14 20  1  0  0  0  0
 15 16  1  0  0  0  0
 15 17  1  0  0  0  0
 17 18  2  0  0  0  0
 17 19  1  0  0  0  0
 19 20  4  0  0  0  0
 19 24  4  0  0  0  0
 20 21  4  0  0  0  0
 21 22  4  0  0  0  0
 22 23  4  0  0  0  0
 23 24  4  0  0  0  0
 25 26  4  0  0  0  0
M  END
>  <Name_Molregno>
52199

>  <DOPAMINE D2>
5.3

>  <DOPAMINE D3>
5.52

$$$$
52201
  Marvin  02231216192D 0   1.00000     0.00000     0

 27 30  0  0  1  0  0  0  0  0999 V2000
   -3.9940    3.3751    0.0000 O   0  0  0  0  0  0  0  0  0
   -3.7390    2.5905    0.0000 C   0  0  0  0  0  0  0  0  0
   -4.2240    1.9230    0.0000 N   0  0  0  0  0  0  0  0  0
   -5.0490    1.9230    0.0000 C   0  0  0  0  0  0  0  0  0
   -3.7390    1.2556    0.0000 C   0  0  0  0  0  0  0  0  0
   -2.9544    1.5105    0.0000 C   0  0  0  0  0  0  0  0  0
   -2.9544    2.3355    0.0000 C   0  0  0  0  0  0  0  0  0
   -2.2399    2.7480    0.0000 C   0  0  0  0  0  0  0  0  0
   -1.5255    2.3355    0.0000 C   0  0  0  0  0  0  0  0  0
   -1.5255    1.5105    0.0000 C   0  0  0  0  0  0  0  0  0
   -2.2399    1.0980    0.0000 C   0  0  0  0  0  0  0  0  0
   -3.9940    0.4710    0.0000 C   0  0  0  0  0  0  0  0  0
   -3.4419   -0.1421    0.0000 C   0  0  0  0  0  0  0  0  0
   -3.6969   -0.9267    0.0000 N   0  0  0  0  0  0  0  0  0
   -3.1448   -1.5398    0.0000 C   0  0  0  0  0  0  0  0  0
   -3.3998   -2.3245    0.0000 C   0  0  0  0  0  0  0  0  0
   -4.2068   -2.4960    0.0000 N   0  0  0  0  0  0  0  0  0
   -4.7588   -1.8829    0.0000 C   0  0  0  0  0  0  0  0  0
   -4.5039   -1.0983    0.0000 C   0  0  0  0  0  0  0  0  0
   -4.4617   -3.2806    0.0000 C   0  0  0  0  0  0  0  0  0
   -3.9097   -3.8937    0.0000 C   0  0  0  0  0  0  0  0  0
   -4.1646   -4.6783    0.0000 C   0  0  0  0  0  0  0  0  0
   -3.6126   -5.2914    0.0000 C   0  0  0  0  0  0  0  0  0
   -4.9716   -4.8498    0.0000 C   0  0  0  0  0  0  0  0  0
   -5.5236   -4.2368    0.0000 C   0  0  0  0  0  0  0  0  0
   -5.2687   -3.4521    0.0000 C   0  0  0  0  0  0  0  0  0
   -5.2265   -5.6345    0.0000 C   0  0  0  0  0  0  0  0  0
  1  2  2  0  0  0  0
  2  3  1  0  0  0  0
  2  7  1  0  0  0  0
  3  4  1  0  0  0  0
  3  5  1  0  0  0  0
  5  6  1  0  0  0  0
  5 12  1  0  0  0  0
  6  7  4  0  0  0  0
  6 11  4  0  0  0  0
  7  8  4  0  0  0  0
  8  9  4  0  0  0  0
  9 10  4  0  0  0  0
 10 11  4  0  0  0  0
 12 13  1  0  0  0  0
 13 14  1  0  0  0  0
 14 15  1  0  0  0  0
 14 19  1  0  0  0  0
 15 16  1  0  0  0  0
 16 17  1  0  0  0  0
 17 18  1  0  0  0  0
 17 20  1  0  0  0  0
 18 19  1  0  0  0  0
 20 21  4  0  0  0  0
 20 26  4  0  0  0  0
 21 22  4  0  0  0  0
 22 23  1  0  0  0  0
 22 24  4  0  0  0  0
 24 25  4  0  0  0  0
 24 27  1  0  0  0  0
 25 26  4  0  0  0  0
M  END
>  <Name_Molregno>
52201

>  <DOPAMINE D2>
5.3

>  <DOPAMINE D3>
5.52

$$$$
52232
  Marvin  02231216192D 0   1.00000     0.00000     0

 26 29  0  0  1  0  0  0  0  0999 V2000
    2.7791    4.9744    0.0000 O   0  0  0  0  0  0  0  0  0
    1.9721    5.1460    0.0000 C   0  0  0  0  0  0  0  0  0
    3.0340    4.1898    0.0000 C   0  0  0  0  0  0  0  0  0
    3.8410    4.0183    0.0000 C   0  0  0  0  0  0  0  0  0
    4.0959    3.2337    0.0000 C   0  0  0  0  0  0  0  0  0
    3.5439    2.6206    0.0000 C   0  0  0  0  0  0  0  0  0
    3.7988    1.8360    0.0000 N   0  0  0  0  0  0  0  0  0
    4.6058    1.6644    0.0000 C   0  0  0  0  0  0  0  0  0
    4.8608    0.8798    0.0000 C   0  0  0  0  0  0  0  0  0
    4.3087    0.2667    0.0000 N   0  0  0  0  0  0  0  0  0
    3.5017    0.4382    0.0000 C   0  0  0  0  0  0  0  0  0
    3.2468    1.2229    0.0000 C   0  0  0  0  0  0  0  0  0
    4.5637   -0.5179    0.0000 C   0  0  0  0  0  0  0  0  0
    5.3706   -0.6894    0.0000 C   0  0  0  0  0  0  0  0  0
    5.6256   -1.4741    0.0000 C   0  0  0  0  0  0  0  0  0
    5.1406   -2.1415    0.0000 N   0  0  0  0  0  0  0  0  0
    5.6256   -2.8089    0.0000 C   0  0  0  0  0  0  0  0  0
    5.3706   -3.5936    0.0000 O   0  0  0  0  0  0  0  0  0
    6.4102   -2.5540    0.0000 C   0  0  0  0  0  0  0  0  0
    6.4102   -1.7290    0.0000 C   0  0  0  0  0  0  0  0  0
    7.1247   -1.3165    0.0000 C   0  0  0  0  0  0  0  0  0
    7.8391   -1.7290    0.0000 C   0  0  0  0  0  0  0  0  0
    7.8391   -2.5540    0.0000 C   0  0  0  0  0  0  0  0  0
    7.1247   -2.9665    0.0000 C   0  0  0  0  0  0  0  0  0
    2.7369    2.7921    0.0000 C   0  0  0  0  0  0  0  0  0
    2.4820    3.5767    0.0000 C   0  0  0  0  0  0  0  0  0
  1  2  1  0  0  0  0
  1  3  1  0  0  0  0
  3  4  4  0  0  0  0
  3 26  4  0  0  0  0
  4  5  4  0  0  0  0
  5  6  4  0  0  0  0
  6  7  1  0  0  0  0
  6 25  4  0  0  0  0
  7  8  1  0  0  0  0
  7 12  1  0  0  0  0
  8  9  1  0  0  0  0
  9 10  1  0  0  0  0
 10 11  1  0  0  0  0
 10 13  1  0  0  0  0
 11 12  1  0  0  0  0
 13 14  1  0  0  0  0
 14 15  1  0  0  0  0
 15 16  1  0  0  0  0
 15 20  1  0  0  0  0
 16 17  1  0  0  0  0
 17 18  2  0  0  0  0
 17 19  1  0  0  0  0
 19 20  4  0  0  0  0
 19 24  4  0  0  0  0
 20 21  4  0  0  0  0
 21 22  4  0  0  0  0
 22 23  4  0  0  0  0
 23 24  4  0  0  0  0
 25 26  4  0  0  0  0
M  END
>  <Name_Molregno>
52232

>  <DOPAMINE D2>
5.3

>  <DOPAMINE D3>
5.52

$$$$
52315
  Marvin  02231216192D 0   1.00000     0.00000     0

 25 28  0  0  1  0  0  0  0  0999 V2000
    2.8723    5.2225    0.0000 Cl  0  0  0  0  0  0  0  0  0
    3.1273    4.4379    0.0000 C   0  0  0  0  0  0  0  0  0
    3.9343    4.2663    0.0000 C   0  0  0  0  0  0  0  0  0
    4.1892    3.4817    0.0000 C   0  0  0  0  0  0  0  0  0
    3.6372    2.8686    0.0000 C   0  0  0  0  0  0  0  0  0
    3.8921    2.0840    0.0000 N   0  0  0  0  0  0  0  0  0
    4.6991    1.9125    0.0000 C   0  0  0  0  0  0  0  0  0
    4.9540    1.1278    0.0000 C   0  0  0  0  0  0  0  0  0
    4.4020    0.5147    0.0000 N   0  0  0  0  0  0  0  0  0
    3.5950    0.6863    0.0000 C   0  0  0  0  0  0  0  0  0
    3.3401    1.4709    0.0000 C   0  0  0  0  0  0  0  0  0
    4.6569   -0.2699    0.0000 C   0  0  0  0  0  0  0  0  0
    5.4639   -0.4414    0.0000 C   0  0  0  0  0  0  0  0  0
    5.7188   -1.2260    0.0000 C   0  0  0  0  0  0  0  0  0
    5.2339   -1.8935    0.0000 N   0  0  0  0  0  0  0  0  0
    5.7188   -2.5609    0.0000 C   0  0  0  0  0  0  0  0  0
    5.4639   -3.3455    0.0000 O   0  0  0  0  0  0  0  0  0
    6.5035   -2.3060    0.0000 C   0  0  0  0  0  0  0  0  0
    6.5035   -1.4810    0.0000 C   0  0  0  0  0  0  0  0  0
    7.2179   -1.0685    0.0000 C   0  0  0  0  0  0  0  0  0
    7.9324   -1.4810    0.0000 C   0  0  0  0  0  0  0  0  0
    7.9324   -2.3060    0.0000 C   0  0  0  0  0  0  0  0  0
    7.2179   -2.7185    0.0000 C   0  0  0  0  0  0  0  0  0
    2.8302    3.0401    0.0000 C   0  0  0  0  0  0  0  0  0
    2.5753    3.8248    0.0000 C   0  0  0  0  0  0  0  0  0
  1  2  1  0  0  0  0
  2  3  4  0  0  0  0
  2 25  4  0  0  0  0
  3  4  4  0  0  0  0
  4  5  4  0  0  0  0
  5  6  1  0  0  0  0
  5 24  4  0  0  0  0
  6  7  1  0  0  0  0
  6 11  1  0  0  0  0
  7  8  1  0  0  0  0
  8  9  1  0  0  0  0
  9 10  1  0  0  0  0
  9 12  1  0  0  0  0
 10 11  1  0  0  0  0
 12 13  1  0  0  0  0
 13 14  1  0  0  0  0
 14 15  1  0  0  0  0
 14 19  1  0  0  0  0
 15 16  1  0  0  0  0
 16 17  2  0  0  0  0
 16 18  1  0  0  0  0
 18 19  4  0  0  0  0
 18 23  4  0  0  0  0
 19 20  4  0  0  0  0
 20 21  4  0  0  0  0
 21 22  4  0  0  0  0
 22 23  4  0  0  0  0
 24 25  4  0  0  0  0
M  END
>  <Name_Molregno>
52315

>  <DOPAMINE D2>
5.3

>  <DOPAMINE D3>
5.52

$$$$
52316
  Marvin  02231216192D 0   1.00000     0.00000     0

 24 27  0  0  1  0  0  0  0  0999 V2000
   -3.8830    3.3260    0.0000 O   0  0  0  0  0  0  0  0  0
   -3.6281    2.5414    0.0000 C   0  0  0  0  0  0  0  0  0
   -4.1130    1.8739    0.0000 N   0  0  0  0  0  0  0  0  0
   -3.6281    1.2065    0.0000 C   0  0  0  0  0  0  0  0  0
   -2.8435    1.4614    0.0000 C   0  0  0  0  0  0  0  0  0
   -2.8435    2.2864    0.0000 C   0  0  0  0  0  0  0  0  0
   -2.1290    2.6989    0.0000 C   0  0  0  0  0  0  0  0  0
   -1.4145    2.2864    0.0000 C   0  0  0  0  0  0  0  0  0
   -1.4145    1.4614    0.0000 C   0  0  0  0  0  0  0  0  0
   -2.1290    1.0489    0.0000 C   0  0  0  0  0  0  0  0  0
   -3.8830    0.4219    0.0000 C   0  0  0  0  0  0  0  0  0
   -3.3310   -0.1912    0.0000 C   0  0  0  0  0  0  0  0  0
   -3.5860   -0.9758    0.0000 N   0  0  0  0  0  0  0  0  0
   -3.0339   -1.5889    0.0000 C   0  0  0  0  0  0  0  0  0
   -3.2889   -2.3735    0.0000 C   0  0  0  0  0  0  0  0  0
   -4.0958   -2.5451    0.0000 N   0  0  0  0  0  0  0  0  0
   -4.6479   -1.9320    0.0000 C   0  0  0  0  0  0  0  0  0
   -4.3929   -1.1474    0.0000 C   0  0  0  0  0  0  0  0  0
   -4.3508   -3.3297    0.0000 C   0  0  0  0  0  0  0  0  0
   -3.7987   -3.9428    0.0000 C   0  0  0  0  0  0  0  0  0
   -4.0537   -4.7274    0.0000 C   0  0  0  0  0  0  0  0  0
   -4.8606   -4.8989    0.0000 C   0  0  0  0  0  0  0  0  0
   -5.4127   -4.2858    0.0000 C   0  0  0  0  0  0  0  0  0
   -5.1577   -3.5012    0.0000 C   0  0  0  0  0  0  0  0  0
  1  2  2  0  0  0  0
  2  3  1  0  0  0  0
  2  6  1  0  0  0  0
  3  4  1  0  0  0  0
  4  5  1  0  0  0  0
  4 11  1  0  0  0  0
  5  6  4  0  0  0  0
  5 10  4  0  0  0  0
  6  7  4  0  0  0  0
  7  8  4  0  0  0  0
  8  9  4  0  0  0  0
  9 10  4  0  0  0  0
 11 12  1  0  0  0  0
 12 13  1  0  0  0  0
 13 14  1  0  0  0  0
 13 18  1  0  0  0  0
 14 15  1  0  0  0  0
 15 16  1  0  0  0  0
 16 17  1  0  0  0  0
 16 19  1  0  0  0  0
 17 18  1  0  0  0  0
 19 20  4  0  0  0  0
 19 24  4  0  0  0  0
 20 21  4  0  0  0  0
 21 22  4  0  0  0  0
 22 23  4  0  0  0  0
 23 24  4  0  0  0  0
M  END
>  <Name_Molregno>
52316

>  <DOPAMINE D3>
5.57

$$$$
52318
  Marvin  02231216192D 0   1.00000     0.00000     0

 25 28  0  0  1  0  0  0  0  0999 V2000
   -3.8668    3.1486    0.0000 O   0  0  0  0  0  0  0  0  0
   -3.6119    2.3640    0.0000 C   0  0  0  0  0  0  0  0  0
   -4.0968    1.6966    0.0000 N   0  0  0  0  0  0  0  0  0
   -3.6119    1.0291    0.0000 C   0  0  0  0  0  0  0  0  0
   -2.8273    1.2841    0.0000 C   0  0  0  0  0  0  0  0  0
   -2.8273    2.1091    0.0000 C   0  0  0  0  0  0  0  0  0
   -2.1128    2.5216    0.0000 C   0  0  0  0  0  0  0  0  0
   -1.3983    2.1091    0.0000 C   0  0  0  0  0  0  0  0  0
   -1.3983    1.2841    0.0000 C   0  0  0  0  0  0  0  0  0
   -2.1128    0.8716    0.0000 C   0  0  0  0  0  0  0  0  0
   -3.8668    0.2445    0.0000 C   0  0  0  0  0  0  0  0  0
   -3.3148   -0.3686    0.0000 C   0  0  0  0  0  0  0  0  0
   -3.5697   -1.1532    0.0000 N   0  0  0  0  0  0  0  0  0
   -3.0177   -1.7663    0.0000 C   0  0  0  0  0  0  0  0  0
   -3.2726   -2.5509    0.0000 C   0  0  0  0  0  0  0  0  0
   -4.0796   -2.7225    0.0000 N   0  0  0  0  0  0  0  0  0
   -4.6316   -2.1094    0.0000 C   0  0  0  0  0  0  0  0  0
   -4.3767   -1.3247    0.0000 C   0  0  0  0  0  0  0  0  0
   -4.3345   -3.5071    0.0000 C   0  0  0  0  0  0  0  0  0
   -3.7825   -4.1202    0.0000 N   0  0  0  0  0  0  0  0  0
   -4.0375   -4.9048    0.0000 C   0  0  0  0  0  0  0  0  0
   -4.8444   -5.0763    0.0000 C   0  0  0  0  0  0  0  0  0
   -5.3965   -4.4632    0.0000 C   0  0  0  0  0  0  0  0  0
   -5.1415   -3.6786    0.0000 C   0  0  0  0  0  0  0  0  0
   -6.2034   -4.6347    0.0000 C   0  0  0  0  0  0  0  0  0
  1  2  2  0  0  0  0
  2  3  1  0  0  0  0
  2  6  1  0  0  0  0
  3  4  1  0  0  0  0
  4  5  1  0  0  0  0
  4 11  1  0  0  0  0
  5  6  4  0  0  0  0
  5 10  4  0  0  0  0
  6  7  4  0  0  0  0
  7  8  4  0  0  0  0
  8  9  4  0  0  0  0
  9 10  4  0  0  0  0
 11 12  1  0  0  0  0
 12 13  1  0  0  0  0
 13 14  1  0  0  0  0
 13 18  1  0  0  0  0
 14 15  1  0  0  0  0
 15 16  1  0  0  0  0
 16 17  1  0  0  0  0
 16 19  1  0  0  0  0
 17 18  1  0  0  0  0
 19 20  4  0  0  0  0
 19 24  4  0  0  0  0
 20 21  4  0  0  0  0
 21 22  4  0  0  0  0
 22 23  4  0  0  0  0
 23 24  4  0  0  0  0
 23 25  1  0  0  0  0
M  END
>  <Name_Molregno>
52318

>  <DOPAMINE D2>
5.3

>  <DOPAMINE D3>
5.52

$$$$
52338
  Marvin  02231216192D 0   1.00000     0.00000     0

 18 19  0  0  1  0  0  0  0  0999 V2000
   -4.9210   -2.8534    0.0000 O   0  0  0  0  0  0  0  0  0
   -4.2065   -2.4409    0.0000 C   0  0  0  0  0  0  0  0  0
   -4.2065   -1.6159    0.0000 C   0  0  0  0  0  0  0  0  0
   -3.4921   -1.2034    0.0000 C   0  0  0  0  0  0  0  0  0
   -3.4921   -0.3784    0.0000 C   0  0  0  0  0  0  0  0  0
   -2.7776    0.0341    0.0000 C   0  0  0  0  0  0  0  0  0
   -2.7776    0.8591    0.0000 N   0  0  0  0  0  0  0  0  0
   -3.4921    1.2716    0.0000 C   0  0  0  0  0  0  0  0  0
   -3.4921    2.0966    0.0000 C   0  0  0  0  0  0  0  0  0
   -4.2065    2.5091    0.0000 C   0  0  0  0  0  0  0  0  0
   -2.0631    1.2716    0.0000 C   0  0  0  0  0  0  0  0  0
   -2.0631    2.0966    0.0000 C   0  0  0  0  0  0  0  0  0
   -1.3487    2.5091    0.0000 C   0  0  0  0  0  0  0  0  0
   -2.0631   -0.3784    0.0000 C   0  0  0  0  0  0  0  0  0
   -2.0631   -1.2034    0.0000 C   0  0  0  0  0  0  0  0  0
   -2.7776   -1.6159    0.0000 C   0  0  0  0  0  0  0  0  0
   -2.7776   -2.4409    0.0000 C   0  0  0  0  0  0  0  0  0
   -3.4921   -2.8534    0.0000 C   0  0  0  0  0  0  0  0  0
  1  2  1  0  0  0  0
  2  3  4  0  0  0  0
  2 18  4  0  0  0  0
  3  4  4  0  0  0  0
  4  5  1  0  0  0  0
  4 16  4  0  0  0  0
  5  6  1  0  0  0  0
  6  7  1  0  0  0  0
  6 14  1  0  0  0  0
  7  8  1  0  0  0  0
  7 11  1  0  0  0  0
  8  9  1  0  0  0  0
  9 10  1  0  0  0  0
 11 12  1  0  0  0  0
 12 13  1  0  0  0  0
 14 15  1  0  0  0  0
 15 16  1  0  0  0  0
 16 17  4  0  0  0  0
 17 18  4  0  0  0  0
M  END
>  <Name_Molregno>
52338

>  <5-HT1A>
7.07

>  <DOPAMINE D2>
6.97

>  <DOPAMINE D3>
8.62

>  <DOPAMINE D4>
6.45

>  <HISTAMINE H1>
5.82

$$$$
62720
  Marvin  02231216192D 0   1.00000     0.00000     0

 22 25  0  0  0  0  0  0  0  0999 V2000
   -0.6108   -1.6501    0.0000 O   0  0  0  0  0  0  0  0  0
   -0.0588   -1.0370    0.0000 C   0  0  0  0  0  0  0  0  0
    0.7482   -1.2086    0.0000 N   0  0  0  0  0  0  0  0  0
    1.0031   -1.9932    0.0000 C   0  0  0  0  0  0  0  0  0
    1.8101   -2.1647    0.0000 C   0  0  0  0  0  0  0  0  0
    2.0650   -2.9493    0.0000 C   0  0  0  0  0  0  0  0  0
    1.5130   -3.5624    0.0000 C   0  0  0  0  0  0  0  0  0
    0.7060   -3.3909    0.0000 N   0  0  0  0  0  0  0  0  0
    0.4511   -2.6063    0.0000 C   0  0  0  0  0  0  0  0  0
   -0.3137   -0.2524    0.0000 N   0  0  0  0  0  0  0  0  0
    0.1712    0.4150    0.0000 C   0  0  0  0  0  0  0  0  0
   -0.3137    1.0825    0.0000 C   0  0  0  0  0  0  0  0  0
   -1.0984    0.8275    0.0000 C   0  0  0  0  0  0  0  0  0
   -1.0984    0.0025    0.0000 C   0  0  0  0  0  0  0  0  0
   -1.8128   -0.4100    0.0000 C   0  0  0  0  0  0  0  0  0
   -2.5273    0.0025    0.0000 C   0  0  0  0  0  0  0  0  0
   -2.5273    0.8275    0.0000 C   0  0  0  0  0  0  0  0  0
   -3.3119    1.0825    0.0000 N   0  0  0  0  0  0  0  0  0
   -3.7969    0.4150    0.0000 C   0  0  0  0  0  0  0  0  0
   -3.3119   -0.2524    0.0000 C   0  0  0  0  0  0  0  0  0
   -3.5669    1.8671    0.0000 C   0  0  0  0  0  0  0  0  0
   -1.8128    1.2400    0.0000 C   0  0  0  0  0  0  0  0  0
  1  2  2  0  0  0  0
  2  3  1  0  0  0  0
  2 10  1  0  0  0  0
  3  4  1  0  0  0  0
  4  5  4  0  0  0  0
  4  9  4  0  0  0  0
  5  6  4  0  0  0  0
  6  7  4  0  0  0  0
  7  8  4  0  0  0  0
  8  9  4  0  0  0  0
 10 11  1  0  0  0  0
 10 14  1  0  0  0  0
 11 12  1  0  0  0  0
 12 13  1  0  0  0  0
 13 14  4  0  0  0  0
 13 22  4  0  0  0  0
 14 15  4  0  0  0  0
 15 16  4  0  0  0  0
 16 17  4  0  0  0  0
 16 20  4  0  0  0  0
 17 18  4  0  0  0  0
 17 22  4  0  0  0  0
 18 19  4  0  0  0  0
 18 21  1  0  0  0  0
 19 20  4  0  0  0  0
M  END
>  <Name_Molregno>
62720

>  <5-HT1E>
5.3

>  <5-HT2A>
5.73

>  <5-HT2C>
8.02

>  <5-HT7>
6

>  <DOPAMINE D2>
5

>  <DOPAMINE D3>
5

>  <DOPAMINE D4>
5

$$$$
66613
  Marvin  02231216192D 0   1.00000     0.00000     0

 14 15  0  0  1  0  0  0  0  0999 V2000
   -3.5937   -0.7341    0.0000 O   0  0  0  0  0  0  0  0  0
   -2.8091   -0.9890    0.0000 C   0  0  0  0  0  0  0  0  0
   -2.0946   -0.5765    0.0000 C   0  0  0  0  0  0  0  0  0
   -1.3801   -0.9890    0.0000 C   0  0  0  0  0  0  0  0  0
   -1.3801   -1.8140    0.0000 C   0  0  0  0  0  0  0  0  0
   -2.0946   -2.2265    0.0000 C   0  0  0  0  0  0  0  0  0
   -2.8091   -1.8140    0.0000 C   0  0  0  0  0  0  0  0  0
   -3.5937   -2.0690    0.0000 O   0  0  0  0  0  0  0  0  0
   -4.0786   -1.4015    0.0000 C   0  0  0  0  0  0  0  0  0
   -0.6657   -0.5765    0.0000 C   0  0  0  0  0  0  0  0  0
   -0.6657    0.2485    0.0000 C   0  0  0  0  0  0  0  0  0
    0.0488    0.6610    0.0000 N   0  0  0  0  0  0  0  0  0
    0.0488    1.4860    0.0000 C   0  0  0  0  0  0  0  0  0
   -1.3801    0.6610    0.0000 C   0  0  0  0  0  0  0  0  0
  1  2  1  0  0  0  0
  1  9  1  0  0  0  0
  2  3  4  0  0  0  0
  2  7  4  0  0  0  0
  3  4  4  0  0  0  0
  4  5  4  0  0  0  0
  4 10  1  0  0  0  0
  5  6  4  0  0  0  0
  6  7  4  0  0  0  0
  7  8  1  0  0  0  0
  8  9  1  0  0  0  0
 10 11  1  0  0  0  0
 11 12  1  0  0  0  0
 11 14  1  0  0  0  0
 12 13  1  0  0  0  0
M  END
>  <Name_Molregno>
66613

>  <5-HT1A>
5

>  <5-HT1B>
5

>  <5-HT1D>
5

>  <5-HT1E>
5

>  <5-HT2A>
5

>  <5-HT3>
5

>  <5-HT5>
5

>  <5-HT6>
5

>  <5-HT7>
5

>  <Alpha-1A>
5

>  <Alpha-1B>
5

>  <Alpha-2A>
5.6

>  <Alpha-2B>
5.75

>  <Alpha-2C>
5.95

>  <Beta-1>
5

>  <Beta-2>
5

>  <DOPAMINE D1>
5

>  <DOPAMINE D2>
5

>  <DOPAMINE D3>
5

>  <DOPAMINE D4>
5

>  <DOPAMINE D5>
5

>  <Dopamine transporter>
5

>  <HISTAMINE H1>
5.67

>  <HISTAMINE H2>
5

>  <Muscarinic acetylcholine receptor M1>
5

>  <Muscarinic acetylcholine receptor M2>
5

>  <Muscarinic acetylcholine receptor M3>
5.73

>  <Muscarinic acetylcholine receptor M4>
5.08

>  <Muscarinic acetylcholine receptor M5>
5.2

>  <Norepinephrine transporter>
5

>  <Serotonin transporter>
7.24

$$$$
82075
  Marvin  02231216192D 0   1.00000     0.00000     0

 34 37  0  0  1  0  0  0  0  0999 V2000
   11.3092    1.3739    0.0000 Cl  0  0  0  0  0  0  0  0  0
   10.5166    1.6027    0.0000 C   0  0  0  0  0  0  0  0  0
    9.9221    1.0306    0.0000 C   0  0  0  0  0  0  0  0  0
   10.1202    0.2298    0.0000 C   0  0  0  0  0  0  0  0  0
    9.5258   -0.3422    0.0000 C   0  0  0  0  0  0  0  0  0
    8.7331   -0.1134    0.0000 C   0  0  0  0  0  0  0  0  0
    8.1387   -0.6855    0.0000 N   0  0  0  0  0  0  0  0  0
    7.3460   -0.4566    0.0000 C   0  0  0  0  0  0  0  0  0
    6.7516   -1.0287    0.0000 C   0  0  0  0  0  0  0  0  0
    5.9589   -0.7999    0.0000 C   0  0  0  0  0  0  0  0  0
    5.3644   -1.3719    0.0000 C   0  0  0  0  0  0  0  0  0
    4.5718   -1.1431    0.0000 N   0  0  0  0  0  0  0  0  0
    3.9773   -1.7151    0.0000 C   0  0  0  0  0  0  0  0  0
    4.1755   -2.5160    0.0000 O   0  0  0  0  0  0  0  0  0
    3.1847   -1.4863    0.0000 C   0  0  0  0  0  0  0  0  0
    2.5902   -2.0583    0.0000 C   0  0  0  0  0  0  0  0  0
    1.7976   -1.8295    0.0000 C   0  0  0  0  0  0  0  0  0
    1.5994   -1.0287    0.0000 C   0  0  0  0  0  0  0  0  0
    2.1939   -0.4566    0.0000 C   0  0  0  0  0  0  0  0  0
    2.9865   -0.6855    0.0000 C   0  0  0  0  0  0  0  0  0
    0.8068   -0.7999    0.0000 C   0  0  0  0  0  0  0  0  0
    0.2123   -1.3719    0.0000 C   0  0  0  0  0  0  0  0  0
   -0.5803   -1.1431    0.0000 C   0  0  0  0  0  0  0  0  0
   -0.7785   -0.3422    0.0000 C   0  0  0  0  0  0  0  0  0
   -0.1840    0.2298    0.0000 C   0  0  0  0  0  0  0  0  0
    0.6086    0.0010    0.0000 C   0  0  0  0  0  0  0  0  0
    8.3368   -1.4863    0.0000 C   0  0  0  0  0  0  0  0  0
    9.1295   -1.7151    0.0000 C   0  0  0  0  0  0  0  0  0
    9.3276   -2.5160    0.0000 C   0  0  0  0  0  0  0  0  0
    8.5350    0.6874    0.0000 C   0  0  0  0  0  0  0  0  0
    9.1295    1.2595    0.0000 C   0  0  0  0  0  0  0  0  0
    8.9313    2.0603    0.0000 C   0  0  0  0  0  0  0  0  0
    9.5258    2.6323    0.0000 C   0  0  0  0  0  0  0  0  0
   10.3184    2.4035    0.0000 C   0  0  0  0  0  0  0  0  0
  1  2  1  0  0  0  0
  2  3  4  0  0  0  0
  2 34  4  0  0  0  0
  3  4  1  0  0  0  0
  3 31  4  0  0  0  0
  4  5  1  0  0  0  0
  5  6  1  0  0  0  0
  6  7  1  0  0  0  0
  6 30  1  0  0  0  0
  7  8  1  0  0  0  0
  7 27  1  0  0  0  0
  8  9  1  0  0  0  0
  9 10  1  0  0  0  0
 10 11  1  0  0  0  0
 11 12  1  0  0  0  0
 12 13  1  0  0  0  0
 13 14  2  0  0  0  0
 13 15  1  0  0  0  0
 15 16  4  0  0  0  0
 15 20  4  0  0  0  0
 16 17  4  0  0  0  0
 17 18  4  0  0  0  0
 18 19  4  0  0  0  0
 18 21  1  0  0  0  0
 19 20  4  0  0  0  0
 21 22  4  0  0  0  0
 21 26  4  0  0  0  0
 22 23  4  0  0  0  0
 23 24  4  0  0  0  0
 24 25  4  0  0  0  0
 25 26  4  0  0  0  0
 27 28  1  0  0  0  0
 28 29  1  0  0  0  0
 30 31  1  0  0  0  0
 31 32  4  0  0  0  0
 32 33  4  0  0  0  0
 33 34  4  0  0  0  0
M  END
>  <Name_Molregno>
82075

>  <DOPAMINE D2>
6.4

>  <DOPAMINE D3>
8.8

$$$$
82502
  Marvin  02231216192D 0   1.00000     0.00000     0

 41 44  0  0  1  0  0  0  0  0999 V2000
    9.9437    2.7332    0.0000 S   0  0  0  0  0  0  0  0  0
    9.3492    2.1611    0.0000 O   0  0  0  0  0  0  0  0  0
    8.5566    2.3899    0.0000 C   0  0  0  0  0  0  0  0  0
    7.9621    1.8179    0.0000 C   0  0  0  0  0  0  0  0  0
    8.1603    1.0171    0.0000 C   0  0  0  0  0  0  0  0  0
    7.5658    0.4450    0.0000 C   0  0  0  0  0  0  0  0  0
    6.7732    0.6738    0.0000 C   0  0  0  0  0  0  0  0  0
    6.1787    0.1018    0.0000 N   0  0  0  0  0  0  0  0  0
    5.3860    0.3306    0.0000 C   0  0  0  0  0  0  0  0  0
    4.7916   -0.2414    0.0000 C   0  0  0  0  0  0  0  0  0
    3.9989   -0.0126    0.0000 C   0  0  0  0  0  0  0  0  0
    3.4045   -0.5846    0.0000 C   0  0  0  0  0  0  0  0  0
    2.6118   -0.3558    0.0000 N   0  0  0  0  0  0  0  0  0
    2.0174   -0.9279    0.0000 C   0  0  0  0  0  0  0  0  0
    2.2155   -1.7287    0.0000 O   0  0  0  0  0  0  0  0  0
    1.2247   -0.6990    0.0000 C   0  0  0  0  0  0  0  0  0
    0.6302   -1.2711    0.0000 C   0  0  0  0  0  0  0  0  0
   -0.1624   -1.0423    0.0000 C   0  0  0  0  0  0  0  0  0
   -0.3606   -0.2414    0.0000 C   0  0  0  0  0  0  0  0  0
    0.2339    0.3306    0.0000 C   0  0  0  0  0  0  0  0  0
    1.0266    0.1018    0.0000 C   0  0  0  0  0  0  0  0  0
   -1.1532   -0.0126    0.0000 C   0  0  0  0  0  0  0  0  0
   -1.7477   -0.5846    0.0000 C   0  0  0  0  0  0  0  0  0
   -2.5403   -0.3558    0.0000 C   0  0  0  0  0  0  0  0  0
   -2.7385    0.4450    0.0000 C   0  0  0  0  0  0  0  0  0
   -2.1440    1.0171    0.0000 C   0  0  0  0  0  0  0  0  0
   -1.3513    0.7882    0.0000 C   0  0  0  0  0  0  0  0  0
    6.3768   -0.6990    0.0000 C   0  0  0  0  0  0  0  0  0
    7.1695   -0.9279    0.0000 C   0  0  0  0  0  0  0  0  0
    7.3676   -1.7287    0.0000 C   0  0  0  0  0  0  0  0  0
    6.5750    1.4747    0.0000 C   0  0  0  0  0  0  0  0  0
    7.1695    2.0467    0.0000 C   0  0  0  0  0  0  0  0  0
    6.9713    2.8476    0.0000 C   0  0  0  0  0  0  0  0  0
    7.5658    3.4196    0.0000 C   0  0  0  0  0  0  0  0  0
    8.3584    3.1908    0.0000 C   0  0  0  0  0  0  0  0  0
   10.5157    2.1387    0.0000 O   0  0  0  0  0  0  0  0  0
    9.3717    3.3276    0.0000 O   0  0  0  0  0  0  0  0  0
   10.5382    3.3052    0.0000 C   0  0  0  0  0  0  0  0  0
   11.1326    3.8772    0.0000 F   0  0  0  0  0  0  0  0  0
   11.1102    2.7107    0.0000 F   0  0  0  0  0  0  0  0  0
    9.9661    3.8997    0.0000 F   0  0  0  0  0  0  0  0  0
  1  2  1  0  0  0  0
  1 36  2  0  0  0  0
  1 37  2  0  0  0  0
  1 38  1  0  0  0  0
  2  3  1  0  0  0  0
  3  4  4  0  0  0  0
  3 35  4  0  0  0  0
  4  5  1  0  0  0  0
  4 32  4  0  0  0  0
  5  6  1  0  0  0  0
  6  7  1  0  0  0  0
  7  8  1  0  0  0  0
  7 31  1  0  0  0  0
  8  9  1  0  0  0  0
  8 28  1  0  0  0  0
  9 10  1  0  0  0  0
 10 11  1  0  0  0  0
 11 12  1  0  0  0  0
 12 13  1  0  0  0  0
 13 14  1  0  0  0  0
 14 15  2  0  0  0  0
 14 16  1  0  0  0  0
 16 17  4  0  0  0  0
 16 21  4  0  0  0  0
 17 18  4  0  0  0  0
 18 19  4  0  0  0  0
 19 20  4  0  0  0  0
 19 22  1  0  0  0  0
 20 21  4  0  0  0  0
 22 23  4  0  0  0  0
 22 27  4  0  0  0  0
 23 24  4  0  0  0  0
 24 25  4  0  0  0  0
 25 26  4  0  0  0  0
 26 27  4  0  0  0  0
 28 29  1  0  0  0  0
 29 30  1  0  0  0  0
 31 32  1  0  0  0  0
 32 33  4  0  0  0  0
 33 34  4  0  0  0  0
 34 35  4  0  0  0  0
 38 39  1  0  0  0  0
 38 40  1  0  0  0  0
 38 41  1  0  0  0  0
M  END
>  <Name_Molregno>
82502

>  <DOPAMINE D2>
6.4

>  <DOPAMINE D3>
8.8

$$$$
88815
  Marvin  02231216192D 0   1.00000     0.00000     0

 14 15  0  0  1  0  0  0  0  0999 V2000
   -3.2072   -0.1654    0.0000 S   0  0  0  0  0  0  0  0  0
   -2.4226   -0.4204    0.0000 C   0  0  0  0  0  0  0  0  0
   -1.7081   -0.0079    0.0000 C   0  0  0  0  0  0  0  0  0
   -0.9937   -0.4204    0.0000 C   0  0  0  0  0  0  0  0  0
   -0.2792   -0.0079    0.0000 N   0  0  0  0  0  0  0  0  0
    0.4353   -0.4204    0.0000 C   0  0  0  0  0  0  0  0  0
    1.1498   -0.0079    0.0000 C   0  0  0  0  0  0  0  0  0
    1.8642   -0.4204    0.0000 C   0  0  0  0  0  0  0  0  0
   -0.9937   -1.2454    0.0000 C   0  0  0  0  0  0  0  0  0
   -1.7081   -1.6579    0.0000 C   0  0  0  0  0  0  0  0  0
   -2.4226   -1.2454    0.0000 C   0  0  0  0  0  0  0  0  0
   -3.2072   -1.5003    0.0000 N   0  0  0  0  0  0  0  0  0
   -3.6921   -0.8329    0.0000 C   0  0  0  0  0  0  0  0  0
   -4.5171   -0.8329    0.0000 N   0  0  0  0  0  0  0  0  0
  1  2  4  0  0  0  0
  1 13  4  0  0  0  0
  2  3  1  0  0  0  0
  2 11  4  0  0  0  0
  3  4  1  0  0  0  0
  4  5  1  0  0  0  0
  4  9  1  0  0  0  0
  5  6  1  0  0  0  0
  6  7  1  0  0  0  0
  7  8  1  0  0  0  0
  9 10  1  0  0  0  0
 10 11  1  0  0  0  0
 11 12  4  0  0  0  0
 12 13  4  0  0  0  0
 13 14  1  0  0  0  0
M  END
>  <Name_Molregno>
88815

>  <5-HT1A>
5.67

>  <5-HT1B>
5.26

>  <5-HT1D>
5.39

>  <5-HT1E>
5

>  <5-HT2A>
5

>  <5-HT2C>
5

>  <5-HT3>
5

>  <5-HT5>
5

>  <5-HT6>
5

>  <5-HT7>
5.93

>  <Alpha-1A>
5

>  <Alpha-1B>
5

>  <Alpha-2A>
6.44

>  <Alpha-2B>
6.68

>  <Alpha-2C>
6.14

>  <Beta-1>
5

>  <Beta-2>
5

>  <DOPAMINE D1>
5

>  <DOPAMINE D2>
6.55

>  <DOPAMINE D3>
8.51

>  <DOPAMINE D4>
7.4

>  <DOPAMINE D5>
5

>  <Dopamine transporter>
5

>  <HISTAMINE H1>
5

>  <HISTAMINE H2>
5.57

>  <HISTAMINE H4>
5

>  <Muscarinic acetylcholine receptor M1>
5

>  <Muscarinic acetylcholine receptor M2>
5

>  <Muscarinic acetylcholine receptor M3>
5

>  <Muscarinic acetylcholine receptor M4>
5

>  <Muscarinic acetylcholine receptor M5>
5

>  <Norepinephrine transporter>
5

>  <Serotonin transporter>
5

$$$$
90093
  Marvin  02231216192D 0   1.00000     0.00000     0

 24 27  0  0  0  0  0  0  0  0999 V2000
    0.6013   -1.0708    0.0000 N   0  0  0  0  0  0  0  0  0
    0.3463   -1.8554    0.0000 C   0  0  0  0  0  0  0  0  0
   -0.4787   -1.8554    0.0000 C   0  0  0  0  0  0  0  0  0
   -0.7336   -1.0708    0.0000 C   0  0  0  0  0  0  0  0  0
   -0.0662   -0.5859    0.0000 C   0  0  0  0  0  0  0  0  0
   -0.0662    0.2391    0.0000 C   0  0  0  0  0  0  0  0  0
    0.6483    0.6516    0.0000 N   0  0  0  0  0  0  0  0  0
    0.6483    1.4766    0.0000 C   0  0  0  0  0  0  0  0  0
    1.3628    1.8891    0.0000 C   0  0  0  0  0  0  0  0  0
    2.0772    1.4766    0.0000 N   0  0  0  0  0  0  0  0  0
    2.0772    0.6516    0.0000 C   0  0  0  0  0  0  0  0  0
    1.3628    0.2391    0.0000 C   0  0  0  0  0  0  0  0  0
    2.7917    1.8891    0.0000 C   0  0  0  0  0  0  0  0  0
    2.7917    2.7141    0.0000 C   0  0  0  0  0  0  0  0  0
    3.5062    3.1266    0.0000 C   0  0  0  0  0  0  0  0  0
    4.2206    2.7141    0.0000 C   0  0  0  0  0  0  0  0  0
    4.2206    1.8891    0.0000 C   0  0  0  0  0  0  0  0  0
    3.5062    1.4766    0.0000 C   0  0  0  0  0  0  0  0  0
   -0.9636   -2.5228    0.0000 C   0  0  0  0  0  0  0  0  0
   -0.6281   -3.2765    0.0000 C   0  0  0  0  0  0  0  0  0
   -1.1130   -3.9440    0.0000 C   0  0  0  0  0  0  0  0  0
   -1.9335   -3.8577    0.0000 C   0  0  0  0  0  0  0  0  0
   -2.2690   -3.1040    0.0000 C   0  0  0  0  0  0  0  0  0
   -1.7841   -2.4366    0.0000 C   0  0  0  0  0  0  0  0  0
  1  2  4  0  0  0  0
  1  5  4  0  0  0  0
  2  3  4  0  0  0  0
  3  4  4  0  0  0  0
  3 19  1  0  0  0  0
  4  5  4  0  0  0  0
  5  6  1  0  0  0  0
  6  7  1  0  0  0  0
  7  8  1  0  0  0  0
  7 12  1  0  0  0  0
  8  9  1  0  0  0  0
  9 10  1  0  0  0  0
 10 11  1  0  0  0  0
 10 13  1  0  0  0  0
 11 12  1  0  0  0  0
 13 14  4  0  0  0  0
 13 18  4  0  0  0  0
 14 15  4  0  0  0  0
 15 16  4  0  0  0  0
 16 17  4  0  0  0  0
 17 18  4  0  0  0  0
 19 20  4  0  0  0  0
 19 24  4  0  0  0  0
 20 21  4  0  0  0  0
 21 22  4  0  0  0  0
 22 23  4  0  0  0  0
 23 24  4  0  0  0  0
M  STY  1   1 DAT
M  SAL   1  1   1
M  SDT   1 MRV_IMPLICIT_H                                        
M  SDD   1     0.0000    0.0000    DR    ALL  0       0  
M  SED   1 IMPL_H1
M  END
>  <Name_Molregno>
90093

>  <DOPAMINE D2>
6.7

>  <DOPAMINE D3>
6.29

>  <DOPAMINE D4>
7.92

$$$$
90660
  Marvin  02231216192D 0   1.00000     0.00000     0

 27 30  0  0  0  0  0  0  0  0999 V2000
    6.2464    6.3118    0.0000 Cl  0  0  0  0  0  0  0  0  0
    6.2464    5.4868    0.0000 C   0  0  0  0  0  0  0  0  0
    6.9608    5.0743    0.0000 C   0  0  0  0  0  0  0  0  0
    6.9608    4.2493    0.0000 C   0  0  0  0  0  0  0  0  0
    6.2464    3.8368    0.0000 C   0  0  0  0  0  0  0  0  0
    5.5319    4.2493    0.0000 C   0  0  0  0  0  0  0  0  0
    5.5319    5.0743    0.0000 C   0  0  0  0  0  0  0  0  0
    6.2464    3.0118    0.0000 C   0  0  0  0  0  0  0  0  0
    6.9138    2.5269    0.0000 O   0  0  0  0  0  0  0  0  0
    6.6589    1.7423    0.0000 N   0  0  0  0  0  0  0  0  0
    5.8339    1.7423    0.0000 C   0  0  0  0  0  0  0  0  0
    5.3490    1.0748    0.0000 C   0  0  0  0  0  0  0  0  0
    5.6845    0.3212    0.0000 C   0  0  0  0  0  0  0  0  0
    5.1996   -0.3463    0.0000 C   0  0  0  0  0  0  0  0  0
    4.3791   -0.2600    0.0000 N   0  0  0  0  0  0  0  0  0
    4.0436    0.4936    0.0000 C   0  0  0  0  0  0  0  0  0
    4.5285    1.1611    0.0000 C   0  0  0  0  0  0  0  0  0
    3.8942   -0.9275    0.0000 C   0  0  0  0  0  0  0  0  0
    4.2297   -1.6812    0.0000 C   0  0  0  0  0  0  0  0  0
    3.7448   -2.3486    0.0000 C   0  0  0  0  0  0  0  0  0
    4.0804   -3.1023    0.0000 C   0  0  0  0  0  0  0  0  0
    3.5955   -3.7697    0.0000 C   0  0  0  0  0  0  0  0  0
    2.7750   -3.6835    0.0000 C   0  0  0  0  0  0  0  0  0
    2.4394   -2.9298    0.0000 C   0  0  0  0  0  0  0  0  0
    2.9243   -2.2624    0.0000 C   0  0  0  0  0  0  0  0  0
    5.5789    2.5269    0.0000 C   0  0  0  0  0  0  0  0  0
    4.7943    2.7818    0.0000 C   0  0  0  0  0  0  0  0  0
  1  2  1  0  0  0  0
  2  3  4  0  0  0  0
  2  7  4  0  0  0  0
  3  4  4  0  0  0  0
  4  5  4  0  0  0  0
  5  6  4  0  0  0  0
  5  8  1  0  0  0  0
  6  7  4  0  0  0  0
  8  9  4  0  0  0  0
  8 26  4  0  0  0  0
  9 10  4  0  0  0  0
 10 11  4  0  0  0  0
 11 12  1  0  0  0  0
 11 26  4  0  0  0  0
 12 13  1  0  0  0  0
 12 17  1  0  0  0  0
 13 14  1  0  0  0  0
 14 15  1  0  0  0  0
 15 16  1  0  0  0  0
 15 18  1  0  0  0  0
 16 17  1  0  0  0  0
 18 19  1  0  0  0  0
 19 20  1  0  0  0  0
 20 21  4  0  0  0  0
 20 25  4  0  0  0  0
 21 22  4  0  0  0  0
 22 23  4  0  0  0  0
 23 24  4  0  0  0  0
 24 25  4  0  0  0  0
 26 27  1  0  0  0  0
M  END
>  <Name_Molregno>
90660

>  <DOPAMINE D2>
5.77

>  <DOPAMINE D3>
6.11

>  <DOPAMINE D4>
8.46

$$$$
90664
  Marvin  02231216192D 0   1.00000     0.00000     0

 27 30  0  0  0  0  0  0  0  0999 V2000
    6.2464    6.3118    0.0000 Cl  0  0  0  0  0  0  0  0  0
    6.2464    5.4868    0.0000 C   0  0  0  0  0  0  0  0  0
    6.9608    5.0743    0.0000 C   0  0  0  0  0  0  0  0  0
    6.9608    4.2493    0.0000 C   0  0  0  0  0  0  0  0  0
    6.2464    3.8368    0.0000 C   0  0  0  0  0  0  0  0  0
    5.5319    4.2493    0.0000 C   0  0  0  0  0  0  0  0  0
    5.5319    5.0743    0.0000 C   0  0  0  0  0  0  0  0  0
    6.2464    3.0118    0.0000 C   0  0  0  0  0  0  0  0  0
    6.9138    2.5269    0.0000 N   0  0  0  0  0  0  0  0  0
    6.6589    1.7423    0.0000 O   0  0  0  0  0  0  0  0  0
    5.8339    1.7423    0.0000 C   0  0  0  0  0  0  0  0  0
    5.3490    1.0748    0.0000 C   0  0  0  0  0  0  0  0  0
    5.6845    0.3212    0.0000 C   0  0  0  0  0  0  0  0  0
    5.1996   -0.3463    0.0000 C   0  0  0  0  0  0  0  0  0
    4.3791   -0.2600    0.0000 N   0  0  0  0  0  0  0  0  0
    4.0436    0.4936    0.0000 C   0  0  0  0  0  0  0  0  0
    4.5285    1.1611    0.0000 C   0  0  0  0  0  0  0  0  0
    3.8942   -0.9275    0.0000 C   0  0  0  0  0  0  0  0  0
    4.2297   -1.6812    0.0000 C   0  0  0  0  0  0  0  0  0
    3.7448   -2.3486    0.0000 C   0  0  0  0  0  0  0  0  0
    4.0804   -3.1023    0.0000 C   0  0  0  0  0  0  0  0  0
    3.5955   -3.7697    0.0000 C   0  0  0  0  0  0  0  0  0
    2.7750   -3.6835    0.0000 C   0  0  0  0  0  0  0  0  0
    2.4394   -2.9298    0.0000 C   0  0  0  0  0  0  0  0  0
    2.9243   -2.2624    0.0000 C   0  0  0  0  0  0  0  0  0
    5.5789    2.5269    0.0000 C   0  0  0  0  0  0  0  0  0
    4.7943    2.7818    0.0000 C   0  0  0  0  0  0  0  0  0
  1  2  1  0  0  0  0
  2  3  4  0  0  0  0
  2  7  4  0  0  0  0
  3  4  4  0  0  0  0
  4  5  4  0  0  0  0
  5  6  4  0  0  0  0
  5  8  1  0  0  0  0
  6  7  4  0  0  0  0
  8  9  4  0  0  0  0
  8 26  4  0  0  0  0
  9 10  4  0  0  0  0
 10 11  4  0  0  0  0
 11 12  1  0  0  0  0
 11 26  4  0  0  0  0
 12 13  1  0  0  0  0
 12 17  1  0  0  0  0
 13 14  1  0  0  0  0
 14 15  1  0  0  0  0
 15 16  1  0  0  0  0
 15 18  1  0  0  0  0
 16 17  1  0  0  0  0
 18 19  1  0  0  0  0
 19 20  1  0  0  0  0
 20 21  4  0  0  0  0
 20 25  4  0  0  0  0
 21 22  4  0  0  0  0
 22 23  4  0  0  0  0
 23 24  4  0  0  0  0
 24 25  4  0  0  0  0
 26 27  1  0  0  0  0
M  END
>  <Name_Molregno>
90664

>  <DOPAMINE D2>
5.77

>  <DOPAMINE D3>
6.32

>  <DOPAMINE D4>
8.6

$$$$
90665
  Marvin  02231216192D 0   1.00000     0.00000     0

 26 29  0  0  0  0  0  0  0  0999 V2000
    6.6717    4.3658    0.0000 Cl  0  0  0  0  0  0  0  0  0
    6.6717    3.5408    0.0000 C   0  0  0  0  0  0  0  0  0
    7.3862    3.1283    0.0000 C   0  0  0  0  0  0  0  0  0
    7.3862    2.3033    0.0000 C   0  0  0  0  0  0  0  0  0
    6.6717    1.8908    0.0000 C   0  0  0  0  0  0  0  0  0
    5.9572    2.3033    0.0000 C   0  0  0  0  0  0  0  0  0
    5.9572    3.1283    0.0000 C   0  0  0  0  0  0  0  0  0
    6.6717    1.0658    0.0000 C   0  0  0  0  0  0  0  0  0
    7.3391    0.5809    0.0000 N   0  0  0  0  0  0  0  0  0
    7.0842   -0.2037    0.0000 O   0  0  0  0  0  0  0  0  0
    6.2592   -0.2037    0.0000 C   0  0  0  0  0  0  0  0  0
    6.0043    0.5809    0.0000 C   0  0  0  0  0  0  0  0  0
    5.7743   -0.8712    0.0000 C   0  0  0  0  0  0  0  0  0
    6.1098   -1.6249    0.0000 C   0  0  0  0  0  0  0  0  0
    5.6249   -2.2923    0.0000 C   0  0  0  0  0  0  0  0  0
    4.8044   -2.2061    0.0000 N   0  0  0  0  0  0  0  0  0
    4.4689   -1.4524    0.0000 C   0  0  0  0  0  0  0  0  0
    4.9538   -0.7849    0.0000 C   0  0  0  0  0  0  0  0  0
    4.3195   -2.8735    0.0000 C   0  0  0  0  0  0  0  0  0
    3.4990   -2.7873    0.0000 C   0  0  0  0  0  0  0  0  0
    3.0141   -3.4547    0.0000 C   0  0  0  0  0  0  0  0  0
    2.1936   -3.3685    0.0000 C   0  0  0  0  0  0  0  0  0
    1.8581   -2.6148    0.0000 C   0  0  0  0  0  0  0  0  0
    1.0376   -2.5286    0.0000 Cl  0  0  0  0  0  0  0  0  0
    2.3430   -1.9474    0.0000 C   0  0  0  0  0  0  0  0  0
    3.1635   -2.0336    0.0000 C   0  0  0  0  0  0  0  0  0
  1  2  1  0  0  0  0
  2  3  4  0  0  0  0
  2  7  4  0  0  0  0
  3  4  4  0  0  0  0
  4  5  4  0  0  0  0
  5  6  4  0  0  0  0
  5  8  1  0  0  0  0
  6  7  4  0  0  0  0
  8  9  4  0  0  0  0
  8 12  4  0  0  0  0
  9 10  4  0  0  0  0
 10 11  4  0  0  0  0
 11 12  4  0  0  0  0
 11 13  1  0  0  0  0
 13 14  1  0  0  0  0
 13 18  1  0  0  0  0
 14 15  1  0  0  0  0
 15 16  1  0  0  0  0
 16 17  1  0  0  0  0
 16 19  1  0  0  0  0
 17 18  1  0  0  0  0
 19 20  1  0  0  0  0
 20 21  4  0  0  0  0
 20 26  4  0  0  0  0
 21 22  4  0  0  0  0
 22 23  4  0  0  0  0
 23 24  1  0  0  0  0
 23 25  4  0  0  0  0
 25 26  4  0  0  0  0
M  END
>  <Name_Molregno>
90665

>  <DOPAMINE D2>
6.89

>  <DOPAMINE D3>
7.09

>  <DOPAMINE D4>
8.44

$$$$
90847
  Marvin  02231216192D 0   1.00000     0.00000     0

 17 19  0  0  0  0  0  0  0  0999 V2000
    0.9077    0.0888    0.0000 N   0  0  0  0  0  0  0  0  0
    0.4227   -0.5786    0.0000 C   0  0  0  0  0  0  0  0  0
    0.9077   -1.2461    0.0000 C   0  0  0  0  0  0  0  0  0
    1.6923   -0.9911    0.0000 C   0  0  0  0  0  0  0  0  0
    1.6923   -0.1661    0.0000 C   0  0  0  0  0  0  0  0  0
    2.4068    0.2464    0.0000 C   0  0  0  0  0  0  0  0  0
    3.1212   -0.1661    0.0000 C   0  0  0  0  0  0  0  0  0
    3.1212   -0.9911    0.0000 C   0  0  0  0  0  0  0  0  0
    2.4068   -1.4036    0.0000 C   0  0  0  0  0  0  0  0  0
    0.6527   -2.0307    0.0000 C   0  0  0  0  0  0  0  0  0
   -0.1543   -2.2022    0.0000 N   0  0  0  0  0  0  0  0  0
   -0.4092   -2.9868    0.0000 C   0  0  0  0  0  0  0  0  0
   -1.2162   -3.1584    0.0000 C   0  0  0  0  0  0  0  0  0
   -1.7682   -2.5453    0.0000 C   0  0  0  0  0  0  0  0  0
   -1.5133   -1.7607    0.0000 C   0  0  0  0  0  0  0  0  0
   -0.7063   -1.5891    0.0000 C   0  0  0  0  0  0  0  0  0
   -2.5752   -2.7168    0.0000 C   0  0  0  0  0  0  0  0  0
  1  2  4  0  0  0  0
  1  5  4  0  0  0  0
  2  3  4  0  0  0  0
  3  4  4  0  0  0  0
  3 10  1  0  0  0  0
  4  5  4  0  0  0  0
  4  9  4  0  0  0  0
  5  6  4  0  0  0  0
  6  7  4  0  0  0  0
  7  8  4  0  0  0  0
  8  9  4  0  0  0  0
 10 11  1  0  0  0  0
 11 12  1  0  0  0  0
 11 16  1  0  0  0  0
 12 13  1  0  0  0  0
 13 14  1  0  0  0  0
 14 15  1  0  0  0  0
 14 17  1  0  0  0  0
 15 16  1  0  0  0  0
M  STY  1   1 DAT
M  SAL   1  1   1
M  SDT   1 MRV_IMPLICIT_H                                        
M  SDD   1     0.0000    0.0000    DR    ALL  0       0  
M  SED   1 IMPL_H1
M  END
>  <Name_Molregno>
90847

>  <DOPAMINE D2>
5.26

>  <DOPAMINE D3>
5.17

>  <DOPAMINE D4>
6.24

$$$$
90848
  Marvin  02231216192D 0   1.00000     0.00000     0

 16 18  0  0  0  0  0  0  0  0999 V2000
    1.0364    0.3129    0.0000 N   0  0  0  0  0  0  0  0  0
    0.5515   -0.3545    0.0000 C   0  0  0  0  0  0  0  0  0
    1.0364   -1.0220    0.0000 C   0  0  0  0  0  0  0  0  0
    1.8211   -0.7670    0.0000 C   0  0  0  0  0  0  0  0  0
    1.8211    0.0580    0.0000 C   0  0  0  0  0  0  0  0  0
    2.5355    0.4705    0.0000 C   0  0  0  0  0  0  0  0  0
    3.2500    0.0580    0.0000 C   0  0  0  0  0  0  0  0  0
    3.2500   -0.7670    0.0000 C   0  0  0  0  0  0  0  0  0
    2.5355   -1.1795    0.0000 C   0  0  0  0  0  0  0  0  0
    0.7815   -1.8066    0.0000 C   0  0  0  0  0  0  0  0  0
   -0.0255   -1.9781    0.0000 N   0  0  0  0  0  0  0  0  0
   -0.2804   -2.7628    0.0000 C   0  0  0  0  0  0  0  0  0
   -1.0874   -2.9343    0.0000 C   0  0  0  0  0  0  0  0  0
   -1.6394   -2.3212    0.0000 C   0  0  0  0  0  0  0  0  0
   -1.3845   -1.5366    0.0000 C   0  0  0  0  0  0  0  0  0
   -0.5775   -1.3650    0.0000 C   0  0  0  0  0  0  0  0  0
  1  2  4  0  0  0  0
  1  5  4  0  0  0  0
  2  3  4  0  0  0  0
  3  4  4  0  0  0  0
  3 10  1  0  0  0  0
  4  5  4  0  0  0  0
  4  9  4  0  0  0  0
  5  6  4  0  0  0  0
  6  7  4  0  0  0  0
  7  8  4  0  0  0  0
  8  9  4  0  0  0  0
 10 11  1  0  0  0  0
 11 12  1  0  0  0  0
 11 16  1  0  0  0  0
 12 13  1  0  0  0  0
 13 14  1  0  0  0  0
 14 15  1  0  0  0  0
 15 16  1  0  0  0  0
M  STY  1   1 DAT
M  SAL   1  1   1
M  SDT   1 MRV_IMPLICIT_H                                        
M  SDD   1     0.0000    0.0000    DR    ALL  0       0  
M  SED   1 IMPL_H1
M  END
>  <Name_Molregno>
90848

>  <DOPAMINE D2>
5.89

>  <DOPAMINE D3>
5.43

>  <DOPAMINE D4>
5.59

$$$$
90866
  Marvin  02231216192D 0   1.00000     0.00000     0

 24 27  0  0  0  0  0  0  0  0999 V2000
    0.3176    0.0313    0.0000 Cl  0  0  0  0  0  0  0  0  0
    1.0460   -0.3560    0.0000 C   0  0  0  0  0  0  0  0  0
    1.7457    0.0812    0.0000 C   0  0  0  0  0  0  0  0  0
    2.4741   -0.3061    0.0000 C   0  0  0  0  0  0  0  0  0
    2.5029   -1.1306    0.0000 C   0  0  0  0  0  0  0  0  0
    1.8032   -1.5678    0.0000 C   0  0  0  0  0  0  0  0  0
    1.0748   -1.1805    0.0000 C   0  0  0  0  0  0  0  0  0
    3.2313   -1.5179    0.0000 C   0  0  0  0  0  0  0  0  0
    2.7234   -2.1680    0.0000 O   0  0  0  0  0  0  0  0  0
    3.4863   -0.7333    0.0000 C   0  0  0  0  0  0  0  0  0
    4.2932   -0.5618    0.0000 C   0  0  0  0  0  0  0  0  0
    4.8453   -1.1749    0.0000 N   0  0  0  0  0  0  0  0  0
    4.5903   -1.9595    0.0000 C   0  0  0  0  0  0  0  0  0
    3.7833   -2.1310    0.0000 C   0  0  0  0  0  0  0  0  0
    5.6522   -1.0033    0.0000 C   0  0  0  0  0  0  0  0  0
    5.9072   -0.2187    0.0000 C   0  0  0  0  0  0  0  0  0
    6.6918    0.0362    0.0000 C   0  0  0  0  0  0  0  0  0
    6.6918    0.8612    0.0000 C   0  0  0  0  0  0  0  0  0
    5.9072    1.1162    0.0000 N   0  0  0  0  0  0  0  0  0
    5.4222    0.4487    0.0000 C   0  0  0  0  0  0  0  0  0
    7.4063    1.2737    0.0000 C   0  0  0  0  0  0  0  0  0
    8.1207    0.8612    0.0000 C   0  0  0  0  0  0  0  0  0
    8.1207    0.0362    0.0000 C   0  0  0  0  0  0  0  0  0
    7.4063   -0.3763    0.0000 C   0  0  0  0  0  0  0  0  0
  1  2  1  0  0  0  0
  2  3  4  0  0  0  0
  2  7  4  0  0  0  0
  3  4  4  0  0  0  0
  4  5  4  0  0  0  0
  5  6  4  0  0  0  0
  5  8  1  0  0  0  0
  6  7  4  0  0  0  0
  8  9  1  0  0  0  0
  8 10  1  0  0  0  0
  8 14  1  0  0  0  0
 10 11  1  0  0  0  0
 11 12  1  0  0  0  0
 12 13  1  0  0  0  0
 12 15  1  0  0  0  0
 13 14  1  0  0  0  0
 15 16  1  0  0  0  0
 16 17  4  0  0  0  0
 16 20  4  0  0  0  0
 17 18  4  0  0  0  0
 17 24  4  0  0  0  0
 18 19  4  0  0  0  0
 18 21  4  0  0  0  0
 19 20  4  0  0  0  0
 21 22  4  0  0  0  0
 22 23  4  0  0  0  0
 23 24  4  0  0  0  0
M  STY  1   1 DAT
M  SAL   1  1  19
M  SDT   1 MRV_IMPLICIT_H                                        
M  SDD   1     0.0000    0.0000    DR    ALL  0       0  
M  SED   1 IMPL_H1
M  END
>  <Name_Molregno>
90866

>  <DOPAMINE D2>
8.07

>  <DOPAMINE D3>
6.96

>  <DOPAMINE D4>
6.09

$$$$
90867
  Marvin  02231216192D 0   1.00000     0.00000     0

 23 26  0  0  0  0  0  0  0  0999 V2000
    0.0748    1.8640    0.0000 I   0  0  0  0  0  0  0  0  0
    0.8818    1.6925    0.0000 C   0  0  0  0  0  0  0  0  0
    1.4339    2.3056    0.0000 C   0  0  0  0  0  0  0  0  0
    2.2408    2.1340    0.0000 C   0  0  0  0  0  0  0  0  0
    2.4958    1.3494    0.0000 C   0  0  0  0  0  0  0  0  0
    3.3027    1.1779    0.0000 N   0  0  0  0  0  0  0  0  0
    3.8548    1.7910    0.0000 C   0  0  0  0  0  0  0  0  0
    4.6617    1.6194    0.0000 C   0  0  0  0  0  0  0  0  0
    4.9167    0.8348    0.0000 N   0  0  0  0  0  0  0  0  0
    4.3646    0.2217    0.0000 C   0  0  0  0  0  0  0  0  0
    3.5577    0.3933    0.0000 C   0  0  0  0  0  0  0  0  0
    5.7237    0.6633    0.0000 C   0  0  0  0  0  0  0  0  0
    5.9786   -0.1213    0.0000 C   0  0  0  0  0  0  0  0  0
    6.7632   -0.3763    0.0000 C   0  0  0  0  0  0  0  0  0
    7.4777    0.0362    0.0000 C   0  0  0  0  0  0  0  0  0
    8.1922   -0.3763    0.0000 C   0  0  0  0  0  0  0  0  0
    8.1922   -1.2013    0.0000 C   0  0  0  0  0  0  0  0  0
    7.4777   -1.6138    0.0000 N   0  0  0  0  0  0  0  0  0
    6.7632   -1.2013    0.0000 C   0  0  0  0  0  0  0  0  0
    5.9786   -1.4562    0.0000 N   0  0  0  0  0  0  0  0  0
    5.4937   -0.7888    0.0000 C   0  0  0  0  0  0  0  0  0
    1.9437    0.7363    0.0000 C   0  0  0  0  0  0  0  0  0
    1.1368    0.9078    0.0000 C   0  0  0  0  0  0  0  0  0
  1  2  1  0  0  0  0
  2  3  4  0  0  0  0
  2 23  4  0  0  0  0
  3  4  4  0  0  0  0
  4  5  4  0  0  0  0
  5  6  1  0  0  0  0
  5 22  4  0  0  0  0
  6  7  1  0  0  0  0
  6 11  1  0  0  0  0
  7  8  1  0  0  0  0
  8  9  1  0  0  0  0
  9 10  1  0  0  0  0
  9 12  1  0  0  0  0
 10 11  1  0  0  0  0
 12 13  1  0  0  0  0
 13 14  4  0  0  0  0
 13 21  4  0  0  0  0
 14 15  4  0  0  0  0
 14 19  4  0  0  0  0
 15 16  4  0  0  0  0
 16 17  4  0  0  0  0
 17 18  4  0  0  0  0
 18 19  4  0  0  0  0
 19 20  4  0  0  0  0
 20 21  4  0  0  0  0
 22 23  4  0  0  0  0
M  STY  1   1 DAT
M  SAL   1  1  20
M  SDT   1 MRV_IMPLICIT_H                                        
M  SDD   1     0.0000    0.0000    DR    ALL  0       0  
M  SED   1 IMPL_H1
M  END
>  <Name_Molregno>
90867

>  <DOPAMINE D2>
5.77

>  <DOPAMINE D3>
5.35

>  <DOPAMINE D4>
9.29

$$$$
90998
  Marvin  02231216192D 0   1.00000     0.00000     0

 22 25  0  0  0  0  0  0  0  0999 V2000
    2.7487    0.1839    0.0000 N   0  0  0  0  0  0  0  0  0
    2.2638   -0.4835    0.0000 C   0  0  0  0  0  0  0  0  0
    2.7487   -1.1509    0.0000 C   0  0  0  0  0  0  0  0  0
    3.5334   -0.8960    0.0000 C   0  0  0  0  0  0  0  0  0
    3.5334   -0.0710    0.0000 C   0  0  0  0  0  0  0  0  0
    4.2478    0.3415    0.0000 C   0  0  0  0  0  0  0  0  0
    4.9623   -0.0710    0.0000 C   0  0  0  0  0  0  0  0  0
    4.9623   -0.8960    0.0000 C   0  0  0  0  0  0  0  0  0
    4.2478   -1.3085    0.0000 C   0  0  0  0  0  0  0  0  0
    2.4938   -1.9356    0.0000 C   0  0  0  0  0  0  0  0  0
    1.6868   -2.1071    0.0000 N   0  0  0  0  0  0  0  0  0
    1.4319   -2.8917    0.0000 C   0  0  0  0  0  0  0  0  0
    0.6249   -3.0632    0.0000 C   0  0  0  0  0  0  0  0  0
    0.0729   -2.4501    0.0000 C   0  0  0  0  0  0  0  0  0
    0.3278   -1.6655    0.0000 C   0  0  0  0  0  0  0  0  0
    1.1348   -1.4940    0.0000 C   0  0  0  0  0  0  0  0  0
   -0.7341   -2.6217    0.0000 C   0  0  0  0  0  0  0  0  0
   -0.9890   -3.4063    0.0000 C   0  0  0  0  0  0  0  0  0
   -1.7960   -3.5778    0.0000 C   0  0  0  0  0  0  0  0  0
   -2.3480   -2.9647    0.0000 C   0  0  0  0  0  0  0  0  0
   -2.0931   -2.1801    0.0000 C   0  0  0  0  0  0  0  0  0
   -1.2861   -2.0086    0.0000 C   0  0  0  0  0  0  0  0  0
  1  2  4  0  0  0  0
  1  5  4  0  0  0  0
  2  3  4  0  0  0  0
  3  4  4  0  0  0  0
  3 10  1  0  0  0  0
  4  5  4  0  0  0  0
  4  9  4  0  0  0  0
  5  6  4  0  0  0  0
  6  7  4  0  0  0  0
  7  8  4  0  0  0  0
  8  9  4  0  0  0  0
 10 11  1  0  0  0  0
 11 12  1  0  0  0  0
 11 16  1  0  0  0  0
 12 13  1  0  0  0  0
 13 14  1  0  0  0  0
 14 15  1  0  0  0  0
 14 17  1  0  0  0  0
 15 16  1  0  0  0  0
 17 18  4  0  0  0  0
 17 22  4  0  0  0  0
 18 19  4  0  0  0  0
 19 20  4  0  0  0  0
 20 21  4  0  0  0  0
 21 22  4  0  0  0  0
M  STY  1   1 DAT
M  SAL   1  1   1
M  SDT   1 MRV_IMPLICIT_H                                        
M  SDD   1     0.0000    0.0000    DR    ALL  0       0  
M  SED   1 IMPL_H1
M  END
>  <Name_Molregno>
90998

>  <DOPAMINE D2>
6.96

>  <DOPAMINE D3>
7.02

>  <DOPAMINE D4>
7.6

$$$$
91207
  Marvin  02231216192D 0   1.00000     0.00000     0

 26 29  0  0  0  0  0  0  0  0999 V2000
    6.6717    4.3658    0.0000 Cl  0  0  0  0  0  0  0  0  0
    6.6717    3.5408    0.0000 C   0  0  0  0  0  0  0  0  0
    7.3862    3.1283    0.0000 C   0  0  0  0  0  0  0  0  0
    7.3862    2.3033    0.0000 C   0  0  0  0  0  0  0  0  0
    6.6717    1.8908    0.0000 C   0  0  0  0  0  0  0  0  0
    5.9572    2.3033    0.0000 C   0  0  0  0  0  0  0  0  0
    5.9572    3.1283    0.0000 C   0  0  0  0  0  0  0  0  0
    6.6717    1.0658    0.0000 C   0  0  0  0  0  0  0  0  0
    7.3391    0.5809    0.0000 O   0  0  0  0  0  0  0  0  0
    7.0842   -0.2037    0.0000 N   0  0  0  0  0  0  0  0  0
    6.2592   -0.2037    0.0000 C   0  0  0  0  0  0  0  0  0
    6.0043    0.5809    0.0000 C   0  0  0  0  0  0  0  0  0
    5.7743   -0.8712    0.0000 C   0  0  0  0  0  0  0  0  0
    6.1098   -1.6249    0.0000 C   0  0  0  0  0  0  0  0  0
    5.6249   -2.2923    0.0000 C   0  0  0  0  0  0  0  0  0
    4.8044   -2.2061    0.0000 N   0  0  0  0  0  0  0  0  0
    4.4689   -1.4524    0.0000 C   0  0  0  0  0  0  0  0  0
    4.9538   -0.7849    0.0000 C   0  0  0  0  0  0  0  0  0
    4.3195   -2.8735    0.0000 C   0  0  0  0  0  0  0  0  0
    3.4990   -2.7873    0.0000 C   0  0  0  0  0  0  0  0  0
    3.0141   -3.4547    0.0000 C   0  0  0  0  0  0  0  0  0
    2.1936   -3.3685    0.0000 C   0  0  0  0  0  0  0  0  0
    1.8581   -2.6148    0.0000 C   0  0  0  0  0  0  0  0  0
    1.0376   -2.5286    0.0000 Cl  0  0  0  0  0  0  0  0  0
    2.3430   -1.9474    0.0000 C   0  0  0  0  0  0  0  0  0
    3.1635   -2.0336    0.0000 C   0  0  0  0  0  0  0  0  0
  1  2  1  0  0  0  0
  2  3  4  0  0  0  0
  2  7  4  0  0  0  0
  3  4  4  0  0  0  0
  4  5  4  0  0  0  0
  5  6  4  0  0  0  0
  5  8  1  0  0  0  0
  6  7  4  0  0  0  0
  8  9  4  0  0  0  0
  8 12  4  0  0  0  0
  9 10  4  0  0  0  0
 10 11  4  0  0  0  0
 11 12  4  0  0  0  0
 11 13  1  0  0  0  0
 13 14  1  0  0  0  0
 13 18  1  0  0  0  0
 14 15  1  0  0  0  0
 15 16  1  0  0  0  0
 16 17  1  0  0  0  0
 16 19  1  0  0  0  0
 17 18  1  0  0  0  0
 19 20  1  0  0  0  0
 20 21  4  0  0  0  0
 20 26  4  0  0  0  0
 21 22  4  0  0  0  0
 22 23  4  0  0  0  0
 23 24  1  0  0  0  0
 23 25  4  0  0  0  0
 25 26  4  0  0  0  0
M  END
>  <Name_Molregno>
91207

>  <DOPAMINE D2>
6.8

>  <DOPAMINE D3>
6.37

>  <DOPAMINE D4>
7.36

$$$$
91269
  Marvin  02231216192D 0   1.00000     0.00000     0

 27 30  0  0  0  0  0  0  0  0999 V2000
    6.2464    6.3118    0.0000 Cl  0  0  0  0  0  0  0  0  0
    6.2464    5.4868    0.0000 C   0  0  0  0  0  0  0  0  0
    6.9608    5.0743    0.0000 C   0  0  0  0  0  0  0  0  0
    6.9608    4.2493    0.0000 C   0  0  0  0  0  0  0  0  0
    6.2464    3.8368    0.0000 C   0  0  0  0  0  0  0  0  0
    5.5319    4.2493    0.0000 C   0  0  0  0  0  0  0  0  0
    5.5319    5.0743    0.0000 C   0  0  0  0  0  0  0  0  0
    6.2464    3.0118    0.0000 C   0  0  0  0  0  0  0  0  0
    6.9138    2.5269    0.0000 N   0  0  0  0  0  0  0  0  0
    6.6589    1.7423    0.0000 N   0  0  0  0  0  0  0  0  0
    5.8339    1.7423    0.0000 C   0  0  0  0  0  0  0  0  0
    5.3490    1.0748    0.0000 C   0  0  0  0  0  0  0  0  0
    5.6845    0.3212    0.0000 C   0  0  0  0  0  0  0  0  0
    5.1996   -0.3463    0.0000 C   0  0  0  0  0  0  0  0  0
    4.3791   -0.2600    0.0000 N   0  0  0  0  0  0  0  0  0
    4.0436    0.4936    0.0000 C   0  0  0  0  0  0  0  0  0
    4.5285    1.1611    0.0000 C   0  0  0  0  0  0  0  0  0
    3.8942   -0.9275    0.0000 C   0  0  0  0  0  0  0  0  0
    4.2297   -1.6812    0.0000 C   0  0  0  0  0  0  0  0  0
    3.7448   -2.3486    0.0000 C   0  0  0  0  0  0  0  0  0
    4.0804   -3.1023    0.0000 C   0  0  0  0  0  0  0  0  0
    3.5955   -3.7697    0.0000 C   0  0  0  0  0  0  0  0  0
    2.7750   -3.6835    0.0000 C   0  0  0  0  0  0  0  0  0
    2.4394   -2.9298    0.0000 C   0  0  0  0  0  0  0  0  0
    2.9243   -2.2624    0.0000 C   0  0  0  0  0  0  0  0  0
    5.5789    2.5269    0.0000 C   0  0  0  0  0  0  0  0  0
    4.7943    2.7818    0.0000 C   0  0  0  0  0  0  0  0  0
  1  2  1  0  0  0  0
  2  3  4  0  0  0  0
  2  7  4  0  0  0  0
  3  4  4  0  0  0  0
  4  5  4  0  0  0  0
  5  6  4  0  0  0  0
  5  8  1  0  0  0  0
  6  7  4  0  0  0  0
  8  9  4  0  0  0  0
  8 26  4  0  0  0  0
  9 10  4  0  0  0  0
 10 11  4  0  0  0  0
 11 12  1  0  0  0  0
 11 26  4  0  0  0  0
 12 13  1  0  0  0  0
 12 17  1  0  0  0  0
 13 14  1  0  0  0  0
 14 15  1  0  0  0  0
 15 16  1  0  0  0  0
 15 18  1  0  0  0  0
 16 17  1  0  0  0  0
 18 19  1  0  0  0  0
 19 20  1  0  0  0  0
 20 21  4  0  0  0  0
 20 25  4  0  0  0  0
 21 22  4  0  0  0  0
 22 23  4  0  0  0  0
 23 24  4  0  0  0  0
 24 25  4  0  0  0  0
 26 27  1  0  0  0  0
M  STY  1   1 DAT
M  SAL   1  1   9
M  SDT   1 MRV_IMPLICIT_H                                        
M  SDD   1     0.0000    0.0000    DR    ALL  0       0  
M  SED   1 IMPL_H1
M  END
>  <Name_Molregno>
91269

>  <DOPAMINE D2>
6.54

>  <DOPAMINE D3>
5.92

>  <DOPAMINE D4>
8.92

$$$$
91270
  Marvin  02231216192D 0   1.00000     0.00000     0

 26 29  0  0  0  0  0  0  0  0999 V2000
    6.6717    4.3658    0.0000 Cl  0  0  0  0  0  0  0  0  0
    6.6717    3.5408    0.0000 C   0  0  0  0  0  0  0  0  0
    7.3862    3.1283    0.0000 C   0  0  0  0  0  0  0  0  0
    7.3862    2.3033    0.0000 C   0  0  0  0  0  0  0  0  0
    6.6717    1.8908    0.0000 C   0  0  0  0  0  0  0  0  0
    5.9572    2.3033    0.0000 C   0  0  0  0  0  0  0  0  0
    5.9572    3.1283    0.0000 C   0  0  0  0  0  0  0  0  0
    6.6717    1.0658    0.0000 C   0  0  0  0  0  0  0  0  0
    7.3391    0.5809    0.0000 N   0  0  0  0  0  0  0  0  0
    7.0842   -0.2037    0.0000 N   0  0  0  0  0  0  0  0  0
    6.2592   -0.2037    0.0000 C   0  0  0  0  0  0  0  0  0
    6.0043    0.5809    0.0000 C   0  0  0  0  0  0  0  0  0
    5.7743   -0.8712    0.0000 C   0  0  0  0  0  0  0  0  0
    6.1098   -1.6249    0.0000 C   0  0  0  0  0  0  0  0  0
    5.6249   -2.2923    0.0000 C   0  0  0  0  0  0  0  0  0
    4.8044   -2.2061    0.0000 N   0  0  0  0  0  0  0  0  0
    4.4689   -1.4524    0.0000 C   0  0  0  0  0  0  0  0  0
    4.9538   -0.7849    0.0000 C   0  0  0  0  0  0  0  0  0
    4.3195   -2.8735    0.0000 C   0  0  0  0  0  0  0  0  0
    3.4990   -2.7873    0.0000 C   0  0  0  0  0  0  0  0  0
    3.0141   -3.4547    0.0000 C   0  0  0  0  0  0  0  0  0
    2.1936   -3.3685    0.0000 C   0  0  0  0  0  0  0  0  0
    1.8581   -2.6148    0.0000 C   0  0  0  0  0  0  0  0  0
    1.0376   -2.5286    0.0000 Cl  0  0  0  0  0  0  0  0  0
    2.3430   -1.9474    0.0000 C   0  0  0  0  0  0  0  0  0
    3.1635   -2.0336    0.0000 C   0  0  0  0  0  0  0  0  0
  1  2  1  0  0  0  0
  2  3  4  0  0  0  0
  2  7  4  0  0  0  0
  3  4  4  0  0  0  0
  4  5  4  0  0  0  0
  5  6  4  0  0  0  0
  5  8  1  0  0  0  0
  6  7  4  0  0  0  0
  8  9  4  0  0  0  0
  8 12  4  0  0  0  0
  9 10  4  0  0  0  0
 10 11  4  0  0  0  0
 11 12  4  0  0  0  0
 11 13  1  0  0  0  0
 13 14  1  0  0  0  0
 13 18  1  0  0  0  0
 14 15  1  0  0  0  0
 15 16  1  0  0  0  0
 16 17  1  0  0  0  0
 16 19  1  0  0  0  0
 17 18  1  0  0  0  0
 19 20  1  0  0  0  0
 20 21  4  0  0  0  0
 20 26  4  0  0  0  0
 21 22  4  0  0  0  0
 22 23  4  0  0  0  0
 23 24  1  0  0  0  0
 23 25  4  0  0  0  0
 25 26  4  0  0  0  0
M  STY  1   1 DAT
M  SAL   1  1   9
M  SDT   1 MRV_IMPLICIT_H                                        
M  SDD   1     0.0000    0.0000    DR    ALL  0       0  
M  SED   1 IMPL_H1
M  END
>  <Name_Molregno>
91270

>  <DOPAMINE D2>
6.62

>  <DOPAMINE D3>
6.09

>  <DOPAMINE D4>
7.21

$$$$
91455
  Marvin  02231216192D 0   1.00000     0.00000     0

 22 25  0  0  0  0  0  0  0  0999 V2000
    2.7487    0.1839    0.0000 N   0  0  0  0  0  0  0  0  0
    2.2638   -0.4835    0.0000 C   0  0  0  0  0  0  0  0  0
    2.7487   -1.1509    0.0000 C   0  0  0  0  0  0  0  0  0
    3.5334   -0.8960    0.0000 C   0  0  0  0  0  0  0  0  0
    3.5334   -0.0710    0.0000 C   0  0  0  0  0  0  0  0  0
    4.2478    0.3415    0.0000 C   0  0  0  0  0  0  0  0  0
    4.9623   -0.0710    0.0000 C   0  0  0  0  0  0  0  0  0
    4.9623   -0.8960    0.0000 C   0  0  0  0  0  0  0  0  0
    4.2478   -1.3085    0.0000 C   0  0  0  0  0  0  0  0  0
    2.4938   -1.9356    0.0000 C   0  0  0  0  0  0  0  0  0
    1.6868   -2.1071    0.0000 N   0  0  0  0  0  0  0  0  0
    1.4319   -2.8917    0.0000 C   0  0  0  0  0  0  0  0  0
    0.6249   -3.0632    0.0000 C   0  0  0  0  0  0  0  0  0
    0.0729   -2.4501    0.0000 N   0  0  0  0  0  0  0  0  0
    0.3278   -1.6655    0.0000 C   0  0  0  0  0  0  0  0  0
    1.1348   -1.4940    0.0000 C   0  0  0  0  0  0  0  0  0
   -0.7341   -2.6217    0.0000 C   0  0  0  0  0  0  0  0  0
   -0.9890   -3.4063    0.0000 C   0  0  0  0  0  0  0  0  0
   -1.7960   -3.5778    0.0000 C   0  0  0  0  0  0  0  0  0
   -2.3480   -2.9647    0.0000 C   0  0  0  0  0  0  0  0  0
   -2.0931   -2.1801    0.0000 C   0  0  0  0  0  0  0  0  0
   -1.2861   -2.0086    0.0000 C   0  0  0  0  0  0  0  0  0
  1  2  4  0  0  0  0
  1  5  4  0  0  0  0
  2  3  4  0  0  0  0
  3  4  4  0  0  0  0
  3 10  1  0  0  0  0
  4  5  4  0  0  0  0
  4  9  4  0  0  0  0
  5  6  4  0  0  0  0
  6  7  4  0  0  0  0
  7  8  4  0  0  0  0
  8  9  4  0  0  0  0
 10 11  1  0  0  0  0
 11 12  1  0  0  0  0
 11 16  1  0  0  0  0
 12 13  1  0  0  0  0
 13 14  1  0  0  0  0
 14 15  1  0  0  0  0
 14 17  1  0  0  0  0
 15 16  1  0  0  0  0
 17 18  4  0  0  0  0
 17 22  4  0  0  0  0
 18 19  4  0  0  0  0
 19 20  4  0  0  0  0
 20 21  4  0  0  0  0
 21 22  4  0  0  0  0
M  STY  1   1 DAT
M  SAL   1  1   1
M  SDT   1 MRV_IMPLICIT_H                                        
M  SDD   1     0.0000    0.0000    DR    ALL  0       0  
M  SED   1 IMPL_H1
M  END
>  <Name_Molregno>
91455

>  <DOPAMINE D2>
6.92

>  <DOPAMINE D3>
6.55

>  <DOPAMINE D4>
8.1

$$$$
94194
  Marvin  02231216192D 0   1.00000     0.00000     0

 36 39  0  0  0  0  0  0  0  0999 V2000
  -11.2063    0.0333    0.0000 O   0  0  0  0  0  0  0  0  0
  -11.9208   -0.3792    0.0000 C   0  0  0  0  0  0  0  0  0
  -11.2063    0.8583    0.0000 C   0  0  0  0  0  0  0  0  0
  -11.9208    1.2708    0.0000 C   0  0  0  0  0  0  0  0  0
  -11.9208    2.0958    0.0000 C   0  0  0  0  0  0  0  0  0
  -11.2063    2.5083    0.0000 C   0  0  0  0  0  0  0  0  0
  -10.4919    2.0958    0.0000 C   0  0  0  0  0  0  0  0  0
  -10.4919    1.2708    0.0000 C   0  0  0  0  0  0  0  0  0
   -9.7774    0.8583    0.0000 N   0  0  0  0  0  0  0  0  0
   -9.0629    1.2708    0.0000 C   0  0  0  0  0  0  0  0  0
   -8.3484    0.8583    0.0000 C   0  0  0  0  0  0  0  0  0
   -8.3484    0.0333    0.0000 N   0  0  0  0  0  0  0  0  0
   -9.0629   -0.3792    0.0000 C   0  0  0  0  0  0  0  0  0
   -9.7774    0.0333    0.0000 C   0  0  0  0  0  0  0  0  0
   -7.6340   -0.3792    0.0000 C   0  0  0  0  0  0  0  0  0
   -6.9195    0.0333    0.0000 C   0  0  0  0  0  0  0  0  0
   -6.2050   -0.3792    0.0000 C   0  0  0  0  0  0  0  0  0
   -5.4906    0.0333    0.0000 C   0  0  0  0  0  0  0  0  0
   -4.7761   -0.3792    0.0000 N   0  0  0  0  0  0  0  0  0
   -4.0616    0.0333    0.0000 C   0  0  0  0  0  0  0  0  0
   -4.0616    0.8583    0.0000 O   0  0  0  0  0  0  0  0  0
   -3.3471   -0.3792    0.0000 C   0  0  0  0  0  0  0  0  0
   -2.6327    0.0333    0.0000 C   0  0  0  0  0  0  0  0  0
   -1.9182   -0.3792    0.0000 C   0  0  0  0  0  0  0  0  0
   -1.9182   -1.2042    0.0000 C   0  0  0  0  0  0  0  0  0
   -2.6327   -1.6167    0.0000 C   0  0  0  0  0  0  0  0  0
   -3.3471   -1.2042    0.0000 C   0  0  0  0  0  0  0  0  0
   -1.2037   -1.6167    0.0000 C   0  0  0  0  0  0  0  0  0
   -0.4893   -1.2042    0.0000 C   0  0  0  0  0  0  0  0  0
    0.2252   -1.6167    0.0000 C   0  0  0  0  0  0  0  0  0
    0.2252   -2.4417    0.0000 C   0  0  0  0  0  0  0  0  0
   -0.4893   -2.8542    0.0000 C   0  0  0  0  0  0  0  0  0
   -1.2037   -2.4417    0.0000 C   0  0  0  0  0  0  0  0  0
    0.9397   -2.8542    0.0000 C   0  0  0  0  0  0  0  0  0
    1.6541   -2.4417    0.0000 O   0  0  0  0  0  0  0  0  0
    0.9397   -3.6792    0.0000 C   0  0  0  0  0  0  0  0  0
  1  2  1  0  0  0  0
  1  3  1  0  0  0  0
  3  4  4  0  0  0  0
  3  8  4  0  0  0  0
  4  5  4  0  0  0  0
  5  6  4  0  0  0  0
  6  7  4  0  0  0  0
  7  8  4  0  0  0  0
  8  9  1  0  0  0  0
  9 10  1  0  0  0  0
  9 14  1  0  0  0  0
 10 11  1  0  0  0  0
 11 12  1  0  0  0  0
 12 13  1  0  0  0  0
 12 15  1  0  0  0  0
 13 14  1  0  0  0  0
 15 16  1  0  0  0  0
 16 17  1  0  0  0  0
 17 18  1  0  0  0  0
 18 19  1  0  0  0  0
 19 20  1  0  0  0  0
 20 21  2  0  0  0  0
 20 22  1  0  0  0  0
 22 23  4  0  0  0  0
 22 27  4  0  0  0  0
 23 24  4  0  0  0  0
 24 25  4  0  0  0  0
 25 26  4  0  0  0  0
 25 28  1  0  0  0  0
 26 27  4  0  0  0  0
 28 29  4  0  0  0  0
 28 33  4  0  0  0  0
 29 30  4  0  0  0  0
 30 31  4  0  0  0  0
 31 32  4  0  0  0  0
 31 34  1  0  0  0  0
 32 33  4  0  0  0  0
 34 35  2  0  0  0  0
 34 36  1  0  0  0  0
M  END
>  <Name_Molregno>
94194

>  <DOPAMINE D2>
7.4

>  <DOPAMINE D3>
9.5

$$$$
94196
  Marvin  02231216192D 0   1.00000     0.00000     0

 32 35  0  0  1  0  0  0  0  0999 V2000
   -2.4058   -4.1303    0.0000 O   0  0  0  0  0  0  0  0  0
   -1.6913   -4.5428    0.0000 C   0  0  0  0  0  0  0  0  0
   -0.9768   -4.1303    0.0000 C   0  0  0  0  0  0  0  0  0
   -0.9768   -3.3053    0.0000 C   0  0  0  0  0  0  0  0  0
   -0.2624   -2.8928    0.0000 C   0  0  0  0  0  0  0  0  0
    0.4521   -3.3053    0.0000 C   0  0  0  0  0  0  0  0  0
    1.1666   -2.8928    0.0000 N   0  0  0  0  0  0  0  0  0
    1.8810   -3.3053    0.0000 C   0  0  0  0  0  0  0  0  0
    2.5955   -2.8928    0.0000 C   0  0  0  0  0  0  0  0  0
    3.3100   -3.3053    0.0000 C   0  0  0  0  0  0  0  0  0
    4.0245   -2.8928    0.0000 C   0  0  0  0  0  0  0  0  0
    4.7389   -3.3053    0.0000 N   0  0  0  0  0  0  0  0  0
    5.4534   -2.8928    0.0000 C   0  0  0  0  0  0  0  0  0
    5.4534   -2.0678    0.0000 O   0  0  0  0  0  0  0  0  0
    6.1679   -3.3053    0.0000 C   0  0  0  0  0  0  0  0  0
    6.8823   -2.8928    0.0000 C   0  0  0  0  0  0  0  0  0
    7.5968   -3.3053    0.0000 C   0  0  0  0  0  0  0  0  0
    7.5968   -4.1303    0.0000 C   0  0  0  0  0  0  0  0  0
    6.8823   -4.5428    0.0000 C   0  0  0  0  0  0  0  0  0
    6.1679   -4.1303    0.0000 C   0  0  0  0  0  0  0  0  0
    8.3113   -4.5428    0.0000 C   0  0  0  0  0  0  0  0  0
    9.0258   -4.1303    0.0000 C   0  0  0  0  0  0  0  0  0
    9.7402   -4.5428    0.0000 C   0  0  0  0  0  0  0  0  0
    9.7402   -5.3678    0.0000 C   0  0  0  0  0  0  0  0  0
    9.0258   -5.7803    0.0000 C   0  0  0  0  0  0  0  0  0
    8.3113   -5.3678    0.0000 C   0  0  0  0  0  0  0  0  0
    1.1666   -2.0678    0.0000 C   0  0  0  0  0  0  0  0  0
    0.4521   -4.1303    0.0000 C   0  0  0  0  0  0  0  0  0
   -0.2624   -4.5428    0.0000 C   0  0  0  0  0  0  0  0  0
   -0.2624   -5.3678    0.0000 C   0  0  0  0  0  0  0  0  0
   -0.9768   -5.7803    0.0000 C   0  0  0  0  0  0  0  0  0
   -1.6913   -5.3678    0.0000 C   0  0  0  0  0  0  0  0  0
  1  2  1  0  0  0  0
  2  3  4  0  0  0  0
  2 32  4  0  0  0  0
  3  4  1  0  0  0  0
  3 29  4  0  0  0  0
  4  5  1  0  0  0  0
  5  6  1  0  0  0  0
  6  7  1  0  0  0  0
  6 28  1  0  0  0  0
  7  8  1  0  0  0  0
  7 27  1  0  0  0  0
  8  9  1  0  0  0  0
  9 10  1  0  0  0  0
 10 11  1  0  0  0  0
 11 12  1  0  0  0  0
 12 13  1  0  0  0  0
 13 14  2  0  0  0  0
 13 15  1  0  0  0  0
 15 16  4  0  0  0  0
 15 20  4  0  0  0  0
 16 17  4  0  0  0  0
 17 18  4  0  0  0  0
 18 19  4  0  0  0  0
 18 21  1  0  0  0  0
 19 20  4  0  0  0  0
 21 22  4  0  0  0  0
 21 26  4  0  0  0  0
 22 23  4  0  0  0  0
 23 24  4  0  0  0  0
 24 25  4  0  0  0  0
 25 26  4  0  0  0  0
 28 29  1  0  0  0  0
 29 30  4  0  0  0  0
 30 31  4  0  0  0  0
 31 32  4  0  0  0  0
M  END
>  <Name_Molregno>
94196

>  <DOPAMINE D2>
6.9

>  <DOPAMINE D3>
8.6

$$$$
94232
  Marvin  02231216192D 0   1.00000     0.00000     0

 33 36  0  0  1  0  0  0  0  0999 V2000
   -9.3352    3.6018    0.0000 O   0  0  0  0  0  0  0  0  0
  -10.0497    3.1893    0.0000 C   0  0  0  0  0  0  0  0  0
   -8.6207    3.1893    0.0000 C   0  0  0  0  0  0  0  0  0
   -7.9062    3.6018    0.0000 C   0  0  0  0  0  0  0  0  0
   -7.9062    4.4268    0.0000 C   0  0  0  0  0  0  0  0  0
   -7.1918    4.8393    0.0000 C   0  0  0  0  0  0  0  0  0
   -6.4773    4.4268    0.0000 C   0  0  0  0  0  0  0  0  0
   -5.7628    4.8393    0.0000 N   0  0  0  0  0  0  0  0  0
   -5.0484    4.4268    0.0000 C   0  0  0  0  0  0  0  0  0
   -4.3339    4.8393    0.0000 C   0  0  0  0  0  0  0  0  0
   -3.6194    4.4268    0.0000 C   0  0  0  0  0  0  0  0  0
   -2.9049    4.8393    0.0000 C   0  0  0  0  0  0  0  0  0
   -2.1905    4.4268    0.0000 N   0  0  0  0  0  0  0  0  0
   -1.4760    4.8393    0.0000 C   0  0  0  0  0  0  0  0  0
   -1.4760    5.6643    0.0000 O   0  0  0  0  0  0  0  0  0
   -0.7615    4.4268    0.0000 C   0  0  0  0  0  0  0  0  0
   -0.0471    4.8393    0.0000 C   0  0  0  0  0  0  0  0  0
    0.6674    4.4268    0.0000 C   0  0  0  0  0  0  0  0  0
    0.6674    3.6018    0.0000 C   0  0  0  0  0  0  0  0  0
   -0.0471    3.1893    0.0000 C   0  0  0  0  0  0  0  0  0
   -0.7615    3.6018    0.0000 C   0  0  0  0  0  0  0  0  0
    1.3819    3.1893    0.0000 C   0  0  0  0  0  0  0  0  0
    2.0964    3.6018    0.0000 C   0  0  0  0  0  0  0  0  0
    2.8108    3.1893    0.0000 C   0  0  0  0  0  0  0  0  0
    2.8108    2.3643    0.0000 C   0  0  0  0  0  0  0  0  0
    2.0964    1.9518    0.0000 C   0  0  0  0  0  0  0  0  0
    1.3819    2.3643    0.0000 C   0  0  0  0  0  0  0  0  0
   -5.7628    5.6643    0.0000 C   0  0  0  0  0  0  0  0  0
   -6.4773    3.6018    0.0000 C   0  0  0  0  0  0  0  0  0
   -7.1918    3.1893    0.0000 C   0  0  0  0  0  0  0  0  0
   -7.1918    2.3643    0.0000 C   0  0  0  0  0  0  0  0  0
   -7.9062    1.9518    0.0000 C   0  0  0  0  0  0  0  0  0
   -8.6207    2.3643    0.0000 C   0  0  0  0  0  0  0  0  0
  1  2  1  0  0  0  0
  1  3  1  0  0  0  0
  3  4  4  0  0  0  0
  3 33  4  0  0  0  0
  4  5  1  0  0  0  0
  4 30  4  0  0  0  0
  5  6  1  0  0  0  0
  6  7  1  0  0  0  0
  7  8  1  0  0  0  0
  7 29  1  0  0  0  0
  8  9  1  0  0  0  0
  8 28  1  0  0  0  0
  9 10  1  0  0  0  0
 10 11  1  0  0  0  0
 11 12  1  0  0  0  0
 12 13  1  0  0  0  0
 13 14  1  0  0  0  0
 14 15  2  0  0  0  0
 14 16  1  0  0  0  0
 16 17  4  0  0  0  0
 16 21  4  0  0  0  0
 17 18  4  0  0  0  0
 18 19  4  0  0  0  0
 19 20  4  0  0  0  0
 19 22  1  0  0  0  0
 20 21  4  0  0  0  0
 22 23  4  0  0  0  0
 22 27  4  0  0  0  0
 23 24  4  0  0  0  0
 24 25  4  0  0  0  0
 25 26  4  0  0  0  0
 26 27  4  0  0  0  0
 29 30  1  0  0  0  0
 30 31  4  0  0  0  0
 31 32  4  0  0  0  0
 32 33  4  0  0  0  0
M  END
>  <Name_Molregno>
94232

>  <DOPAMINE D2>
6.5

>  <DOPAMINE D3>
7.9

$$$$
94234
  Marvin  02231216192D 0   1.00000     0.00000     0

 34 37  0  0  1  0  0  0  0  0999 V2000
   11.3092    1.3739    0.0000 O   0  0  0  0  0  0  0  0  0
   10.5166    1.6027    0.0000 C   0  0  0  0  0  0  0  0  0
    9.9221    1.0306    0.0000 C   0  0  0  0  0  0  0  0  0
   10.1202    0.2298    0.0000 C   0  0  0  0  0  0  0  0  0
    9.5258   -0.3422    0.0000 C   0  0  0  0  0  0  0  0  0
    8.7331   -0.1134    0.0000 C   0  0  0  0  0  0  0  0  0
    8.1387   -0.6855    0.0000 N   0  0  0  0  0  0  0  0  0
    7.3460   -0.4566    0.0000 C   0  0  0  0  0  0  0  0  0
    6.7516   -1.0287    0.0000 C   0  0  0  0  0  0  0  0  0
    5.9589   -0.7999    0.0000 C   0  0  0  0  0  0  0  0  0
    5.3644   -1.3719    0.0000 C   0  0  0  0  0  0  0  0  0
    4.5718   -1.1431    0.0000 N   0  0  0  0  0  0  0  0  0
    3.9773   -1.7151    0.0000 C   0  0  0  0  0  0  0  0  0
    4.1755   -2.5160    0.0000 O   0  0  0  0  0  0  0  0  0
    3.1847   -1.4863    0.0000 C   0  0  0  0  0  0  0  0  0
    2.5902   -2.0583    0.0000 C   0  0  0  0  0  0  0  0  0
    1.7976   -1.8295    0.0000 C   0  0  0  0  0  0  0  0  0
    1.5994   -1.0287    0.0000 C   0  0  0  0  0  0  0  0  0
    2.1939   -0.4566    0.0000 C   0  0  0  0  0  0  0  0  0
    2.9865   -0.6855    0.0000 C   0  0  0  0  0  0  0  0  0
    0.8068   -0.7999    0.0000 C   0  0  0  0  0  0  0  0  0
    0.2123   -1.3719    0.0000 C   0  0  0  0  0  0  0  0  0
   -0.5803   -1.1431    0.0000 C   0  0  0  0  0  0  0  0  0
   -0.7785   -0.3422    0.0000 C   0  0  0  0  0  0  0  0  0
   -0.1840    0.2298    0.0000 C   0  0  0  0  0  0  0  0  0
    0.6086    0.0010    0.0000 C   0  0  0  0  0  0  0  0  0
    8.3368   -1.4863    0.0000 C   0  0  0  0  0  0  0  0  0
    9.1295   -1.7151    0.0000 C   0  0  0  0  0  0  0  0  0
    9.3276   -2.5160    0.0000 C   0  0  0  0  0  0  0  0  0
    8.5350    0.6874    0.0000 C   0  0  0  0  0  0  0  0  0
    9.1295    1.2595    0.0000 C   0  0  0  0  0  0  0  0  0
    8.9313    2.0603    0.0000 C   0  0  0  0  0  0  0  0  0
    9.5258    2.6323    0.0000 C   0  0  0  0  0  0  0  0  0
   10.3184    2.4035    0.0000 C   0  0  0  0  0  0  0  0  0
  1  2  1  0  0  0  0
  2  3  4  0  0  0  0
  2 34  4  0  0  0  0
  3  4  1  0  0  0  0
  3 31  4  0  0  0  0
  4  5  1  0  0  0  0
  5  6  1  0  0  0  0
  6  7  1  0  0  0  0
  6 30  1  0  0  0  0
  7  8  1  0  0  0  0
  7 27  1  0  0  0  0
  8  9  1  0  0  0  0
  9 10  1  0  0  0  0
 10 11  1  0  0  0  0
 11 12  1  0  0  0  0
 12 13  1  0  0  0  0
 13 14  2  0  0  0  0
 13 15  1  0  0  0  0
 15 16  4  0  0  0  0
 15 20  4  0  0  0  0
 16 17  4  0  0  0  0
 17 18  4  0  0  0  0
 18 19  4  0  0  0  0
 18 21  1  0  0  0  0
 19 20  4  0  0  0  0
 21 22  4  0  0  0  0
 21 26  4  0  0  0  0
 22 23  4  0  0  0  0
 23 24  4  0  0  0  0
 24 25  4  0  0  0  0
 25 26  4  0  0  0  0
 27 28  1  0  0  0  0
 28 29  1  0  0  0  0
 30 31  1  0  0  0  0
 31 32  4  0  0  0  0
 32 33  4  0  0  0  0
 33 34  4  0  0  0  0
M  END
>  <Name_Molregno>
94234

>  <DOPAMINE D2>
7.6

>  <DOPAMINE D3>
9.7

$$$$
94337
  Marvin  02231216192D 0   1.00000     0.00000     0

 38 42  0  0  1  0  0  0  0  0999 V2000
   -0.1012    1.2459    0.0000 O   0  0  0  0  0  0  0  0  0
    0.4933    1.8179    0.0000 C   0  0  0  0  0  0  0  0  0
    1.2860    1.5891    0.0000 C   0  0  0  0  0  0  0  0  0
    2.0868    1.7872    0.0000 C   0  0  0  0  0  0  0  0  0
    1.8580    0.9946    0.0000 C   0  0  0  0  0  0  0  0  0
   -0.8938    1.4747    0.0000 C   0  0  0  0  0  0  0  0  0
   -1.4883    0.9026    0.0000 C   0  0  0  0  0  0  0  0  0
   -1.2901    0.1018    0.0000 C   0  0  0  0  0  0  0  0  0
   -1.8846   -0.4702    0.0000 C   0  0  0  0  0  0  0  0  0
   -2.6772   -0.2414    0.0000 C   0  0  0  0  0  0  0  0  0
   -3.2717   -0.8135    0.0000 N   0  0  0  0  0  0  0  0  0
   -4.0643   -0.5847    0.0000 C   0  0  0  0  0  0  0  0  0
   -4.6588   -1.1567    0.0000 C   0  0  0  0  0  0  0  0  0
   -5.4514   -0.9279    0.0000 C   0  0  0  0  0  0  0  0  0
   -6.0459   -1.4999    0.0000 C   0  0  0  0  0  0  0  0  0
   -6.8385   -1.2711    0.0000 N   0  0  0  0  0  0  0  0  0
   -7.4330   -1.8431    0.0000 C   0  0  0  0  0  0  0  0  0
   -7.2349   -2.6440    0.0000 O   0  0  0  0  0  0  0  0  0
   -8.2257   -1.6143    0.0000 C   0  0  0  0  0  0  0  0  0
   -8.8201   -2.1863    0.0000 C   0  0  0  0  0  0  0  0  0
   -9.6128   -1.9575    0.0000 C   0  0  0  0  0  0  0  0  0
   -9.8109   -1.1567    0.0000 C   0  0  0  0  0  0  0  0  0
   -9.2164   -0.5847    0.0000 C   0  0  0  0  0  0  0  0  0
   -8.4238   -0.8135    0.0000 C   0  0  0  0  0  0  0  0  0
  -10.6036   -0.9279    0.0000 C   0  0  0  0  0  0  0  0  0
  -11.1980   -1.4999    0.0000 C   0  0  0  0  0  0  0  0  0
  -11.9907   -1.2711    0.0000 C   0  0  0  0  0  0  0  0  0
  -12.1888   -0.4702    0.0000 C   0  0  0  0  0  0  0  0  0
  -11.5944    0.1018    0.0000 C   0  0  0  0  0  0  0  0  0
  -10.8017   -0.1270    0.0000 C   0  0  0  0  0  0  0  0  0
   -3.0735   -1.6143    0.0000 C   0  0  0  0  0  0  0  0  0
   -2.2809   -1.8431    0.0000 C   0  0  0  0  0  0  0  0  0
   -2.0827   -2.6440    0.0000 C   0  0  0  0  0  0  0  0  0
   -2.8754    0.5594    0.0000 C   0  0  0  0  0  0  0  0  0
   -2.2809    1.1315    0.0000 C   0  0  0  0  0  0  0  0  0
   -2.4791    1.9323    0.0000 C   0  0  0  0  0  0  0  0  0
   -1.8846    2.5043    0.0000 C   0  0  0  0  0  0  0  0  0
   -1.0919    2.2755    0.0000 C   0  0  0  0  0  0  0  0  0
  1  2  1  0  0  0  0
  1  6  1  0  0  0  0
  2  3  1  0  0  0  0
  3  4  1  0  0  0  0
  3  5  1  0  0  0  0
  4  5  1  0  0  0  0
  6  7  4  0  0  0  0
  6 38  4  0  0  0  0
  7  8  1  0  0  0  0
  7 35  4  0  0  0  0
  8  9  1  0  0  0  0
  9 10  1  0  0  0  0
 10 11  1  0  0  0  0
 10 34  1  0  0  0  0
 11 12  1  0  0  0  0
 11 31  1  0  0  0  0
 12 13  1  0  0  0  0
 13 14  1  0  0  0  0
 14 15  1  0  0  0  0
 15 16  1  0  0  0  0
 16 17  1  0  0  0  0
 17 18  2  0  0  0  0
 17 19  1  0  0  0  0
 19 20  4  0  0  0  0
 19 24  4  0  0  0  0
 20 21  4  0  0  0  0
 21 22  4  0  0  0  0
 22 23  4  0  0  0  0
 22 25  1  0  0  0  0
 23 24  4  0  0  0  0
 25 26  4  0  0  0  0
 25 30  4  0  0  0  0
 26 27  4  0  0  0  0
 27 28  4  0  0  0  0
 28 29  4  0  0  0  0
 29 30  4  0  0  0  0
 31 32  1  0  0  0  0
 32 33  1  0  0  0  0
 34 35  1  0  0  0  0
 35 36  4  0  0  0  0
 36 37  4  0  0  0  0
 37 38  4  0  0  0  0
M  END
>  <Name_Molregno>
94337

>  <DOPAMINE D2>
6.1

>  <DOPAMINE D3>
8.6

$$$$
94339
  Marvin  02231216192D 0   1.00000     0.00000     0

 36 39  0  0  1  0  0  0  0  0999 V2000
   -0.6995   -4.7721    0.0000 O   0  0  0  0  0  0  0  0  0
   -0.8977   -3.9713    0.0000 C   0  0  0  0  0  0  0  0  0
   -0.3032   -3.3992    0.0000 N   0  0  0  0  0  0  0  0  0
    0.4894   -3.6281    0.0000 C   0  0  0  0  0  0  0  0  0
    1.0839   -3.0560    0.0000 C   0  0  0  0  0  0  0  0  0
    1.8766   -3.2848    0.0000 C   0  0  0  0  0  0  0  0  0
    2.4710   -2.7128    0.0000 C   0  0  0  0  0  0  0  0  0
    3.2637   -2.9416    0.0000 N   0  0  0  0  0  0  0  0  0
    3.4618   -3.7425    0.0000 C   0  0  0  0  0  0  0  0  0
    4.2545   -3.9713    0.0000 C   0  0  0  0  0  0  0  0  0
    4.4526   -4.7721    0.0000 C   0  0  0  0  0  0  0  0  0
    3.8581   -2.3696    0.0000 C   0  0  0  0  0  0  0  0  0
    4.6508   -2.5984    0.0000 C   0  0  0  0  0  0  0  0  0
    5.2453   -2.0264    0.0000 C   0  0  0  0  0  0  0  0  0
    5.0471   -1.2255    0.0000 C   0  0  0  0  0  0  0  0  0
    4.2545   -0.9967    0.0000 C   0  0  0  0  0  0  0  0  0
    3.6600   -1.5687    0.0000 C   0  0  0  0  0  0  0  0  0
    4.0563   -0.1958    0.0000 C   0  0  0  0  0  0  0  0  0
    4.6508    0.3762    0.0000 C   0  0  0  0  0  0  0  0  0
    5.4434    0.1474    0.0000 C   0  0  0  0  0  0  0  0  0
    5.6416   -0.6535    0.0000 C   0  0  0  0  0  0  0  0  0
    6.4342   -0.8823    0.0000 C   0  0  0  0  0  0  0  0  0
    7.0287   -0.3103    0.0000 O   0  0  0  0  0  0  0  0  0
    6.6324   -1.6831    0.0000 N   0  0  0  0  0  0  0  0  0
   -1.6903   -3.7425    0.0000 C   0  0  0  0  0  0  0  0  0
   -2.2848   -4.3145    0.0000 C   0  0  0  0  0  0  0  0  0
   -3.0774   -4.0857    0.0000 C   0  0  0  0  0  0  0  0  0
   -3.2756   -3.2848    0.0000 C   0  0  0  0  0  0  0  0  0
   -2.6811   -2.7128    0.0000 C   0  0  0  0  0  0  0  0  0
   -1.8885   -2.9416    0.0000 C   0  0  0  0  0  0  0  0  0
   -4.0682   -3.0560    0.0000 C   0  0  0  0  0  0  0  0  0
   -4.6627   -3.6281    0.0000 C   0  0  0  0  0  0  0  0  0
   -5.4553   -3.3992    0.0000 C   0  0  0  0  0  0  0  0  0
   -5.6535   -2.5984    0.0000 C   0  0  0  0  0  0  0  0  0
   -5.0590   -2.0264    0.0000 C   0  0  0  0  0  0  0  0  0
   -4.2664   -2.2552    0.0000 C   0  0  0  0  0  0  0  0  0
  1  2  2  0  0  0  0
  2  3  1  0  0  0  0
  2 25  1  0  0  0  0
  3  4  1  0  0  0  0
  4  5  1  0  0  0  0
  5  6  1  0  0  0  0
  6  7  1  0  0  0  0
  7  8  1  0  0  0  0
  8  9  1  0  0  0  0
  8 12  1  0  0  0  0
  9 10  1  0  0  0  0
 10 11  1  0  0  0  0
 12 13  1  0  0  0  0
 12 17  1  0  0  0  0
 13 14  1  0  0  0  0
 14 15  1  0  0  0  0
 15 16  4  0  0  0  0
 15 21  4  0  0  0  0
 16 17  1  0  0  0  0
 16 18  4  0  0  0  0
 18 19  4  0  0  0  0
 19 20  4  0  0  0  0
 20 21  4  0  0  0  0
 21 22  1  0  0  0  0
 22 23  2  0  0  0  0
 22 24  1  0  0  0  0
 25 26  4  0  0  0  0
 25 30  4  0  0  0  0
 26 27  4  0  0  0  0
 27 28  4  0  0  0  0
 28 29  4  0  0  0  0
 28 31  1  0  0  0  0
 29 30  4  0  0  0  0
 31 32  4  0  0  0  0
 31 36  4  0  0  0  0
 32 33  4  0  0  0  0
 33 34  4  0  0  0  0
 34 35  4  0  0  0  0
 35 36  4  0  0  0  0
M  END
>  <Name_Molregno>
94339

>  <DOPAMINE D2>
6.2

>  <DOPAMINE D3>
8.4

$$$$
94375
  Marvin  02231216192D 0   1.00000     0.00000     0

 34 37  0  0  1  0  0  0  0  0999 V2000
   11.3092    1.3739    0.0000 Br  0  0  0  0  0  0  0  0  0
   10.5166    1.6027    0.0000 C   0  0  0  0  0  0  0  0  0
    9.9221    1.0306    0.0000 C   0  0  0  0  0  0  0  0  0
   10.1202    0.2298    0.0000 C   0  0  0  0  0  0  0  0  0
    9.5258   -0.3422    0.0000 C   0  0  0  0  0  0  0  0  0
    8.7331   -0.1134    0.0000 C   0  0  0  0  0  0  0  0  0
    8.1387   -0.6855    0.0000 N   0  0  0  0  0  0  0  0  0
    7.3460   -0.4566    0.0000 C   0  0  0  0  0  0  0  0  0
    6.7516   -1.0287    0.0000 C   0  0  0  0  0  0  0  0  0
    5.9589   -0.7999    0.0000 C   0  0  0  0  0  0  0  0  0
    5.3644   -1.3719    0.0000 C   0  0  0  0  0  0  0  0  0
    4.5718   -1.1431    0.0000 N   0  0  0  0  0  0  0  0  0
    3.9773   -1.7151    0.0000 C   0  0  0  0  0  0  0  0  0
    4.1755   -2.5160    0.0000 O   0  0  0  0  0  0  0  0  0
    3.1847   -1.4863    0.0000 C   0  0  0  0  0  0  0  0  0
    2.5902   -2.0583    0.0000 C   0  0  0  0  0  0  0  0  0
    1.7976   -1.8295    0.0000 C   0  0  0  0  0  0  0  0  0
    1.5994   -1.0287    0.0000 C   0  0  0  0  0  0  0  0  0
    2.1939   -0.4566    0.0000 C   0  0  0  0  0  0  0  0  0
    2.9865   -0.6855    0.0000 C   0  0  0  0  0  0  0  0  0
    0.8068   -0.7999    0.0000 C   0  0  0  0  0  0  0  0  0
    0.2123   -1.3719    0.0000 C   0  0  0  0  0  0  0  0  0
   -0.5803   -1.1431    0.0000 C   0  0  0  0  0  0  0  0  0
   -0.7785   -0.3422    0.0000 C   0  0  0  0  0  0  0  0  0
   -0.1840    0.2298    0.0000 C   0  0  0  0  0  0  0  0  0
    0.6086    0.0010    0.0000 C   0  0  0  0  0  0  0  0  0
    8.3368   -1.4863    0.0000 C   0  0  0  0  0  0  0  0  0
    9.1295   -1.7151    0.0000 C   0  0  0  0  0  0  0  0  0
    9.3276   -2.5160    0.0000 C   0  0  0  0  0  0  0  0  0
    8.5350    0.6874    0.0000 C   0  0  0  0  0  0  0  0  0
    9.1295    1.2595    0.0000 C   0  0  0  0  0  0  0  0  0
    8.9313    2.0603    0.0000 C   0  0  0  0  0  0  0  0  0
    9.5258    2.6323    0.0000 C   0  0  0  0  0  0  0  0  0
   10.3184    2.4035    0.0000 C   0  0  0  0  0  0  0  0  0
  1  2  1  0  0  0  0
  2  3  4  0  0  0  0
  2 34  4  0  0  0  0
  3  4  1  0  0  0  0
  3 31  4  0  0  0  0
  4  5  1  0  0  0  0
  5  6  1  0  0  0  0
  6  7  1  0  0  0  0
  6 30  1  0  0  0  0
  7  8  1  0  0  0  0
  7 27  1  0  0  0  0
  8  9  1  0  0  0  0
  9 10  1  0  0  0  0
 10 11  1  0  0  0  0
 11 12  1  0  0  0  0
 12 13  1  0  0  0  0
 13 14  2  0  0  0  0
 13 15  1  0  0  0  0
 15 16  4  0  0  0  0
 15 20  4  0  0  0  0
 16 17  4  0  0  0  0
 17 18  4  0  0  0  0
 18 19  4  0  0  0  0
 18 21  1  0  0  0  0
 19 20  4  0  0  0  0
 21 22  4  0  0  0  0
 21 26  4  0  0  0  0
 22 23  4  0  0  0  0
 23 24  4  0  0  0  0
 24 25  4  0  0  0  0
 25 26  4  0  0  0  0
 27 28  1  0  0  0  0
 28 29  1  0  0  0  0
 30 31  1  0  0  0  0
 31 32  4  0  0  0  0
 32 33  4  0  0  0  0
 33 34  4  0  0  0  0
M  END
>  <Name_Molregno>
94375

>  <DOPAMINE D2>
6.6

>  <DOPAMINE D3>
8.9

$$$$
94377
  Marvin  02231216192D 0   1.00000     0.00000     0

 33 36  0  0  1  0  0  0  0  0999 V2000
   -2.0852   -4.3602    0.0000 O   0  0  0  0  0  0  0  0  0
   -2.2833   -3.5593    0.0000 C   0  0  0  0  0  0  0  0  0
   -1.6889   -2.9873    0.0000 N   0  0  0  0  0  0  0  0  0
   -0.8962   -3.2161    0.0000 C   0  0  0  0  0  0  0  0  0
   -0.3017   -2.6441    0.0000 C   0  0  0  0  0  0  0  0  0
    0.4909   -2.8729    0.0000 C   0  0  0  0  0  0  0  0  0
    1.0854   -2.3009    0.0000 C   0  0  0  0  0  0  0  0  0
    1.8780   -2.5297    0.0000 N   0  0  0  0  0  0  0  0  0
    2.0762   -3.3305    0.0000 C   0  0  0  0  0  0  0  0  0
    2.8688   -3.5593    0.0000 C   0  0  0  0  0  0  0  0  0
    3.0670   -4.3602    0.0000 C   0  0  0  0  0  0  0  0  0
    2.4725   -1.9576    0.0000 C   0  0  0  0  0  0  0  0  0
    3.2651   -2.1865    0.0000 C   0  0  0  0  0  0  0  0  0
    3.8596   -1.6144    0.0000 C   0  0  0  0  0  0  0  0  0
    3.6614   -0.8136    0.0000 C   0  0  0  0  0  0  0  0  0
    2.8688   -0.5848    0.0000 C   0  0  0  0  0  0  0  0  0
    2.2743   -1.1568    0.0000 C   0  0  0  0  0  0  0  0  0
    2.6706    0.2161    0.0000 C   0  0  0  0  0  0  0  0  0
    3.2651    0.7881    0.0000 C   0  0  0  0  0  0  0  0  0
    4.0577    0.5593    0.0000 C   0  0  0  0  0  0  0  0  0
    4.2559   -0.2415    0.0000 C   0  0  0  0  0  0  0  0  0
   -3.0760   -3.3305    0.0000 C   0  0  0  0  0  0  0  0  0
   -3.6704   -3.9026    0.0000 C   0  0  0  0  0  0  0  0  0
   -4.4631   -3.6738    0.0000 C   0  0  0  0  0  0  0  0  0
   -4.6612   -2.8729    0.0000 C   0  0  0  0  0  0  0  0  0
   -4.0668   -2.3009    0.0000 C   0  0  0  0  0  0  0  0  0
   -3.2741   -2.5297    0.0000 C   0  0  0  0  0  0  0  0  0
   -5.4539   -2.6441    0.0000 C   0  0  0  0  0  0  0  0  0
   -6.0483   -3.2161    0.0000 C   0  0  0  0  0  0  0  0  0
   -6.8410   -2.9873    0.0000 C   0  0  0  0  0  0  0  0  0
   -7.0391   -2.1865    0.0000 C   0  0  0  0  0  0  0  0  0
   -6.4447   -1.6144    0.0000 C   0  0  0  0  0  0  0  0  0
   -5.6520   -1.8432    0.0000 C   0  0  0  0  0  0  0  0  0
  1  2  2  0  0  0  0
  2  3  1  0  0  0  0
  2 22  1  0  0  0  0
  3  4  1  0  0  0  0
  4  5  1  0  0  0  0
  5  6  1  0  0  0  0
  6  7  1  0  0  0  0
  7  8  1  0  0  0  0
  8  9  1  0  0  0  0
  8 12  1  0  0  0  0
  9 10  1  0  0  0  0
 10 11  1  0  0  0  0
 12 13  1  0  0  0  0
 12 17  1  0  0  0  0
 13 14  1  0  0  0  0
 14 15  1  0  0  0  0
 15 16  4  0  0  0  0
 15 21  4  0  0  0  0
 16 17  1  0  0  0  0
 16 18  4  0  0  0  0
 18 19  4  0  0  0  0
 19 20  4  0  0  0  0
 20 21  4  0  0  0  0
 22 23  4  0  0  0  0
 22 27  4  0  0  0  0
 23 24  4  0  0  0  0
 24 25  4  0  0  0  0
 25 26  4  0  0  0  0
 25 28  1  0  0  0  0
 26 27  4  0  0  0  0
 28 29  4  0  0  0  0
 28 33  4  0  0  0  0
 29 30  4  0  0  0  0
 30 31  4  0  0  0  0
 31 32  4  0  0  0  0
 32 33  4  0  0  0  0
M  END
>  <Name_Molregno>
94377

>  <DOPAMINE D2>
6.5

>  <DOPAMINE D3>
8.8

$$$$
94958
  Marvin  02231216192D 0   1.00000     0.00000     0

 35 38  0  0  1  0  0  0  0  0999 V2000
   -0.6974   -4.6475    0.0000 O   0  0  0  0  0  0  0  0  0
   -0.8956   -3.8467    0.0000 C   0  0  0  0  0  0  0  0  0
   -0.3011   -3.2746    0.0000 N   0  0  0  0  0  0  0  0  0
    0.4915   -3.5034    0.0000 C   0  0  0  0  0  0  0  0  0
    1.0860   -2.9314    0.0000 C   0  0  0  0  0  0  0  0  0
    1.8786   -3.1602    0.0000 C   0  0  0  0  0  0  0  0  0
    2.4731   -2.5882    0.0000 C   0  0  0  0  0  0  0  0  0
    3.2658   -2.8170    0.0000 N   0  0  0  0  0  0  0  0  0
    3.4639   -3.6179    0.0000 C   0  0  0  0  0  0  0  0  0
    4.2565   -3.8467    0.0000 C   0  0  0  0  0  0  0  0  0
    4.4547   -4.6475    0.0000 C   0  0  0  0  0  0  0  0  0
    3.8602   -2.2450    0.0000 C   0  0  0  0  0  0  0  0  0
    4.6529   -2.4738    0.0000 C   0  0  0  0  0  0  0  0  0
    5.2473   -1.9018    0.0000 C   0  0  0  0  0  0  0  0  0
    5.0492   -1.1009    0.0000 C   0  0  0  0  0  0  0  0  0
    4.2565   -0.8721    0.0000 C   0  0  0  0  0  0  0  0  0
    3.6621   -1.4441    0.0000 C   0  0  0  0  0  0  0  0  0
    4.0584   -0.0712    0.0000 C   0  0  0  0  0  0  0  0  0
    4.6529    0.5008    0.0000 C   0  0  0  0  0  0  0  0  0
    5.4455    0.2720    0.0000 C   0  0  0  0  0  0  0  0  0
    5.6437   -0.5289    0.0000 C   0  0  0  0  0  0  0  0  0
    6.4363   -0.7577    0.0000 C   0  0  0  0  0  0  0  0  0
    7.2289   -0.9865    0.0000 N   0  0  0  0  0  0  0  0  0
   -1.6882   -3.6179    0.0000 C   0  0  0  0  0  0  0  0  0
   -2.2827   -4.1899    0.0000 C   0  0  0  0  0  0  0  0  0
   -3.0753   -3.9611    0.0000 C   0  0  0  0  0  0  0  0  0
   -3.2735   -3.1602    0.0000 C   0  0  0  0  0  0  0  0  0
   -2.6790   -2.5882    0.0000 C   0  0  0  0  0  0  0  0  0
   -1.8864   -2.8170    0.0000 C   0  0  0  0  0  0  0  0  0
   -4.0661   -2.9314    0.0000 C   0  0  0  0  0  0  0  0  0
   -4.6606   -3.5034    0.0000 C   0  0  0  0  0  0  0  0  0
   -5.4532   -3.2746    0.0000 C   0  0  0  0  0  0  0  0  0
   -5.6514   -2.4738    0.0000 C   0  0  0  0  0  0  0  0  0
   -5.0569   -1.9018    0.0000 C   0  0  0  0  0  0  0  0  0
   -4.2643   -2.1306    0.0000 C   0  0  0  0  0  0  0  0  0
  1  2  2  0  0  0  0
  2  3  1  0  0  0  0
  2 24  1  0  0  0  0
  3  4  1  0  0  0  0
  4  5  1  0  0  0  0
  5  6  1  0  0  0  0
  6  7  1  0  0  0  0
  7  8  1  0  0  0  0
  8  9  1  0  0  0  0
  8 12  1  0  0  0  0
  9 10  1  0  0  0  0
 10 11  1  0  0  0  0
 12 13  1  0  0  0  0
 12 17  1  0  0  0  0
 13 14  1  0  0  0  0
 14 15  1  0  0  0  0
 15 16  4  0  0  0  0
 15 21  4  0  0  0  0
 16 17  1  0  0  0  0
 16 18  4  0  0  0  0
 18 19  4  0  0  0  0
 19 20  4  0  0  0  0
 20 21  4  0  0  0  0
 21 22  1  0  0  0  0
 22 23  3  0  0  0  0
 24 25  4  0  0  0  0
 24 29  4  0  0  0  0
 25 26  4  0  0  0  0
 26 27  4  0  0  0  0
 27 28  4  0  0  0  0
 27 30  1  0  0  0  0
 28 29  4  0  0  0  0
 30 31  4  0  0  0  0
 30 35  4  0  0  0  0
 31 32  4  0  0  0  0
 32 33  4  0  0  0  0
 33 34  4  0  0  0  0
 34 35  4  0  0  0  0
M  END
>  <Name_Molregno>
94958

>  <DOPAMINE D2>
7

>  <DOPAMINE D3>
9.3

$$$$
94996
  Marvin  02231216192D 0   1.00000     0.00000     0

 38 41  0  0  1  0  0  0  0  0999 V2000
   10.8828    1.1979    0.0000 S   0  0  0  0  0  0  0  0  0
   10.2883    0.6259    0.0000 O   0  0  0  0  0  0  0  0  0
    9.4956    0.8547    0.0000 C   0  0  0  0  0  0  0  0  0
    8.9012    0.2827    0.0000 C   0  0  0  0  0  0  0  0  0
    9.0993   -0.5182    0.0000 C   0  0  0  0  0  0  0  0  0
    8.5048   -1.0902    0.0000 C   0  0  0  0  0  0  0  0  0
    7.7122   -0.8614    0.0000 C   0  0  0  0  0  0  0  0  0
    7.1177   -1.4334    0.0000 N   0  0  0  0  0  0  0  0  0
    6.3251   -1.2046    0.0000 C   0  0  0  0  0  0  0  0  0
    5.7306   -1.7766    0.0000 C   0  0  0  0  0  0  0  0  0
    4.9380   -1.5478    0.0000 C   0  0  0  0  0  0  0  0  0
    4.3435   -2.1199    0.0000 C   0  0  0  0  0  0  0  0  0
    3.5509   -1.8910    0.0000 N   0  0  0  0  0  0  0  0  0
    2.9564   -2.4631    0.0000 C   0  0  0  0  0  0  0  0  0
    3.1546   -3.2639    0.0000 O   0  0  0  0  0  0  0  0  0
    2.1638   -2.2343    0.0000 C   0  0  0  0  0  0  0  0  0
    1.5693   -2.8063    0.0000 C   0  0  0  0  0  0  0  0  0
    0.7767   -2.5775    0.0000 C   0  0  0  0  0  0  0  0  0
    0.5785   -1.7766    0.0000 C   0  0  0  0  0  0  0  0  0
    1.1730   -1.2046    0.0000 C   0  0  0  0  0  0  0  0  0
    1.9656   -1.4334    0.0000 C   0  0  0  0  0  0  0  0  0
   -0.2141   -1.5478    0.0000 C   0  0  0  0  0  0  0  0  0
   -0.8086   -2.1199    0.0000 C   0  0  0  0  0  0  0  0  0
   -1.6012   -1.8910    0.0000 C   0  0  0  0  0  0  0  0  0
   -1.7994   -1.0902    0.0000 C   0  0  0  0  0  0  0  0  0
   -1.2049   -0.5182    0.0000 C   0  0  0  0  0  0  0  0  0
   -0.4123   -0.7470    0.0000 C   0  0  0  0  0  0  0  0  0
    7.3159   -2.2343    0.0000 C   0  0  0  0  0  0  0  0  0
    8.1085   -2.4631    0.0000 C   0  0  0  0  0  0  0  0  0
    8.3067   -3.2639    0.0000 C   0  0  0  0  0  0  0  0  0
    7.5141   -0.0605    0.0000 C   0  0  0  0  0  0  0  0  0
    8.1085    0.5115    0.0000 C   0  0  0  0  0  0  0  0  0
    7.9104    1.3124    0.0000 C   0  0  0  0  0  0  0  0  0
    8.5048    1.8844    0.0000 C   0  0  0  0  0  0  0  0  0
    9.2975    1.6556    0.0000 C   0  0  0  0  0  0  0  0  0
   11.4772    1.7700    0.0000 O   0  0  0  0  0  0  0  0  0
   11.4548    0.6035    0.0000 O   0  0  0  0  0  0  0  0  0
   10.3107    1.7924    0.0000 C   0  0  0  0  0  0  0  0  0
  1  2  1  0  0  0  0
  1 36  2  0  0  0  0
  1 37  2  0  0  0  0
  1 38  1  0  0  0  0
  2  3  1  0  0  0  0
  3  4  4  0  0  0  0
  3 35  4  0  0  0  0
  4  5  1  0  0  0  0
  4 32  4  0  0  0  0
  5  6  1  0  0  0  0
  6  7  1  0  0  0  0
  7  8  1  0  0  0  0
  7 31  1  0  0  0  0
  8  9  1  0  0  0  0
  8 28  1  0  0  0  0
  9 10  1  0  0  0  0
 10 11  1  0  0  0  0
 11 12  1  0  0  0  0
 12 13  1  0  0  0  0
 13 14  1  0  0  0  0
 14 15  2  0  0  0  0
 14 16  1  0  0  0  0
 16 17  4  0  0  0  0
 16 21  4  0  0  0  0
 17 18  4  0  0  0  0
 18 19  4  0  0  0  0
 19 20  4  0  0  0  0
 19 22  1  0  0  0  0
 20 21  4  0  0  0  0
 22 23  4  0  0  0  0
 22 27  4  0  0  0  0
 23 24  4  0  0  0  0
 24 25  4  0  0  0  0
 25 26  4  0  0  0  0
 26 27  4  0  0  0  0
 28 29  1  0  0  0  0
 29 30  1  0  0  0  0
 31 32  1  0  0  0  0
 32 33  4  0  0  0  0
 33 34  4  0  0  0  0
 34 35  4  0  0  0  0
M  END
>  <Name_Molregno>
94996

>  <DOPAMINE D2>
6.6

>  <DOPAMINE D3>
8.9

$$$$
95062
  Marvin  02231216192D 0   1.00000     0.00000     0

 35 38  0  0  1  0  0  0  0  0999 V2000
   -0.1005    1.3147    0.0000 O   0  0  0  0  0  0  0  0  0
    0.4940    1.8868    0.0000 C   0  0  0  0  0  0  0  0  0
   -0.8931    1.5435    0.0000 C   0  0  0  0  0  0  0  0  0
   -1.4876    0.9715    0.0000 C   0  0  0  0  0  0  0  0  0
   -1.2894    0.1707    0.0000 C   0  0  0  0  0  0  0  0  0
   -1.8839   -0.4014    0.0000 C   0  0  0  0  0  0  0  0  0
   -2.6766   -0.1726    0.0000 C   0  0  0  0  0  0  0  0  0
   -3.2710   -0.7446    0.0000 N   0  0  0  0  0  0  0  0  0
   -4.0637   -0.5158    0.0000 C   0  0  0  0  0  0  0  0  0
   -4.6581   -1.0878    0.0000 C   0  0  0  0  0  0  0  0  0
   -5.4508   -0.8590    0.0000 C   0  0  0  0  0  0  0  0  0
   -6.0453   -1.4310    0.0000 C   0  0  0  0  0  0  0  0  0
   -6.8379   -1.2022    0.0000 N   0  0  0  0  0  0  0  0  0
   -7.4324   -1.7743    0.0000 C   0  0  0  0  0  0  0  0  0
   -7.2342   -2.5751    0.0000 O   0  0  0  0  0  0  0  0  0
   -8.2250   -1.5455    0.0000 C   0  0  0  0  0  0  0  0  0
   -8.8195   -2.1175    0.0000 C   0  0  0  0  0  0  0  0  0
   -9.6121   -1.8887    0.0000 C   0  0  0  0  0  0  0  0  0
   -9.8103   -1.0878    0.0000 C   0  0  0  0  0  0  0  0  0
   -9.2158   -0.5158    0.0000 C   0  0  0  0  0  0  0  0  0
   -8.4232   -0.7446    0.0000 C   0  0  0  0  0  0  0  0  0
  -10.6029   -0.8590    0.0000 C   0  0  0  0  0  0  0  0  0
  -11.1974   -1.4310    0.0000 C   0  0  0  0  0  0  0  0  0
  -11.9900   -1.2022    0.0000 C   0  0  0  0  0  0  0  0  0
  -12.1882   -0.4014    0.0000 C   0  0  0  0  0  0  0  0  0
  -11.5937    0.1707    0.0000 C   0  0  0  0  0  0  0  0  0
  -10.8011   -0.0582    0.0000 C   0  0  0  0  0  0  0  0  0
   -3.0729   -1.5455    0.0000 C   0  0  0  0  0  0  0  0  0
   -2.2802   -1.7743    0.0000 C   0  0  0  0  0  0  0  0  0
   -2.0821   -2.5751    0.0000 C   0  0  0  0  0  0  0  0  0
   -2.8747    0.6283    0.0000 C   0  0  0  0  0  0  0  0  0
   -2.2802    1.2003    0.0000 C   0  0  0  0  0  0  0  0  0
   -2.4784    2.0012    0.0000 C   0  0  0  0  0  0  0  0  0
   -1.8839    2.5732    0.0000 C   0  0  0  0  0  0  0  0  0
   -1.0913    2.3444    0.0000 C   0  0  0  0  0  0  0  0  0
  1  2  1  0  0  0  0
  1  3  1  0  0  0  0
  3  4  4  0  0  0  0
  3 35  4  0  0  0  0
  4  5  1  0  0  0  0
  4 32  4  0  0  0  0
  5  6  1  0  0  0  0
  6  7  1  0  0  0  0
  7  8  1  0  0  0  0
  7 31  1  0  0  0  0
  8  9  1  0  0  0  0
  8 28  1  0  0  0  0
  9 10  1  0  0  0  0
 10 11  1  0  0  0  0
 11 12  1  0  0  0  0
 12 13  1  0  0  0  0
 13 14  1  0  0  0  0
 14 15  2  0  0  0  0
 14 16  1  0  0  0  0
 16 17  4  0  0  0  0
 16 21  4  0  0  0  0
 17 18  4  0  0  0  0
 18 19  4  0  0  0  0
 19 20  4  0  0  0  0
 19 22  1  0  0  0  0
 20 21  4  0  0  0  0
 22 23  4  0  0  0  0
 22 27  4  0  0  0  0
 23 24  4  0  0  0  0
 24 25  4  0  0  0  0
 25 26  4  0  0  0  0
 26 27  4  0  0  0  0
 28 29  1  0  0  0  0
 29 30  1  0  0  0  0
 31 32  1  0  0  0  0
 32 33  4  0  0  0  0
 33 34  4  0  0  0  0
 34 35  4  0  0  0  0
M  END
>  <Name_Molregno>
95062

>  <DOPAMINE D2>
6.9

>  <DOPAMINE D3>
9.1

$$$$
95239
  Marvin  02231216192D 0   1.00000     0.00000     0

 20 22  0  0  1  0  0  0  0  0999 V2000
    1.4663   -1.2283    0.0000 O   0  0  0  0  0  0  0  0  0
    2.1808   -1.6408    0.0000 C   0  0  0  0  0  0  0  0  0
    2.8952   -1.2283    0.0000 C   0  0  0  0  0  0  0  0  0
    3.6097   -1.6408    0.0000 C   0  0  0  0  0  0  0  0  0
    4.3242   -1.2283    0.0000 O   0  0  0  0  0  0  0  0  0
    3.6097   -2.4658    0.0000 C   0  0  0  0  0  0  0  0  0
    2.8952   -2.8783    0.0000 C   0  0  0  0  0  0  0  0  0
    2.1808   -2.4658    0.0000 C   0  0  0  0  0  0  0  0  0
    1.4663   -2.8783    0.0000 C   0  0  0  0  0  0  0  0  0
    0.7518   -2.4658    0.0000 C   0  0  0  0  0  0  0  0  0
    0.7518   -1.6408    0.0000 C   0  0  0  0  0  0  0  0  0
    0.0373   -1.2283    0.0000 C   0  0  0  0  0  0  0  0  0
    0.0373   -0.4033    0.0000 N   0  0  0  0  0  0  0  0  0
   -0.6771    0.0092    0.0000 C   0  0  0  0  0  0  0  0  0
   -0.6771    0.8342    0.0000 C   0  0  0  0  0  0  0  0  0
   -1.3916    1.2467    0.0000 C   0  0  0  0  0  0  0  0  0
   -1.3916    2.0717    0.0000 C   0  0  0  0  0  0  0  0  0
   -0.6771    2.4842    0.0000 C   0  0  0  0  0  0  0  0  0
    0.0373    2.0717    0.0000 C   0  0  0  0  0  0  0  0  0
    0.0373    1.2467    0.0000 C   0  0  0  0  0  0  0  0  0
  1  2  1  0  0  0  0
  1 11  1  0  0  0  0
  2  3  4  0  0  0  0
  2  8  4  0  0  0  0
  3  4  4  0  0  0  0
  4  5  1  0  0  0  0
  4  6  4  0  0  0  0
  6  7  4  0  0  0  0
  7  8  4  0  0  0  0
  8  9  1  0  0  0  0
  9 10  1  0  0  0  0
 10 11  1  0  0  0  0
 11 12  1  0  0  0  0
 12 13  1  0  0  0  0
 13 14  1  0  0  0  0
 14 15  1  0  0  0  0
 15 16  4  0  0  0  0
 15 20  4  0  0  0  0
 16 17  4  0  0  0  0
 17 18  4  0  0  0  0
 18 19  4  0  0  0  0
 19 20  4  0  0  0  0
M  END
>  <Name_Molregno>
95239

>  <DOPAMINE D3>
8.62

$$$$
95285
  Marvin  02231216192D 0   1.00000     0.00000     0

 21 23  0  0  0  0  0  0  0  0999 V2000
   -0.0159   -0.6797    0.0000 O   0  0  0  0  0  0  0  0  0
    0.6986   -0.2672    0.0000 C   0  0  0  0  0  0  0  0  0
    1.4131   -0.6797    0.0000 C   0  0  0  0  0  0  0  0  0
    2.1275   -0.2672    0.0000 N   0  0  0  0  0  0  0  0  0
    2.8420   -0.6797    0.0000 C   0  0  0  0  0  0  0  0  0
    3.5565   -0.2672    0.0000 C   0  0  0  0  0  0  0  0  0
    3.5565    0.5578    0.0000 C   0  0  0  0  0  0  0  0  0
    4.2709    0.9703    0.0000 C   0  0  0  0  0  0  0  0  0
    4.9854    0.5578    0.0000 C   0  0  0  0  0  0  0  0  0
    4.9854   -0.2672    0.0000 C   0  0  0  0  0  0  0  0  0
    4.2709   -0.6797    0.0000 C   0  0  0  0  0  0  0  0  0
   -0.7304   -0.2672    0.0000 C   0  0  0  0  0  0  0  0  0
   -1.4448   -0.6797    0.0000 C   0  0  0  0  0  0  0  0  0
   -1.6164   -1.4867    0.0000 C   0  0  0  0  0  0  0  0  0
   -2.4368   -1.5729    0.0000 C   0  0  0  0  0  0  0  0  0
   -2.8493   -2.2874    0.0000 O   0  0  0  0  0  0  0  0  0
   -2.7724   -0.8192    0.0000 N   0  0  0  0  0  0  0  0  0
   -2.1593   -0.2672    0.0000 C   0  0  0  0  0  0  0  0  0
   -2.1593    0.5578    0.0000 C   0  0  0  0  0  0  0  0  0
   -1.4448    0.9703    0.0000 C   0  0  0  0  0  0  0  0  0
   -0.7304    0.5578    0.0000 C   0  0  0  0  0  0  0  0  0
  1  2  1  0  0  0  0
  1 12  1  0  0  0  0
  2  3  1  0  0  0  0
  3  4  1  0  0  0  0
  4  5  1  0  0  0  0
  5  6  1  0  0  0  0
  6  7  4  0  0  0  0
  6 11  4  0  0  0  0
  7  8  4  0  0  0  0
  8  9  4  0  0  0  0
  9 10  4  0  0  0  0
 10 11  4  0  0  0  0
 12 13  4  0  0  0  0
 12 21  4  0  0  0  0
 13 14  1  0  0  0  0
 13 18  4  0  0  0  0
 14 15  1  0  0  0  0
 15 16  2  0  0  0  0
 15 17  1  0  0  0  0
 17 18  1  0  0  0  0
 18 19  4  0  0  0  0
 19 20  4  0  0  0  0
 20 21  4  0  0  0  0
M  END
>  <Name_Molregno>
95285

>  <DOPAMINE D2>
8.37

>  <DOPAMINE D3>
8.55

>  <DOPAMINE D4>
8

$$$$
95881
  Marvin  02231216192D 0   1.00000     0.00000     0

 35 39  0  0  0  0  0  0  0  0999 V2000
    0.3613   -0.8131    0.0000 Cl  0  0  0  0  0  0  0  0  0
    0.3613   -1.6381    0.0000 C   0  0  0  0  0  0  0  0  0
    1.0757   -2.0506    0.0000 C   0  0  0  0  0  0  0  0  0
    1.7902   -1.6381    0.0000 N   0  0  0  0  0  0  0  0  0
    1.7902   -0.8131    0.0000 C   0  0  0  0  0  0  0  0  0
    2.5047   -0.4006    0.0000 C   0  0  0  0  0  0  0  0  0
    3.2191   -0.8131    0.0000 N   0  0  0  0  0  0  0  0  0
    3.2191   -1.6381    0.0000 C   0  0  0  0  0  0  0  0  0
    2.5047   -2.0506    0.0000 C   0  0  0  0  0  0  0  0  0
    3.9336   -0.4006    0.0000 C   0  0  0  0  0  0  0  0  0
    4.6481   -0.8131    0.0000 C   0  0  0  0  0  0  0  0  0
    5.3626   -0.4006    0.0000 C   0  0  0  0  0  0  0  0  0
    6.0770   -0.8131    0.0000 C   0  0  0  0  0  0  0  0  0
    6.7915   -0.4006    0.0000 N   0  0  0  0  0  0  0  0  0
    7.5060   -0.8131    0.0000 C   0  0  0  0  0  0  0  0  0
    7.5060   -1.6381    0.0000 O   0  0  0  0  0  0  0  0  0
    8.2204   -0.4006    0.0000 C   0  0  0  0  0  0  0  0  0
    8.2204    0.4244    0.0000 C   0  0  0  0  0  0  0  0  0
    8.9349    0.8369    0.0000 C   0  0  0  0  0  0  0  0  0
    9.6494    0.4244    0.0000 C   0  0  0  0  0  0  0  0  0
    9.6494   -0.4006    0.0000 C   0  0  0  0  0  0  0  0  0
    8.9349   -0.8131    0.0000 C   0  0  0  0  0  0  0  0  0
    8.7634    1.6439    0.0000 C   0  0  0  0  0  0  0  0  0
    9.3154    2.2570    0.0000 O   0  0  0  0  0  0  0  0  0
    7.9429    1.7301    0.0000 C   0  0  0  0  0  0  0  0  0
    7.6073    0.9765    0.0000 C   0  0  0  0  0  0  0  0  0
    6.7869    0.8902    0.0000 C   0  0  0  0  0  0  0  0  0
    6.3019    1.5577    0.0000 C   0  0  0  0  0  0  0  0  0
    6.6375    2.3113    0.0000 C   0  0  0  0  0  0  0  0  0
    7.4580    2.3976    0.0000 C   0  0  0  0  0  0  0  0  0
    1.0757   -2.8756    0.0000 C   0  0  0  0  0  0  0  0  0
    0.3613   -3.2881    0.0000 C   0  0  0  0  0  0  0  0  0
   -0.3532   -2.8756    0.0000 C   0  0  0  0  0  0  0  0  0
   -0.3532   -2.0506    0.0000 C   0  0  0  0  0  0  0  0  0
   -1.0677   -1.6381    0.0000 Cl  0  0  0  0  0  0  0  0  0
  1  2  1  0  0  0  0
  2  3  4  0  0  0  0
  2 34  4  0  0  0  0
  3  4  1  0  0  0  0
  3 31  4  0  0  0  0
  4  5  1  0  0  0  0
  4  9  1  0  0  0  0
  5  6  1  0  0  0  0
  6  7  1  0  0  0  0
  7  8  1  0  0  0  0
  7 10  1  0  0  0  0
  8  9  1  0  0  0  0
 10 11  1  0  0  0  0
 11 12  1  0  0  0  0
 12 13  1  0  0  0  0
 13 14  1  0  0  0  0
 14 15  1  0  0  0  0
 15 16  2  0  0  0  0
 15 17  1  0  0  0  0
 17 18  4  0  0  0  0
 17 22  4  0  0  0  0
 18 19  4  0  0  0  0
 18 26  1  0  0  0  0
 19 20  4  0  0  0  0
 19 23  1  0  0  0  0
 20 21  4  0  0  0  0
 21 22  4  0  0  0  0
 23 24  2  0  0  0  0
 23 25  1  0  0  0  0
 25 26  4  0  0  0  0
 25 30  4  0  0  0  0
 26 27  4  0  0  0  0
 27 28  4  0  0  0  0
 28 29  4  0  0  0  0
 29 30  4  0  0  0  0
 31 32  4  0  0  0  0
 32 33  4  0  0  0  0
 33 34  4  0  0  0  0
 34 35  1  0  0  0  0
M  END
>  <Name_Molregno>
95881

>  <DOPAMINE D2>
7.43

>  <DOPAMINE D3>
8.36

>  <DOPAMINE D4>
5.84

$$$$
95893
  Marvin  02231216192D 0   1.00000     0.00000     0

 20 22  0  0  0  0  0  0  0  0999 V2000
   -0.0237   -0.0097    0.0000 O   0  0  0  0  0  0  0  0  0
    0.6907    0.4028    0.0000 C   0  0  0  0  0  0  0  0  0
    1.4052   -0.0097    0.0000 C   0  0  0  0  0  0  0  0  0
    2.1197    0.4028    0.0000 N   0  0  0  0  0  0  0  0  0
    2.8342   -0.0097    0.0000 C   0  0  0  0  0  0  0  0  0
    3.5486    0.4028    0.0000 C   0  0  0  0  0  0  0  0  0
    3.5486    1.2278    0.0000 C   0  0  0  0  0  0  0  0  0
    4.2631    1.6403    0.0000 C   0  0  0  0  0  0  0  0  0
    4.9776    1.2278    0.0000 C   0  0  0  0  0  0  0  0  0
    4.9776    0.4028    0.0000 C   0  0  0  0  0  0  0  0  0
    4.2631   -0.0097    0.0000 C   0  0  0  0  0  0  0  0  0
   -0.7382    0.4028    0.0000 C   0  0  0  0  0  0  0  0  0
   -1.4527   -0.0097    0.0000 C   0  0  0  0  0  0  0  0  0
   -2.1671    0.4028    0.0000 C   0  0  0  0  0  0  0  0  0
   -2.7802   -0.1493    0.0000 N   0  0  0  0  0  0  0  0  0
   -2.4447   -0.9029    0.0000 C   0  0  0  0  0  0  0  0  0
   -1.6242   -0.8167    0.0000 C   0  0  0  0  0  0  0  0  0
   -2.1671    1.2278    0.0000 C   0  0  0  0  0  0  0  0  0
   -1.4527    1.6403    0.0000 C   0  0  0  0  0  0  0  0  0
   -0.7382    1.2278    0.0000 C   0  0  0  0  0  0  0  0  0
  1  2  1  0  0  0  0
  1 12  1  0  0  0  0
  2  3  1  0  0  0  0
  3  4  1  0  0  0  0
  4  5  1  0  0  0  0
  5  6  1  0  0  0  0
  6  7  4  0  0  0  0
  6 11  4  0  0  0  0
  7  8  4  0  0  0  0
  8  9  4  0  0  0  0
  9 10  4  0  0  0  0
 10 11  4  0  0  0  0
 12 13  4  0  0  0  0
 12 20  4  0  0  0  0
 13 14  4  0  0  0  0
 13 17  4  0  0  0  0
 14 15  4  0  0  0  0
 14 18  4  0  0  0  0
 15 16  4  0  0  0  0
 16 17  4  0  0  0  0
 18 19  4  0  0  0  0
 19 20  4  0  0  0  0
M  STY  1   1 DAT
M  SAL   1  1  15
M  SDT   1 MRV_IMPLICIT_H                                        
M  SDD   1     0.0000    0.0000    DR    ALL  0       0  
M  SED   1 IMPL_H1
M  END
>  <Name_Molregno>
95893

>  <DOPAMINE D2>
7.09

>  <DOPAMINE D3>
7.71

>  <DOPAMINE D4>
6.64

$$$$
95917
  Marvin  02231216192D 0   1.00000     0.00000     0

 34 38  0  0  0  0  0  0  0  0999 V2000
   -0.1357    0.0002    0.0000 Cl  0  0  0  0  0  0  0  0  0
   -0.1357   -0.8248    0.0000 C   0  0  0  0  0  0  0  0  0
    0.5788   -1.2373    0.0000 C   0  0  0  0  0  0  0  0  0
    1.2932   -0.8248    0.0000 N   0  0  0  0  0  0  0  0  0
    1.2932    0.0002    0.0000 C   0  0  0  0  0  0  0  0  0
    2.0077    0.4127    0.0000 C   0  0  0  0  0  0  0  0  0
    2.7222    0.0002    0.0000 N   0  0  0  0  0  0  0  0  0
    2.7222   -0.8248    0.0000 C   0  0  0  0  0  0  0  0  0
    2.0077   -1.2373    0.0000 C   0  0  0  0  0  0  0  0  0
    3.4366    0.4127    0.0000 C   0  0  0  0  0  0  0  0  0
    4.1511    0.0002    0.0000 C   0  0  0  0  0  0  0  0  0
    4.8656    0.4127    0.0000 C   0  0  0  0  0  0  0  0  0
    5.5800    0.0002    0.0000 C   0  0  0  0  0  0  0  0  0
    6.2945    0.4127    0.0000 N   0  0  0  0  0  0  0  0  0
    7.0090    0.0002    0.0000 C   0  0  0  0  0  0  0  0  0
    7.0090   -0.8248    0.0000 O   0  0  0  0  0  0  0  0  0
    7.7235    0.4127    0.0000 C   0  0  0  0  0  0  0  0  0
    8.4379    0.0002    0.0000 C   0  0  0  0  0  0  0  0  0
    9.1524    0.4127    0.0000 C   0  0  0  0  0  0  0  0  0
    9.9370    0.1578    0.0000 C   0  0  0  0  0  0  0  0  0
   10.4219    0.8252    0.0000 C   0  0  0  0  0  0  0  0  0
    9.9370    1.4927    0.0000 C   0  0  0  0  0  0  0  0  0
    9.1524    1.2377    0.0000 C   0  0  0  0  0  0  0  0  0
    8.4379    1.6502    0.0000 C   0  0  0  0  0  0  0  0  0
    7.7235    1.2377    0.0000 C   0  0  0  0  0  0  0  0  0
   10.2726    2.2464    0.0000 C   0  0  0  0  0  0  0  0  0
   11.0931    2.3326    0.0000 C   0  0  0  0  0  0  0  0  0
   11.5780    1.6652    0.0000 C   0  0  0  0  0  0  0  0  0
   11.2424    0.9115    0.0000 C   0  0  0  0  0  0  0  0  0
    0.5788   -2.0623    0.0000 C   0  0  0  0  0  0  0  0  0
   -0.1357   -2.4748    0.0000 C   0  0  0  0  0  0  0  0  0
   -0.8502   -2.0623    0.0000 C   0  0  0  0  0  0  0  0  0
   -0.8502   -1.2373    0.0000 C   0  0  0  0  0  0  0  0  0
   -1.5647   -0.8248    0.0000 Cl  0  0  0  0  0  0  0  0  0
  1  2  1  0  0  0  0
  2  3  4  0  0  0  0
  2 33  4  0  0  0  0
  3  4  1  0  0  0  0
  3 30  4  0  0  0  0
  4  5  1  0  0  0  0
  4  9  1  0  0  0  0
  5  6  1  0  0  0  0
  6  7  1  0  0  0  0
  7  8  1  0  0  0  0
  7 10  1  0  0  0  0
  8  9  1  0  0  0  0
 10 11  1  0  0  0  0
 11 12  1  0  0  0  0
 12 13  1  0  0  0  0
 13 14  1  0  0  0  0
 14 15  1  0  0  0  0
 15 16  2  0  0  0  0
 15 17  1  0  0  0  0
 17 18  4  0  0  0  0
 17 25  4  0  0  0  0
 18 19  4  0  0  0  0
 19 20  1  0  0  0  0
 19 23  4  0  0  0  0
 20 21  1  0  0  0  0
 21 22  4  0  0  0  0
 21 29  4  0  0  0  0
 22 23  1  0  0  0  0
 22 26  4  0  0  0  0
 23 24  4  0  0  0  0
 24 25  4  0  0  0  0
 26 27  4  0  0  0  0
 27 28  4  0  0  0  0
 28 29  4  0  0  0  0
 30 31  4  0  0  0  0
 31 32  4  0  0  0  0
 32 33  4  0  0  0  0
 33 34  1  0  0  0  0
M  END
>  <Name_Molregno>
95917

>  <5-HT1A>
5.69

>  <5-HT2A>
6.17

>  <5-HT2C>
6.39

>  <DOPAMINE D2>
6.75

>  <DOPAMINE D3>
8.69

>  <DOPAMINE D4>
5.3

$$$$
96185
  Marvin  02231216192D 0   1.00000     0.00000     0

 18 19  0  0  0  0  0  0  0  0999 V2000
   -0.0286   -1.1714    0.0000 O   0  0  0  0  0  0  0  0  0
    0.6859   -0.7589    0.0000 C   0  0  0  0  0  0  0  0  0
    1.4003   -1.1714    0.0000 C   0  0  0  0  0  0  0  0  0
    2.1148   -0.7589    0.0000 N   0  0  0  0  0  0  0  0  0
    2.8293   -1.1714    0.0000 C   0  0  0  0  0  0  0  0  0
    3.5437   -0.7589    0.0000 C   0  0  0  0  0  0  0  0  0
    3.5437    0.0661    0.0000 C   0  0  0  0  0  0  0  0  0
    4.2582    0.4786    0.0000 C   0  0  0  0  0  0  0  0  0
    4.9727    0.0661    0.0000 C   0  0  0  0  0  0  0  0  0
    4.9727   -0.7589    0.0000 C   0  0  0  0  0  0  0  0  0
    4.2582   -1.1714    0.0000 C   0  0  0  0  0  0  0  0  0
   -0.7431   -0.7589    0.0000 C   0  0  0  0  0  0  0  0  0
   -1.4576   -1.1714    0.0000 C   0  0  0  0  0  0  0  0  0
   -2.1720   -0.7589    0.0000 C   0  0  0  0  0  0  0  0  0
   -2.8865   -1.1714    0.0000 O   0  0  0  0  0  0  0  0  0
   -2.1720    0.0661    0.0000 C   0  0  0  0  0  0  0  0  0
   -1.4576    0.4786    0.0000 C   0  0  0  0  0  0  0  0  0
   -0.7431    0.0661    0.0000 C   0  0  0  0  0  0  0  0  0
  1  2  1  0  0  0  0
  1 12  1  0  0  0  0
  2  3  1  0  0  0  0
  3  4  1  0  0  0  0
  4  5  1  0  0  0  0
  5  6  1  0  0  0  0
  6  7  4  0  0  0  0
  6 11  4  0  0  0  0
  7  8  4  0  0  0  0
  8  9  4  0  0  0  0
  9 10  4  0  0  0  0
 10 11  4  0  0  0  0
 12 13  4  0  0  0  0
 12 18  4  0  0  0  0
 13 14  4  0  0  0  0
 14 15  1  0  0  0  0
 14 16  4  0  0  0  0
 16 17  4  0  0  0  0
 17 18  4  0  0  0  0
M  END
>  <Name_Molregno>
96185

>  <DOPAMINE D2>
7.12

>  <DOPAMINE D3>
7.96

>  <DOPAMINE D4>
7.09

$$$$
96326
  Marvin  02231216192D 0   1.00000     0.00000     0

 33 36  0  0  0  0  0  0  0  0999 V2000
   -9.9587   -0.0242    0.0000 Cl  0  0  0  0  0  0  0  0  0
   -9.9587   -0.8492    0.0000 C   0  0  0  0  0  0  0  0  0
   -9.2442   -1.2617    0.0000 C   0  0  0  0  0  0  0  0  0
   -8.5297   -0.8492    0.0000 N   0  0  0  0  0  0  0  0  0
   -8.5297   -0.0242    0.0000 C   0  0  0  0  0  0  0  0  0
   -7.8152    0.3883    0.0000 C   0  0  0  0  0  0  0  0  0
   -7.1008   -0.0242    0.0000 N   0  0  0  0  0  0  0  0  0
   -7.1008   -0.8492    0.0000 C   0  0  0  0  0  0  0  0  0
   -7.8152   -1.2617    0.0000 C   0  0  0  0  0  0  0  0  0
   -6.3863    0.3883    0.0000 C   0  0  0  0  0  0  0  0  0
   -5.6718   -0.0242    0.0000 C   0  0  0  0  0  0  0  0  0
   -4.9574    0.3883    0.0000 C   0  0  0  0  0  0  0  0  0
   -4.2429   -0.0242    0.0000 C   0  0  0  0  0  0  0  0  0
   -3.5284    0.3883    0.0000 N   0  0  0  0  0  0  0  0  0
   -2.8139   -0.0242    0.0000 C   0  0  0  0  0  0  0  0  0
   -2.8139   -0.8492    0.0000 O   0  0  0  0  0  0  0  0  0
   -2.0995    0.3883    0.0000 C   0  0  0  0  0  0  0  0  0
   -2.0995    1.2133    0.0000 C   0  0  0  0  0  0  0  0  0
   -1.3850    1.6258    0.0000 C   0  0  0  0  0  0  0  0  0
   -0.6705    1.2133    0.0000 C   0  0  0  0  0  0  0  0  0
   -0.6705    0.3883    0.0000 C   0  0  0  0  0  0  0  0  0
   -1.3850   -0.0242    0.0000 C   0  0  0  0  0  0  0  0  0
    0.0439    1.6258    0.0000 C   0  0  0  0  0  0  0  0  0
    0.0439    2.4508    0.0000 C   0  0  0  0  0  0  0  0  0
    0.7584    2.8633    0.0000 C   0  0  0  0  0  0  0  0  0
    1.4729    2.4508    0.0000 C   0  0  0  0  0  0  0  0  0
    1.4729    1.6258    0.0000 C   0  0  0  0  0  0  0  0  0
    0.7584    1.2133    0.0000 C   0  0  0  0  0  0  0  0  0
   -9.2442   -2.0867    0.0000 C   0  0  0  0  0  0  0  0  0
   -9.9587   -2.4992    0.0000 C   0  0  0  0  0  0  0  0  0
  -10.6731   -2.0867    0.0000 C   0  0  0  0  0  0  0  0  0
  -10.6731   -1.2617    0.0000 C   0  0  0  0  0  0  0  0  0
  -11.3876   -0.8492    0.0000 Cl  0  0  0  0  0  0  0  0  0
  1  2  1  0  0  0  0
  2  3  4  0  0  0  0
  2 32  4  0  0  0  0
  3  4  1  0  0  0  0
  3 29  4  0  0  0  0
  4  5  1  0  0  0  0
  4  9  1  0  0  0  0
  5  6  1  0  0  0  0
  6  7  1  0  0  0  0
  7  8  1  0  0  0  0
  7 10  1  0  0  0  0
  8  9  1  0  0  0  0
 10 11  1  0  0  0  0
 11 12  1  0  0  0  0
 12 13  1  0  0  0  0
 13 14  1  0  0  0  0
 14 15  1  0  0  0  0
 15 16  2  0  0  0  0
 15 17  1  0  0  0  0
 17 18  4  0  0  0  0
 17 22  4  0  0  0  0
 18 19  4  0  0  0  0
 19 20  4  0  0  0  0
 20 21  4  0  0  0  0
 20 23  1  0  0  0  0
 21 22  4  0  0  0  0
 23 24  4  0  0  0  0
 23 28  4  0  0  0  0
 24 25  4  0  0  0  0
 25 26  4  0  0  0  0
 26 27  4  0  0  0  0
 27 28  4  0  0  0  0
 29 30  4  0  0  0  0
 30 31  4  0  0  0  0
 31 32  4  0  0  0  0
 32 33  1  0  0  0  0
M  END
>  <Name_Molregno>
96326

>  <DOPAMINE D3>
8.7

$$$$
96693
  Marvin  02231216192D 0   1.00000     0.00000     0

 30 33  0  0  0  0  0  0  0  0999 V2000
   -0.1145    0.0206    0.0000 Cl  0  0  0  0  0  0  0  0  0
   -0.1145   -0.8044    0.0000 C   0  0  0  0  0  0  0  0  0
    0.6000   -1.2169    0.0000 C   0  0  0  0  0  0  0  0  0
    1.3144   -0.8044    0.0000 N   0  0  0  0  0  0  0  0  0
    1.3144    0.0206    0.0000 C   0  0  0  0  0  0  0  0  0
    2.0289    0.4331    0.0000 C   0  0  0  0  0  0  0  0  0
    2.7434    0.0206    0.0000 N   0  0  0  0  0  0  0  0  0
    2.7434   -0.8044    0.0000 C   0  0  0  0  0  0  0  0  0
    2.0289   -1.2169    0.0000 C   0  0  0  0  0  0  0  0  0
    3.4579    0.4331    0.0000 C   0  0  0  0  0  0  0  0  0
    4.1723    0.0206    0.0000 C   0  0  0  0  0  0  0  0  0
    4.8868    0.4331    0.0000 C   0  0  0  0  0  0  0  0  0
    5.6013    0.0206    0.0000 C   0  0  0  0  0  0  0  0  0
    6.3157    0.4331    0.0000 N   0  0  0  0  0  0  0  0  0
    7.0302    0.0206    0.0000 C   0  0  0  0  0  0  0  0  0
    7.0302   -0.8044    0.0000 O   0  0  0  0  0  0  0  0  0
    7.7447    0.4331    0.0000 C   0  0  0  0  0  0  0  0  0
    8.4984    0.0976    0.0000 S   0  0  0  0  0  0  0  0  0
    9.0504    0.7107    0.0000 C   0  0  0  0  0  0  0  0  0
    8.6379    1.4251    0.0000 C   0  0  0  0  0  0  0  0  0
    7.8309    1.2536    0.0000 C   0  0  0  0  0  0  0  0  0
    9.0504    2.1396    0.0000 C   0  0  0  0  0  0  0  0  0
    9.8754    2.1396    0.0000 C   0  0  0  0  0  0  0  0  0
   10.2879    1.4251    0.0000 C   0  0  0  0  0  0  0  0  0
    9.8754    0.7107    0.0000 C   0  0  0  0  0  0  0  0  0
    0.6000   -2.0419    0.0000 C   0  0  0  0  0  0  0  0  0
   -0.1145   -2.4544    0.0000 C   0  0  0  0  0  0  0  0  0
   -0.8290   -2.0419    0.0000 C   0  0  0  0  0  0  0  0  0
   -0.8290   -1.2169    0.0000 C   0  0  0  0  0  0  0  0  0
   -1.5434   -0.8044    0.0000 Cl  0  0  0  0  0  0  0  0  0
  1  2  1  0  0  0  0
  2  3  4  0  0  0  0
  2 29  4  0  0  0  0
  3  4  1  0  0  0  0
  3 26  4  0  0  0  0
  4  5  1  0  0  0  0
  4  9  1  0  0  0  0
  5  6  1  0  0  0  0
  6  7  1  0  0  0  0
  7  8  1  0  0  0  0
  7 10  1  0  0  0  0
  8  9  1  0  0  0  0
 10 11  1  0  0  0  0
 11 12  1  0  0  0  0
 12 13  1  0  0  0  0
 13 14  1  0  0  0  0
 14 15  1  0  0  0  0
 15 16  2  0  0  0  0
 15 17  1  0  0  0  0
 17 18  4  0  0  0  0
 17 21  4  0  0  0  0
 18 19  4  0  0  0  0
 19 20  4  0  0  0  0
 19 25  4  0  0  0  0
 20 21  4  0  0  0  0
 20 22  4  0  0  0  0
 22 23  4  0  0  0  0
 23 24  4  0  0  0  0
 24 25  4  0  0  0  0
 26 27  4  0  0  0  0
 27 28  4  0  0  0  0
 28 29  4  0  0  0  0
 29 30  1  0  0  0  0
M  END
>  <Name_Molregno>
96693

>  <DOPAMINE D2>
6.08

>  <DOPAMINE D3>
9.15

>  <DOPAMINE D4>
6.28

$$$$
96947
  Marvin  02231216192D 0   1.00000     0.00000     0

 23 26  0  0  1  0  0  0  0  0999 V2000
    3.9671    1.6854    0.0000 Cl  0  0  0  0  0  0  0  0  0
    3.1788    1.4422    0.0000 C   0  0  0  0  0  0  0  0  0
    2.5740    2.0033    0.0000 C   0  0  0  0  0  0  0  0  0
    1.7856    1.7602    0.0000 C   0  0  0  0  0  0  0  0  0
    1.6021    0.9558    0.0000 C   0  0  0  0  0  0  0  0  0
    0.8588    0.5979    0.0000 S   0  0  0  0  0  0  0  0  0
    0.1155    0.9558    0.0000 C   0  0  0  0  0  0  0  0  0
   -0.0681    1.7602    0.0000 C   0  0  0  0  0  0  0  0  0
    0.4463    2.4052    0.0000 C   0  0  0  0  0  0  0  0  0
    1.2713    2.4052    0.0000 C   0  0  0  0  0  0  0  0  0
    1.6292    3.1485    0.0000 N   0  0  0  0  0  0  0  0  0
    1.1645    3.8301    0.0000 C   0  0  0  0  0  0  0  0  0
    1.5224    4.5734    0.0000 C   0  0  0  0  0  0  0  0  0
    2.3451    4.6351    0.0000 N   0  0  0  0  0  0  0  0  0
    2.8099    3.9534    0.0000 C   0  0  0  0  0  0  0  0  0
    2.4519    3.2101    0.0000 C   0  0  0  0  0  0  0  0  0
    2.7031    5.3784    0.0000 C   0  0  0  0  0  0  0  0  0
   -0.8565    2.0033    0.0000 C   0  0  0  0  0  0  0  0  0
   -1.4612    1.4422    0.0000 C   0  0  0  0  0  0  0  0  0
   -1.2776    0.6379    0.0000 C   0  0  0  0  0  0  0  0  0
   -0.4893    0.3947    0.0000 C   0  0  0  0  0  0  0  0  0
    2.2068    0.3947    0.0000 C   0  0  0  0  0  0  0  0  0
    2.9952    0.6379    0.0000 C   0  0  0  0  0  0  0  0  0
  1  2  1  0  0  0  0
  2  3  4  0  0  0  0
  2 23  4  0  0  0  0
  3  4  4  0  0  0  0
  4  5  4  0  0  0  0
  4 10  1  0  0  0  0
  5  6  1  0  0  0  0
  5 22  4  0  0  0  0
  6  7  1  0  0  0  0
  7  8  4  0  0  0  0
  7 21  4  0  0  0  0
  8  9  1  0  0  0  0
  8 18  4  0  0  0  0
  9 10  1  0  0  0  0
 10 11  1  0  0  0  0
 11 12  1  0  0  0  0
 11 16  1  0  0  0  0
 12 13  1  0  0  0  0
 13 14  1  0  0  0  0
 14 15  1  0  0  0  0
 14 17  1  0  0  0  0
 15 16  1  0  0  0  0
 18 19  4  0  0  0  0
 19 20  4  0  0  0  0
 20 21  4  0  0  0  0
 22 23  4  0  0  0  0
M  END
>  <Name_Molregno>
96947

>  <5-HT6>
8.21

>  <DOPAMINE D2>
9.42

>  <DOPAMINE D3>
9.38

>  <DOPAMINE D4>
9.4

$$$$
99837
  Marvin  02231216192D 0   1.00000     0.00000     0

 34 38  0  0  1  0  0  0  0  0999 V2000
   -0.1197    4.2005    0.0000 O   0  0  0  0  0  0  0  0  0
    0.7053    4.2005    0.0000 C   0  0  0  0  0  0  0  0  0
    1.1178    3.4860    0.0000 C   0  0  0  0  0  0  0  0  0
    0.7053    2.7715    0.0000 C   0  0  0  0  0  0  0  0  0
   -0.1197    2.7715    0.0000 C   0  0  0  0  0  0  0  0  0
   -0.5322    2.0571    0.0000 C   0  0  0  0  0  0  0  0  0
   -1.3572    2.0571    0.0000 C   0  0  0  0  0  0  0  0  0
   -1.7697    2.7715    0.0000 C   0  0  0  0  0  0  0  0  0
   -1.3572    3.4860    0.0000 C   0  0  0  0  0  0  0  0  0
   -0.5322    3.4860    0.0000 C   0  0  0  0  0  0  0  0  0
   -1.7697    1.3426    0.0000 C   0  0  0  0  0  0  0  0  0
   -2.1822    0.6281    0.0000 N   0  0  0  0  0  0  0  0  0
    1.2573    2.1584    0.0000 C   0  0  0  0  0  0  0  0  0
    2.0110    2.4940    0.0000 N   0  0  0  0  0  0  0  0  0
    1.9247    3.3145    0.0000 C   0  0  0  0  0  0  0  0  0
    2.7254    2.0815    0.0000 C   0  0  0  0  0  0  0  0  0
    3.4399    2.4940    0.0000 C   0  0  0  0  0  0  0  0  0
    4.1544    2.0815    0.0000 C   0  0  0  0  0  0  0  0  0
    4.8689    2.4940    0.0000 C   0  0  0  0  0  0  0  0  0
    5.5833    2.0815    0.0000 N   0  0  0  0  0  0  0  0  0
    6.2978    2.4940    0.0000 C   0  0  0  0  0  0  0  0  0
    6.2978    3.3190    0.0000 O   0  0  0  0  0  0  0  0  0
    7.0123    2.0815    0.0000 C   0  0  0  0  0  0  0  0  0
    7.7267    2.4940    0.0000 C   0  0  0  0  0  0  0  0  0
    8.4412    2.0815    0.0000 C   0  0  0  0  0  0  0  0  0
    8.4412    1.2565    0.0000 C   0  0  0  0  0  0  0  0  0
    7.7267    0.8440    0.0000 C   0  0  0  0  0  0  0  0  0
    7.0123    1.2565    0.0000 C   0  0  0  0  0  0  0  0  0
    9.1557    0.8440    0.0000 C   0  0  0  0  0  0  0  0  0
    9.8702    1.2565    0.0000 C   0  0  0  0  0  0  0  0  0
   10.5846    0.8440    0.0000 C   0  0  0  0  0  0  0  0  0
   10.5846    0.0190    0.0000 C   0  0  0  0  0  0  0  0  0
    9.8702   -0.3935    0.0000 C   0  0  0  0  0  0  0  0  0
    9.1557    0.0190    0.0000 C   0  0  0  0  0  0  0  0  0
  1  2  1  0  0  0  0
  1 10  1  0  0  0  0
  2  3  1  0  0  0  0
  3  4  1  0  0  0  0
  3 15  1  0  0  0  0
  4  5  1  0  0  0  0
  4 13  1  0  0  0  0
  5  6  4  0  0  0  0
  5 10  4  0  0  0  0
  6  7  4  0  0  0  0
  7  8  4  0  0  0  0
  7 11  1  0  0  0  0
  8  9  4  0  0  0  0
  9 10  4  0  0  0  0
 11 12  3  0  0  0  0
 13 14  1  0  0  0  0
 14 15  1  0  0  0  0
 14 16  1  0  0  0  0
 16 17  1  0  0  0  0
 17 18  1  0  0  0  0
 18 19  1  0  0  0  0
 19 20  1  0  0  0  0
 20 21  1  0  0  0  0
 21 22  2  0  0  0  0
 21 23  1  0  0  0  0
 23 24  4  0  0  0  0
 23 28  4  0  0  0  0
 24 25  4  0  0  0  0
 25 26  4  0  0  0  0
 26 27  4  0  0  0  0
 26 29  1  0  0  0  0
 27 28  4  0  0  0  0
 29 30  4  0  0  0  0
 29 34  4  0  0  0  0
 30 31  4  0  0  0  0
 31 32  4  0  0  0  0
 32 33  4  0  0  0  0
 33 34  4  0  0  0  0
M  END
>  <Name_Molregno>
99837

>  <DOPAMINE D3>
8.6

$$$$
100867
  Marvin  02231216192D 0   1.00000     0.00000     0

 22 25  0  0  0  0  0  0  0  0999 V2000
    0.1405   -0.4939    0.0000 N   0  0  0  0  0  0  0  0  0
    0.3912   -1.2799    0.0000 C   0  0  0  0  0  0  0  0  0
    1.1431   -1.6195    0.0000 C   0  0  0  0  0  0  0  0  0
    1.8131   -1.1381    0.0000 C   0  0  0  0  0  0  0  0  0
    2.5650   -1.4777    0.0000 C   0  0  0  0  0  0  0  0  0
    2.6469   -2.2986    0.0000 C   0  0  0  0  0  0  0  0  0
    1.9769   -2.7800    0.0000 C   0  0  0  0  0  0  0  0  0
    1.2250   -2.4404    0.0000 N   0  0  0  0  0  0  0  0  0
    0.5550   -2.9218    0.0000 C   0  0  0  0  0  0  0  0  0
   -0.1969   -2.5822    0.0000 C   0  0  0  0  0  0  0  0  0
   -0.2788   -1.7613    0.0000 C   0  0  0  0  0  0  0  0  0
   -0.9436   -1.2728    0.0000 C   0  0  0  0  0  0  0  0  0
   -0.6845   -0.4895    0.0000 C   0  0  0  0  0  0  0  0  0
   -1.2333    0.1265    0.0000 C   0  0  0  0  0  0  0  0  0
   -2.0411   -0.0407    0.0000 C   0  0  0  0  0  0  0  0  0
   -2.3002   -0.8240    0.0000 C   0  0  0  0  0  0  0  0  0
   -1.7515   -1.4400    0.0000 C   0  0  0  0  0  0  0  0  0
    0.6762   -1.8244    0.0000 C   0  0  0  0  0  0  0  0  0
    3.2350   -0.9963    0.0000 C   0  0  0  0  0  0  0  0  0
    3.1532   -0.1754    0.0000 C   0  0  0  0  0  0  0  0  0
    2.4013    0.1642    0.0000 C   0  0  0  0  0  0  0  0  0
    1.7313   -0.3172    0.0000 C   0  0  0  0  0  0  0  0  0
  1  2  4  0  0  0  0
  1 13  4  0  0  0  0
  2  3  1  0  0  0  0
  2 11  4  0  0  0  0
  3  4  1  0  0  0  0
  4  5  4  0  0  0  0
  4 22  4  0  0  0  0
  5  6  1  0  0  0  0
  5 19  4  0  0  0  0
  6  7  1  0  0  0  0
  7  8  1  0  0  0  0
  8  9  1  0  0  0  0
  8 18  1  0  0  0  0
  9 10  1  0  0  0  0
 10 11  1  0  0  0  0
 11 12  4  0  0  0  0
 12 13  4  0  0  0  0
 12 17  4  0  0  0  0
 13 14  4  0  0  0  0
 14 15  4  0  0  0  0
 15 16  4  0  0  0  0
 16 17  4  0  0  0  0
 19 20  4  0  0  0  0
 20 21  4  0  0  0  0
 21 22  4  0  0  0  0
M  STY  1   1 DAT
M  SAL   1  1   1
M  SDT   1 MRV_IMPLICIT_H                                        
M  SDD   1     0.0000    0.0000    DR    ALL  0       0  
M  SED   1 IMPL_H1
M  END
>  <Name_Molregno>
100867

>  <DOPAMINE D1>
8.22

>  <DOPAMINE D2>
7.48

>  <DOPAMINE D3>
7.49

>  <DOPAMINE D4>
6.97

>  <DOPAMINE D5>
8.03

$$$$
103973
  Marvin  02231216192D 0   1.00000     0.00000     0

 26 29  0  0  1  0  0  0  0  0999 V2000
    0.1761    1.2045    0.0000 F   0  0  0  0  0  0  0  0  0
    0.8906    0.7920    0.0000 C   0  0  0  0  0  0  0  0  0
    1.6050    1.2045    0.0000 C   0  0  0  0  0  0  0  0  0
    2.3195    0.7920    0.0000 C   0  0  0  0  0  0  0  0  0
    2.3195   -0.0330    0.0000 C   0  0  0  0  0  0  0  0  0
    3.0340   -0.4455    0.0000 O   0  0  0  0  0  0  0  0  0
    3.7484   -0.0330    0.0000 C   0  0  0  0  0  0  0  0  0
    4.4629   -0.4455    0.0000 C   0  0  0  0  0  0  0  0  0
    4.4629   -1.2705    0.0000 C   0  0  0  0  0  0  0  0  0
    5.1774   -1.6830    0.0000 C   0  0  0  0  0  0  0  0  0
    5.8919   -1.2705    0.0000 C   0  0  0  0  0  0  0  0  0
    5.8919   -0.4455    0.0000 N   0  0  0  0  0  0  0  0  0
    5.1774   -0.0330    0.0000 C   0  0  0  0  0  0  0  0  0
    6.6063   -0.0330    0.0000 C   0  0  0  0  0  0  0  0  0
    7.3208   -0.4455    0.0000 C   0  0  0  0  0  0  0  0  0
    7.3208   -1.2705    0.0000 N   0  0  0  0  0  0  0  0  0
    6.6063   -1.6830    0.0000 C   0  0  0  0  0  0  0  0  0
    8.0353   -1.6830    0.0000 C   0  0  0  0  0  0  0  0  0
    8.7497   -1.2705    0.0000 N   0  0  0  0  0  0  0  0  0
    9.4642   -1.6830    0.0000 C   0  0  0  0  0  0  0  0  0
    9.4642   -2.5080    0.0000 C   0  0  0  0  0  0  0  0  0
   10.1787   -2.9205    0.0000 F   0  0  0  0  0  0  0  0  0
    8.7497   -2.9205    0.0000 C   0  0  0  0  0  0  0  0  0
    8.0353   -2.5080    0.0000 N   0  0  0  0  0  0  0  0  0
    1.6050   -0.4455    0.0000 C   0  0  0  0  0  0  0  0  0
    0.8906   -0.0330    0.0000 C   0  0  0  0  0  0  0  0  0
  1  2  1  0  0  0  0
  2  3  4  0  0  0  0
  2 26  4  0  0  0  0
  3  4  4  0  0  0  0
  4  5  4  0  0  0  0
  5  6  1  0  0  0  0
  5 25  4  0  0  0  0
  6  7  1  0  0  0  0
  7  8  1  0  0  0  0
  8  9  1  0  0  0  0
  8 13  1  0  0  0  0
  9 10  1  0  0  0  0
 10 11  1  0  0  0  0
 11 12  1  0  0  0  0
 11 17  1  0  0  0  0
 12 13  1  0  0  0  0
 12 14  1  0  0  0  0
 14 15  1  0  0  0  0
 15 16  1  0  0  0  0
 16 17  1  0  0  0  0
 16 18  1  0  0  0  0
 18 19  4  0  0  0  0
 18 24  4  0  0  0  0
 19 20  4  0  0  0  0
 20 21  4  0  0  0  0
 21 22  1  0  0  0  0
 21 23  4  0  0  0  0
 23 24  4  0  0  0  0
 25 26  4  0  0  0  0
M  END
>  <Name_Molregno>
103973

>  <DOPAMINE D3>
5.7

$$$$
108550
  Marvin  02231216192D 0   1.00000     0.00000     0

 22 24  0  0  1  0  0  0  0  0999 V2000
   -0.1275   -1.8100    0.0000 F   0  0  0  0  0  0  0  0  0
    0.5870   -2.2225    0.0000 C   0  0  0  0  0  0  0  0  0
    1.3015   -1.8100    0.0000 C   0  0  0  0  0  0  0  0  0
    1.3015   -0.9850    0.0000 C   0  0  0  0  0  0  0  0  0
    2.0159   -0.5725    0.0000 C   0  0  0  0  0  0  0  0  0
    2.7304   -0.9850    0.0000 C   0  0  0  0  0  0  0  0  0
    3.4449   -0.5725    0.0000 N   0  0  0  0  0  0  0  0  0
    3.4449    0.2525    0.0000 C   0  0  0  0  0  0  0  0  0
    4.1594    0.6650    0.0000 C   0  0  0  0  0  0  0  0  0
    4.1594    1.4900    0.0000 C   0  0  0  0  0  0  0  0  0
    4.8738    1.9025    0.0000 C   0  0  0  0  0  0  0  0  0
    5.5883    1.4900    0.0000 C   0  0  0  0  0  0  0  0  0
    5.5883    0.6650    0.0000 C   0  0  0  0  0  0  0  0  0
    4.8738    0.2525    0.0000 C   0  0  0  0  0  0  0  0  0
    4.1594   -0.9850    0.0000 C   0  0  0  0  0  0  0  0  0
    4.8738   -0.5725    0.0000 C   0  0  0  0  0  0  0  0  0
    5.5883   -0.9850    0.0000 C   0  0  0  0  0  0  0  0  0
    2.7304   -1.8100    0.0000 C   0  0  0  0  0  0  0  0  0
    2.0159   -2.2225    0.0000 C   0  0  0  0  0  0  0  0  0
    2.0159   -3.0475    0.0000 C   0  0  0  0  0  0  0  0  0
    1.3015   -3.4600    0.0000 C   0  0  0  0  0  0  0  0  0
    0.5870   -3.0475    0.0000 C   0  0  0  0  0  0  0  0  0
  1  2  1  0  0  0  0
  2  3  4  0  0  0  0
  2 22  4  0  0  0  0
  3  4  1  0  0  0  0
  3 19  4  0  0  0  0
  4  5  1  0  0  0  0
  5  6  1  0  0  0  0
  6  7  1  0  0  0  0
  6 18  1  0  0  0  0
  7  8  1  0  0  0  0
  7 15  1  0  0  0  0
  8  9  1  0  0  0  0
  9 10  4  0  0  0  0
  9 14  4  0  0  0  0
 10 11  4  0  0  0  0
 11 12  4  0  0  0  0
 12 13  4  0  0  0  0
 13 14  4  0  0  0  0
 15 16  1  0  0  0  0
 16 17  1  0  0  0  0
 18 19  1  0  0  0  0
 19 20  4  0  0  0  0
 20 21  4  0  0  0  0
 21 22  4  0  0  0  0
M  END
>  <Name_Molregno>
108550

>  <DOPAMINE D2>
6.5

>  <DOPAMINE D3>
7.62

$$$$
108663
  Marvin  02231216192D 0   1.00000     0.00000     0

 18 19  0  0  1  0  0  0  0  0999 V2000
    1.6714   -3.4629    0.0000 F   0  0  0  0  0  0  0  0  0
    2.3859   -3.0504    0.0000 C   0  0  0  0  0  0  0  0  0
    2.3859   -2.2254    0.0000 C   0  0  0  0  0  0  0  0  0
    1.6714   -1.8129    0.0000 C   0  0  0  0  0  0  0  0  0
    1.6714   -0.9879    0.0000 C   0  0  0  0  0  0  0  0  0
    2.3859   -0.5754    0.0000 C   0  0  0  0  0  0  0  0  0
    2.3859    0.2496    0.0000 N   0  0  0  0  0  0  0  0  0
    1.6714    0.6621    0.0000 C   0  0  0  0  0  0  0  0  0
    1.6714    1.4871    0.0000 C   0  0  0  0  0  0  0  0  0
    0.9569    1.8996    0.0000 C   0  0  0  0  0  0  0  0  0
    3.1003    0.6621    0.0000 C   0  0  0  0  0  0  0  0  0
    3.1003    1.4871    0.0000 C   0  0  0  0  0  0  0  0  0
    3.8148    1.8996    0.0000 C   0  0  0  0  0  0  0  0  0
    3.1003   -0.9879    0.0000 C   0  0  0  0  0  0  0  0  0
    3.1003   -1.8129    0.0000 C   0  0  0  0  0  0  0  0  0
    3.8148   -2.2254    0.0000 C   0  0  0  0  0  0  0  0  0
    3.8148   -3.0504    0.0000 C   0  0  0  0  0  0  0  0  0
    3.1003   -3.4629    0.0000 C   0  0  0  0  0  0  0  0  0
  1  2  1  0  0  0  0
  2  3  4  0  0  0  0
  2 18  4  0  0  0  0
  3  4  1  0  0  0  0
  3 15  4  0  0  0  0
  4  5  1  0  0  0  0
  5  6  1  0  0  0  0
  6  7  1  0  0  0  0
  6 14  1  0  0  0  0
  7  8  1  0  0  0  0
  7 11  1  0  0  0  0
  8  9  1  0  0  0  0
  9 10  1  0  0  0  0
 11 12  1  0  0  0  0
 12 13  1  0  0  0  0
 14 15  1  0  0  0  0
 15 16  4  0  0  0  0
 16 17  4  0  0  0  0
 17 18  4  0  0  0  0
M  END
>  <Name_Molregno>
108663

>  <DOPAMINE D2>
7

>  <DOPAMINE D3>
8.06

$$$$
109480
  Marvin  02231216192D 0   1.00000     0.00000     0

 18 20  0  0  1  0  0  0  0  0999 V2000
    0.9583   -2.1118    0.0000 O   0  0  0  0  0  0  0  0  0
    0.5458   -1.3973    0.0000 C   0  0  0  0  0  0  0  0  0
    0.9583   -0.6829    0.0000 C   0  0  0  0  0  0  0  0  0
    1.7833   -0.6829    0.0000 N   0  0  0  0  0  0  0  0  0
    2.1958   -1.3973    0.0000 C   0  0  0  0  0  0  0  0  0
    1.7833   -2.1118    0.0000 C   0  0  0  0  0  0  0  0  0
    2.1958    0.0316    0.0000 C   0  0  0  0  0  0  0  0  0
    3.0208    0.0316    0.0000 C   0  0  0  0  0  0  0  0  0
    3.4333    0.7461    0.0000 C   0  0  0  0  0  0  0  0  0
    0.5458    0.0316    0.0000 C   0  0  0  0  0  0  0  0  0
   -0.2792    0.0316    0.0000 O   0  0  0  0  0  0  0  0  0
   -0.6917   -0.6829    0.0000 C   0  0  0  0  0  0  0  0  0
   -0.2792   -1.3973    0.0000 C   0  0  0  0  0  0  0  0  0
   -0.6917   -2.1118    0.0000 C   0  0  0  0  0  0  0  0  0
   -1.5167   -2.1118    0.0000 C   0  0  0  0  0  0  0  0  0
   -1.9292   -2.8263    0.0000 O   0  0  0  0  0  0  0  0  0
   -1.9292   -1.3973    0.0000 C   0  0  0  0  0  0  0  0  0
   -1.5167   -0.6829    0.0000 C   0  0  0  0  0  0  0  0  0
  1  2  1  0  0  0  0
  1  6  1  0  0  0  0
  2  3  1  0  0  0  0
  2 13  1  0  0  0  0
  3  4  1  0  0  0  0
  3 10  1  0  0  0  0
  4  5  1  0  0  0  0
  4  7  1  0  0  0  0
  5  6  1  0  0  0  0
  7  8  1  0  0  0  0
  8  9  1  0  0  0  0
 10 11  1  0  0  0  0
 11 12  1  0  0  0  0
 12 13  4  0  0  0  0
 12 18  4  0  0  0  0
 13 14  4  0  0  0  0
 14 15  4  0  0  0  0
 15 16  1  0  0  0  0
 15 17  4  0  0  0  0
 17 18  4  0  0  0  0
M  END
>  <Name_Molregno>
109480

>  <DOPAMINE D3>
6.96

$$$$
109514
  Marvin  02231216192D 0   1.00000     0.00000     0

 18 20  0  0  1  0  0  0  0  0999 V2000
    0.9583   -2.1118    0.0000 O   0  0  0  0  0  0  0  0  0
    0.5458   -1.3973    0.0000 C   0  0  0  0  0  0  0  0  0
    0.9583   -0.6829    0.0000 C   0  0  0  0  0  0  0  0  0
    1.7833   -0.6829    0.0000 N   0  0  0  0  0  0  0  0  0
    2.1958   -1.3973    0.0000 C   0  0  0  0  0  0  0  0  0
    1.7833   -2.1118    0.0000 C   0  0  0  0  0  0  0  0  0
    2.1958    0.0316    0.0000 C   0  0  0  0  0  0  0  0  0
    3.0208    0.0316    0.0000 C   0  0  0  0  0  0  0  0  0
    3.4333    0.7461    0.0000 C   0  0  0  0  0  0  0  0  0
    0.5458    0.0316    0.0000 C   0  0  0  0  0  0  0  0  0
   -0.2792    0.0316    0.0000 C   0  0  0  0  0  0  0  0  0
   -0.6917   -0.6829    0.0000 C   0  0  0  0  0  0  0  0  0
   -0.2792   -1.3973    0.0000 C   0  0  0  0  0  0  0  0  0
   -0.6917   -2.1118    0.0000 C   0  0  0  0  0  0  0  0  0
   -1.5167   -2.1118    0.0000 C   0  0  0  0  0  0  0  0  0
   -1.9292   -2.8263    0.0000 O   0  0  0  0  0  0  0  0  0
   -1.9292   -1.3973    0.0000 C   0  0  0  0  0  0  0  0  0
   -1.5167   -0.6829    0.0000 C   0  0  0  0  0  0  0  0  0
  1  2  1  0  0  0  0
  1  6  1  0  0  0  0
  2  3  1  0  0  0  0
  2 13  1  0  0  0  0
  3  4  1  0  0  0  0
  3 10  1  0  0  0  0
  4  5  1  0  0  0  0
  4  7  1  0  0  0  0
  5  6  1  0  0  0  0
  7  8  1  0  0  0  0
  8  9  1  0  0  0  0
 10 11  1  0  0  0  0
 11 12  1  0  0  0  0
 12 13  4  0  0  0  0
 12 18  4  0  0  0  0
 13 14  4  0  0  0  0
 14 15  4  0  0  0  0
 15 16  1  0  0  0  0
 15 17  4  0  0  0  0
 17 18  4  0  0  0  0
M  END
>  <Name_Molregno>
109514

>  <DOPAMINE D2>
6.97

>  <DOPAMINE D3>
9.74

>  <DOPAMINE D4>
6.15

$$$$
109812
  Marvin  02231216192D 0   1.00000     0.00000     0

 31 34  0  0  0  0  0  0  0  0999 V2000
   -0.1193    0.0402    0.0000 Cl  0  0  0  0  0  0  0  0  0
   -0.1193   -0.7848    0.0000 C   0  0  0  0  0  0  0  0  0
    0.5952   -1.1973    0.0000 C   0  0  0  0  0  0  0  0  0
    1.3096   -0.7848    0.0000 N   0  0  0  0  0  0  0  0  0
    1.3096    0.0402    0.0000 C   0  0  0  0  0  0  0  0  0
    2.0241    0.4527    0.0000 C   0  0  0  0  0  0  0  0  0
    2.7386    0.0402    0.0000 N   0  0  0  0  0  0  0  0  0
    2.7386   -0.7848    0.0000 C   0  0  0  0  0  0  0  0  0
    2.0241   -1.1973    0.0000 C   0  0  0  0  0  0  0  0  0
    3.4530    0.4527    0.0000 C   0  0  0  0  0  0  0  0  0
    4.1675    0.0402    0.0000 C   0  0  0  0  0  0  0  0  0
    4.8820    0.4527    0.0000 C   0  0  0  0  0  0  0  0  0
    5.5965    0.0402    0.0000 C   0  0  0  0  0  0  0  0  0
    6.3109    0.4527    0.0000 N   0  0  0  0  0  0  0  0  0
    7.0254    0.0402    0.0000 C   0  0  0  0  0  0  0  0  0
    7.0254   -0.7848    0.0000 O   0  0  0  0  0  0  0  0  0
    7.7399    0.4527    0.0000 C   0  0  0  0  0  0  0  0  0
    8.4543    0.0402    0.0000 N   0  0  0  0  0  0  0  0  0
    9.1688    0.4527    0.0000 C   0  0  0  0  0  0  0  0  0
    9.1688    1.2777    0.0000 C   0  0  0  0  0  0  0  0  0
    8.4543    1.6902    0.0000 N   0  0  0  0  0  0  0  0  0
    7.7399    1.2777    0.0000 C   0  0  0  0  0  0  0  0  0
    9.8833    1.6902    0.0000 C   0  0  0  0  0  0  0  0  0
   10.5977    1.2777    0.0000 C   0  0  0  0  0  0  0  0  0
   10.5977    0.4527    0.0000 C   0  0  0  0  0  0  0  0  0
    9.8833    0.0402    0.0000 C   0  0  0  0  0  0  0  0  0
    0.5952   -2.0223    0.0000 C   0  0  0  0  0  0  0  0  0
   -0.1193   -2.4348    0.0000 C   0  0  0  0  0  0  0  0  0
   -0.8338   -2.0223    0.0000 C   0  0  0  0  0  0  0  0  0
   -0.8338   -1.1973    0.0000 C   0  0  0  0  0  0  0  0  0
   -1.5483   -0.7848    0.0000 Cl  0  0  0  0  0  0  0  0  0
  1  2  1  0  0  0  0
  2  3  4  0  0  0  0
  2 30  4  0  0  0  0
  3  4  1  0  0  0  0
  3 27  4  0  0  0  0
  4  5  1  0  0  0  0
  4  9  1  0  0  0  0
  5  6  1  0  0  0  0
  6  7  1  0  0  0  0
  7  8  1  0  0  0  0
  7 10  1  0  0  0  0
  8  9  1  0  0  0  0
 10 11  1  0  0  0  0
 11 12  1  0  0  0  0
 12 13  1  0  0  0  0
 13 14  1  0  0  0  0
 14 15  1  0  0  0  0
 15 16  2  0  0  0  0
 15 17  1  0  0  0  0
 17 18  4  0  0  0  0
 17 22  4  0  0  0  0
 18 19  4  0  0  0  0
 19 20  4  0  0  0  0
 19 26  4  0  0  0  0
 20 21  4  0  0  0  0
 20 23  4  0  0  0  0
 21 22  4  0  0  0  0
 23 24  4  0  0  0  0
 24 25  4  0  0  0  0
 25 26  4  0  0  0  0
 27 28  4  0  0  0  0
 28 29  4  0  0  0  0
 29 30  4  0  0  0  0
 30 31  1  0  0  0  0
M  END
>  <Name_Molregno>
109812

>  <DOPAMINE D2>
7.43

>  <DOPAMINE D3>
8.56

$$$$
109813
  Marvin  02231216192D 0   1.00000     0.00000     0

 28 30  0  0  0  0  0  0  0  0999 V2000
    0.1862    2.7269    0.0000 I   0  0  0  0  0  0  0  0  0
    0.9007    2.3144    0.0000 C   0  0  0  0  0  0  0  0  0
    1.6152    2.7269    0.0000 C   0  0  0  0  0  0  0  0  0
    2.3296    2.3144    0.0000 C   0  0  0  0  0  0  0  0  0
    2.3296    1.4894    0.0000 C   0  0  0  0  0  0  0  0  0
    1.6152    1.0769    0.0000 C   0  0  0  0  0  0  0  0  0
    0.9007    1.4894    0.0000 C   0  0  0  0  0  0  0  0  0
    3.0441    1.0769    0.0000 C   0  0  0  0  0  0  0  0  0
    3.0441    0.2519    0.0000 O   0  0  0  0  0  0  0  0  0
    3.7586    1.4894    0.0000 N   0  0  0  0  0  0  0  0  0
    4.4730    1.0769    0.0000 C   0  0  0  0  0  0  0  0  0
    5.1875    1.4894    0.0000 C   0  0  0  0  0  0  0  0  0
    5.9020    1.0769    0.0000 C   0  0  0  0  0  0  0  0  0
    6.6165    1.4894    0.0000 C   0  0  0  0  0  0  0  0  0
    7.3309    1.0769    0.0000 N   0  0  0  0  0  0  0  0  0
    8.0454    1.4894    0.0000 C   0  0  0  0  0  0  0  0  0
    8.7599    1.0769    0.0000 C   0  0  0  0  0  0  0  0  0
    8.7599    0.2519    0.0000 N   0  0  0  0  0  0  0  0  0
    8.0454   -0.1606    0.0000 C   0  0  0  0  0  0  0  0  0
    7.3309    0.2519    0.0000 C   0  0  0  0  0  0  0  0  0
    9.4743   -0.1606    0.0000 C   0  0  0  0  0  0  0  0  0
   10.1888    0.2519    0.0000 C   0  0  0  0  0  0  0  0  0
   10.9033   -0.1606    0.0000 C   0  0  0  0  0  0  0  0  0
   10.9033   -0.9856    0.0000 C   0  0  0  0  0  0  0  0  0
   10.1888   -1.3981    0.0000 C   0  0  0  0  0  0  0  0  0
   10.1888   -2.2231    0.0000 Cl  0  0  0  0  0  0  0  0  0
    9.4743   -0.9856    0.0000 C   0  0  0  0  0  0  0  0  0
    8.7599   -1.3981    0.0000 Cl  0  0  0  0  0  0  0  0  0
  1  2  1  0  0  0  0
  2  3  4  0  0  0  0
  2  7  4  0  0  0  0
  3  4  4  0  0  0  0
  4  5  4  0  0  0  0
  5  6  4  0  0  0  0
  5  8  1  0  0  0  0
  6  7  4  0  0  0  0
  8  9  2  0  0  0  0
  8 10  1  0  0  0  0
 10 11  1  0  0  0  0
 11 12  1  0  0  0  0
 12 13  1  0  0  0  0
 13 14  1  0  0  0  0
 14 15  1  0  0  0  0
 15 16  1  0  0  0  0
 15 20  1  0  0  0  0
 16 17  1  0  0  0  0
 17 18  1  0  0  0  0
 18 19  1  0  0  0  0
 18 21  1  0  0  0  0
 19 20  1  0  0  0  0
 21 22  4  0  0  0  0
 21 27  4  0  0  0  0
 22 23  4  0  0  0  0
 23 24  4  0  0  0  0
 24 25  4  0  0  0  0
 25 26  1  0  0  0  0
 25 27  4  0  0  0  0
 27 28  1  0  0  0  0
M  END
>  <Name_Molregno>
109813

>  <DOPAMINE D2>
7.37

>  <DOPAMINE D3>
8.71

$$$$
110193
  Marvin  02231216192D 0   1.00000     0.00000     0

 34 38  0  0  0  0  0  0  0  0999 V2000
    7.9156   -3.6933    0.0000 Cl  0  0  0  0  0  0  0  0  0
    8.1705   -2.9087    0.0000 C   0  0  0  0  0  0  0  0  0
    7.6185   -2.2956    0.0000 C   0  0  0  0  0  0  0  0  0
    6.8115   -2.4671    0.0000 N   0  0  0  0  0  0  0  0  0
    6.5566   -3.2518    0.0000 C   0  0  0  0  0  0  0  0  0
    5.7496   -3.4233    0.0000 C   0  0  0  0  0  0  0  0  0
    5.1976   -2.8102    0.0000 N   0  0  0  0  0  0  0  0  0
    5.4525   -2.0256    0.0000 C   0  0  0  0  0  0  0  0  0
    6.2595   -1.8540    0.0000 C   0  0  0  0  0  0  0  0  0
    4.3906   -2.9817    0.0000 C   0  0  0  0  0  0  0  0  0
    3.8386   -2.3686    0.0000 C   0  0  0  0  0  0  0  0  0
    4.0935   -1.5840    0.0000 C   0  0  0  0  0  0  0  0  0
    3.5415   -0.9709    0.0000 C   0  0  0  0  0  0  0  0  0
    3.7964   -0.1863    0.0000 N   0  0  0  0  0  0  0  0  0
    3.2444    0.4268    0.0000 C   0  0  0  0  0  0  0  0  0
    2.4374    0.2553    0.0000 O   0  0  0  0  0  0  0  0  0
    3.4993    1.2114    0.0000 C   0  0  0  0  0  0  0  0  0
    2.9473    1.8245    0.0000 C   0  0  0  0  0  0  0  0  0
    3.2022    2.6091    0.0000 C   0  0  0  0  0  0  0  0  0
    2.5348    3.0941    0.0000 C   0  0  0  0  0  0  0  0  0
    1.8674    2.6091    0.0000 C   0  0  0  0  0  0  0  0  0
    2.1223    1.8245    0.0000 C   0  0  0  0  0  0  0  0  0
    1.5703    1.2114    0.0000 C   0  0  0  0  0  0  0  0  0
    0.7633    1.3830    0.0000 C   0  0  0  0  0  0  0  0  0
    0.5084    2.1676    0.0000 C   0  0  0  0  0  0  0  0  0
    1.0604    2.7807    0.0000 C   0  0  0  0  0  0  0  0  0
    4.0092    2.7807    0.0000 C   0  0  0  0  0  0  0  0  0
    4.5612    2.1676    0.0000 C   0  0  0  0  0  0  0  0  0
    4.3063    1.3830    0.0000 C   0  0  0  0  0  0  0  0  0
    7.8734   -1.5110    0.0000 C   0  0  0  0  0  0  0  0  0
    8.6804   -1.3395    0.0000 C   0  0  0  0  0  0  0  0  0
    9.2325   -1.9526    0.0000 C   0  0  0  0  0  0  0  0  0
    8.9775   -2.7372    0.0000 C   0  0  0  0  0  0  0  0  0
    9.5295   -3.3503    0.0000 Cl  0  0  0  0  0  0  0  0  0
  1  2  1  0  0  0  0
  2  3  4  0  0  0  0
  2 33  4  0  0  0  0
  3  4  1  0  0  0  0
  3 30  4  0  0  0  0
  4  5  1  0  0  0  0
  4  9  1  0  0  0  0
  5  6  1  0  0  0  0
  6  7  1  0  0  0  0
  7  8  1  0  0  0  0
  7 10  1  0  0  0  0
  8  9  1  0  0  0  0
 10 11  1  0  0  0  0
 11 12  2  0  0  0  0
 12 13  1  0  0  0  0
 13 14  1  0  0  0  0
 14 15  1  0  0  0  0
 15 16  2  0  0  0  0
 15 17  1  0  0  0  0
 17 18  4  0  0  0  0
 17 29  4  0  0  0  0
 18 19  4  0  0  0  0
 18 22  1  0  0  0  0
 19 20  1  0  0  0  0
 19 27  4  0  0  0  0
 20 21  1  0  0  0  0
 21 22  4  0  0  0  0
 21 26  4  0  0  0  0
 22 23  4  0  0  0  0
 23 24  4  0  0  0  0
 24 25  4  0  0  0  0
 25 26  4  0  0  0  0
 27 28  4  0  0  0  0
 28 29  4  0  0  0  0
 30 31  4  0  0  0  0
 31 32  4  0  0  0  0
 32 33  4  0  0  0  0
 33 34  1  0  0  0  0
M  END
>  <Name_Molregno>
110193

>  <DOPAMINE D2>
6.1

>  <DOPAMINE D3>
7.64

>  <DOPAMINE D4>
6.44

$$$$
110260
  Marvin  02231216192D 0   1.00000     0.00000     0

 33 36  0  0  0  0  0  0  0  0999 V2000
   -9.9587   -0.0242    0.0000 Cl  0  0  0  0  0  0  0  0  0
   -9.9587   -0.8492    0.0000 C   0  0  0  0  0  0  0  0  0
   -9.2442   -1.2617    0.0000 C   0  0  0  0  0  0  0  0  0
   -8.5297   -0.8492    0.0000 N   0  0  0  0  0  0  0  0  0
   -8.5297   -0.0242    0.0000 C   0  0  0  0  0  0  0  0  0
   -7.8152    0.3883    0.0000 C   0  0  0  0  0  0  0  0  0
   -7.1008   -0.0242    0.0000 N   0  0  0  0  0  0  0  0  0
   -7.1008   -0.8492    0.0000 C   0  0  0  0  0  0  0  0  0
   -7.8152   -1.2617    0.0000 C   0  0  0  0  0  0  0  0  0
   -6.3863    0.3883    0.0000 C   0  0  0  0  0  0  0  0  0
   -5.6718   -0.0242    0.0000 C   0  0  0  0  0  0  0  0  0
   -4.9574    0.3883    0.0000 C   0  0  0  0  0  0  0  0  0
   -4.2429   -0.0242    0.0000 C   0  0  0  0  0  0  0  0  0
   -3.5284    0.3883    0.0000 N   0  0  0  0  0  0  0  0  0
   -2.8139   -0.0242    0.0000 C   0  0  0  0  0  0  0  0  0
   -2.8139   -0.8492    0.0000 O   0  0  0  0  0  0  0  0  0
   -2.0995    0.3883    0.0000 C   0  0  0  0  0  0  0  0  0
   -2.0995    1.2133    0.0000 C   0  0  0  0  0  0  0  0  0
   -1.3850    1.6258    0.0000 C   0  0  0  0  0  0  0  0  0
   -0.6705    1.2133    0.0000 C   0  0  0  0  0  0  0  0  0
   -0.6705    0.3883    0.0000 C   0  0  0  0  0  0  0  0  0
   -1.3850   -0.0242    0.0000 C   0  0  0  0  0  0  0  0  0
    0.0439    1.6258    0.0000 C   0  0  0  0  0  0  0  0  0
    0.0439    2.4508    0.0000 N   0  0  0  0  0  0  0  0  0
    0.7584    2.8633    0.0000 C   0  0  0  0  0  0  0  0  0
    1.4729    2.4508    0.0000 C   0  0  0  0  0  0  0  0  0
    1.4729    1.6258    0.0000 C   0  0  0  0  0  0  0  0  0
    0.7584    1.2133    0.0000 C   0  0  0  0  0  0  0  0  0
   -9.2442   -2.0867    0.0000 C   0  0  0  0  0  0  0  0  0
   -9.9587   -2.4992    0.0000 C   0  0  0  0  0  0  0  0  0
  -10.6731   -2.0867    0.0000 C   0  0  0  0  0  0  0  0  0
  -10.6731   -1.2617    0.0000 C   0  0  0  0  0  0  0  0  0
  -11.3876   -0.8492    0.0000 Cl  0  0  0  0  0  0  0  0  0
  1  2  1  0  0  0  0
  2  3  4  0  0  0  0
  2 32  4  0  0  0  0
  3  4  1  0  0  0  0
  3 29  4  0  0  0  0
  4  5  1  0  0  0  0
  4  9  1  0  0  0  0
  5  6  1  0  0  0  0
  6  7  1  0  0  0  0
  7  8  1  0  0  0  0
  7 10  1  0  0  0  0
  8  9  1  0  0  0  0
 10 11  1  0  0  0  0
 11 12  1  0  0  0  0
 12 13  1  0  0  0  0
 13 14  1  0  0  0  0
 14 15  1  0  0  0  0
 15 16  2  0  0  0  0
 15 17  1  0  0  0  0
 17 18  4  0  0  0  0
 17 22  4  0  0  0  0
 18 19  4  0  0  0  0
 19 20  4  0  0  0  0
 20 21  4  0  0  0  0
 20 23  1  0  0  0  0
 21 22  4  0  0  0  0
 23 24  4  0  0  0  0
 23 28  4  0  0  0  0
 24 25  4  0  0  0  0
 25 26  4  0  0  0  0
 26 27  4  0  0  0  0
 27 28  4  0  0  0  0
 29 30  4  0  0  0  0
 30 31  4  0  0  0  0
 31 32  4  0  0  0  0
 32 33  1  0  0  0  0
M  END
>  <Name_Molregno>
110260

>  <5-HT1A>
7.63

>  <5-HT2A>
7.64

>  <5-HT2C>
7.28

>  <DOPAMINE D2>
7.51

>  <DOPAMINE D3>
9.16

$$$$
110323
  Marvin  02231216192D 0   1.00000     0.00000     0

 27 29  0  0  0  0  0  0  0  0999 V2000
   -6.6473    1.4022    0.0000 Cl  0  0  0  0  0  0  0  0  0
   -6.6473    0.5772    0.0000 C   0  0  0  0  0  0  0  0  0
   -5.9328    0.1647    0.0000 C   0  0  0  0  0  0  0  0  0
   -5.2183    0.5772    0.0000 N   0  0  0  0  0  0  0  0  0
   -5.2183    1.4022    0.0000 C   0  0  0  0  0  0  0  0  0
   -4.5039    1.8147    0.0000 C   0  0  0  0  0  0  0  0  0
   -3.7894    1.4022    0.0000 N   0  0  0  0  0  0  0  0  0
   -3.7894    0.5772    0.0000 C   0  0  0  0  0  0  0  0  0
   -4.5039    0.1647    0.0000 C   0  0  0  0  0  0  0  0  0
   -3.0749    1.8147    0.0000 C   0  0  0  0  0  0  0  0  0
   -2.3605    1.4022    0.0000 C   0  0  0  0  0  0  0  0  0
   -2.3605    0.5772    0.0000 C   0  0  0  0  0  0  0  0  0
   -1.6460    0.1647    0.0000 C   0  0  0  0  0  0  0  0  0
   -1.6460   -0.6603    0.0000 N   0  0  0  0  0  0  0  0  0
   -0.9315   -1.0728    0.0000 C   0  0  0  0  0  0  0  0  0
   -0.2170   -0.6603    0.0000 O   0  0  0  0  0  0  0  0  0
   -0.9315   -1.8978    0.0000 C   0  0  0  0  0  0  0  0  0
   -0.2170   -2.3103    0.0000 C   0  0  0  0  0  0  0  0  0
   -0.2170   -3.1353    0.0000 C   0  0  0  0  0  0  0  0  0
   -0.9315   -3.5478    0.0000 C   0  0  0  0  0  0  0  0  0
   -1.6460   -3.1353    0.0000 C   0  0  0  0  0  0  0  0  0
   -1.6460   -2.3103    0.0000 C   0  0  0  0  0  0  0  0  0
   -5.9328   -0.6603    0.0000 C   0  0  0  0  0  0  0  0  0
   -6.6473   -1.0728    0.0000 C   0  0  0  0  0  0  0  0  0
   -7.3618   -0.6603    0.0000 C   0  0  0  0  0  0  0  0  0
   -7.3618    0.1647    0.0000 C   0  0  0  0  0  0  0  0  0
   -8.0762    0.5772    0.0000 Cl  0  0  0  0  0  0  0  0  0
  1  2  1  0  0  0  0
  2  3  4  0  0  0  0
  2 26  4  0  0  0  0
  3  4  1  0  0  0  0
  3 23  4  0  0  0  0
  4  5  1  0  0  0  0
  4  9  1  0  0  0  0
  5  6  1  0  0  0  0
  6  7  1  0  0  0  0
  7  8  1  0  0  0  0
  7 10  1  0  0  0  0
  8  9  1  0  0  0  0
 10 11  1  0  0  0  0
 11 12  2  0  0  0  0
 12 13  1  0  0  0  0
 13 14  1  0  0  0  0
 14 15  1  0  0  0  0
 15 16  2  0  0  0  0
 15 17  1  0  0  0  0
 17 18  4  0  0  0  0
 17 22  4  0  0  0  0
 18 19  4  0  0  0  0
 19 20  4  0  0  0  0
 20 21  4  0  0  0  0
 21 22  4  0  0  0  0
 23 24  4  0  0  0  0
 24 25  4  0  0  0  0
 25 26  4  0  0  0  0
 26 27  1  0  0  0  0
M  END
>  <Name_Molregno>
110323

>  <DOPAMINE D2>
8.23

>  <DOPAMINE D3>
8.88

$$$$
110358
  Marvin  02231216192D 0   1.00000     0.00000     0

 34 38  0  0  0  0  0  0  0  0999 V2000
    3.1957   -3.8270    0.0000 Cl  0  0  0  0  0  0  0  0  0
    4.0027   -3.6555    0.0000 C   0  0  0  0  0  0  0  0  0
    4.2577   -2.8709    0.0000 C   0  0  0  0  0  0  0  0  0
    3.7056   -2.2578    0.0000 N   0  0  0  0  0  0  0  0  0
    2.8986   -2.4293    0.0000 C   0  0  0  0  0  0  0  0  0
    2.3466   -1.8162    0.0000 C   0  0  0  0  0  0  0  0  0
    2.6016   -1.0316    0.0000 N   0  0  0  0  0  0  0  0  0
    3.4085   -0.8601    0.0000 C   0  0  0  0  0  0  0  0  0
    3.9606   -1.4732    0.0000 C   0  0  0  0  0  0  0  0  0
    2.0495   -0.4185    0.0000 C   0  0  0  0  0  0  0  0  0
    2.3045    0.3661    0.0000 C   0  0  0  0  0  0  0  0  0
    3.1114    0.5377    0.0000 C   0  0  0  0  0  0  0  0  0
    3.3664    1.3223    0.0000 C   0  0  0  0  0  0  0  0  0
    4.1733    1.4938    0.0000 N   0  0  0  0  0  0  0  0  0
    4.4283    2.2784    0.0000 C   0  0  0  0  0  0  0  0  0
    3.8763    2.8915    0.0000 O   0  0  0  0  0  0  0  0  0
    5.2353    2.4500    0.0000 C   0  0  0  0  0  0  0  0  0
    5.7873    1.8369    0.0000 C   0  0  0  0  0  0  0  0  0
    6.5943    2.0084    0.0000 C   0  0  0  0  0  0  0  0  0
    7.2617    1.5235    0.0000 C   0  0  0  0  0  0  0  0  0
    7.9291    2.0084    0.0000 C   0  0  0  0  0  0  0  0  0
    7.6742    2.7930    0.0000 C   0  0  0  0  0  0  0  0  0
    6.8492    2.7930    0.0000 C   0  0  0  0  0  0  0  0  0
    6.2972    3.4061    0.0000 C   0  0  0  0  0  0  0  0  0
    5.4902    3.2346    0.0000 C   0  0  0  0  0  0  0  0  0
    8.2262    3.4061    0.0000 C   0  0  0  0  0  0  0  0  0
    9.0332    3.2346    0.0000 C   0  0  0  0  0  0  0  0  0
    9.2881    2.4500    0.0000 C   0  0  0  0  0  0  0  0  0
    8.7361    1.8369    0.0000 C   0  0  0  0  0  0  0  0  0
    5.0646   -2.6993    0.0000 C   0  0  0  0  0  0  0  0  0
    5.6167   -3.3124    0.0000 C   0  0  0  0  0  0  0  0  0
    5.3617   -4.0971    0.0000 C   0  0  0  0  0  0  0  0  0
    4.5547   -4.2686    0.0000 C   0  0  0  0  0  0  0  0  0
    4.2998   -5.0532    0.0000 Cl  0  0  0  0  0  0  0  0  0
  1  2  1  0  0  0  0
  2  3  4  0  0  0  0
  2 33  4  0  0  0  0
  3  4  1  0  0  0  0
  3 30  4  0  0  0  0
  4  5  1  0  0  0  0
  4  9  1  0  0  0  0
  5  6  1  0  0  0  0
  6  7  1  0  0  0  0
  7  8  1  0  0  0  0
  7 10  1  0  0  0  0
  8  9  1  0  0  0  0
 10 11  1  0  0  0  0
 11 12  2  0  0  0  0
 12 13  1  0  0  0  0
 13 14  1  0  0  0  0
 14 15  1  0  0  0  0
 15 16  2  0  0  0  0
 15 17  1  0  0  0  0
 17 18  4  0  0  0  0
 17 25  4  0  0  0  0
 18 19  4  0  0  0  0
 19 20  1  0  0  0  0
 19 23  4  0  0  0  0
 20 21  1  0  0  0  0
 21 22  4  0  0  0  0
 21 29  4  0  0  0  0
 22 23  1  0  0  0  0
 22 26  4  0  0  0  0
 23 24  4  0  0  0  0
 24 25  4  0  0  0  0
 26 27  4  0  0  0  0
 27 28  4  0  0  0  0
 28 29  4  0  0  0  0
 30 31  4  0  0  0  0
 31 32  4  0  0  0  0
 32 33  4  0  0  0  0
 33 34  1  0  0  0  0
M  END
>  <Name_Molregno>
110358

>  <5-HT1A>
6.03

>  <5-HT2A>
6.48

>  <5-HT2C>
6.88

>  <DOPAMINE D2>
6.33

>  <DOPAMINE D3>
8.69

>  <DOPAMINE D4>
5.99

$$$$
110604
  Marvin  02231216192D 0   1.00000     0.00000     0

 31 34  0  0  0  0  0  0  0  0999 V2000
   -9.1328   -0.0153    0.0000 Cl  0  0  0  0  0  0  0  0  0
   -9.1328   -0.8403    0.0000 C   0  0  0  0  0  0  0  0  0
   -8.4184   -1.2528    0.0000 C   0  0  0  0  0  0  0  0  0
   -7.7039   -0.8403    0.0000 N   0  0  0  0  0  0  0  0  0
   -7.7039   -0.0153    0.0000 C   0  0  0  0  0  0  0  0  0
   -6.9894    0.3972    0.0000 C   0  0  0  0  0  0  0  0  0
   -6.2749   -0.0153    0.0000 N   0  0  0  0  0  0  0  0  0
   -6.2749   -0.8403    0.0000 C   0  0  0  0  0  0  0  0  0
   -6.9894   -1.2528    0.0000 C   0  0  0  0  0  0  0  0  0
   -5.5605    0.3972    0.0000 C   0  0  0  0  0  0  0  0  0
   -4.8460   -0.0153    0.0000 C   0  0  0  0  0  0  0  0  0
   -4.1315    0.3972    0.0000 C   0  0  0  0  0  0  0  0  0
   -3.4171   -0.0153    0.0000 C   0  0  0  0  0  0  0  0  0
   -2.7026    0.3972    0.0000 N   0  0  0  0  0  0  0  0  0
   -1.9881   -0.0153    0.0000 C   0  0  0  0  0  0  0  0  0
   -1.9881   -0.8403    0.0000 O   0  0  0  0  0  0  0  0  0
   -1.2736    0.3972    0.0000 C   0  0  0  0  0  0  0  0  0
   -0.5200    0.0616    0.0000 N   0  0  0  0  0  0  0  0  0
    0.0321    0.6747    0.0000 C   0  0  0  0  0  0  0  0  0
   -0.3804    1.3892    0.0000 C   0  0  0  0  0  0  0  0  0
   -1.1874    1.2177    0.0000 C   0  0  0  0  0  0  0  0  0
    0.0321    2.1037    0.0000 C   0  0  0  0  0  0  0  0  0
    0.8571    2.1037    0.0000 C   0  0  0  0  0  0  0  0  0
    1.2696    2.8181    0.0000 F   0  0  0  0  0  0  0  0  0
    1.2696    1.3892    0.0000 C   0  0  0  0  0  0  0  0  0
    0.8571    0.6747    0.0000 C   0  0  0  0  0  0  0  0  0
   -8.4184   -2.0778    0.0000 C   0  0  0  0  0  0  0  0  0
   -9.1328   -2.4903    0.0000 C   0  0  0  0  0  0  0  0  0
   -9.8473   -2.0778    0.0000 C   0  0  0  0  0  0  0  0  0
   -9.8473   -1.2528    0.0000 C   0  0  0  0  0  0  0  0  0
  -10.5618   -0.8403    0.0000 Cl  0  0  0  0  0  0  0  0  0
  1  2  1  0  0  0  0
  2  3  4  0  0  0  0
  2 30  4  0  0  0  0
  3  4  1  0  0  0  0
  3 27  4  0  0  0  0
  4  5  1  0  0  0  0
  4  9  1  0  0  0  0
  5  6  1  0  0  0  0
  6  7  1  0  0  0  0
  7  8  1  0  0  0  0
  7 10  1  0  0  0  0
  8  9  1  0  0  0  0
 10 11  1  0  0  0  0
 11 12  1  0  0  0  0
 12 13  1  0  0  0  0
 13 14  1  0  0  0  0
 14 15  1  0  0  0  0
 15 16  2  0  0  0  0
 15 17  1  0  0  0  0
 17 18  4  0  0  0  0
 17 21  4  0  0  0  0
 18 19  4  0  0  0  0
 19 20  4  0  0  0  0
 19 26  4  0  0  0  0
 20 21  4  0  0  0  0
 20 22  4  0  0  0  0
 22 23  4  0  0  0  0
 23 24  1  0  0  0  0
 23 25  4  0  0  0  0
 25 26  4  0  0  0  0
 27 28  4  0  0  0  0
 28 29  4  0  0  0  0
 29 30  4  0  0  0  0
 30 31  1  0  0  0  0
M  STY  1   1 DAT
M  SAL   1  1  18
M  SDT   1 MRV_IMPLICIT_H                                        
M  SDD   1     0.0000    0.0000    DR    ALL  0       0  
M  SED   1 IMPL_H1
M  END
>  <Name_Molregno>
110604

>  <DOPAMINE D3>
9.28

$$$$
111616
  Marvin  02231216192D 0   1.00000     0.00000     0

 22 25  0  0  0  0  0  0  0  0999 V2000
   -0.1703   -0.4720    0.0000 N   0  0  0  0  0  0  0  0  0
    0.6143   -0.2171    0.0000 C   0  0  0  0  0  0  0  0  0
    0.6143    0.6079    0.0000 C   0  0  0  0  0  0  0  0  0
   -0.1703    0.8629    0.0000 N   0  0  0  0  0  0  0  0  0
   -0.6552    0.1954    0.0000 C   0  0  0  0  0  0  0  0  0
   -1.4802    0.1954    0.0000 C   0  0  0  0  0  0  0  0  0
   -1.8927   -0.5190    0.0000 C   0  0  0  0  0  0  0  0  0
   -2.7177   -0.5190    0.0000 C   0  0  0  0  0  0  0  0  0
   -3.1302    0.1954    0.0000 N   0  0  0  0  0  0  0  0  0
   -2.7177    0.9099    0.0000 C   0  0  0  0  0  0  0  0  0
   -1.8927    0.9099    0.0000 C   0  0  0  0  0  0  0  0  0
   -3.9552    0.1954    0.0000 C   0  0  0  0  0  0  0  0  0
   -4.3677    0.9099    0.0000 C   0  0  0  0  0  0  0  0  0
   -5.1927    0.9099    0.0000 C   0  0  0  0  0  0  0  0  0
   -5.6052    1.6244    0.0000 C   0  0  0  0  0  0  0  0  0
   -5.1927    2.3388    0.0000 C   0  0  0  0  0  0  0  0  0
   -4.3677    2.3388    0.0000 C   0  0  0  0  0  0  0  0  0
   -3.9552    1.6244    0.0000 C   0  0  0  0  0  0  0  0  0
    1.3288    1.0204    0.0000 C   0  0  0  0  0  0  0  0  0
    2.0433    0.6079    0.0000 C   0  0  0  0  0  0  0  0  0
    2.0433   -0.2171    0.0000 C   0  0  0  0  0  0  0  0  0
    1.3288   -0.6296    0.0000 C   0  0  0  0  0  0  0  0  0
  1  2  4  0  0  0  0
  1  5  4  0  0  0  0
  2  3  4  0  0  0  0
  2 22  4  0  0  0  0
  3  4  4  0  0  0  0
  3 19  4  0  0  0  0
  4  5  4  0  0  0  0
  5  6  1  0  0  0  0
  6  7  1  0  0  0  0
  6 11  2  0  0  0  0
  7  8  1  0  0  0  0
  8  9  1  0  0  0  0
  9 10  1  0  0  0  0
  9 12  1  0  0  0  0
 10 11  1  0  0  0  0
 12 13  1  0  0  0  0
 13 14  4  0  0  0  0
 13 18  4  0  0  0  0
 14 15  4  0  0  0  0
 15 16  4  0  0  0  0
 16 17  4  0  0  0  0
 17 18  4  0  0  0  0
 19 20  4  0  0  0  0
 20 21  4  0  0  0  0
 21 22  4  0  0  0  0
M  STY  1   1 DAT
M  SAL   1  1   1
M  SDT   1 MRV_IMPLICIT_H                                        
M  SDD   1     0.0000    0.0000    DR    ALL  0       0  
M  SED   1 IMPL_H1
M  END
>  <Name_Molregno>
111616

>  <DOPAMINE D2>
5.85

>  <DOPAMINE D3>
5.36

>  <DOPAMINE D4>
7.03

$$$$
111652
  Marvin  02231216192D 0   1.00000     0.00000     0

 24 27  0  0  0  0  0  0  0  0999 V2000
   -8.2573   -2.5981    0.0000 Cl  0  0  0  0  0  0  0  0  0
   -7.8448   -1.8836    0.0000 C   0  0  0  0  0  0  0  0  0
   -8.2573   -1.1691    0.0000 C   0  0  0  0  0  0  0  0  0
   -7.8448   -0.4547    0.0000 C   0  0  0  0  0  0  0  0  0
   -7.0198   -0.4547    0.0000 C   0  0  0  0  0  0  0  0  0
   -6.6073   -1.1691    0.0000 C   0  0  0  0  0  0  0  0  0
   -7.0198   -1.8836    0.0000 C   0  0  0  0  0  0  0  0  0
   -6.6073    0.2598    0.0000 C   0  0  0  0  0  0  0  0  0
   -5.7823    0.2598    0.0000 N   0  0  0  0  0  0  0  0  0
   -5.3698    0.9743    0.0000 C   0  0  0  0  0  0  0  0  0
   -4.5448    0.9743    0.0000 C   0  0  0  0  0  0  0  0  0
   -4.1323    0.2598    0.0000 C   0  0  0  0  0  0  0  0  0
   -4.5448   -0.4547    0.0000 C   0  0  0  0  0  0  0  0  0
   -5.3698   -0.4547    0.0000 C   0  0  0  0  0  0  0  0  0
   -3.3073    0.2598    0.0000 C   0  0  0  0  0  0  0  0  0
   -2.8223   -0.4076    0.0000 O   0  0  0  0  0  0  0  0  0
   -2.0377   -0.1527    0.0000 C   0  0  0  0  0  0  0  0  0
   -2.0377    0.6723    0.0000 C   0  0  0  0  0  0  0  0  0
   -2.8223    0.9272    0.0000 N   0  0  0  0  0  0  0  0  0
   -1.3232    1.0848    0.0000 C   0  0  0  0  0  0  0  0  0
   -0.6088    0.6723    0.0000 C   0  0  0  0  0  0  0  0  0
    0.1057    1.0848    0.0000 Cl  0  0  0  0  0  0  0  0  0
   -0.6088   -0.1527    0.0000 C   0  0  0  0  0  0  0  0  0
   -1.3232   -0.5652    0.0000 C   0  0  0  0  0  0  0  0  0
  1  2  1  0  0  0  0
  2  3  4  0  0  0  0
  2  7  4  0  0  0  0
  3  4  4  0  0  0  0
  4  5  4  0  0  0  0
  5  6  4  0  0  0  0
  5  8  1  0  0  0  0
  6  7  4  0  0  0  0
  8  9  1  0  0  0  0
  9 10  1  0  0  0  0
  9 14  1  0  0  0  0
 10 11  1  0  0  0  0
 11 12  1  0  0  0  0
 12 13  2  0  0  0  0
 12 15  1  0  0  0  0
 13 14  1  0  0  0  0
 15 16  4  0  0  0  0
 15 19  4  0  0  0  0
 16 17  4  0  0  0  0
 17 18  4  0  0  0  0
 17 24  4  0  0  0  0
 18 19  4  0  0  0  0
 18 20  4  0  0  0  0
 20 21  4  0  0  0  0
 21 22  1  0  0  0  0
 21 23  4  0  0  0  0
 23 24  4  0  0  0  0
M  END
>  <Name_Molregno>
111652

>  <DOPAMINE D2>
5.77

>  <DOPAMINE D3>
5.35

>  <DOPAMINE D4>
8.08

$$$$
111653
  Marvin  02231216192D 0   1.00000     0.00000     0

 23 26  0  0  0  0  0  0  0  0999 V2000
    8.7407   -0.9689    0.0000 Cl  0  0  0  0  0  0  0  0  0
    8.0262   -0.5564    0.0000 C   0  0  0  0  0  0  0  0  0
    7.3117   -0.9689    0.0000 C   0  0  0  0  0  0  0  0  0
    6.5973   -0.5564    0.0000 C   0  0  0  0  0  0  0  0  0
    5.8126   -0.8114    0.0000 N   0  0  0  0  0  0  0  0  0
    5.3277   -0.1439    0.0000 C   0  0  0  0  0  0  0  0  0
    5.8126    0.5235    0.0000 S   0  0  0  0  0  0  0  0  0
    6.5973    0.2686    0.0000 C   0  0  0  0  0  0  0  0  0
    7.3117    0.6811    0.0000 C   0  0  0  0  0  0  0  0  0
    8.0262    0.2686    0.0000 C   0  0  0  0  0  0  0  0  0
    4.5027   -0.1439    0.0000 C   0  0  0  0  0  0  0  0  0
    4.0902   -0.8584    0.0000 C   0  0  0  0  0  0  0  0  0
    3.2652   -0.8584    0.0000 C   0  0  0  0  0  0  0  0  0
    2.8527   -0.1439    0.0000 N   0  0  0  0  0  0  0  0  0
    3.2652    0.5705    0.0000 C   0  0  0  0  0  0  0  0  0
    4.0902    0.5705    0.0000 C   0  0  0  0  0  0  0  0  0
    2.0277   -0.1439    0.0000 C   0  0  0  0  0  0  0  0  0
    1.6152    0.5705    0.0000 C   0  0  0  0  0  0  0  0  0
    0.7902    0.5705    0.0000 C   0  0  0  0  0  0  0  0  0
    0.3777    1.2850    0.0000 C   0  0  0  0  0  0  0  0  0
    0.7902    1.9995    0.0000 C   0  0  0  0  0  0  0  0  0
    1.6152    1.9995    0.0000 C   0  0  0  0  0  0  0  0  0
    2.0277    1.2850    0.0000 C   0  0  0  0  0  0  0  0  0
  1  2  1  0  0  0  0
  2  3  4  0  0  0  0
  2 10  4  0  0  0  0
  3  4  4  0  0  0  0
  4  5  4  0  0  0  0
  4  8  4  0  0  0  0
  5  6  4  0  0  0  0
  6  7  4  0  0  0  0
  6 11  1  0  0  0  0
  7  8  4  0  0  0  0
  8  9  4  0  0  0  0
  9 10  4  0  0  0  0
 11 12  1  0  0  0  0
 11 16  2  0  0  0  0
 12 13  1  0  0  0  0
 13 14  1  0  0  0  0
 14 15  1  0  0  0  0
 14 17  1  0  0  0  0
 15 16  1  0  0  0  0
 17 18  1  0  0  0  0
 18 19  4  0  0  0  0
 18 23  4  0  0  0  0
 19 20  4  0  0  0  0
 20 21  4  0  0  0  0
 21 22  4  0  0  0  0
 22 23  4  0  0  0  0
M  END
>  <Name_Molregno>
111653

>  <DOPAMINE D2>
5.8

>  <DOPAMINE D3>
5.74

>  <DOPAMINE D4>
7.36

$$$$
111929
  Marvin  02231216192D 0   1.00000     0.00000     0

 28 30  0  0  0  0  0  0  0  0999 V2000
    0.2084    2.6536    0.0000 Br  0  0  0  0  0  0  0  0  0
    0.9228    2.2411    0.0000 C   0  0  0  0  0  0  0  0  0
    1.6373    2.6536    0.0000 C   0  0  0  0  0  0  0  0  0
    2.3518    2.2411    0.0000 C   0  0  0  0  0  0  0  0  0
    2.3518    1.4161    0.0000 C   0  0  0  0  0  0  0  0  0
    1.6373    1.0036    0.0000 C   0  0  0  0  0  0  0  0  0
    0.9228    1.4161    0.0000 C   0  0  0  0  0  0  0  0  0
    3.0662    1.0036    0.0000 C   0  0  0  0  0  0  0  0  0
    3.0662    0.1786    0.0000 O   0  0  0  0  0  0  0  0  0
    3.7807    1.4161    0.0000 N   0  0  0  0  0  0  0  0  0
    4.4952    1.0036    0.0000 C   0  0  0  0  0  0  0  0  0
    5.2097    1.4161    0.0000 C   0  0  0  0  0  0  0  0  0
    5.9241    1.0036    0.0000 C   0  0  0  0  0  0  0  0  0
    6.6386    1.4161    0.0000 C   0  0  0  0  0  0  0  0  0
    7.3531    1.0036    0.0000 N   0  0  0  0  0  0  0  0  0
    8.0675    1.4161    0.0000 C   0  0  0  0  0  0  0  0  0
    8.7820    1.0036    0.0000 C   0  0  0  0  0  0  0  0  0
    8.7820    0.1786    0.0000 N   0  0  0  0  0  0  0  0  0
    8.0675   -0.2339    0.0000 C   0  0  0  0  0  0  0  0  0
    7.3531    0.1786    0.0000 C   0  0  0  0  0  0  0  0  0
    9.4965   -0.2339    0.0000 C   0  0  0  0  0  0  0  0  0
   10.2110    0.1786    0.0000 C   0  0  0  0  0  0  0  0  0
   10.9254   -0.2339    0.0000 C   0  0  0  0  0  0  0  0  0
   10.9254   -1.0589    0.0000 C   0  0  0  0  0  0  0  0  0
   10.2110   -1.4714    0.0000 C   0  0  0  0  0  0  0  0  0
    9.4965   -1.0589    0.0000 C   0  0  0  0  0  0  0  0  0
    8.7820   -1.4714    0.0000 O   0  0  0  0  0  0  0  0  0
    8.7820   -2.2964    0.0000 C   0  0  0  0  0  0  0  0  0
  1  2  1  0  0  0  0
  2  3  4  0  0  0  0
  2  7  4  0  0  0  0
  3  4  4  0  0  0  0
  4  5  4  0  0  0  0
  5  6  4  0  0  0  0
  5  8  1  0  0  0  0
  6  7  4  0  0  0  0
  8  9  2  0  0  0  0
  8 10  1  0  0  0  0
 10 11  1  0  0  0  0
 11 12  1  0  0  0  0
 12 13  1  0  0  0  0
 13 14  1  0  0  0  0
 14 15  1  0  0  0  0
 15 16  1  0  0  0  0
 15 20  1  0  0  0  0
 16 17  1  0  0  0  0
 17 18  1  0  0  0  0
 18 19  1  0  0  0  0
 18 21  1  0  0  0  0
 19 20  1  0  0  0  0
 21 22  4  0  0  0  0
 21 26  4  0  0  0  0
 22 23  4  0  0  0  0
 23 24  4  0  0  0  0
 24 25  4  0  0  0  0
 25 26  4  0  0  0  0
 26 27  1  0  0  0  0
 27 28  1  0  0  0  0
M  END
>  <Name_Molregno>
111929

>  <DOPAMINE D3>
9.3

$$$$
111930
  Marvin  02231216192D 0   1.00000     0.00000     0

 37 40  0  0  0  0  0  0  0  0999 V2000
  -12.6899    3.5547    0.0000 S   0  0  0  0  0  0  0  0  0
  -13.4044    3.9672    0.0000 O   0  0  0  0  0  0  0  0  0
  -13.1024    2.8402    0.0000 O   0  0  0  0  0  0  0  0  0
  -12.2774    4.2692    0.0000 C   0  0  0  0  0  0  0  0  0
  -11.9755    3.1422    0.0000 C   0  0  0  0  0  0  0  0  0
  -11.2610    3.5547    0.0000 C   0  0  0  0  0  0  0  0  0
  -10.5465    3.1422    0.0000 C   0  0  0  0  0  0  0  0  0
  -10.5465    2.3172    0.0000 C   0  0  0  0  0  0  0  0  0
  -11.2610    1.9047    0.0000 C   0  0  0  0  0  0  0  0  0
  -11.9755    2.3172    0.0000 C   0  0  0  0  0  0  0  0  0
   -9.8321    1.9047    0.0000 C   0  0  0  0  0  0  0  0  0
   -9.1176    2.3172    0.0000 C   0  0  0  0  0  0  0  0  0
   -8.4031    1.9047    0.0000 C   0  0  0  0  0  0  0  0  0
   -8.4031    1.0797    0.0000 C   0  0  0  0  0  0  0  0  0
   -9.1176    0.6672    0.0000 C   0  0  0  0  0  0  0  0  0
   -9.8321    1.0797    0.0000 C   0  0  0  0  0  0  0  0  0
   -7.6886    0.6672    0.0000 C   0  0  0  0  0  0  0  0  0
   -7.6886   -0.1578    0.0000 O   0  0  0  0  0  0  0  0  0
   -6.9742    1.0797    0.0000 N   0  0  0  0  0  0  0  0  0
   -6.2597    0.6672    0.0000 C   0  0  0  0  0  0  0  0  0
   -5.5452    1.0797    0.0000 C   0  0  0  0  0  0  0  0  0
   -4.8308    0.6672    0.0000 C   0  0  0  0  0  0  0  0  0
   -4.1163    1.0797    0.0000 C   0  0  0  0  0  0  0  0  0
   -3.4018    0.6672    0.0000 N   0  0  0  0  0  0  0  0  0
   -2.6873    1.0797    0.0000 C   0  0  0  0  0  0  0  0  0
   -1.9729    0.6672    0.0000 C   0  0  0  0  0  0  0  0  0
   -1.9729   -0.1578    0.0000 N   0  0  0  0  0  0  0  0  0
   -2.6873   -0.5703    0.0000 C   0  0  0  0  0  0  0  0  0
   -3.4018   -0.1578    0.0000 C   0  0  0  0  0  0  0  0  0
   -1.2584   -0.5703    0.0000 C   0  0  0  0  0  0  0  0  0
   -0.5439   -0.1578    0.0000 C   0  0  0  0  0  0  0  0  0
    0.1705   -0.5703    0.0000 C   0  0  0  0  0  0  0  0  0
    0.1705   -1.3953    0.0000 C   0  0  0  0  0  0  0  0  0
   -0.5439   -1.8078    0.0000 C   0  0  0  0  0  0  0  0  0
   -1.2584   -1.3953    0.0000 C   0  0  0  0  0  0  0  0  0
   -1.9729   -1.8078    0.0000 O   0  0  0  0  0  0  0  0  0
   -1.9729   -2.6328    0.0000 C   0  0  0  0  0  0  0  0  0
  1  2  2  0  0  0  0
  1  3  2  0  0  0  0
  1  4  1  0  0  0  0
  1  5  1  0  0  0  0
  5  6  4  0  0  0  0
  5 10  4  0  0  0  0
  6  7  4  0  0  0  0
  7  8  4  0  0  0  0
  8  9  4  0  0  0  0
  8 11  1  0  0  0  0
  9 10  4  0  0  0  0
 11 12  4  0  0  0  0
 11 16  4  0  0  0  0
 12 13  4  0  0  0  0
 13 14  4  0  0  0  0
 14 15  4  0  0  0  0
 14 17  1  0  0  0  0
 15 16  4  0  0  0  0
 17 18  2  0  0  0  0
 17 19  1  0  0  0  0
 19 20  1  0  0  0  0
 20 21  1  0  0  0  0
 21 22  1  0  0  0  0
 22 23  1  0  0  0  0
 23 24  1  0  0  0  0
 24 25  1  0  0  0  0
 24 29  1  0  0  0  0
 25 26  1  0  0  0  0
 26 27  1  0  0  0  0
 27 28  1  0  0  0  0
 27 30  1  0  0  0  0
 28 29  1  0  0  0  0
 30 31  4  0  0  0  0
 30 35  4  0  0  0  0
 31 32  4  0  0  0  0
 32 33  4  0  0  0  0
 33 34  4  0  0  0  0
 34 35  4  0  0  0  0
 35 36  1  0  0  0  0
 36 37  1  0  0  0  0
M  END
>  <Name_Molregno>
111930

>  <DOPAMINE D3>
9.5

$$$$
111931
  Marvin  02231216192D 0   1.00000     0.00000     0

 34 37  0  0  0  0  0  0  0  0999 V2000
  -10.4133    0.0346    0.0000 O   0  0  0  0  0  0  0  0  0
  -11.1277   -0.3779    0.0000 C   0  0  0  0  0  0  0  0  0
  -10.4133    0.8596    0.0000 C   0  0  0  0  0  0  0  0  0
  -11.1277    1.2721    0.0000 C   0  0  0  0  0  0  0  0  0
  -11.1277    2.0971    0.0000 C   0  0  0  0  0  0  0  0  0
  -10.4133    2.5096    0.0000 C   0  0  0  0  0  0  0  0  0
   -9.6988    2.0971    0.0000 C   0  0  0  0  0  0  0  0  0
   -9.6988    1.2721    0.0000 C   0  0  0  0  0  0  0  0  0
   -8.9843    0.8596    0.0000 N   0  0  0  0  0  0  0  0  0
   -8.2698    1.2721    0.0000 C   0  0  0  0  0  0  0  0  0
   -7.5554    0.8596    0.0000 C   0  0  0  0  0  0  0  0  0
   -7.5554    0.0346    0.0000 N   0  0  0  0  0  0  0  0  0
   -8.2698   -0.3779    0.0000 C   0  0  0  0  0  0  0  0  0
   -8.9843    0.0346    0.0000 C   0  0  0  0  0  0  0  0  0
   -6.8409   -0.3779    0.0000 C   0  0  0  0  0  0  0  0  0
   -6.1264    0.0346    0.0000 C   0  0  0  0  0  0  0  0  0
   -5.4120   -0.3779    0.0000 C   0  0  0  0  0  0  0  0  0
   -4.6975    0.0346    0.0000 C   0  0  0  0  0  0  0  0  0
   -3.9830   -0.3779    0.0000 N   0  0  0  0  0  0  0  0  0
   -3.2685    0.0346    0.0000 C   0  0  0  0  0  0  0  0  0
   -3.2685    0.8596    0.0000 O   0  0  0  0  0  0  0  0  0
   -2.5541   -0.3779    0.0000 C   0  0  0  0  0  0  0  0  0
   -1.8396    0.0346    0.0000 C   0  0  0  0  0  0  0  0  0
   -1.1251   -0.3779    0.0000 C   0  0  0  0  0  0  0  0  0
   -1.1251   -1.2029    0.0000 C   0  0  0  0  0  0  0  0  0
   -1.8396   -1.6154    0.0000 C   0  0  0  0  0  0  0  0  0
   -2.5541   -1.2029    0.0000 C   0  0  0  0  0  0  0  0  0
   -0.4107   -1.6154    0.0000 C   0  0  0  0  0  0  0  0  0
    0.3038   -1.2029    0.0000 C   0  0  0  0  0  0  0  0  0
    1.0183   -1.6154    0.0000 C   0  0  0  0  0  0  0  0  0
    1.0183   -2.4404    0.0000 C   0  0  0  0  0  0  0  0  0
    1.7328   -2.8529    0.0000 N   0  0  0  0  0  0  0  0  0
    0.3038   -2.8529    0.0000 C   0  0  0  0  0  0  0  0  0
   -0.4107   -2.4404    0.0000 C   0  0  0  0  0  0  0  0  0
  1  2  1  0  0  0  0
  1  3  1  0  0  0  0
  3  4  4  0  0  0  0
  3  8  4  0  0  0  0
  4  5  4  0  0  0  0
  5  6  4  0  0  0  0
  6  7  4  0  0  0  0
  7  8  4  0  0  0  0
  8  9  1  0  0  0  0
  9 10  1  0  0  0  0
  9 14  1  0  0  0  0
 10 11  1  0  0  0  0
 11 12  1  0  0  0  0
 12 13  1  0  0  0  0
 12 15  1  0  0  0  0
 13 14  1  0  0  0  0
 15 16  1  0  0  0  0
 16 17  1  0  0  0  0
 17 18  1  0  0  0  0
 18 19  1  0  0  0  0
 19 20  1  0  0  0  0
 20 21  2  0  0  0  0
 20 22  1  0  0  0  0
 22 23  4  0  0  0  0
 22 27  4  0  0  0  0
 23 24  4  0  0  0  0
 24 25  4  0  0  0  0
 25 26  4  0  0  0  0
 25 28  1  0  0  0  0
 26 27  4  0  0  0  0
 28 29  4  0  0  0  0
 28 34  4  0  0  0  0
 29 30  4  0  0  0  0
 30 31  4  0  0  0  0
 31 32  1  0  0  0  0
 31 33  4  0  0  0  0
 33 34  4  0  0  0  0
M  END
>  <Name_Molregno>
111931

>  <DOPAMINE D3>
9.7

$$$$
111968
  Marvin  02231216192D 0   1.00000     0.00000     0

 23 26  0  0  0  0  0  0  0  0999 V2000
   -7.8673   -2.6018    0.0000 Cl  0  0  0  0  0  0  0  0  0
   -7.4548   -1.8873    0.0000 C   0  0  0  0  0  0  0  0  0
   -7.8673   -1.1728    0.0000 C   0  0  0  0  0  0  0  0  0
   -7.4548   -0.4584    0.0000 C   0  0  0  0  0  0  0  0  0
   -6.6298   -0.4584    0.0000 C   0  0  0  0  0  0  0  0  0
   -6.2173   -1.1728    0.0000 C   0  0  0  0  0  0  0  0  0
   -6.6298   -1.8873    0.0000 C   0  0  0  0  0  0  0  0  0
   -6.2173    0.2561    0.0000 C   0  0  0  0  0  0  0  0  0
   -5.3923    0.2561    0.0000 N   0  0  0  0  0  0  0  0  0
   -4.9798    0.9706    0.0000 C   0  0  0  0  0  0  0  0  0
   -4.1548    0.9706    0.0000 C   0  0  0  0  0  0  0  0  0
   -3.7423    0.2561    0.0000 C   0  0  0  0  0  0  0  0  0
   -4.1548   -0.4584    0.0000 C   0  0  0  0  0  0  0  0  0
   -4.9798   -0.4584    0.0000 C   0  0  0  0  0  0  0  0  0
   -2.9173    0.2561    0.0000 C   0  0  0  0  0  0  0  0  0
   -2.4324   -0.4113    0.0000 N   0  0  0  0  0  0  0  0  0
   -1.6477   -0.1564    0.0000 C   0  0  0  0  0  0  0  0  0
   -1.6477    0.6686    0.0000 C   0  0  0  0  0  0  0  0  0
   -2.4324    0.9236    0.0000 N   0  0  0  0  0  0  0  0  0
   -0.9333    1.0811    0.0000 C   0  0  0  0  0  0  0  0  0
   -0.2188    0.6686    0.0000 C   0  0  0  0  0  0  0  0  0
   -0.2188   -0.1564    0.0000 C   0  0  0  0  0  0  0  0  0
   -0.9333   -0.5689    0.0000 C   0  0  0  0  0  0  0  0  0
  1  2  1  0  0  0  0
  2  3  4  0  0  0  0
  2  7  4  0  0  0  0
  3  4  4  0  0  0  0
  4  5  4  0  0  0  0
  5  6  4  0  0  0  0
  5  8  1  0  0  0  0
  6  7  4  0  0  0  0
  8  9  1  0  0  0  0
  9 10  1  0  0  0  0
  9 14  1  0  0  0  0
 10 11  1  0  0  0  0
 11 12  1  0  0  0  0
 12 13  2  0  0  0  0
 12 15  1  0  0  0  0
 13 14  1  0  0  0  0
 15 16  4  0  0  0  0
 15 19  4  0  0  0  0
 16 17  4  0  0  0  0
 17 18  4  0  0  0  0
 17 23  4  0  0  0  0
 18 19  4  0  0  0  0
 18 20  4  0  0  0  0
 20 21  4  0  0  0  0
 21 22  4  0  0  0  0
 22 23  4  0  0  0  0
M  STY  1   1 DAT
M  SAL   1  1  16
M  SDT   1 MRV_IMPLICIT_H                                        
M  SDD   1     0.0000    0.0000    DR    ALL  0       0  
M  SED   1 IMPL_H1
M  END
>  <Name_Molregno>
111968

>  <DOPAMINE D2>
6.17

>  <DOPAMINE D3>
5.8

>  <DOPAMINE D4>
7.17

$$$$
112040
  Marvin  02231216192D 0   1.00000     0.00000     0

 24 27  0  0  0  0  0  0  0  0999 V2000
   -8.2573   -2.5981    0.0000 Cl  0  0  0  0  0  0  0  0  0
   -7.8448   -1.8836    0.0000 C   0  0  0  0  0  0  0  0  0
   -8.2573   -1.1691    0.0000 C   0  0  0  0  0  0  0  0  0
   -7.8448   -0.4547    0.0000 C   0  0  0  0  0  0  0  0  0
   -7.0198   -0.4547    0.0000 C   0  0  0  0  0  0  0  0  0
   -6.6073   -1.1691    0.0000 C   0  0  0  0  0  0  0  0  0
   -7.0198   -1.8836    0.0000 C   0  0  0  0  0  0  0  0  0
   -6.6073    0.2598    0.0000 C   0  0  0  0  0  0  0  0  0
   -5.7823    0.2598    0.0000 N   0  0  0  0  0  0  0  0  0
   -5.3698    0.9743    0.0000 C   0  0  0  0  0  0  0  0  0
   -4.5448    0.9743    0.0000 C   0  0  0  0  0  0  0  0  0
   -4.1323    0.2598    0.0000 C   0  0  0  0  0  0  0  0  0
   -4.5448   -0.4547    0.0000 C   0  0  0  0  0  0  0  0  0
   -5.3698   -0.4547    0.0000 C   0  0  0  0  0  0  0  0  0
   -3.3073    0.2598    0.0000 C   0  0  0  0  0  0  0  0  0
   -2.8223   -0.4076    0.0000 N   0  0  0  0  0  0  0  0  0
   -2.0377   -0.1527    0.0000 C   0  0  0  0  0  0  0  0  0
   -2.0377    0.6723    0.0000 C   0  0  0  0  0  0  0  0  0
   -2.8223    0.9272    0.0000 N   0  0  0  0  0  0  0  0  0
   -1.3232    1.0848    0.0000 C   0  0  0  0  0  0  0  0  0
   -0.6088    0.6723    0.0000 C   0  0  0  0  0  0  0  0  0
    0.1057    1.0848    0.0000 Cl  0  0  0  0  0  0  0  0  0
   -0.6088   -0.1527    0.0000 C   0  0  0  0  0  0  0  0  0
   -1.3232   -0.5652    0.0000 C   0  0  0  0  0  0  0  0  0
  1  2  1  0  0  0  0
  2  3  4  0  0  0  0
  2  7  4  0  0  0  0
  3  4  4  0  0  0  0
  4  5  4  0  0  0  0
  5  6  4  0  0  0  0
  5  8  1  0  0  0  0
  6  7  4  0  0  0  0
  8  9  1  0  0  0  0
  9 10  1  0  0  0  0
  9 14  1  0  0  0  0
 10 11  1  0  0  0  0
 11 12  1  0  0  0  0
 12 13  2  0  0  0  0
 12 15  1  0  0  0  0
 13 14  1  0  0  0  0
 15 16  4  0  0  0  0
 15 19  4  0  0  0  0
 16 17  4  0  0  0  0
 17 18  4  0  0  0  0
 17 24  4  0  0  0  0
 18 19  4  0  0  0  0
 18 20  4  0  0  0  0
 20 21  4  0  0  0  0
 21 22  1  0  0  0  0
 21 23  4  0  0  0  0
 23 24  4  0  0  0  0
M  STY  1   1 DAT
M  SAL   1  1  16
M  SDT   1 MRV_IMPLICIT_H                                        
M  SDD   1     0.0000    0.0000    DR    ALL  0       0  
M  SED   1 IMPL_H1
M  END
>  <Name_Molregno>
112040

>  <DOPAMINE D2>
6.48

>  <DOPAMINE D3>
6.05

>  <DOPAMINE D4>
8

$$$$
112053
  Marvin  02231216192D 0   1.00000     0.00000     0

 22 25  0  0  0  0  0  0  0  0999 V2000
   -0.1703   -0.4720    0.0000 O   0  0  0  0  0  0  0  0  0
    0.6143   -0.2171    0.0000 C   0  0  0  0  0  0  0  0  0
    0.6143    0.6079    0.0000 C   0  0  0  0  0  0  0  0  0
   -0.1703    0.8629    0.0000 N   0  0  0  0  0  0  0  0  0
   -0.6552    0.1954    0.0000 C   0  0  0  0  0  0  0  0  0
   -1.4802    0.1954    0.0000 C   0  0  0  0  0  0  0  0  0
   -1.8927   -0.5190    0.0000 C   0  0  0  0  0  0  0  0  0
   -2.7177   -0.5190    0.0000 C   0  0  0  0  0  0  0  0  0
   -3.1302    0.1954    0.0000 N   0  0  0  0  0  0  0  0  0
   -2.7177    0.9099    0.0000 C   0  0  0  0  0  0  0  0  0
   -1.8927    0.9099    0.0000 C   0  0  0  0  0  0  0  0  0
   -3.9552    0.1954    0.0000 C   0  0  0  0  0  0  0  0  0
   -4.3677    0.9099    0.0000 C   0  0  0  0  0  0  0  0  0
   -5.1927    0.9099    0.0000 C   0  0  0  0  0  0  0  0  0
   -5.6052    1.6244    0.0000 C   0  0  0  0  0  0  0  0  0
   -5.1927    2.3388    0.0000 C   0  0  0  0  0  0  0  0  0
   -4.3677    2.3388    0.0000 C   0  0  0  0  0  0  0  0  0
   -3.9552    1.6244    0.0000 C   0  0  0  0  0  0  0  0  0
    1.3288    1.0204    0.0000 C   0  0  0  0  0  0  0  0  0
    2.0433    0.6079    0.0000 C   0  0  0  0  0  0  0  0  0
    2.0433   -0.2171    0.0000 C   0  0  0  0  0  0  0  0  0
    1.3288   -0.6296    0.0000 C   0  0  0  0  0  0  0  0  0
  1  2  4  0  0  0  0
  1  5  4  0  0  0  0
  2  3  4  0  0  0  0
  2 22  4  0  0  0  0
  3  4  4  0  0  0  0
  3 19  4  0  0  0  0
  4  5  4  0  0  0  0
  5  6  1  0  0  0  0
  6  7  1  0  0  0  0
  6 11  2  0  0  0  0
  7  8  1  0  0  0  0
  8  9  1  0  0  0  0
  9 10  1  0  0  0  0
  9 12  1  0  0  0  0
 10 11  1  0  0  0  0
 12 13  1  0  0  0  0
 13 14  4  0  0  0  0
 13 18  4  0  0  0  0
 14 15  4  0  0  0  0
 15 16  4  0  0  0  0
 16 17  4  0  0  0  0
 17 18  4  0  0  0  0
 19 20  4  0  0  0  0
 20 21  4  0  0  0  0
 21 22  4  0  0  0  0
M  END
>  <Name_Molregno>
112053

>  <DOPAMINE D2>
6.62

>  <DOPAMINE D3>
5.35

>  <DOPAMINE D4>
7.01

$$$$
112352
  Marvin  02231216192D 0   1.00000     0.00000     0

 26 28  0  0  0  0  0  0  0  0999 V2000
    0.1237    2.3386    0.0000 Br  0  0  0  0  0  0  0  0  0
    0.8382    1.9261    0.0000 C   0  0  0  0  0  0  0  0  0
    1.5527    2.3386    0.0000 C   0  0  0  0  0  0  0  0  0
    2.2671    1.9261    0.0000 C   0  0  0  0  0  0  0  0  0
    2.2671    1.1011    0.0000 C   0  0  0  0  0  0  0  0  0
    1.5527    0.6886    0.0000 C   0  0  0  0  0  0  0  0  0
    0.8382    1.1011    0.0000 C   0  0  0  0  0  0  0  0  0
    2.9816    0.6886    0.0000 C   0  0  0  0  0  0  0  0  0
    2.9816   -0.1364    0.0000 O   0  0  0  0  0  0  0  0  0
    3.6961    1.1011    0.0000 N   0  0  0  0  0  0  0  0  0
    4.4106    0.6886    0.0000 C   0  0  0  0  0  0  0  0  0
    5.1250    1.1011    0.0000 C   0  0  0  0  0  0  0  0  0
    5.8395    0.6886    0.0000 C   0  0  0  0  0  0  0  0  0
    6.5540    1.1011    0.0000 C   0  0  0  0  0  0  0  0  0
    7.2684    0.6886    0.0000 N   0  0  0  0  0  0  0  0  0
    7.9829    1.1011    0.0000 C   0  0  0  0  0  0  0  0  0
    8.6974    0.6886    0.0000 C   0  0  0  0  0  0  0  0  0
    8.6974   -0.1364    0.0000 N   0  0  0  0  0  0  0  0  0
    7.9829   -0.5489    0.0000 C   0  0  0  0  0  0  0  0  0
    7.2684   -0.1364    0.0000 C   0  0  0  0  0  0  0  0  0
    9.4118   -0.5489    0.0000 C   0  0  0  0  0  0  0  0  0
   10.1263   -0.1364    0.0000 C   0  0  0  0  0  0  0  0  0
   10.8408   -0.5489    0.0000 C   0  0  0  0  0  0  0  0  0
   10.8408   -1.3739    0.0000 C   0  0  0  0  0  0  0  0  0
   10.1263   -1.7864    0.0000 C   0  0  0  0  0  0  0  0  0
    9.4118   -1.3739    0.0000 C   0  0  0  0  0  0  0  0  0
  1  2  1  0  0  0  0
  2  3  4  0  0  0  0
  2  7  4  0  0  0  0
  3  4  4  0  0  0  0
  4  5  4  0  0  0  0
  5  6  4  0  0  0  0
  5  8  1  0  0  0  0
  6  7  4  0  0  0  0
  8  9  2  0  0  0  0
  8 10  1  0  0  0  0
 10 11  1  0  0  0  0
 11 12  1  0  0  0  0
 12 13  1  0  0  0  0
 13 14  1  0  0  0  0
 14 15  1  0  0  0  0
 15 16  1  0  0  0  0
 15 20  1  0  0  0  0
 16 17  1  0  0  0  0
 17 18  1  0  0  0  0
 18 19  1  0  0  0  0
 18 21  1  0  0  0  0
 19 20  1  0  0  0  0
 21 22  4  0  0  0  0
 21 26  4  0  0  0  0
 22 23  4  0  0  0  0
 23 24  4  0  0  0  0
 24 25  4  0  0  0  0
 25 26  4  0  0  0  0
M  END
>  <Name_Molregno>
112352

>  <DOPAMINE D3>
8.2

$$$$
112442
  Marvin  02231216192D 0   1.00000     0.00000     0

 23 26  0  0  0  0  0  0  0  0999 V2000
   -0.2116   -2.3213    0.0000 Cl  0  0  0  0  0  0  0  0  0
    0.6134   -2.3213    0.0000 C   0  0  0  0  0  0  0  0  0
    1.0259   -1.6068    0.0000 C   0  0  0  0  0  0  0  0  0
    1.8509   -1.6068    0.0000 C   0  0  0  0  0  0  0  0  0
    2.2634   -2.3213    0.0000 C   0  0  0  0  0  0  0  0  0
    1.8509   -3.0358    0.0000 C   0  0  0  0  0  0  0  0  0
    1.0259   -3.0358    0.0000 C   0  0  0  0  0  0  0  0  0
    2.2634   -0.8923    0.0000 C   0  0  0  0  0  0  0  0  0
    3.0884   -0.8923    0.0000 N   0  0  0  0  0  0  0  0  0
    3.5009   -0.1779    0.0000 C   0  0  0  0  0  0  0  0  0
    4.3259   -0.1779    0.0000 C   0  0  0  0  0  0  0  0  0
    4.7384   -0.8923    0.0000 C   0  0  0  0  0  0  0  0  0
    4.3259   -1.6068    0.0000 C   0  0  0  0  0  0  0  0  0
    3.5009   -1.6068    0.0000 C   0  0  0  0  0  0  0  0  0
    5.5634   -0.8923    0.0000 C   0  0  0  0  0  0  0  0  0
    6.0483   -1.5598    0.0000 S   0  0  0  0  0  0  0  0  0
    6.8329   -1.3048    0.0000 C   0  0  0  0  0  0  0  0  0
    6.8329   -0.4798    0.0000 C   0  0  0  0  0  0  0  0  0
    6.0483   -0.2249    0.0000 N   0  0  0  0  0  0  0  0  0
    7.5474   -0.0673    0.0000 C   0  0  0  0  0  0  0  0  0
    8.2619   -0.4798    0.0000 C   0  0  0  0  0  0  0  0  0
    8.2619   -1.3048    0.0000 C   0  0  0  0  0  0  0  0  0
    7.5474   -1.7173    0.0000 C   0  0  0  0  0  0  0  0  0
  1  2  1  0  0  0  0
  2  3  4  0  0  0  0
  2  7  4  0  0  0  0
  3  4  4  0  0  0  0
  4  5  4  0  0  0  0
  4  8  1  0  0  0  0
  5  6  4  0  0  0  0
  6  7  4  0  0  0  0
  8  9  1  0  0  0  0
  9 10  1  0  0  0  0
  9 14  1  0  0  0  0
 10 11  1  0  0  0  0
 11 12  1  0  0  0  0
 12 13  2  0  0  0  0
 12 15  1  0  0  0  0
 13 14  1  0  0  0  0
 15 16  4  0  0  0  0
 15 19  4  0  0  0  0
 16 17  4  0  0  0  0
 17 18  4  0  0  0  0
 17 23  4  0  0  0  0
 18 19  4  0  0  0  0
 18 20  4  0  0  0  0
 20 21  4  0  0  0  0
 21 22  4  0  0  0  0
 22 23  4  0  0  0  0
M  END
>  <Name_Molregno>
112442

>  <DOPAMINE D2>
6.47

>  <DOPAMINE D3>
6.2

>  <DOPAMINE D4>
8.09

$$$$
112443
  Marvin  02231216192D 0   1.00000     0.00000     0

 24 27  0  0  0  0  0  0  0  0999 V2000
   -8.2573   -2.5981    0.0000 Cl  0  0  0  0  0  0  0  0  0
   -7.8448   -1.8836    0.0000 C   0  0  0  0  0  0  0  0  0
   -8.2573   -1.1691    0.0000 C   0  0  0  0  0  0  0  0  0
   -7.8448   -0.4547    0.0000 C   0  0  0  0  0  0  0  0  0
   -7.0198   -0.4547    0.0000 C   0  0  0  0  0  0  0  0  0
   -6.6073   -1.1691    0.0000 C   0  0  0  0  0  0  0  0  0
   -7.0198   -1.8836    0.0000 C   0  0  0  0  0  0  0  0  0
   -6.6073    0.2598    0.0000 C   0  0  0  0  0  0  0  0  0
   -5.7823    0.2598    0.0000 N   0  0  0  0  0  0  0  0  0
   -5.3698    0.9743    0.0000 C   0  0  0  0  0  0  0  0  0
   -4.5448    0.9743    0.0000 C   0  0  0  0  0  0  0  0  0
   -4.1323    0.2598    0.0000 C   0  0  0  0  0  0  0  0  0
   -4.5448   -0.4547    0.0000 C   0  0  0  0  0  0  0  0  0
   -5.3698   -0.4547    0.0000 C   0  0  0  0  0  0  0  0  0
   -3.3073    0.2598    0.0000 C   0  0  0  0  0  0  0  0  0
   -2.8223   -0.4076    0.0000 S   0  0  0  0  0  0  0  0  0
   -2.0377   -0.1527    0.0000 C   0  0  0  0  0  0  0  0  0
   -2.0377    0.6723    0.0000 C   0  0  0  0  0  0  0  0  0
   -2.8223    0.9272    0.0000 N   0  0  0  0  0  0  0  0  0
   -1.3232    1.0848    0.0000 C   0  0  0  0  0  0  0  0  0
   -0.6088    0.6723    0.0000 C   0  0  0  0  0  0  0  0  0
    0.1057    1.0848    0.0000 Cl  0  0  0  0  0  0  0  0  0
   -0.6088   -0.1527    0.0000 C   0  0  0  0  0  0  0  0  0
   -1.3232   -0.5652    0.0000 C   0  0  0  0  0  0  0  0  0
  1  2  1  0  0  0  0
  2  3  4  0  0  0  0
  2  7  4  0  0  0  0
  3  4  4  0  0  0  0
  4  5  4  0  0  0  0
  5  6  4  0  0  0  0
  5  8  1  0  0  0  0
  6  7  4  0  0  0  0
  8  9  1  0  0  0  0
  9 10  1  0  0  0  0
  9 14  1  0  0  0  0
 10 11  1  0  0  0  0
 11 12  1  0  0  0  0
 12 13  2  0  0  0  0
 12 15  1  0  0  0  0
 13 14  1  0  0  0  0
 15 16  4  0  0  0  0
 15 19  4  0  0  0  0
 16 17  4  0  0  0  0
 17 18  4  0  0  0  0
 17 24  4  0  0  0  0
 18 19  4  0  0  0  0
 18 20  4  0  0  0  0
 20 21  4  0  0  0  0
 21 22  1  0  0  0  0
 21 23  4  0  0  0  0
 23 24  4  0  0  0  0
M  END
>  <Name_Molregno>
112443

>  <DOPAMINE D2>
5.7

>  <DOPAMINE D3>
6.18

>  <DOPAMINE D4>
7.68

$$$$
112491
  Marvin  02231216192D 0   1.00000     0.00000     0

 22 25  0  0  0  0  0  0  0  0999 V2000
   -0.1703   -0.4720    0.0000 S   0  0  0  0  0  0  0  0  0
    0.6143   -0.2171    0.0000 C   0  0  0  0  0  0  0  0  0
    0.6143    0.6079    0.0000 C   0  0  0  0  0  0  0  0  0
   -0.1703    0.8629    0.0000 N   0  0  0  0  0  0  0  0  0
   -0.6552    0.1954    0.0000 C   0  0  0  0  0  0  0  0  0
   -1.4802    0.1954    0.0000 C   0  0  0  0  0  0  0  0  0
   -1.8927   -0.5190    0.0000 C   0  0  0  0  0  0  0  0  0
   -2.7177   -0.5190    0.0000 C   0  0  0  0  0  0  0  0  0
   -3.1302    0.1954    0.0000 N   0  0  0  0  0  0  0  0  0
   -2.7177    0.9099    0.0000 C   0  0  0  0  0  0  0  0  0
   -1.8927    0.9099    0.0000 C   0  0  0  0  0  0  0  0  0
   -3.9552    0.1954    0.0000 C   0  0  0  0  0  0  0  0  0
   -4.3677    0.9099    0.0000 C   0  0  0  0  0  0  0  0  0
   -5.1927    0.9099    0.0000 C   0  0  0  0  0  0  0  0  0
   -5.6052    1.6244    0.0000 C   0  0  0  0  0  0  0  0  0
   -5.1927    2.3388    0.0000 C   0  0  0  0  0  0  0  0  0
   -4.3677    2.3388    0.0000 C   0  0  0  0  0  0  0  0  0
   -3.9552    1.6244    0.0000 C   0  0  0  0  0  0  0  0  0
    1.3288    1.0204    0.0000 C   0  0  0  0  0  0  0  0  0
    2.0433    0.6079    0.0000 C   0  0  0  0  0  0  0  0  0
    2.0433   -0.2171    0.0000 C   0  0  0  0  0  0  0  0  0
    1.3288   -0.6296    0.0000 C   0  0  0  0  0  0  0  0  0
  1  2  4  0  0  0  0
  1  5  4  0  0  0  0
  2  3  4  0  0  0  0
  2 22  4  0  0  0  0
  3  4  4  0  0  0  0
  3 19  4  0  0  0  0
  4  5  4  0  0  0  0
  5  6  1  0  0  0  0
  6  7  1  0  0  0  0
  6 11  2  0  0  0  0
  7  8  1  0  0  0  0
  8  9  1  0  0  0  0
  9 10  1  0  0  0  0
  9 12  1  0  0  0  0
 10 11  1  0  0  0  0
 12 13  1  0  0  0  0
 13 14  4  0  0  0  0
 13 18  4  0  0  0  0
 14 15  4  0  0  0  0
 15 16  4  0  0  0  0
 16 17  4  0  0  0  0
 17 18  4  0  0  0  0
 19 20  4  0  0  0  0
 20 21  4  0  0  0  0
 21 22  4  0  0  0  0
M  END
>  <Name_Molregno>
112491

>  <DOPAMINE D2>
6.22

>  <DOPAMINE D3>
6.25

>  <DOPAMINE D4>
8.3

$$$$
112492
  Marvin  02231216192D 0   1.00000     0.00000     0

 23 26  0  0  0  0  0  0  0  0999 V2000
    8.7407   -0.9689    0.0000 Cl  0  0  0  0  0  0  0  0  0
    8.0262   -0.5564    0.0000 C   0  0  0  0  0  0  0  0  0
    7.3117   -0.9689    0.0000 C   0  0  0  0  0  0  0  0  0
    6.5973   -0.5564    0.0000 C   0  0  0  0  0  0  0  0  0
    5.8126   -0.8114    0.0000 N   0  0  0  0  0  0  0  0  0
    5.3277   -0.1439    0.0000 C   0  0  0  0  0  0  0  0  0
    5.8126    0.5235    0.0000 O   0  0  0  0  0  0  0  0  0
    6.5973    0.2686    0.0000 C   0  0  0  0  0  0  0  0  0
    7.3117    0.6811    0.0000 C   0  0  0  0  0  0  0  0  0
    8.0262    0.2686    0.0000 C   0  0  0  0  0  0  0  0  0
    4.5027   -0.1439    0.0000 C   0  0  0  0  0  0  0  0  0
    4.0902   -0.8584    0.0000 C   0  0  0  0  0  0  0  0  0
    3.2652   -0.8584    0.0000 C   0  0  0  0  0  0  0  0  0
    2.8527   -0.1439    0.0000 N   0  0  0  0  0  0  0  0  0
    3.2652    0.5705    0.0000 C   0  0  0  0  0  0  0  0  0
    4.0902    0.5705    0.0000 C   0  0  0  0  0  0  0  0  0
    2.0277   -0.1439    0.0000 C   0  0  0  0  0  0  0  0  0
    1.6152    0.5705    0.0000 C   0  0  0  0  0  0  0  0  0
    0.7902    0.5705    0.0000 C   0  0  0  0  0  0  0  0  0
    0.3777    1.2850    0.0000 C   0  0  0  0  0  0  0  0  0
    0.7902    1.9995    0.0000 C   0  0  0  0  0  0  0  0  0
    1.6152    1.9995    0.0000 C   0  0  0  0  0  0  0  0  0
    2.0277    1.2850    0.0000 C   0  0  0  0  0  0  0  0  0
  1  2  1  0  0  0  0
  2  3  4  0  0  0  0
  2 10  4  0  0  0  0
  3  4  4  0  0  0  0
  4  5  4  0  0  0  0
  4  8  4  0  0  0  0
  5  6  4  0  0  0  0
  6  7  4  0  0  0  0
  6 11  1  0  0  0  0
  7  8  4  0  0  0  0
  8  9  4  0  0  0  0
  9 10  4  0  0  0  0
 11 12  1  0  0  0  0
 11 16  2  0  0  0  0
 12 13  1  0  0  0  0
 13 14  1  0  0  0  0
 14 15  1  0  0  0  0
 14 17  1  0  0  0  0
 15 16  1  0  0  0  0
 17 18  1  0  0  0  0
 18 19  4  0  0  0  0
 18 23  4  0  0  0  0
 19 20  4  0  0  0  0
 20 21  4  0  0  0  0
 21 22  4  0  0  0  0
 22 23  4  0  0  0  0
M  END
>  <Name_Molregno>
112492

>  <DOPAMINE D2>
5.74

>  <DOPAMINE D3>
5.8

>  <DOPAMINE D4>
7.77

$$$$
112509
  Marvin  02231216192D 0   1.00000     0.00000     0

 23 26  0  0  0  0  0  0  0  0999 V2000
   -4.8251   -1.3751    0.0000 Cl  0  0  0  0  0  0  0  0  0
   -5.6501   -1.3751    0.0000 C   0  0  0  0  0  0  0  0  0
   -6.0626   -2.0895    0.0000 C   0  0  0  0  0  0  0  0  0
   -6.8876   -2.0895    0.0000 C   0  0  0  0  0  0  0  0  0
   -7.3001   -1.3751    0.0000 C   0  0  0  0  0  0  0  0  0
   -6.8876   -0.6606    0.0000 C   0  0  0  0  0  0  0  0  0
   -6.0626   -0.6606    0.0000 C   0  0  0  0  0  0  0  0  0
   -5.6501    0.0539    0.0000 C   0  0  0  0  0  0  0  0  0
   -4.8251    0.0539    0.0000 N   0  0  0  0  0  0  0  0  0
   -4.4126    0.7684    0.0000 C   0  0  0  0  0  0  0  0  0
   -3.5876    0.7684    0.0000 C   0  0  0  0  0  0  0  0  0
   -3.1751    0.0539    0.0000 C   0  0  0  0  0  0  0  0  0
   -3.5876   -0.6606    0.0000 C   0  0  0  0  0  0  0  0  0
   -4.4126   -0.6606    0.0000 C   0  0  0  0  0  0  0  0  0
   -2.3501    0.0539    0.0000 C   0  0  0  0  0  0  0  0  0
   -1.8651   -0.6136    0.0000 S   0  0  0  0  0  0  0  0  0
   -1.0805   -0.3586    0.0000 C   0  0  0  0  0  0  0  0  0
   -1.0805    0.4664    0.0000 C   0  0  0  0  0  0  0  0  0
   -1.8651    0.7213    0.0000 N   0  0  0  0  0  0  0  0  0
   -0.3661    0.8789    0.0000 C   0  0  0  0  0  0  0  0  0
    0.3484    0.4664    0.0000 C   0  0  0  0  0  0  0  0  0
    0.3484   -0.3586    0.0000 C   0  0  0  0  0  0  0  0  0
   -0.3661   -0.7711    0.0000 C   0  0  0  0  0  0  0  0  0
  1  2  1  0  0  0  0
  2  3  4  0  0  0  0
  2  7  4  0  0  0  0
  3  4  4  0  0  0  0
  4  5  4  0  0  0  0
  5  6  4  0  0  0  0
  6  7  4  0  0  0  0
  7  8  1  0  0  0  0
  8  9  1  0  0  0  0
  9 10  1  0  0  0  0
  9 14  1  0  0  0  0
 10 11  1  0  0  0  0
 11 12  1  0  0  0  0
 12 13  2  0  0  0  0
 12 15  1  0  0  0  0
 13 14  1  0  0  0  0
 15 16  4  0  0  0  0
 15 19  4  0  0  0  0
 16 17  4  0  0  0  0
 17 18  4  0  0  0  0
 17 23  4  0  0  0  0
 18 19  4  0  0  0  0
 18 20  4  0  0  0  0
 20 21  4  0  0  0  0
 21 22  4  0  0  0  0
 22 23  4  0  0  0  0
M  END
>  <Name_Molregno>
112509

>  <DOPAMINE D2>
5.7

>  <DOPAMINE D3>
5.85

>  <DOPAMINE D4>
7.06

$$$$
112518
  Marvin  02231216192D 0   1.00000     0.00000     0

 23 26  0  0  0  0  0  0  0  0999 V2000
    8.7407   -0.9689    0.0000 Cl  0  0  0  0  0  0  0  0  0
    8.0262   -0.5564    0.0000 C   0  0  0  0  0  0  0  0  0
    7.3117   -0.9689    0.0000 C   0  0  0  0  0  0  0  0  0
    6.5973   -0.5564    0.0000 C   0  0  0  0  0  0  0  0  0
    5.8126   -0.8114    0.0000 N   0  0  0  0  0  0  0  0  0
    5.3277   -0.1439    0.0000 C   0  0  0  0  0  0  0  0  0
    5.8126    0.5235    0.0000 N   0  0  0  0  0  0  0  0  0
    6.5973    0.2686    0.0000 C   0  0  0  0  0  0  0  0  0
    7.3117    0.6811    0.0000 C   0  0  0  0  0  0  0  0  0
    8.0262    0.2686    0.0000 C   0  0  0  0  0  0  0  0  0
    4.5027   -0.1439    0.0000 C   0  0  0  0  0  0  0  0  0
    4.0902   -0.8584    0.0000 C   0  0  0  0  0  0  0  0  0
    3.2652   -0.8584    0.0000 C   0  0  0  0  0  0  0  0  0
    2.8527   -0.1439    0.0000 N   0  0  0  0  0  0  0  0  0
    3.2652    0.5705    0.0000 C   0  0  0  0  0  0  0  0  0
    4.0902    0.5705    0.0000 C   0  0  0  0  0  0  0  0  0
    2.0277   -0.1439    0.0000 C   0  0  0  0  0  0  0  0  0
    1.6152    0.5705    0.0000 C   0  0  0  0  0  0  0  0  0
    0.7902    0.5705    0.0000 C   0  0  0  0  0  0  0  0  0
    0.3777    1.2850    0.0000 C   0  0  0  0  0  0  0  0  0
    0.7902    1.9995    0.0000 C   0  0  0  0  0  0  0  0  0
    1.6152    1.9995    0.0000 C   0  0  0  0  0  0  0  0  0
    2.0277    1.2850    0.0000 C   0  0  0  0  0  0  0  0  0
  1  2  1  0  0  0  0
  2  3  4  0  0  0  0
  2 10  4  0  0  0  0
  3  4  4  0  0  0  0
  4  5  4  0  0  0  0
  4  8  4  0  0  0  0
  5  6  4  0  0  0  0
  6  7  4  0  0  0  0
  6 11  1  0  0  0  0
  7  8  4  0  0  0  0
  8  9  4  0  0  0  0
  9 10  4  0  0  0  0
 11 12  1  0  0  0  0
 11 16  2  0  0  0  0
 12 13  1  0  0  0  0
 13 14  1  0  0  0  0
 14 15  1  0  0  0  0
 14 17  1  0  0  0  0
 15 16  1  0  0  0  0
 17 18  1  0  0  0  0
 18 19  4  0  0  0  0
 18 23  4  0  0  0  0
 19 20  4  0  0  0  0
 20 21  4  0  0  0  0
 21 22  4  0  0  0  0
 22 23  4  0  0  0  0
M  STY  1   1 DAT
M  SAL   1  1   7
M  SDT   1 MRV_IMPLICIT_H                                        
M  SDD   1     0.0000    0.0000    DR    ALL  0       0  
M  SED   1 IMPL_H1
M  END
>  <Name_Molregno>
112518

>  <DOPAMINE D2>
6.23

>  <DOPAMINE D3>
5.54

>  <DOPAMINE D4>
7.59

$$$$
112539
  Marvin  02231216192D 0   1.00000     0.00000     0

 23 26  0  0  0  0  0  0  0  0999 V2000
   -7.8673   -2.6018    0.0000 Cl  0  0  0  0  0  0  0  0  0
   -7.4548   -1.8873    0.0000 C   0  0  0  0  0  0  0  0  0
   -7.8673   -1.1728    0.0000 C   0  0  0  0  0  0  0  0  0
   -7.4548   -0.4584    0.0000 C   0  0  0  0  0  0  0  0  0
   -6.6298   -0.4584    0.0000 C   0  0  0  0  0  0  0  0  0
   -6.2173   -1.1728    0.0000 C   0  0  0  0  0  0  0  0  0
   -6.6298   -1.8873    0.0000 C   0  0  0  0  0  0  0  0  0
   -6.2173    0.2561    0.0000 C   0  0  0  0  0  0  0  0  0
   -5.3923    0.2561    0.0000 N   0  0  0  0  0  0  0  0  0
   -4.9798    0.9706    0.0000 C   0  0  0  0  0  0  0  0  0
   -4.1548    0.9706    0.0000 C   0  0  0  0  0  0  0  0  0
   -3.7423    0.2561    0.0000 C   0  0  0  0  0  0  0  0  0
   -4.1548   -0.4584    0.0000 C   0  0  0  0  0  0  0  0  0
   -4.9798   -0.4584    0.0000 C   0  0  0  0  0  0  0  0  0
   -2.9173    0.2561    0.0000 C   0  0  0  0  0  0  0  0  0
   -2.4324   -0.4113    0.0000 S   0  0  0  0  0  0  0  0  0
   -1.6477   -0.1564    0.0000 C   0  0  0  0  0  0  0  0  0
   -1.6477    0.6686    0.0000 C   0  0  0  0  0  0  0  0  0
   -2.4324    0.9236    0.0000 N   0  0  0  0  0  0  0  0  0
   -0.9333    1.0811    0.0000 C   0  0  0  0  0  0  0  0  0
   -0.2188    0.6686    0.0000 C   0  0  0  0  0  0  0  0  0
   -0.2188   -0.1564    0.0000 C   0  0  0  0  0  0  0  0  0
   -0.9333   -0.5689    0.0000 C   0  0  0  0  0  0  0  0  0
  1  2  1  0  0  0  0
  2  3  4  0  0  0  0
  2  7  4  0  0  0  0
  3  4  4  0  0  0  0
  4  5  4  0  0  0  0
  5  6  4  0  0  0  0
  5  8  1  0  0  0  0
  6  7  4  0  0  0  0
  8  9  1  0  0  0  0
  9 10  1  0  0  0  0
  9 14  1  0  0  0  0
 10 11  1  0  0  0  0
 11 12  1  0  0  0  0
 12 13  2  0  0  0  0
 12 15  1  0  0  0  0
 13 14  1  0  0  0  0
 15 16  4  0  0  0  0
 15 19  4  0  0  0  0
 16 17  4  0  0  0  0
 17 18  4  0  0  0  0
 17 23  4  0  0  0  0
 18 19  4  0  0  0  0
 18 20  4  0  0  0  0
 20 21  4  0  0  0  0
 21 22  4  0  0  0  0
 22 23  4  0  0  0  0
M  END
>  <Name_Molregno>
112539

>  <DOPAMINE D2>
5.8

>  <DOPAMINE D3>
5.36

>  <DOPAMINE D4>
8.89

$$$$
112838
  Marvin  02231216192D 0   1.00000     0.00000     0

 30 32  0  0  0  0  0  0  0  0999 V2000
    0.1819    2.5685    0.0000 Br  0  0  0  0  0  0  0  0  0
    0.8964    2.1560    0.0000 C   0  0  0  0  0  0  0  0  0
    1.6109    2.5685    0.0000 C   0  0  0  0  0  0  0  0  0
    2.3253    2.1560    0.0000 C   0  0  0  0  0  0  0  0  0
    2.3253    1.3310    0.0000 C   0  0  0  0  0  0  0  0  0
    1.6109    0.9185    0.0000 C   0  0  0  0  0  0  0  0  0
    0.8964    1.3310    0.0000 C   0  0  0  0  0  0  0  0  0
    3.0398    0.9185    0.0000 C   0  0  0  0  0  0  0  0  0
    3.0398    0.0935    0.0000 O   0  0  0  0  0  0  0  0  0
    3.7543    1.3310    0.0000 N   0  0  0  0  0  0  0  0  0
    4.4687    0.9185    0.0000 C   0  0  0  0  0  0  0  0  0
    5.1832    1.3310    0.0000 C   0  0  0  0  0  0  0  0  0
    5.8977    0.9185    0.0000 C   0  0  0  0  0  0  0  0  0
    6.6122    1.3310    0.0000 C   0  0  0  0  0  0  0  0  0
    7.3266    0.9185    0.0000 N   0  0  0  0  0  0  0  0  0
    8.0411    1.3310    0.0000 C   0  0  0  0  0  0  0  0  0
    8.7556    0.9185    0.0000 C   0  0  0  0  0  0  0  0  0
    8.7556    0.0935    0.0000 N   0  0  0  0  0  0  0  0  0
    8.0411   -0.3190    0.0000 C   0  0  0  0  0  0  0  0  0
    7.3266    0.0935    0.0000 C   0  0  0  0  0  0  0  0  0
    9.4700   -0.3190    0.0000 C   0  0  0  0  0  0  0  0  0
   10.1845    0.0935    0.0000 C   0  0  0  0  0  0  0  0  0
   10.8990   -0.3190    0.0000 C   0  0  0  0  0  0  0  0  0
   11.6135    0.0935    0.0000 O   0  0  0  0  0  0  0  0  0
   11.6135    0.9185    0.0000 C   0  0  0  0  0  0  0  0  0
   10.8990   -1.1440    0.0000 C   0  0  0  0  0  0  0  0  0
   10.1845   -1.5565    0.0000 C   0  0  0  0  0  0  0  0  0
    9.4700   -1.1440    0.0000 C   0  0  0  0  0  0  0  0  0
    8.7556   -1.5565    0.0000 O   0  0  0  0  0  0  0  0  0
    8.7556   -2.3815    0.0000 C   0  0  0  0  0  0  0  0  0
  1  2  1  0  0  0  0
  2  3  4  0  0  0  0
  2  7  4  0  0  0  0
  3  4  4  0  0  0  0
  4  5  4  0  0  0  0
  5  6  4  0  0  0  0
  5  8  1  0  0  0  0
  6  7  4  0  0  0  0
  8  9  2  0  0  0  0
  8 10  1  0  0  0  0
 10 11  1  0  0  0  0
 11 12  1  0  0  0  0
 12 13  1  0  0  0  0
 13 14  1  0  0  0  0
 14 15  1  0  0  0  0
 15 16  1  0  0  0  0
 15 20  1  0  0  0  0
 16 17  1  0  0  0  0
 17 18  1  0  0  0  0
 18 19  1  0  0  0  0
 18 21  1  0  0  0  0
 19 20  1  0  0  0  0
 21 22  4  0  0  0  0
 21 28  4  0  0  0  0
 22 23  4  0  0  0  0
 23 24  1  0  0  0  0
 23 26  4  0  0  0  0
 24 25  1  0  0  0  0
 26 27  4  0  0  0  0
 27 28  4  0  0  0  0
 28 29  1  0  0  0  0
 29 30  1  0  0  0  0
M  END
>  <Name_Molregno>
112838

>  <DOPAMINE D3>
8.5

$$$$
122429
  Marvin  02231216192D 0   1.00000     0.00000     0

 23 26  0  0  0  0  0  0  0  0999 V2000
    1.4515   -2.7342    0.0000 Cl  0  0  0  0  0  0  0  0  0
    1.8640   -2.0197    0.0000 C   0  0  0  0  0  0  0  0  0
    1.4515   -1.3053    0.0000 C   0  0  0  0  0  0  0  0  0
    1.8640   -0.5908    0.0000 C   0  0  0  0  0  0  0  0  0
    2.6890   -0.5908    0.0000 C   0  0  0  0  0  0  0  0  0
    3.1015    0.1237    0.0000 N   0  0  0  0  0  0  0  0  0
    2.6890    0.8382    0.0000 C   0  0  0  0  0  0  0  0  0
    3.1015    1.5526    0.0000 C   0  0  0  0  0  0  0  0  0
    3.9265    1.5526    0.0000 N   0  0  0  0  0  0  0  0  0
    4.3390    0.8382    0.0000 C   0  0  0  0  0  0  0  0  0
    3.9265    0.1237    0.0000 C   0  0  0  0  0  0  0  0  0
    4.3390    2.2671    0.0000 C   0  0  0  0  0  0  0  0  0
    5.1640    2.2671    0.0000 C   0  0  0  0  0  0  0  0  0
    5.6489    1.5997    0.0000 N   0  0  0  0  0  0  0  0  0
    6.4336    1.8546    0.0000 N   0  0  0  0  0  0  0  0  0
    6.4336    2.6796    0.0000 C   0  0  0  0  0  0  0  0  0
    5.6489    2.9345    0.0000 C   0  0  0  0  0  0  0  0  0
    7.1480    3.0921    0.0000 C   0  0  0  0  0  0  0  0  0
    7.8625    2.6796    0.0000 C   0  0  0  0  0  0  0  0  0
    7.8625    1.8546    0.0000 C   0  0  0  0  0  0  0  0  0
    7.1480    1.4421    0.0000 C   0  0  0  0  0  0  0  0  0
    3.1015   -1.3053    0.0000 C   0  0  0  0  0  0  0  0  0
    2.6890   -2.0197    0.0000 C   0  0  0  0  0  0  0  0  0
  1  2  1  0  0  0  0
  2  3  4  0  0  0  0
  2 23  4  0  0  0  0
  3  4  4  0  0  0  0
  4  5  4  0  0  0  0
  5  6  1  0  0  0  0
  5 22  4  0  0  0  0
  6  7  1  0  0  0  0
  6 11  1  0  0  0  0
  7  8  1  0  0  0  0
  8  9  1  0  0  0  0
  9 10  1  0  0  0  0
  9 12  1  0  0  0  0
 10 11  1  0  0  0  0
 12 13  1  0  0  0  0
 13 14  4  0  0  0  0
 13 17  4  0  0  0  0
 14 15  4  0  0  0  0
 15 16  4  0  0  0  0
 15 21  4  0  0  0  0
 16 17  4  0  0  0  0
 16 18  4  0  0  0  0
 18 19  4  0  0  0  0
 19 20  4  0  0  0  0
 20 21  4  0  0  0  0
 22 23  4  0  0  0  0
M  END
>  <Name_Molregno>
122429

>  <DOPAMINE D2>
5.46

>  <DOPAMINE D3>
5.25

>  <DOPAMINE D4>
8.54

$$$$
125195
  Marvin  02231216192D 0   1.00000     0.00000     0

 27 30  0  0  0  0  0  0  0  0999 V2000
   -6.4751   -1.3375    0.0000 O   0  0  0  0  0  0  0  0  0
   -5.7607   -0.9250    0.0000 C   0  0  0  0  0  0  0  0  0
   -5.7607   -0.1000    0.0000 C   0  0  0  0  0  0  0  0  0
   -6.4751    0.3125    0.0000 N   0  0  0  0  0  0  0  0  0
   -7.1896   -0.1000    0.0000 C   0  0  0  0  0  0  0  0  0
   -7.1896   -0.9250    0.0000 C   0  0  0  0  0  0  0  0  0
   -7.9041   -1.3375    0.0000 C   0  0  0  0  0  0  0  0  0
   -8.6185   -0.9250    0.0000 C   0  0  0  0  0  0  0  0  0
   -8.6185   -0.1000    0.0000 C   0  0  0  0  0  0  0  0  0
   -7.9041    0.3125    0.0000 C   0  0  0  0  0  0  0  0  0
   -5.0462    0.3125    0.0000 N   0  0  0  0  0  0  0  0  0
   -4.3317   -0.1000    0.0000 C   0  0  0  0  0  0  0  0  0
   -3.6172    0.3125    0.0000 C   0  0  0  0  0  0  0  0  0
   -2.9028   -0.1000    0.0000 C   0  0  0  0  0  0  0  0  0
   -2.1883    0.3125    0.0000 C   0  0  0  0  0  0  0  0  0
   -1.4738   -0.1000    0.0000 N   0  0  0  0  0  0  0  0  0
   -0.7594    0.3125    0.0000 C   0  0  0  0  0  0  0  0  0
   -0.0449   -0.1000    0.0000 C   0  0  0  0  0  0  0  0  0
   -0.0449   -0.9250    0.0000 N   0  0  0  0  0  0  0  0  0
   -0.7594   -1.3375    0.0000 C   0  0  0  0  0  0  0  0  0
   -1.4738   -0.9250    0.0000 C   0  0  0  0  0  0  0  0  0
    0.6696   -1.3375    0.0000 C   0  0  0  0  0  0  0  0  0
    1.3841   -0.9250    0.0000 C   0  0  0  0  0  0  0  0  0
    2.0985   -1.3375    0.0000 C   0  0  0  0  0  0  0  0  0
    2.0985   -2.1625    0.0000 C   0  0  0  0  0  0  0  0  0
    1.3841   -2.5750    0.0000 C   0  0  0  0  0  0  0  0  0
    0.6696   -2.1625    0.0000 C   0  0  0  0  0  0  0  0  0
  1  2  1  0  0  0  0
  1  6  1  0  0  0  0
  2  3  1  0  0  0  0
  3  4  2  0  0  0  0
  3 11  1  0  0  0  0
  4  5  1  0  0  0  0
  5  6  4  0  0  0  0
  5 10  4  0  0  0  0
  6  7  4  0  0  0  0
  7  8  4  0  0  0  0
  8  9  4  0  0  0  0
  9 10  4  0  0  0  0
 11 12  1  0  0  0  0
 12 13  1  0  0  0  0
 13 14  1  0  0  0  0
 14 15  1  0  0  0  0
 15 16  1  0  0  0  0
 16 17  1  0  0  0  0
 16 21  1  0  0  0  0
 17 18  1  0  0  0  0
 18 19  1  0  0  0  0
 19 20  1  0  0  0  0
 19 22  1  0  0  0  0
 20 21  1  0  0  0  0
 22 23  4  0  0  0  0
 22 27  4  0  0  0  0
 23 24  4  0  0  0  0
 24 25  4  0  0  0  0
 25 26  4  0  0  0  0
 26 27  4  0  0  0  0
M  END
>  <Name_Molregno>
125195

>  <DOPAMINE D2>
5.56

>  <DOPAMINE D3>
5.4

>  <DOPAMINE D4>
6.73

$$$$
125905
  Marvin  02231216192D 0   1.00000     0.00000     0

 28 31  0  0  0  0  0  0  0  0999 V2000
   -0.5594    0.5963    0.0000 O   0  0  0  0  0  0  0  0  0
    0.1550    0.1838    0.0000 C   0  0  0  0  0  0  0  0  0
    0.8695    0.5963    0.0000 C   0  0  0  0  0  0  0  0  0
    0.8695    1.4213    0.0000 N   0  0  0  0  0  0  0  0  0
    0.1550    1.8338    0.0000 C   0  0  0  0  0  0  0  0  0
   -0.5594    1.4213    0.0000 C   0  0  0  0  0  0  0  0  0
   -1.2739    1.8338    0.0000 C   0  0  0  0  0  0  0  0  0
   -1.2739    2.6588    0.0000 C   0  0  0  0  0  0  0  0  0
   -0.5594    3.0713    0.0000 C   0  0  0  0  0  0  0  0  0
    0.1550    2.6588    0.0000 C   0  0  0  0  0  0  0  0  0
    1.5840    0.1838    0.0000 N   0  0  0  0  0  0  0  0  0
    2.2985    0.5963    0.0000 C   0  0  0  0  0  0  0  0  0
    3.0129    0.1838    0.0000 C   0  0  0  0  0  0  0  0  0
    3.7274    0.5963    0.0000 C   0  0  0  0  0  0  0  0  0
    4.4419    0.1838    0.0000 C   0  0  0  0  0  0  0  0  0
    5.1563    0.5963    0.0000 C   0  0  0  0  0  0  0  0  0
    5.8708    0.1838    0.0000 N   0  0  0  0  0  0  0  0  0
    6.5853    0.5963    0.0000 C   0  0  0  0  0  0  0  0  0
    7.2998    0.1838    0.0000 C   0  0  0  0  0  0  0  0  0
    7.2998   -0.6412    0.0000 N   0  0  0  0  0  0  0  0  0
    6.5853   -1.0537    0.0000 C   0  0  0  0  0  0  0  0  0
    5.8708   -0.6412    0.0000 C   0  0  0  0  0  0  0  0  0
    8.0142   -1.0537    0.0000 C   0  0  0  0  0  0  0  0  0
    8.7287   -0.6412    0.0000 N   0  0  0  0  0  0  0  0  0
    9.4432   -1.0537    0.0000 C   0  0  0  0  0  0  0  0  0
    9.4432   -1.8787    0.0000 C   0  0  0  0  0  0  0  0  0
    8.7287   -2.2912    0.0000 C   0  0  0  0  0  0  0  0  0
    8.0142   -1.8787    0.0000 N   0  0  0  0  0  0  0  0  0
  1  2  1  0  0  0  0
  1  6  1  0  0  0  0
  2  3  1  0  0  0  0
  3  4  2  0  0  0  0
  3 11  1  0  0  0  0
  4  5  1  0  0  0  0
  5  6  4  0  0  0  0
  5 10  4  0  0  0  0
  6  7  4  0  0  0  0
  7  8  4  0  0  0  0
  8  9  4  0  0  0  0
  9 10  4  0  0  0  0
 11 12  1  0  0  0  0
 12 13  1  0  0  0  0
 13 14  1  0  0  0  0
 14 15  1  0  0  0  0
 15 16  1  0  0  0  0
 16 17  1  0  0  0  0
 17 18  1  0  0  0  0
 17 22  1  0  0  0  0
 18 19  1  0  0  0  0
 19 20  1  0  0  0  0
 20 21  1  0  0  0  0
 20 23  1  0  0  0  0
 21 22  1  0  0  0  0
 23 24  4  0  0  0  0
 23 28  4  0  0  0  0
 24 25  4  0  0  0  0
 25 26  4  0  0  0  0
 26 27  4  0  0  0  0
 27 28  4  0  0  0  0
M  END
>  <Name_Molregno>
125905

>  <DOPAMINE D2>
5.6

>  <DOPAMINE D3>
5.74

>  <DOPAMINE D4>
7.72

$$$$
125939
  Marvin  02231216192D 0   1.00000     0.00000     0

 28 31  0  0  0  0  0  0  0  0999 V2000
   -0.5594    0.5963    0.0000 O   0  0  0  0  0  0  0  0  0
    0.1550    0.1838    0.0000 C   0  0  0  0  0  0  0  0  0
    0.8695    0.5963    0.0000 C   0  0  0  0  0  0  0  0  0
    0.8695    1.4213    0.0000 N   0  0  0  0  0  0  0  0  0
    0.1550    1.8338    0.0000 C   0  0  0  0  0  0  0  0  0
   -0.5594    1.4213    0.0000 C   0  0  0  0  0  0  0  0  0
   -1.2739    1.8338    0.0000 C   0  0  0  0  0  0  0  0  0
   -1.2739    2.6588    0.0000 C   0  0  0  0  0  0  0  0  0
   -0.5594    3.0713    0.0000 C   0  0  0  0  0  0  0  0  0
    0.1550    2.6588    0.0000 C   0  0  0  0  0  0  0  0  0
    1.5840    0.1838    0.0000 N   0  0  0  0  0  0  0  0  0
    2.2985    0.5963    0.0000 C   0  0  0  0  0  0  0  0  0
    3.0129    0.1838    0.0000 C   0  0  0  0  0  0  0  0  0
    3.7274    0.5963    0.0000 C   0  0  0  0  0  0  0  0  0
    4.4419    0.1838    0.0000 C   0  0  0  0  0  0  0  0  0
    5.1563    0.5963    0.0000 C   0  0  0  0  0  0  0  0  0
    5.8708    0.1838    0.0000 N   0  0  0  0  0  0  0  0  0
    6.5853    0.5963    0.0000 C   0  0  0  0  0  0  0  0  0
    7.2998    0.1838    0.0000 C   0  0  0  0  0  0  0  0  0
    7.2998   -0.6412    0.0000 N   0  0  0  0  0  0  0  0  0
    6.5853   -1.0537    0.0000 C   0  0  0  0  0  0  0  0  0
    5.8708   -0.6412    0.0000 C   0  0  0  0  0  0  0  0  0
    8.0142   -1.0537    0.0000 C   0  0  0  0  0  0  0  0  0
    8.7287   -0.6412    0.0000 N   0  0  0  0  0  0  0  0  0
    9.4432   -1.0537    0.0000 C   0  0  0  0  0  0  0  0  0
    9.4432   -1.8787    0.0000 C   0  0  0  0  0  0  0  0  0
    8.7287   -2.2912    0.0000 C   0  0  0  0  0  0  0  0  0
    8.0142   -1.8787    0.0000 C   0  0  0  0  0  0  0  0  0
  1  2  1  0  0  0  0
  1  6  1  0  0  0  0
  2  3  1  0  0  0  0
  3  4  2  0  0  0  0
  3 11  1  0  0  0  0
  4  5  1  0  0  0  0
  5  6  4  0  0  0  0
  5 10  4  0  0  0  0
  6  7  4  0  0  0  0
  7  8  4  0  0  0  0
  8  9  4  0  0  0  0
  9 10  4  0  0  0  0
 11 12  1  0  0  0  0
 12 13  1  0  0  0  0
 13 14  1  0  0  0  0
 14 15  1  0  0  0  0
 15 16  1  0  0  0  0
 16 17  1  0  0  0  0
 17 18  1  0  0  0  0
 17 22  1  0  0  0  0
 18 19  1  0  0  0  0
 19 20  1  0  0  0  0
 20 21  1  0  0  0  0
 20 23  1  0  0  0  0
 21 22  1  0  0  0  0
 23 24  4  0  0  0  0
 23 28  4  0  0  0  0
 24 25  4  0  0  0  0
 25 26  4  0  0  0  0
 26 27  4  0  0  0  0
 27 28  4  0  0  0  0
M  END
>  <Name_Molregno>
125939

>  <DOPAMINE D2>
6.27

>  <DOPAMINE D3>
6.39

>  <DOPAMINE D4>
7.3

$$$$
125941
  Marvin  02231216192D 0   1.00000     0.00000     0

 26 29  0  0  0  0  0  0  0  0999 V2000
   -1.1787    3.0166    0.0000 O   0  0  0  0  0  0  0  0  0
   -1.8932    2.6041    0.0000 C   0  0  0  0  0  0  0  0  0
   -1.8932    1.7791    0.0000 C   0  0  0  0  0  0  0  0  0
   -1.1787    1.3666    0.0000 N   0  0  0  0  0  0  0  0  0
   -0.4643    1.7791    0.0000 C   0  0  0  0  0  0  0  0  0
   -0.4643    2.6041    0.0000 C   0  0  0  0  0  0  0  0  0
    0.2502    3.0166    0.0000 C   0  0  0  0  0  0  0  0  0
    0.9647    2.6041    0.0000 C   0  0  0  0  0  0  0  0  0
    0.9647    1.7791    0.0000 C   0  0  0  0  0  0  0  0  0
    0.2502    1.3666    0.0000 C   0  0  0  0  0  0  0  0  0
   -2.6077    1.3666    0.0000 N   0  0  0  0  0  0  0  0  0
   -2.6077    0.5416    0.0000 C   0  0  0  0  0  0  0  0  0
   -3.3221    0.1291    0.0000 C   0  0  0  0  0  0  0  0  0
   -3.3221   -0.6959    0.0000 C   0  0  0  0  0  0  0  0  0
   -4.0366   -1.1084    0.0000 N   0  0  0  0  0  0  0  0  0
   -4.0366   -1.9334    0.0000 C   0  0  0  0  0  0  0  0  0
   -4.7511   -2.3459    0.0000 C   0  0  0  0  0  0  0  0  0
   -5.4656   -1.9334    0.0000 N   0  0  0  0  0  0  0  0  0
   -5.4656   -1.1084    0.0000 C   0  0  0  0  0  0  0  0  0
   -4.7511   -0.6959    0.0000 C   0  0  0  0  0  0  0  0  0
   -6.1800   -2.3459    0.0000 C   0  0  0  0  0  0  0  0  0
   -6.1800   -3.1709    0.0000 N   0  0  0  0  0  0  0  0  0
   -6.8945   -3.5834    0.0000 C   0  0  0  0  0  0  0  0  0
   -7.6090   -3.1709    0.0000 C   0  0  0  0  0  0  0  0  0
   -7.6090   -2.3459    0.0000 C   0  0  0  0  0  0  0  0  0
   -6.8945   -1.9334    0.0000 C   0  0  0  0  0  0  0  0  0
  1  2  1  0  0  0  0
  1  6  1  0  0  0  0
  2  3  1  0  0  0  0
  3  4  2  0  0  0  0
  3 11  1  0  0  0  0
  4  5  1  0  0  0  0
  5  6  4  0  0  0  0
  5 10  4  0  0  0  0
  6  7  4  0  0  0  0
  7  8  4  0  0  0  0
  8  9  4  0  0  0  0
  9 10  4  0  0  0  0
 11 12  1  0  0  0  0
 12 13  1  0  0  0  0
 13 14  1  0  0  0  0
 14 15  1  0  0  0  0
 15 16  1  0  0  0  0
 15 20  1  0  0  0  0
 16 17  1  0  0  0  0
 17 18  1  0  0  0  0
 18 19  1  0  0  0  0
 18 21  1  0  0  0  0
 19 20  1  0  0  0  0
 21 22  4  0  0  0  0
 21 26  4  0  0  0  0
 22 23  4  0  0  0  0
 23 24  4  0  0  0  0
 24 25  4  0  0  0  0
 25 26  4  0  0  0  0
M  END
>  <Name_Molregno>
125941

>  <DOPAMINE D2>
5.4

>  <DOPAMINE D3>
5.1

>  <DOPAMINE D4>
7.68

$$$$
125979
  Marvin  02231216192D 0   1.00000     0.00000     0

 27 30  0  0  0  0  0  0  0  0999 V2000
   -6.4751   -1.3375    0.0000 O   0  0  0  0  0  0  0  0  0
   -5.7607   -0.9250    0.0000 C   0  0  0  0  0  0  0  0  0
   -5.7607   -0.1000    0.0000 C   0  0  0  0  0  0  0  0  0
   -6.4751    0.3125    0.0000 N   0  0  0  0  0  0  0  0  0
   -7.1896   -0.1000    0.0000 C   0  0  0  0  0  0  0  0  0
   -7.1896   -0.9250    0.0000 C   0  0  0  0  0  0  0  0  0
   -7.9041   -1.3375    0.0000 C   0  0  0  0  0  0  0  0  0
   -8.6185   -0.9250    0.0000 C   0  0  0  0  0  0  0  0  0
   -8.6185   -0.1000    0.0000 C   0  0  0  0  0  0  0  0  0
   -7.9041    0.3125    0.0000 C   0  0  0  0  0  0  0  0  0
   -5.0462    0.3125    0.0000 N   0  0  0  0  0  0  0  0  0
   -4.3317   -0.1000    0.0000 C   0  0  0  0  0  0  0  0  0
   -3.6172    0.3125    0.0000 C   0  0  0  0  0  0  0  0  0
   -2.9028   -0.1000    0.0000 C   0  0  0  0  0  0  0  0  0
   -2.1883    0.3125    0.0000 C   0  0  0  0  0  0  0  0  0
   -1.4738   -0.1000    0.0000 N   0  0  0  0  0  0  0  0  0
   -0.7594    0.3125    0.0000 C   0  0  0  0  0  0  0  0  0
   -0.0449   -0.1000    0.0000 C   0  0  0  0  0  0  0  0  0
   -0.0449   -0.9250    0.0000 N   0  0  0  0  0  0  0  0  0
   -0.7594   -1.3375    0.0000 C   0  0  0  0  0  0  0  0  0
   -1.4738   -0.9250    0.0000 C   0  0  0  0  0  0  0  0  0
    0.6696   -1.3375    0.0000 C   0  0  0  0  0  0  0  0  0
    1.3841   -0.9250    0.0000 N   0  0  0  0  0  0  0  0  0
    2.0985   -1.3375    0.0000 C   0  0  0  0  0  0  0  0  0
    2.0985   -2.1625    0.0000 C   0  0  0  0  0  0  0  0  0
    1.3841   -2.5750    0.0000 C   0  0  0  0  0  0  0  0  0
    0.6696   -2.1625    0.0000 N   0  0  0  0  0  0  0  0  0
  1  2  1  0  0  0  0
  1  6  1  0  0  0  0
  2  3  1  0  0  0  0
  3  4  2  0  0  0  0
  3 11  1  0  0  0  0
  4  5  1  0  0  0  0
  5  6  4  0  0  0  0
  5 10  4  0  0  0  0
  6  7  4  0  0  0  0
  7  8  4  0  0  0  0
  8  9  4  0  0  0  0
  9 10  4  0  0  0  0
 11 12  1  0  0  0  0
 12 13  1  0  0  0  0
 13 14  1  0  0  0  0
 14 15  1  0  0  0  0
 15 16  1  0  0  0  0
 16 17  1  0  0  0  0
 16 21  1  0  0  0  0
 17 18  1  0  0  0  0
 18 19  1  0  0  0  0
 19 20  1  0  0  0  0
 19 22  1  0  0  0  0
 20 21  1  0  0  0  0
 22 23  4  0  0  0  0
 22 27  4  0  0  0  0
 23 24  4  0  0  0  0
 24 25  4  0  0  0  0
 25 26  4  0  0  0  0
 26 27  4  0  0  0  0
M  END
>  <Name_Molregno>
125979

>  <DOPAMINE D2>
5.4

>  <DOPAMINE D3>
5.1

>  <DOPAMINE D4>
6.79

$$$$
126485
  Marvin  02231216192D 0   1.00000     0.00000     0

 26 29  0  0  0  0  0  0  0  0999 V2000
   -1.1787    3.0166    0.0000 O   0  0  0  0  0  0  0  0  0
   -1.8932    2.6041    0.0000 C   0  0  0  0  0  0  0  0  0
   -1.8932    1.7791    0.0000 C   0  0  0  0  0  0  0  0  0
   -1.1787    1.3666    0.0000 N   0  0  0  0  0  0  0  0  0
   -0.4643    1.7791    0.0000 C   0  0  0  0  0  0  0  0  0
   -0.4643    2.6041    0.0000 C   0  0  0  0  0  0  0  0  0
    0.2502    3.0166    0.0000 C   0  0  0  0  0  0  0  0  0
    0.9647    2.6041    0.0000 C   0  0  0  0  0  0  0  0  0
    0.9647    1.7791    0.0000 C   0  0  0  0  0  0  0  0  0
    0.2502    1.3666    0.0000 C   0  0  0  0  0  0  0  0  0
   -2.6077    1.3666    0.0000 N   0  0  0  0  0  0  0  0  0
   -2.6077    0.5416    0.0000 C   0  0  0  0  0  0  0  0  0
   -3.3221    0.1291    0.0000 C   0  0  0  0  0  0  0  0  0
   -3.3221   -0.6959    0.0000 C   0  0  0  0  0  0  0  0  0
   -4.0366   -1.1084    0.0000 N   0  0  0  0  0  0  0  0  0
   -4.0366   -1.9334    0.0000 C   0  0  0  0  0  0  0  0  0
   -4.7511   -2.3459    0.0000 C   0  0  0  0  0  0  0  0  0
   -5.4656   -1.9334    0.0000 N   0  0  0  0  0  0  0  0  0
   -5.4656   -1.1084    0.0000 C   0  0  0  0  0  0  0  0  0
   -4.7511   -0.6959    0.0000 C   0  0  0  0  0  0  0  0  0
   -6.1800   -2.3459    0.0000 C   0  0  0  0  0  0  0  0  0
   -6.1800   -3.1709    0.0000 N   0  0  0  0  0  0  0  0  0
   -6.8945   -3.5834    0.0000 C   0  0  0  0  0  0  0  0  0
   -7.6090   -3.1709    0.0000 C   0  0  0  0  0  0  0  0  0
   -7.6090   -2.3459    0.0000 C   0  0  0  0  0  0  0  0  0
   -6.8945   -1.9334    0.0000 N   0  0  0  0  0  0  0  0  0
  1  2  1  0  0  0  0
  1  6  1  0  0  0  0
  2  3  1  0  0  0  0
  3  4  2  0  0  0  0
  3 11  1  0  0  0  0
  4  5  1  0  0  0  0
  5  6  4  0  0  0  0
  5 10  4  0  0  0  0
  6  7  4  0  0  0  0
  7  8  4  0  0  0  0
  8  9  4  0  0  0  0
  9 10  4  0  0  0  0
 11 12  1  0  0  0  0
 12 13  1  0  0  0  0
 13 14  1  0  0  0  0
 14 15  1  0  0  0  0
 15 16  1  0  0  0  0
 15 20  1  0  0  0  0
 16 17  1  0  0  0  0
 17 18  1  0  0  0  0
 18 19  1  0  0  0  0
 18 21  1  0  0  0  0
 19 20  1  0  0  0  0
 21 22  4  0  0  0  0
 21 26  4  0  0  0  0
 22 23  4  0  0  0  0
 23 24  4  0  0  0  0
 24 25  4  0  0  0  0
 25 26  4  0  0  0  0
M  END
>  <Name_Molregno>
126485

>  <DOPAMINE D2>
5.4

>  <DOPAMINE D3>
5.1

>  <DOPAMINE D4>
6.97

$$$$
126558
  Marvin  02231216192D 0   1.00000     0.00000     0

 26 29  0  0  0  0  0  0  0  0999 V2000
   -1.1787    3.0166    0.0000 O   0  0  0  0  0  0  0  0  0
   -1.8932    2.6041    0.0000 C   0  0  0  0  0  0  0  0  0
   -1.8932    1.7791    0.0000 C   0  0  0  0  0  0  0  0  0
   -1.1787    1.3666    0.0000 N   0  0  0  0  0  0  0  0  0
   -0.4643    1.7791    0.0000 C   0  0  0  0  0  0  0  0  0
   -0.4643    2.6041    0.0000 C   0  0  0  0  0  0  0  0  0
    0.2502    3.0166    0.0000 C   0  0  0  0  0  0  0  0  0
    0.9647    2.6041    0.0000 C   0  0  0  0  0  0  0  0  0
    0.9647    1.7791    0.0000 C   0  0  0  0  0  0  0  0  0
    0.2502    1.3666    0.0000 C   0  0  0  0  0  0  0  0  0
   -2.6077    1.3666    0.0000 N   0  0  0  0  0  0  0  0  0
   -2.6077    0.5416    0.0000 C   0  0  0  0  0  0  0  0  0
   -3.3221    0.1291    0.0000 C   0  0  0  0  0  0  0  0  0
   -3.3221   -0.6959    0.0000 C   0  0  0  0  0  0  0  0  0
   -4.0366   -1.1084    0.0000 N   0  0  0  0  0  0  0  0  0
   -4.0366   -1.9334    0.0000 C   0  0  0  0  0  0  0  0  0
   -4.7511   -2.3459    0.0000 C   0  0  0  0  0  0  0  0  0
   -5.4656   -1.9334    0.0000 N   0  0  0  0  0  0  0  0  0
   -5.4656   -1.1084    0.0000 C   0  0  0  0  0  0  0  0  0
   -4.7511   -0.6959    0.0000 C   0  0  0  0  0  0  0  0  0
   -6.1800   -2.3459    0.0000 C   0  0  0  0  0  0  0  0  0
   -6.1800   -3.1709    0.0000 C   0  0  0  0  0  0  0  0  0
   -6.8945   -3.5834    0.0000 C   0  0  0  0  0  0  0  0  0
   -7.6090   -3.1709    0.0000 C   0  0  0  0  0  0  0  0  0
   -7.6090   -2.3459    0.0000 C   0  0  0  0  0  0  0  0  0
   -6.8945   -1.9334    0.0000 C   0  0  0  0  0  0  0  0  0
  1  2  1  0  0  0  0
  1  6  1  0  0  0  0
  2  3  1  0  0  0  0
  3  4  2  0  0  0  0
  3 11  1  0  0  0  0
  4  5  1  0  0  0  0
  5  6  4  0  0  0  0
  5 10  4  0  0  0  0
  6  7  4  0  0  0  0
  7  8  4  0  0  0  0
  8  9  4  0  0  0  0
  9 10  4  0  0  0  0
 11 12  1  0  0  0  0
 12 13  1  0  0  0  0
 13 14  1  0  0  0  0
 14 15  1  0  0  0  0
 15 16  1  0  0  0  0
 15 20  1  0  0  0  0
 16 17  1  0  0  0  0
 17 18  1  0  0  0  0
 18 19  1  0  0  0  0
 18 21  1  0  0  0  0
 19 20  1  0  0  0  0
 21 22  4  0  0  0  0
 21 26  4  0  0  0  0
 22 23  4  0  0  0  0
 23 24  4  0  0  0  0
 24 25  4  0  0  0  0
 25 26  4  0  0  0  0
M  END
>  <Name_Molregno>
126558

>  <DOPAMINE D2>
5.7

>  <DOPAMINE D3>
5.46

>  <DOPAMINE D4>
7.74

$$$$
126560
  Marvin  02231216192D 0   1.00000     0.00000     0

 28 31  0  0  0  0  0  0  0  0999 V2000
   -1.1639    3.2374    0.0000 O   0  0  0  0  0  0  0  0  0
   -1.8784    2.8249    0.0000 C   0  0  0  0  0  0  0  0  0
   -1.8784    1.9999    0.0000 C   0  0  0  0  0  0  0  0  0
   -1.1639    1.5874    0.0000 N   0  0  0  0  0  0  0  0  0
   -0.4495    1.9999    0.0000 C   0  0  0  0  0  0  0  0  0
   -0.4495    2.8249    0.0000 C   0  0  0  0  0  0  0  0  0
    0.2650    3.2374    0.0000 C   0  0  0  0  0  0  0  0  0
    0.9795    2.8249    0.0000 C   0  0  0  0  0  0  0  0  0
    0.9795    1.9999    0.0000 C   0  0  0  0  0  0  0  0  0
    0.2650    1.5874    0.0000 C   0  0  0  0  0  0  0  0  0
   -2.5929    1.5874    0.0000 N   0  0  0  0  0  0  0  0  0
   -2.5929    0.7624    0.0000 C   0  0  0  0  0  0  0  0  0
   -3.3074    0.3499    0.0000 C   0  0  0  0  0  0  0  0  0
   -3.3074   -0.4751    0.0000 C   0  0  0  0  0  0  0  0  0
   -4.0218   -0.8876    0.0000 N   0  0  0  0  0  0  0  0  0
   -4.0218   -1.7126    0.0000 C   0  0  0  0  0  0  0  0  0
   -4.7363   -2.1251    0.0000 C   0  0  0  0  0  0  0  0  0
   -5.4508   -1.7126    0.0000 N   0  0  0  0  0  0  0  0  0
   -5.4508   -0.8876    0.0000 C   0  0  0  0  0  0  0  0  0
   -4.7363   -0.4751    0.0000 C   0  0  0  0  0  0  0  0  0
   -6.1652   -2.1251    0.0000 C   0  0  0  0  0  0  0  0  0
   -6.1652   -2.9501    0.0000 C   0  0  0  0  0  0  0  0  0
   -6.8797   -3.3626    0.0000 C   0  0  0  0  0  0  0  0  0
   -7.5942   -2.9501    0.0000 C   0  0  0  0  0  0  0  0  0
   -7.5942   -2.1251    0.0000 C   0  0  0  0  0  0  0  0  0
   -6.8797   -1.7126    0.0000 C   0  0  0  0  0  0  0  0  0
   -6.8797   -0.8876    0.0000 O   0  0  0  0  0  0  0  0  0
   -7.5942   -0.4751    0.0000 C   0  0  0  0  0  0  0  0  0
  1  2  1  0  0  0  0
  1  6  1  0  0  0  0
  2  3  1  0  0  0  0
  3  4  2  0  0  0  0
  3 11  1  0  0  0  0
  4  5  1  0  0  0  0
  5  6  4  0  0  0  0
  5 10  4  0  0  0  0
  6  7  4  0  0  0  0
  7  8  4  0  0  0  0
  8  9  4  0  0  0  0
  9 10  4  0  0  0  0
 11 12  1  0  0  0  0
 12 13  1  0  0  0  0
 13 14  1  0  0  0  0
 14 15  1  0  0  0  0
 15 16  1  0  0  0  0
 15 20  1  0  0  0  0
 16 17  1  0  0  0  0
 17 18  1  0  0  0  0
 18 19  1  0  0  0  0
 18 21  1  0  0  0  0
 19 20  1  0  0  0  0
 21 22  4  0  0  0  0
 21 26  4  0  0  0  0
 22 23  4  0  0  0  0
 23 24  4  0  0  0  0
 24 25  4  0  0  0  0
 25 26  4  0  0  0  0
 26 27  1  0  0  0  0
 27 28  1  0  0  0  0
M  END
>  <Name_Molregno>
126560

>  <DOPAMINE D2>
6.55

>  <DOPAMINE D3>
6

>  <DOPAMINE D4>
8.52

$$$$
136188
  Marvin  02231216192D 0   1.00000     0.00000     0

 24 27  0  0  1  0  0  0  0  0999 V2000
    1.0036   -0.3723    0.0000 O   0  0  0  0  0  0  0  0  0
    0.7486   -1.1569    0.0000 C   0  0  0  0  0  0  0  0  0
   -0.0764   -1.1569    0.0000 C   0  0  0  0  0  0  0  0  0
   -0.3313   -0.3723    0.0000 N   0  0  0  0  0  0  0  0  0
    0.3361    0.1126    0.0000 C   0  0  0  0  0  0  0  0  0
    0.3361    0.9376    0.0000 C   0  0  0  0  0  0  0  0  0
   -0.3783    1.3501    0.0000 C   0  0  0  0  0  0  0  0  0
   -0.3783    2.1751    0.0000 C   0  0  0  0  0  0  0  0  0
    0.3361    2.5876    0.0000 C   0  0  0  0  0  0  0  0  0
    1.0506    2.1751    0.0000 C   0  0  0  0  0  0  0  0  0
    1.0506    1.3501    0.0000 C   0  0  0  0  0  0  0  0  0
   -0.5613   -1.8244    0.0000 C   0  0  0  0  0  0  0  0  0
   -1.3818   -1.7381    0.0000 N   0  0  0  0  0  0  0  0  0
   -1.8667   -2.4056    0.0000 C   0  0  0  0  0  0  0  0  0
   -2.6872   -2.3193    0.0000 C   0  0  0  0  0  0  0  0  0
   -3.0227   -1.5657    0.0000 N   0  0  0  0  0  0  0  0  0
   -2.5378   -0.8982    0.0000 C   0  0  0  0  0  0  0  0  0
   -1.7173   -0.9845    0.0000 C   0  0  0  0  0  0  0  0  0
   -3.8432   -1.4794    0.0000 C   0  0  0  0  0  0  0  0  0
   -4.3281   -2.1469    0.0000 C   0  0  0  0  0  0  0  0  0
   -5.1486   -2.0606    0.0000 C   0  0  0  0  0  0  0  0  0
   -5.4842   -1.3070    0.0000 C   0  0  0  0  0  0  0  0  0
   -4.9992   -0.6395    0.0000 C   0  0  0  0  0  0  0  0  0
   -4.1788   -0.7257    0.0000 C   0  0  0  0  0  0  0  0  0
  1  2  1  0  0  0  0
  1  5  1  0  0  0  0
  2  3  1  0  0  0  0
  3  4  1  0  0  0  0
  3 12  1  0  0  0  0
  4  5  2  0  0  0  0
  5  6  1  0  0  0  0
  6  7  4  0  0  0  0
  6 11  4  0  0  0  0
  7  8  4  0  0  0  0
  8  9  4  0  0  0  0
  9 10  4  0  0  0  0
 10 11  4  0  0  0  0
 12 13  1  0  0  0  0
 13 14  1  0  0  0  0
 13 18  1  0  0  0  0
 14 15  1  0  0  0  0
 15 16  1  0  0  0  0
 16 17  1  0  0  0  0
 16 19  1  0  0  0  0
 17 18  1  0  0  0  0
 19 20  4  0  0  0  0
 19 24  4  0  0  0  0
 20 21  4  0  0  0  0
 21 22  4  0  0  0  0
 22 23  4  0  0  0  0
 23 24  4  0  0  0  0
M  END
>  <Name_Molregno>
136188

>  <DOPAMINE D2>
6.09

>  <DOPAMINE D3>
5.82

>  <DOPAMINE D4>
6.43

$$$$
136423
  Marvin  02231216192D 0   1.00000     0.00000     0

 32 36  0  0  0  0  0  0  0  0999 V2000
    0.1874    0.6100    0.0000 Cl  0  0  0  0  0  0  0  0  0
    0.5999   -0.1045    0.0000 C   0  0  0  0  0  0  0  0  0
    1.4249   -0.1045    0.0000 C   0  0  0  0  0  0  0  0  0
    1.8374   -0.8189    0.0000 C   0  0  0  0  0  0  0  0  0
    2.6624   -0.8189    0.0000 N   0  0  0  0  0  0  0  0  0
    3.0749   -0.1045    0.0000 C   0  0  0  0  0  0  0  0  0
    3.8999   -0.1045    0.0000 C   0  0  0  0  0  0  0  0  0
    4.3124   -0.8189    0.0000 N   0  0  0  0  0  0  0  0  0
    3.8999   -1.5334    0.0000 C   0  0  0  0  0  0  0  0  0
    3.0749   -1.5334    0.0000 C   0  0  0  0  0  0  0  0  0
    5.1374   -0.8189    0.0000 C   0  0  0  0  0  0  0  0  0
    5.5499   -0.1045    0.0000 C   0  0  0  0  0  0  0  0  0
    6.3749   -0.1045    0.0000 C   0  0  0  0  0  0  0  0  0
    6.7874    0.6100    0.0000 O   0  0  0  0  0  0  0  0  0
    7.6124    0.6100    0.0000 C   0  0  0  0  0  0  0  0  0
    8.0249    1.3245    0.0000 C   0  0  0  0  0  0  0  0  0
    8.8499    1.3245    0.0000 C   0  0  0  0  0  0  0  0  0
    9.2624    0.6100    0.0000 C   0  0  0  0  0  0  0  0  0
    8.8499   -0.1045    0.0000 C   0  0  0  0  0  0  0  0  0
    8.0249   -0.1045    0.0000 C   0  0  0  0  0  0  0  0  0
   10.0874    0.6100    0.0000 C   0  0  0  0  0  0  0  0  0
   10.5723   -0.0574    0.0000 N   0  0  0  0  0  0  0  0  0
   11.3569    0.1975    0.0000 C   0  0  0  0  0  0  0  0  0
   11.3569    1.0225    0.0000 C   0  0  0  0  0  0  0  0  0
   10.5723    1.2774    0.0000 N   0  0  0  0  0  0  0  0  0
   12.0714    1.4350    0.0000 C   0  0  0  0  0  0  0  0  0
   12.7858    1.0225    0.0000 C   0  0  0  0  0  0  0  0  0
   12.7858    0.1975    0.0000 C   0  0  0  0  0  0  0  0  0
   12.0714   -0.2150    0.0000 C   0  0  0  0  0  0  0  0  0
    1.4249   -1.5334    0.0000 C   0  0  0  0  0  0  0  0  0
    0.5999   -1.5334    0.0000 C   0  0  0  0  0  0  0  0  0
    0.1874   -0.8189    0.0000 C   0  0  0  0  0  0  0  0  0
  1  2  1  0  0  0  0
  2  3  4  0  0  0  0
  2 32  4  0  0  0  0
  3  4  4  0  0  0  0
  4  5  1  0  0  0  0
  4 30  4  0  0  0  0
  5  6  1  0  0  0  0
  5 10  1  0  0  0  0
  6  7  1  0  0  0  0
  7  8  1  0  0  0  0
  8  9  1  0  0  0  0
  8 11  1  0  0  0  0
  9 10  1  0  0  0  0
 11 12  1  0  0  0  0
 12 13  1  0  0  0  0
 13 14  1  0  0  0  0
 14 15  1  0  0  0  0
 15 16  4  0  0  0  0
 15 20  4  0  0  0  0
 16 17  4  0  0  0  0
 17 18  4  0  0  0  0
 18 19  4  0  0  0  0
 18 21  1  0  0  0  0
 19 20  4  0  0  0  0
 21 22  4  0  0  0  0
 21 25  4  0  0  0  0
 22 23  4  0  0  0  0
 23 24  4  0  0  0  0
 23 29  4  0  0  0  0
 24 25  4  0  0  0  0
 24 26  4  0  0  0  0
 26 27  4  0  0  0  0
 27 28  4  0  0  0  0
 28 29  4  0  0  0  0
 30 31  4  0  0  0  0
 31 32  4  0  0  0  0
M  STY  1   1 DAT
M  SAL   1  1  22
M  SDT   1 MRV_IMPLICIT_H                                        
M  SDD   1     0.0000    0.0000    DR    ALL  0       0  
M  SED   1 IMPL_H1
M  END
>  <Name_Molregno>
136423

>  <DOPAMINE D2>
5.85

>  <DOPAMINE D3>
6.81

$$$$
136425
  Marvin  02231216192D 0   1.00000     0.00000     0

 33 37  0  0  0  0  0  0  0  0999 V2000
    1.4953    0.3717    0.0000 O   0  0  0  0  0  0  0  0  0
    1.0828   -0.3427    0.0000 C   0  0  0  0  0  0  0  0  0
    0.2578   -0.3427    0.0000 C   0  0  0  0  0  0  0  0  0
   -0.1547   -1.0572    0.0000 C   0  0  0  0  0  0  0  0  0
   -0.9797   -1.0572    0.0000 N   0  0  0  0  0  0  0  0  0
   -1.3922   -1.7717    0.0000 C   0  0  0  0  0  0  0  0  0
   -2.2172   -1.7717    0.0000 C   0  0  0  0  0  0  0  0  0
   -2.6297   -1.0572    0.0000 N   0  0  0  0  0  0  0  0  0
   -2.2172   -0.3427    0.0000 C   0  0  0  0  0  0  0  0  0
   -1.3922   -0.3427    0.0000 C   0  0  0  0  0  0  0  0  0
   -3.4547   -1.0572    0.0000 C   0  0  0  0  0  0  0  0  0
   -3.8672   -1.7717    0.0000 C   0  0  0  0  0  0  0  0  0
   -4.6922   -1.7717    0.0000 C   0  0  0  0  0  0  0  0  0
   -5.1047   -1.0572    0.0000 C   0  0  0  0  0  0  0  0  0
   -5.9297   -1.0572    0.0000 O   0  0  0  0  0  0  0  0  0
   -6.3422   -0.3427    0.0000 C   0  0  0  0  0  0  0  0  0
   -4.6922   -0.3427    0.0000 C   0  0  0  0  0  0  0  0  0
   -3.8672   -0.3427    0.0000 C   0  0  0  0  0  0  0  0  0
    2.3203    0.3717    0.0000 C   0  0  0  0  0  0  0  0  0
    2.7328    1.0862    0.0000 C   0  0  0  0  0  0  0  0  0
    3.5578    1.0862    0.0000 C   0  0  0  0  0  0  0  0  0
    3.9703    0.3717    0.0000 C   0  0  0  0  0  0  0  0  0
    3.5578   -0.3427    0.0000 C   0  0  0  0  0  0  0  0  0
    2.7328   -0.3427    0.0000 C   0  0  0  0  0  0  0  0  0
    4.7953    0.3717    0.0000 C   0  0  0  0  0  0  0  0  0
    5.2802   -0.2957    0.0000 N   0  0  0  0  0  0  0  0  0
    6.0648   -0.0408    0.0000 C   0  0  0  0  0  0  0  0  0
    6.0648    0.7842    0.0000 C   0  0  0  0  0  0  0  0  0
    5.2802    1.0392    0.0000 N   0  0  0  0  0  0  0  0  0
    6.7793    1.1967    0.0000 C   0  0  0  0  0  0  0  0  0
    7.4938    0.7842    0.0000 C   0  0  0  0  0  0  0  0  0
    7.4938   -0.0408    0.0000 C   0  0  0  0  0  0  0  0  0
    6.7793   -0.4533    0.0000 C   0  0  0  0  0  0  0  0  0
  1  2  1  0  0  0  0
  1 19  1  0  0  0  0
  2  3  1  0  0  0  0
  3  4  1  0  0  0  0
  4  5  1  0  0  0  0
  5  6  1  0  0  0  0
  5 10  1  0  0  0  0
  6  7  1  0  0  0  0
  7  8  1  0  0  0  0
  8  9  1  0  0  0  0
  8 11  1  0  0  0  0
  9 10  1  0  0  0  0
 11 12  4  0  0  0  0
 11 18  4  0  0  0  0
 12 13  4  0  0  0  0
 13 14  4  0  0  0  0
 14 15  1  0  0  0  0
 14 17  4  0  0  0  0
 15 16  1  0  0  0  0
 17 18  4  0  0  0  0
 19 20  4  0  0  0  0
 19 24  4  0  0  0  0
 20 21  4  0  0  0  0
 21 22  4  0  0  0  0
 22 23  4  0  0  0  0
 22 25  1  0  0  0  0
 23 24  4  0  0  0  0
 25 26  4  0  0  0  0
 25 29  4  0  0  0  0
 26 27  4  0  0  0  0
 27 28  4  0  0  0  0
 27 33  4  0  0  0  0
 28 29  4  0  0  0  0
 28 30  4  0  0  0  0
 30 31  4  0  0  0  0
 31 32  4  0  0  0  0
 32 33  4  0  0  0  0
M  STY  1   1 DAT
M  SAL   1  1  26
M  SDT   1 MRV_IMPLICIT_H                                        
M  SDD   1     0.0000    0.0000    DR    ALL  0       0  
M  SED   1 IMPL_H1
M  END
>  <Name_Molregno>
136425

>  <DOPAMINE D2>
6.53

>  <DOPAMINE D3>
6.89

$$$$
136454
  Marvin  02231216192D 0   1.00000     0.00000     0

 32 36  0  0  0  0  0  0  0  0999 V2000
   -9.5816   -1.7120    0.0000 Cl  0  0  0  0  0  0  0  0  0
   -9.9941   -0.9975    0.0000 C   0  0  0  0  0  0  0  0  0
  -10.8191   -0.9975    0.0000 C   0  0  0  0  0  0  0  0  0
  -11.2316   -0.2830    0.0000 C   0  0  0  0  0  0  0  0  0
  -10.8191    0.4315    0.0000 C   0  0  0  0  0  0  0  0  0
   -9.9941    0.4315    0.0000 C   0  0  0  0  0  0  0  0  0
   -9.5816   -0.2830    0.0000 C   0  0  0  0  0  0  0  0  0
   -8.7566   -0.2830    0.0000 N   0  0  0  0  0  0  0  0  0
   -8.3441    0.4315    0.0000 C   0  0  0  0  0  0  0  0  0
   -7.5191    0.4315    0.0000 C   0  0  0  0  0  0  0  0  0
   -7.1066   -0.2830    0.0000 N   0  0  0  0  0  0  0  0  0
   -7.5191   -0.9975    0.0000 C   0  0  0  0  0  0  0  0  0
   -8.3441   -0.9975    0.0000 C   0  0  0  0  0  0  0  0  0
   -6.2816   -0.2830    0.0000 C   0  0  0  0  0  0  0  0  0
   -5.8691    0.4315    0.0000 C   0  0  0  0  0  0  0  0  0
   -5.0441    0.4315    0.0000 C   0  0  0  0  0  0  0  0  0
   -4.6316    1.1459    0.0000 O   0  0  0  0  0  0  0  0  0
   -3.8066    1.1459    0.0000 C   0  0  0  0  0  0  0  0  0
   -3.3941    1.8604    0.0000 C   0  0  0  0  0  0  0  0  0
   -2.5691    1.8604    0.0000 C   0  0  0  0  0  0  0  0  0
   -2.1566    1.1459    0.0000 C   0  0  0  0  0  0  0  0  0
   -2.5691    0.4315    0.0000 C   0  0  0  0  0  0  0  0  0
   -3.3941    0.4315    0.0000 C   0  0  0  0  0  0  0  0  0
   -1.3316    1.1459    0.0000 C   0  0  0  0  0  0  0  0  0
   -0.8466    0.4785    0.0000 N   0  0  0  0  0  0  0  0  0
   -0.0620    0.7334    0.0000 C   0  0  0  0  0  0  0  0  0
   -0.0620    1.5584    0.0000 C   0  0  0  0  0  0  0  0  0
   -0.8466    1.8134    0.0000 N   0  0  0  0  0  0  0  0  0
    0.6525    1.9709    0.0000 C   0  0  0  0  0  0  0  0  0
    1.3669    1.5584    0.0000 C   0  0  0  0  0  0  0  0  0
    1.3669    0.7334    0.0000 C   0  0  0  0  0  0  0  0  0
    0.6525    0.3209    0.0000 C   0  0  0  0  0  0  0  0  0
  1  2  1  0  0  0  0
  2  3  4  0  0  0  0
  2  7  4  0  0  0  0
  3  4  4  0  0  0  0
  4  5  4  0  0  0  0
  5  6  4  0  0  0  0
  6  7  4  0  0  0  0
  7  8  1  0  0  0  0
  8  9  1  0  0  0  0
  8 13  1  0  0  0  0
  9 10  1  0  0  0  0
 10 11  1  0  0  0  0
 11 12  1  0  0  0  0
 11 14  1  0  0  0  0
 12 13  1  0  0  0  0
 14 15  1  0  0  0  0
 15 16  1  0  0  0  0
 16 17  1  0  0  0  0
 17 18  1  0  0  0  0
 18 19  4  0  0  0  0
 18 23  4  0  0  0  0
 19 20  4  0  0  0  0
 20 21  4  0  0  0  0
 21 22  4  0  0  0  0
 21 24  1  0  0  0  0
 22 23  4  0  0  0  0
 24 25  4  0  0  0  0
 24 28  4  0  0  0  0
 25 26  4  0  0  0  0
 26 27  4  0  0  0  0
 26 32  4  0  0  0  0
 27 28  4  0  0  0  0
 27 29  4  0  0  0  0
 29 30  4  0  0  0  0
 30 31  4  0  0  0  0
 31 32  4  0  0  0  0
M  STY  1   1 DAT
M  SAL   1  1  25
M  SDT   1 MRV_IMPLICIT_H                                        
M  SDD   1     0.0000    0.0000    DR    ALL  0       0  
M  SED   1 IMPL_H1
M  END
>  <Name_Molregno>
136454

>  <DOPAMINE D2>
6.9

>  <DOPAMINE D3>
7.74

$$$$
136746
  Marvin  02231216192D 0   1.00000     0.00000     0

 24 27  0  0  1  0  0  0  0  0999 V2000
    1.0036   -0.3723    0.0000 S   0  0  0  0  0  0  0  0  0
    0.7486   -1.1569    0.0000 C   0  0  0  0  0  0  0  0  0
   -0.0764   -1.1569    0.0000 C   0  0  0  0  0  0  0  0  0
   -0.3313   -0.3723    0.0000 N   0  0  0  0  0  0  0  0  0
    0.3361    0.1126    0.0000 C   0  0  0  0  0  0  0  0  0
    0.3361    0.9376    0.0000 C   0  0  0  0  0  0  0  0  0
   -0.3783    1.3501    0.0000 C   0  0  0  0  0  0  0  0  0
   -0.3783    2.1751    0.0000 C   0  0  0  0  0  0  0  0  0
    0.3361    2.5876    0.0000 C   0  0  0  0  0  0  0  0  0
    1.0506    2.1751    0.0000 C   0  0  0  0  0  0  0  0  0
    1.0506    1.3501    0.0000 C   0  0  0  0  0  0  0  0  0
   -0.5613   -1.8244    0.0000 C   0  0  0  0  0  0  0  0  0
   -1.3818   -1.7381    0.0000 N   0  0  0  0  0  0  0  0  0
   -1.8667   -2.4056    0.0000 C   0  0  0  0  0  0  0  0  0
   -2.6872   -2.3193    0.0000 C   0  0  0  0  0  0  0  0  0
   -3.0227   -1.5657    0.0000 N   0  0  0  0  0  0  0  0  0
   -2.5378   -0.8982    0.0000 C   0  0  0  0  0  0  0  0  0
   -1.7173   -0.9845    0.0000 C   0  0  0  0  0  0  0  0  0
   -3.8432   -1.4794    0.0000 C   0  0  0  0  0  0  0  0  0
   -4.3281   -2.1469    0.0000 C   0  0  0  0  0  0  0  0  0
   -5.1486   -2.0606    0.0000 C   0  0  0  0  0  0  0  0  0
   -5.4842   -1.3070    0.0000 C   0  0  0  0  0  0  0  0  0
   -4.9992   -0.6395    0.0000 C   0  0  0  0  0  0  0  0  0
   -4.1788   -0.7257    0.0000 C   0  0  0  0  0  0  0  0  0
  1  2  1  0  0  0  0
  1  5  1  0  0  0  0
  2  3  1  0  0  0  0
  3  4  1  0  0  0  0
  3 12  1  0  0  0  0
  4  5  2  0  0  0  0
  5  6  1  0  0  0  0
  6  7  4  0  0  0  0
  6 11  4  0  0  0  0
  7  8  4  0  0  0  0
  8  9  4  0  0  0  0
  9 10  4  0  0  0  0
 10 11  4  0  0  0  0
 12 13  1  0  0  0  0
 13 14  1  0  0  0  0
 13 18  1  0  0  0  0
 14 15  1  0  0  0  0
 15 16  1  0  0  0  0
 16 17  1  0  0  0  0
 16 19  1  0  0  0  0
 17 18  1  0  0  0  0
 19 20  4  0  0  0  0
 19 24  4  0  0  0  0
 20 21  4  0  0  0  0
 21 22  4  0  0  0  0
 22 23  4  0  0  0  0
 23 24  4  0  0  0  0
M  END
>  <Name_Molregno>
136746

>  <DOPAMINE D2>
5.97

>  <DOPAMINE D3>
5.92

>  <DOPAMINE D4>
5.83

$$$$
136757
  Marvin  02231216192D 0   1.00000     0.00000     0

 27 30  0  0  1  0  0  0  0  0999 V2000
    7.2937    1.3388    0.0000 Br  0  0  0  0  0  0  0  0  0
    6.5792    0.9263    0.0000 C   0  0  0  0  0  0  0  0  0
    6.5792    0.1013    0.0000 C   0  0  0  0  0  0  0  0  0
    5.8647   -0.3112    0.0000 C   0  0  0  0  0  0  0  0  0
    5.8647   -1.1362    0.0000 C   0  0  0  0  0  0  0  0  0
    6.5322   -1.6211    0.0000 O   0  0  0  0  0  0  0  0  0
    6.2772   -2.4058    0.0000 C   0  0  0  0  0  0  0  0  0
    5.4522   -2.4058    0.0000 C   0  0  0  0  0  0  0  0  0
    5.1973   -1.6211    0.0000 N   0  0  0  0  0  0  0  0  0
    4.9673   -3.0732    0.0000 C   0  0  0  0  0  0  0  0  0
    4.1468   -2.9870    0.0000 N   0  0  0  0  0  0  0  0  0
    3.6619   -3.6544    0.0000 C   0  0  0  0  0  0  0  0  0
    2.8414   -3.5682    0.0000 C   0  0  0  0  0  0  0  0  0
    2.5059   -2.8145    0.0000 N   0  0  0  0  0  0  0  0  0
    2.9908   -2.1471    0.0000 C   0  0  0  0  0  0  0  0  0
    3.8113   -2.2333    0.0000 C   0  0  0  0  0  0  0  0  0
    1.6854   -2.7283    0.0000 C   0  0  0  0  0  0  0  0  0
    1.2005   -3.3957    0.0000 C   0  0  0  0  0  0  0  0  0
    0.3800   -3.3095    0.0000 C   0  0  0  0  0  0  0  0  0
    0.0444   -2.5558    0.0000 C   0  0  0  0  0  0  0  0  0
    0.5294   -1.8884    0.0000 C   0  0  0  0  0  0  0  0  0
    1.3498   -1.9746    0.0000 C   0  0  0  0  0  0  0  0  0
    5.1503    0.1013    0.0000 C   0  0  0  0  0  0  0  0  0
    4.4358   -0.3112    0.0000 O   0  0  0  0  0  0  0  0  0
    3.7213    0.1013    0.0000 C   0  0  0  0  0  0  0  0  0
    5.1503    0.9263    0.0000 C   0  0  0  0  0  0  0  0  0
    5.8647    1.3388    0.0000 C   0  0  0  0  0  0  0  0  0
  1  2  1  0  0  0  0
  2  3  4  0  0  0  0
  2 27  4  0  0  0  0
  3  4  4  0  0  0  0
  4  5  1  0  0  0  0
  4 23  4  0  0  0  0
  5  6  1  0  0  0  0
  5  9  2  0  0  0  0
  6  7  1  0  0  0  0
  7  8  1  0  0  0  0
  8  9  1  0  0  0  0
  8 10  1  0  0  0  0
 10 11  1  0  0  0  0
 11 12  1  0  0  0  0
 11 16  1  0  0  0  0
 12 13  1  0  0  0  0
 13 14  1  0  0  0  0
 14 15  1  0  0  0  0
 14 17  1  0  0  0  0
 15 16  1  0  0  0  0
 17 18  4  0  0  0  0
 17 22  4  0  0  0  0
 18 19  4  0  0  0  0
 19 20  4  0  0  0  0
 20 21  4  0  0  0  0
 21 22  4  0  0  0  0
 23 24  1  0  0  0  0
 23 26  4  0  0  0  0
 24 25  1  0  0  0  0
 26 27  4  0  0  0  0
M  END
>  <Name_Molregno>
136757

>  <DOPAMINE D2>
6.27

>  <DOPAMINE D3>
5.64

>  <DOPAMINE D4>
6.11

$$$$
136759
  Marvin  02231216192D 0   1.00000     0.00000     0

 25 28  0  0  1  0  0  0  0  0999 V2000
    4.8908    0.0309    0.0000 O   0  0  0  0  0  0  0  0  0
    4.6359   -0.7537    0.0000 C   0  0  0  0  0  0  0  0  0
    5.1208   -1.4211    0.0000 C   0  0  0  0  0  0  0  0  0
    3.8109   -0.7537    0.0000 C   0  0  0  0  0  0  0  0  0
    3.5559    0.0309    0.0000 N   0  0  0  0  0  0  0  0  0
    4.2234    0.5159    0.0000 C   0  0  0  0  0  0  0  0  0
    4.2234    1.3409    0.0000 C   0  0  0  0  0  0  0  0  0
    3.5089    1.7534    0.0000 C   0  0  0  0  0  0  0  0  0
    3.5089    2.5784    0.0000 C   0  0  0  0  0  0  0  0  0
    4.2234    2.9909    0.0000 C   0  0  0  0  0  0  0  0  0
    4.9378    2.5784    0.0000 C   0  0  0  0  0  0  0  0  0
    4.9378    1.7534    0.0000 C   0  0  0  0  0  0  0  0  0
    3.3260   -1.4211    0.0000 C   0  0  0  0  0  0  0  0  0
    2.5055   -1.3349    0.0000 N   0  0  0  0  0  0  0  0  0
    2.0206   -2.0023    0.0000 C   0  0  0  0  0  0  0  0  0
    1.2001   -1.9161    0.0000 C   0  0  0  0  0  0  0  0  0
    0.8645   -1.1624    0.0000 N   0  0  0  0  0  0  0  0  0
    1.3494   -0.4950    0.0000 C   0  0  0  0  0  0  0  0  0
    2.1699   -0.5812    0.0000 C   0  0  0  0  0  0  0  0  0
    0.0440   -1.0762    0.0000 C   0  0  0  0  0  0  0  0  0
   -0.4409   -1.7436    0.0000 C   0  0  0  0  0  0  0  0  0
   -1.2614   -1.6574    0.0000 C   0  0  0  0  0  0  0  0  0
   -1.5969   -0.9037    0.0000 C   0  0  0  0  0  0  0  0  0
   -1.1120   -0.2363    0.0000 C   0  0  0  0  0  0  0  0  0
   -0.2915   -0.3225    0.0000 C   0  0  0  0  0  0  0  0  0
  1  2  1  0  0  0  0
  1  6  1  0  0  0  0
  2  3  1  0  0  0  0
  2  4  1  0  0  0  0
  4  5  1  0  0  0  0
  4 13  1  0  0  0  0
  5  6  2  0  0  0  0
  6  7  1  0  0  0  0
  7  8  4  0  0  0  0
  7 12  4  0  0  0  0
  8  9  4  0  0  0  0
  9 10  4  0  0  0  0
 10 11  4  0  0  0  0
 11 12  4  0  0  0  0
 13 14  1  0  0  0  0
 14 15  1  0  0  0  0
 14 19  1  0  0  0  0
 15 16  1  0  0  0  0
 16 17  1  0  0  0  0
 17 18  1  0  0  0  0
 17 20  1  0  0  0  0
 18 19  1  0  0  0  0
 20 21  4  0  0  0  0
 20 25  4  0  0  0  0
 21 22  4  0  0  0  0
 22 23  4  0  0  0  0
 23 24  4  0  0  0  0
 24 25  4  0  0  0  0
M  END
>  <Name_Molregno>
136759

>  <DOPAMINE D2>
5.95

>  <DOPAMINE D3>
5.86

>  <DOPAMINE D4>
6.26

$$$$
136761
  Marvin  02231216192D 0   1.00000     0.00000     0

 28 31  0  0  1  0  0  0  0  0999 V2000
    4.6386    0.5117    0.0000 Br  0  0  0  0  0  0  0  0  0
    3.9241    0.0992    0.0000 C   0  0  0  0  0  0  0  0  0
    3.9241   -0.7258    0.0000 C   0  0  0  0  0  0  0  0  0
    3.2096   -1.1383    0.0000 C   0  0  0  0  0  0  0  0  0
    3.2096   -1.9633    0.0000 C   0  0  0  0  0  0  0  0  0
    3.8771   -2.4482    0.0000 O   0  0  0  0  0  0  0  0  0
    3.6221   -3.2328    0.0000 C   0  0  0  0  0  0  0  0  0
    4.1070   -3.9003    0.0000 C   0  0  0  0  0  0  0  0  0
    2.7971   -3.2328    0.0000 C   0  0  0  0  0  0  0  0  0
    2.5422   -2.4482    0.0000 N   0  0  0  0  0  0  0  0  0
    2.3122   -3.9003    0.0000 C   0  0  0  0  0  0  0  0  0
    1.4917   -3.8140    0.0000 N   0  0  0  0  0  0  0  0  0
    1.0068   -4.4815    0.0000 C   0  0  0  0  0  0  0  0  0
    0.1863   -4.3952    0.0000 C   0  0  0  0  0  0  0  0  0
   -0.1492   -3.6416    0.0000 N   0  0  0  0  0  0  0  0  0
    0.3357   -2.9741    0.0000 C   0  0  0  0  0  0  0  0  0
    1.1562   -3.0604    0.0000 C   0  0  0  0  0  0  0  0  0
   -0.9697   -3.5553    0.0000 C   0  0  0  0  0  0  0  0  0
   -1.4547   -4.2228    0.0000 C   0  0  0  0  0  0  0  0  0
   -2.2751   -4.1365    0.0000 C   0  0  0  0  0  0  0  0  0
   -2.6107   -3.3829    0.0000 C   0  0  0  0  0  0  0  0  0
   -2.1258   -2.7154    0.0000 C   0  0  0  0  0  0  0  0  0
   -1.3053   -2.8017    0.0000 C   0  0  0  0  0  0  0  0  0
    2.4951   -0.7258    0.0000 C   0  0  0  0  0  0  0  0  0
    1.7807   -1.1383    0.0000 O   0  0  0  0  0  0  0  0  0
    1.0662   -0.7258    0.0000 C   0  0  0  0  0  0  0  0  0
    2.4951    0.0992    0.0000 C   0  0  0  0  0  0  0  0  0
    3.2096    0.5117    0.0000 C   0  0  0  0  0  0  0  0  0
  1  2  1  0  0  0  0
  2  3  4  0  0  0  0
  2 28  4  0  0  0  0
  3  4  4  0  0  0  0
  4  5  1  0  0  0  0
  4 24  4  0  0  0  0
  5  6  1  0  0  0  0
  5 10  2  0  0  0  0
  6  7  1  0  0  0  0
  7  8  1  0  0  0  0
  7  9  1  0  0  0  0
  9 10  1  0  0  0  0
  9 11  1  0  0  0  0
 11 12  1  0  0  0  0
 12 13  1  0  0  0  0
 12 17  1  0  0  0  0
 13 14  1  0  0  0  0
 14 15  1  0  0  0  0
 15 16  1  0  0  0  0
 15 18  1  0  0  0  0
 16 17  1  0  0  0  0
 18 19  4  0  0  0  0
 18 23  4  0  0  0  0
 19 20  4  0  0  0  0
 20 21  4  0  0  0  0
 21 22  4  0  0  0  0
 22 23  4  0  0  0  0
 24 25  1  0  0  0  0
 24 27  4  0  0  0  0
 25 26  1  0  0  0  0
 27 28  4  0  0  0  0
M  END
>  <Name_Molregno>
136761

>  <DOPAMINE D2>
5.12

>  <DOPAMINE D3>
5.3

>  <DOPAMINE D4>
6.01

$$$$
136906
  Marvin  02231216192D 0   1.00000     0.00000     0

 26 29  0  0  0  0  0  0  0  0999 V2000
   -1.4922   -0.3793    0.0000 O   0  0  0  0  0  0  0  0  0
   -1.9047   -1.0938    0.0000 C   0  0  0  0  0  0  0  0  0
   -2.7297   -1.0938    0.0000 C   0  0  0  0  0  0  0  0  0
   -3.1422   -1.8082    0.0000 C   0  0  0  0  0  0  0  0  0
   -3.9672   -1.8082    0.0000 N   0  0  0  0  0  0  0  0  0
   -4.3797   -2.5227    0.0000 C   0  0  0  0  0  0  0  0  0
   -5.2047   -2.5227    0.0000 C   0  0  0  0  0  0  0  0  0
   -5.6172   -1.8082    0.0000 N   0  0  0  0  0  0  0  0  0
   -5.2047   -1.0938    0.0000 C   0  0  0  0  0  0  0  0  0
   -4.3797   -1.0938    0.0000 C   0  0  0  0  0  0  0  0  0
   -6.4422   -1.8082    0.0000 C   0  0  0  0  0  0  0  0  0
   -0.6672   -0.3793    0.0000 C   0  0  0  0  0  0  0  0  0
   -0.2547    0.3352    0.0000 C   0  0  0  0  0  0  0  0  0
    0.5703    0.3352    0.0000 C   0  0  0  0  0  0  0  0  0
    0.9828   -0.3793    0.0000 C   0  0  0  0  0  0  0  0  0
    0.5703   -1.0938    0.0000 C   0  0  0  0  0  0  0  0  0
   -0.2547   -1.0938    0.0000 C   0  0  0  0  0  0  0  0  0
    1.8078   -0.3793    0.0000 C   0  0  0  0  0  0  0  0  0
    2.2927   -1.0467    0.0000 N   0  0  0  0  0  0  0  0  0
    3.0773   -0.7918    0.0000 C   0  0  0  0  0  0  0  0  0
    3.0773    0.0332    0.0000 C   0  0  0  0  0  0  0  0  0
    2.2927    0.2882    0.0000 N   0  0  0  0  0  0  0  0  0
    3.7918    0.4457    0.0000 C   0  0  0  0  0  0  0  0  0
    4.5063    0.0332    0.0000 C   0  0  0  0  0  0  0  0  0
    4.5063   -0.7918    0.0000 C   0  0  0  0  0  0  0  0  0
    3.7918   -1.2043    0.0000 C   0  0  0  0  0  0  0  0  0
  1  2  1  0  0  0  0
  1 12  1  0  0  0  0
  2  3  1  0  0  0  0
  3  4  1  0  0  0  0
  4  5  1  0  0  0  0
  5  6  1  0  0  0  0
  5 10  1  0  0  0  0
  6  7  1  0  0  0  0
  7  8  1  0  0  0  0
  8  9  1  0  0  0  0
  8 11  1  0  0  0  0
  9 10  1  0  0  0  0
 12 13  4  0  0  0  0
 12 17  4  0  0  0  0
 13 14  4  0  0  0  0
 14 15  4  0  0  0  0
 15 16  4  0  0  0  0
 15 18  1  0  0  0  0
 16 17  4  0  0  0  0
 18 19  4  0  0  0  0
 18 22  4  0  0  0  0
 19 20  4  0  0  0  0
 20 21  4  0  0  0  0
 20 26  4  0  0  0  0
 21 22  4  0  0  0  0
 21 23  4  0  0  0  0
 23 24  4  0  0  0  0
 24 25  4  0  0  0  0
 25 26  4  0  0  0  0
M  STY  1   1 DAT
M  SAL   1  1  19
M  SDT   1 MRV_IMPLICIT_H                                        
M  SDD   1     0.0000    0.0000    DR    ALL  0       0  
M  SED   1 IMPL_H1
M  END
>  <Name_Molregno>
136906

>  <DOPAMINE D2>
5.48

>  <DOPAMINE D3>
5.7

$$$$
136911
  Marvin  02231216192D 0   1.00000     0.00000     0

 33 37  0  0  0  0  0  0  0  0999 V2000
    0.3018   -2.4939    0.0000 O   0  0  0  0  0  0  0  0  0
   -0.1107   -3.2084    0.0000 C   0  0  0  0  0  0  0  0  0
   -0.1107   -1.7794    0.0000 C   0  0  0  0  0  0  0  0  0
   -0.9357   -1.7794    0.0000 C   0  0  0  0  0  0  0  0  0
   -1.3482   -1.0650    0.0000 C   0  0  0  0  0  0  0  0  0
   -0.9357   -0.3505    0.0000 C   0  0  0  0  0  0  0  0  0
   -0.1107   -0.3505    0.0000 C   0  0  0  0  0  0  0  0  0
    0.3018   -1.0650    0.0000 C   0  0  0  0  0  0  0  0  0
    1.1268   -1.0650    0.0000 N   0  0  0  0  0  0  0  0  0
    1.5393   -0.3505    0.0000 C   0  0  0  0  0  0  0  0  0
    2.3643   -0.3505    0.0000 C   0  0  0  0  0  0  0  0  0
    2.7768   -1.0650    0.0000 N   0  0  0  0  0  0  0  0  0
    2.3643   -1.7794    0.0000 C   0  0  0  0  0  0  0  0  0
    1.5393   -1.7794    0.0000 C   0  0  0  0  0  0  0  0  0
    3.6018   -1.0650    0.0000 C   0  0  0  0  0  0  0  0  0
    4.0143   -0.3505    0.0000 C   0  0  0  0  0  0  0  0  0
    4.8393   -0.3505    0.0000 C   0  0  0  0  0  0  0  0  0
    5.2518    0.3640    0.0000 O   0  0  0  0  0  0  0  0  0
    6.0768    0.3640    0.0000 C   0  0  0  0  0  0  0  0  0
    6.4893    1.0784    0.0000 C   0  0  0  0  0  0  0  0  0
    7.3143    1.0784    0.0000 C   0  0  0  0  0  0  0  0  0
    7.7268    0.3640    0.0000 C   0  0  0  0  0  0  0  0  0
    7.3143   -0.3505    0.0000 C   0  0  0  0  0  0  0  0  0
    6.4893   -0.3505    0.0000 C   0  0  0  0  0  0  0  0  0
    8.5518    0.3640    0.0000 C   0  0  0  0  0  0  0  0  0
    9.0368   -0.3035    0.0000 N   0  0  0  0  0  0  0  0  0
    9.8214   -0.0485    0.0000 C   0  0  0  0  0  0  0  0  0
    9.8214    0.7765    0.0000 C   0  0  0  0  0  0  0  0  0
    9.0368    1.0314    0.0000 N   0  0  0  0  0  0  0  0  0
   10.5358    1.1890    0.0000 C   0  0  0  0  0  0  0  0  0
   11.2503    0.7765    0.0000 C   0  0  0  0  0  0  0  0  0
   11.2503   -0.0485    0.0000 C   0  0  0  0  0  0  0  0  0
   10.5358   -0.4610    0.0000 C   0  0  0  0  0  0  0  0  0
  1  2  1  0  0  0  0
  1  3  1  0  0  0  0
  3  4  4  0  0  0  0
  3  8  4  0  0  0  0
  4  5  4  0  0  0  0
  5  6  4  0  0  0  0
  6  7  4  0  0  0  0
  7  8  4  0  0  0  0
  8  9  1  0  0  0  0
  9 10  1  0  0  0  0
  9 14  1  0  0  0  0
 10 11  1  0  0  0  0
 11 12  1  0  0  0  0
 12 13  1  0  0  0  0
 12 15  1  0  0  0  0
 13 14  1  0  0  0  0
 15 16  1  0  0  0  0
 16 17  1  0  0  0  0
 17 18  1  0  0  0  0
 18 19  1  0  0  0  0
 19 20  4  0  0  0  0
 19 24  4  0  0  0  0
 20 21  4  0  0  0  0
 21 22  4  0  0  0  0
 22 23  4  0  0  0  0
 22 25  1  0  0  0  0
 23 24  4  0  0  0  0
 25 26  4  0  0  0  0
 25 29  4  0  0  0  0
 26 27  4  0  0  0  0
 27 28  4  0  0  0  0
 27 33  4  0  0  0  0
 28 29  4  0  0  0  0
 28 30  4  0  0  0  0
 30 31  4  0  0  0  0
 31 32  4  0  0  0  0
 32 33  4  0  0  0  0
M  STY  1   1 DAT
M  SAL   1  1  26
M  SDT   1 MRV_IMPLICIT_H                                        
M  SDD   1     0.0000    0.0000    DR    ALL  0       0  
M  SED   1 IMPL_H1
M  END
>  <Name_Molregno>
136911

>  <DOPAMINE D2>
8.06

>  <DOPAMINE D3>
8.77

$$$$
137074
  Marvin  02231216192D 0   1.00000     0.00000     0

 32 36  0  0  0  0  0  0  0  0999 V2000
   -0.1854   -1.5245    0.0000 Cl  0  0  0  0  0  0  0  0  0
    0.6396   -1.5245    0.0000 C   0  0  0  0  0  0  0  0  0
    1.0521   -0.8101    0.0000 C   0  0  0  0  0  0  0  0  0
    1.8771   -0.8101    0.0000 C   0  0  0  0  0  0  0  0  0
    2.2896   -1.5245    0.0000 C   0  0  0  0  0  0  0  0  0
    3.1146   -1.5245    0.0000 N   0  0  0  0  0  0  0  0  0
    3.5271   -0.8101    0.0000 C   0  0  0  0  0  0  0  0  0
    4.3521   -0.8101    0.0000 C   0  0  0  0  0  0  0  0  0
    4.7646   -1.5245    0.0000 N   0  0  0  0  0  0  0  0  0
    4.3521   -2.2390    0.0000 C   0  0  0  0  0  0  0  0  0
    3.5271   -2.2390    0.0000 C   0  0  0  0  0  0  0  0  0
    5.5896   -1.5245    0.0000 C   0  0  0  0  0  0  0  0  0
    6.0021   -0.8101    0.0000 C   0  0  0  0  0  0  0  0  0
    6.8271   -0.8101    0.0000 C   0  0  0  0  0  0  0  0  0
    7.2396   -0.0956    0.0000 O   0  0  0  0  0  0  0  0  0
    8.0646   -0.0956    0.0000 C   0  0  0  0  0  0  0  0  0
    8.4771    0.6189    0.0000 C   0  0  0  0  0  0  0  0  0
    9.3021    0.6189    0.0000 C   0  0  0  0  0  0  0  0  0
    9.7146   -0.0956    0.0000 C   0  0  0  0  0  0  0  0  0
    9.3021   -0.8101    0.0000 C   0  0  0  0  0  0  0  0  0
    8.4771   -0.8101    0.0000 C   0  0  0  0  0  0  0  0  0
   10.5396   -0.0956    0.0000 C   0  0  0  0  0  0  0  0  0
   11.0245   -0.7630    0.0000 N   0  0  0  0  0  0  0  0  0
   11.8091   -0.5081    0.0000 C   0  0  0  0  0  0  0  0  0
   11.8091    0.3169    0.0000 C   0  0  0  0  0  0  0  0  0
   11.0245    0.5718    0.0000 N   0  0  0  0  0  0  0  0  0
   12.5236    0.7294    0.0000 C   0  0  0  0  0  0  0  0  0
   13.2381    0.3169    0.0000 C   0  0  0  0  0  0  0  0  0
   13.2381   -0.5081    0.0000 C   0  0  0  0  0  0  0  0  0
   12.5236   -0.9206    0.0000 C   0  0  0  0  0  0  0  0  0
    1.8771   -2.2390    0.0000 C   0  0  0  0  0  0  0  0  0
    1.0521   -2.2390    0.0000 C   0  0  0  0  0  0  0  0  0
  1  2  1  0  0  0  0
  2  3  4  0  0  0  0
  2 32  4  0  0  0  0
  3  4  4  0  0  0  0
  4  5  4  0  0  0  0
  5  6  1  0  0  0  0
  5 31  4  0  0  0  0
  6  7  1  0  0  0  0
  6 11  1  0  0  0  0
  7  8  1  0  0  0  0
  8  9  1  0  0  0  0
  9 10  1  0  0  0  0
  9 12  1  0  0  0  0
 10 11  1  0  0  0  0
 12 13  1  0  0  0  0
 13 14  1  0  0  0  0
 14 15  1  0  0  0  0
 15 16  1  0  0  0  0
 16 17  4  0  0  0  0
 16 21  4  0  0  0  0
 17 18  4  0  0  0  0
 18 19  4  0  0  0  0
 19 20  4  0  0  0  0
 19 22  1  0  0  0  0
 20 21  4  0  0  0  0
 22 23  4  0  0  0  0
 22 26  4  0  0  0  0
 23 24  4  0  0  0  0
 24 25  4  0  0  0  0
 24 30  4  0  0  0  0
 25 26  4  0  0  0  0
 25 27  4  0  0  0  0
 27 28  4  0  0  0  0
 28 29  4  0  0  0  0
 29 30  4  0  0  0  0
 31 32  4  0  0  0  0
M  STY  1   1 DAT
M  SAL   1  1  23
M  SDT   1 MRV_IMPLICIT_H                                        
M  SDD   1     0.0000    0.0000    DR    ALL  0       0  
M  SED   1 IMPL_H1
M  END
>  <Name_Molregno>
137074

>  <DOPAMINE D2>
6.06

>  <DOPAMINE D3>
7.57

$$$$
137080
  Marvin  02231216192D 0   1.00000     0.00000     0

 31 35  0  0  0  0  0  0  0  0999 V2000
    0.6285    0.1843    0.0000 O   0  0  0  0  0  0  0  0  0
    0.2160   -0.5302    0.0000 C   0  0  0  0  0  0  0  0  0
   -0.6090   -0.5302    0.0000 C   0  0  0  0  0  0  0  0  0
   -1.0215   -1.2447    0.0000 C   0  0  0  0  0  0  0  0  0
   -1.8465   -1.2447    0.0000 N   0  0  0  0  0  0  0  0  0
   -2.2590   -1.9591    0.0000 C   0  0  0  0  0  0  0  0  0
   -3.0840   -1.9591    0.0000 C   0  0  0  0  0  0  0  0  0
   -3.4965   -1.2447    0.0000 N   0  0  0  0  0  0  0  0  0
   -3.0840   -0.5302    0.0000 C   0  0  0  0  0  0  0  0  0
   -2.2590   -0.5302    0.0000 C   0  0  0  0  0  0  0  0  0
   -4.3215   -1.2447    0.0000 C   0  0  0  0  0  0  0  0  0
   -4.7340   -1.9591    0.0000 N   0  0  0  0  0  0  0  0  0
   -5.5590   -1.9591    0.0000 C   0  0  0  0  0  0  0  0  0
   -5.9715   -1.2447    0.0000 C   0  0  0  0  0  0  0  0  0
   -5.5590   -0.5302    0.0000 C   0  0  0  0  0  0  0  0  0
   -4.7340   -0.5302    0.0000 N   0  0  0  0  0  0  0  0  0
    1.4535    0.1843    0.0000 C   0  0  0  0  0  0  0  0  0
    1.8660    0.8987    0.0000 C   0  0  0  0  0  0  0  0  0
    2.6910    0.8987    0.0000 C   0  0  0  0  0  0  0  0  0
    3.1035    0.1843    0.0000 C   0  0  0  0  0  0  0  0  0
    2.6910   -0.5302    0.0000 C   0  0  0  0  0  0  0  0  0
    1.8660   -0.5302    0.0000 C   0  0  0  0  0  0  0  0  0
    3.9285    0.1843    0.0000 C   0  0  0  0  0  0  0  0  0
    4.4134   -0.4832    0.0000 N   0  0  0  0  0  0  0  0  0
    5.1980   -0.2282    0.0000 C   0  0  0  0  0  0  0  0  0
    5.1980    0.5968    0.0000 C   0  0  0  0  0  0  0  0  0
    4.4134    0.8517    0.0000 N   0  0  0  0  0  0  0  0  0
    5.9125    1.0093    0.0000 C   0  0  0  0  0  0  0  0  0
    6.6270    0.5968    0.0000 C   0  0  0  0  0  0  0  0  0
    6.6270   -0.2282    0.0000 C   0  0  0  0  0  0  0  0  0
    5.9125   -0.6407    0.0000 C   0  0  0  0  0  0  0  0  0
  1  2  1  0  0  0  0
  1 17  1  0  0  0  0
  2  3  1  0  0  0  0
  3  4  1  0  0  0  0
  4  5  1  0  0  0  0
  5  6  1  0  0  0  0
  5 10  1  0  0  0  0
  6  7  1  0  0  0  0
  7  8  1  0  0  0  0
  8  9  1  0  0  0  0
  8 11  1  0  0  0  0
  9 10  1  0  0  0  0
 11 12  4  0  0  0  0
 11 16  4  0  0  0  0
 12 13  4  0  0  0  0
 13 14  4  0  0  0  0
 14 15  4  0  0  0  0
 15 16  4  0  0  0  0
 17 18  4  0  0  0  0
 17 22  4  0  0  0  0
 18 19  4  0  0  0  0
 19 20  4  0  0  0  0
 20 21  4  0  0  0  0
 20 23  1  0  0  0  0
 21 22  4  0  0  0  0
 23 24  4  0  0  0  0
 23 27  4  0  0  0  0
 24 25  4  0  0  0  0
 25 26  4  0  0  0  0
 25 31  4  0  0  0  0
 26 27  4  0  0  0  0
 26 28  4  0  0  0  0
 28 29  4  0  0  0  0
 29 30  4  0  0  0  0
 30 31  4  0  0  0  0
M  STY  1   1 DAT
M  SAL   1  1  24
M  SDT   1 MRV_IMPLICIT_H                                        
M  SDD   1     0.0000    0.0000    DR    ALL  0       0  
M  SED   1 IMPL_H1
M  END
>  <Name_Molregno>
137080

>  <DOPAMINE D2>
6.57

>  <DOPAMINE D3>
7.82

$$$$
137110
  Marvin  02231216192D 0   1.00000     0.00000     0

 31 35  0  0  0  0  0  0  0  0999 V2000
    0.6285    0.1843    0.0000 O   0  0  0  0  0  0  0  0  0
    0.2160   -0.5302    0.0000 C   0  0  0  0  0  0  0  0  0
   -0.6090   -0.5302    0.0000 C   0  0  0  0  0  0  0  0  0
   -1.0215   -1.2447    0.0000 C   0  0  0  0  0  0  0  0  0
   -1.8465   -1.2447    0.0000 N   0  0  0  0  0  0  0  0  0
   -2.2590   -1.9591    0.0000 C   0  0  0  0  0  0  0  0  0
   -3.0840   -1.9591    0.0000 C   0  0  0  0  0  0  0  0  0
   -3.4965   -1.2447    0.0000 N   0  0  0  0  0  0  0  0  0
   -3.0840   -0.5302    0.0000 C   0  0  0  0  0  0  0  0  0
   -2.2590   -0.5302    0.0000 C   0  0  0  0  0  0  0  0  0
   -4.3215   -1.2447    0.0000 C   0  0  0  0  0  0  0  0  0
   -4.7340   -1.9591    0.0000 N   0  0  0  0  0  0  0  0  0
   -5.5590   -1.9591    0.0000 C   0  0  0  0  0  0  0  0  0
   -5.9715   -1.2447    0.0000 C   0  0  0  0  0  0  0  0  0
   -5.5590   -0.5302    0.0000 C   0  0  0  0  0  0  0  0  0
   -4.7340   -0.5302    0.0000 C   0  0  0  0  0  0  0  0  0
    1.4535    0.1843    0.0000 C   0  0  0  0  0  0  0  0  0
    1.8660    0.8987    0.0000 C   0  0  0  0  0  0  0  0  0
    2.6910    0.8987    0.0000 C   0  0  0  0  0  0  0  0  0
    3.1035    0.1843    0.0000 C   0  0  0  0  0  0  0  0  0
    2.6910   -0.5302    0.0000 C   0  0  0  0  0  0  0  0  0
    1.8660   -0.5302    0.0000 C   0  0  0  0  0  0  0  0  0
    3.9285    0.1843    0.0000 C   0  0  0  0  0  0  0  0  0
    4.4134   -0.4832    0.0000 N   0  0  0  0  0  0  0  0  0
    5.1980   -0.2282    0.0000 C   0  0  0  0  0  0  0  0  0
    5.1980    0.5968    0.0000 C   0  0  0  0  0  0  0  0  0
    4.4134    0.8517    0.0000 N   0  0  0  0  0  0  0  0  0
    5.9125    1.0093    0.0000 C   0  0  0  0  0  0  0  0  0
    6.6270    0.5968    0.0000 C   0  0  0  0  0  0  0  0  0
    6.6270   -0.2282    0.0000 C   0  0  0  0  0  0  0  0  0
    5.9125   -0.6407    0.0000 C   0  0  0  0  0  0  0  0  0
  1  2  1  0  0  0  0
  1 17  1  0  0  0  0
  2  3  1  0  0  0  0
  3  4  1  0  0  0  0
  4  5  1  0  0  0  0
  5  6  1  0  0  0  0
  5 10  1  0  0  0  0
  6  7  1  0  0  0  0
  7  8  1  0  0  0  0
  8  9  1  0  0  0  0
  8 11  1  0  0  0  0
  9 10  1  0  0  0  0
 11 12  4  0  0  0  0
 11 16  4  0  0  0  0
 12 13  4  0  0  0  0
 13 14  4  0  0  0  0
 14 15  4  0  0  0  0
 15 16  4  0  0  0  0
 17 18  4  0  0  0  0
 17 22  4  0  0  0  0
 18 19  4  0  0  0  0
 19 20  4  0  0  0  0
 20 21  4  0  0  0  0
 20 23  1  0  0  0  0
 21 22  4  0  0  0  0
 23 24  4  0  0  0  0
 23 27  4  0  0  0  0
 24 25  4  0  0  0  0
 25 26  4  0  0  0  0
 25 31  4  0  0  0  0
 26 27  4  0  0  0  0
 26 28  4  0  0  0  0
 28 29  4  0  0  0  0
 29 30  4  0  0  0  0
 30 31  4  0  0  0  0
M  STY  1   1 DAT
M  SAL   1  1  24
M  SDT   1 MRV_IMPLICIT_H                                        
M  SDD   1     0.0000    0.0000    DR    ALL  0       0  
M  SED   1 IMPL_H1
M  END
>  <Name_Molregno>
137110

>  <DOPAMINE D2>
7.15

>  <DOPAMINE D3>
8.1

$$$$
137111
  Marvin  02231216192D 0   1.00000     0.00000     0

 35 39  0  0  0  0  0  0  0  0999 V2000
    0.2383   -2.3169    0.0000 S   0  0  0  0  0  0  0  0  0
   -0.1742   -3.0314    0.0000 C   0  0  0  0  0  0  0  0  0
    0.2383   -3.7458    0.0000 C   0  0  0  0  0  0  0  0  0
   -0.1742   -4.4603    0.0000 C   0  0  0  0  0  0  0  0  0
   -0.1742   -1.6024    0.0000 C   0  0  0  0  0  0  0  0  0
   -0.9992   -1.6024    0.0000 C   0  0  0  0  0  0  0  0  0
   -1.4117   -0.8880    0.0000 C   0  0  0  0  0  0  0  0  0
   -0.9992   -0.1735    0.0000 C   0  0  0  0  0  0  0  0  0
   -0.1742   -0.1735    0.0000 C   0  0  0  0  0  0  0  0  0
    0.2383   -0.8880    0.0000 C   0  0  0  0  0  0  0  0  0
    1.0633   -0.8880    0.0000 N   0  0  0  0  0  0  0  0  0
    1.4758   -0.1735    0.0000 C   0  0  0  0  0  0  0  0  0
    2.3008   -0.1735    0.0000 C   0  0  0  0  0  0  0  0  0
    2.7133   -0.8880    0.0000 N   0  0  0  0  0  0  0  0  0
    2.3008   -1.6024    0.0000 C   0  0  0  0  0  0  0  0  0
    1.4758   -1.6024    0.0000 C   0  0  0  0  0  0  0  0  0
    3.5383   -0.8880    0.0000 C   0  0  0  0  0  0  0  0  0
    3.9508   -0.1735    0.0000 C   0  0  0  0  0  0  0  0  0
    4.7758   -0.1735    0.0000 C   0  0  0  0  0  0  0  0  0
    5.1883    0.5410    0.0000 O   0  0  0  0  0  0  0  0  0
    6.0133    0.5410    0.0000 C   0  0  0  0  0  0  0  0  0
    6.4258    1.2554    0.0000 C   0  0  0  0  0  0  0  0  0
    7.2508    1.2554    0.0000 C   0  0  0  0  0  0  0  0  0
    7.6633    0.5410    0.0000 C   0  0  0  0  0  0  0  0  0
    7.2508   -0.1735    0.0000 C   0  0  0  0  0  0  0  0  0
    6.4258   -0.1735    0.0000 C   0  0  0  0  0  0  0  0  0
    8.4883    0.5410    0.0000 C   0  0  0  0  0  0  0  0  0
    8.9732   -0.1265    0.0000 N   0  0  0  0  0  0  0  0  0
    9.7579    0.1285    0.0000 C   0  0  0  0  0  0  0  0  0
    9.7579    0.9535    0.0000 C   0  0  0  0  0  0  0  0  0
    8.9732    1.2084    0.0000 N   0  0  0  0  0  0  0  0  0
   10.4723    1.3660    0.0000 C   0  0  0  0  0  0  0  0  0
   11.1868    0.9535    0.0000 C   0  0  0  0  0  0  0  0  0
   11.1868    0.1285    0.0000 C   0  0  0  0  0  0  0  0  0
   10.4723   -0.2840    0.0000 C   0  0  0  0  0  0  0  0  0
  1  2  1  0  0  0  0
  1  5  1  0  0  0  0
  2  3  1  0  0  0  0
  3  4  1  0  0  0  0
  5  6  4  0  0  0  0
  5 10  4  0  0  0  0
  6  7  4  0  0  0  0
  7  8  4  0  0  0  0
  8  9  4  0  0  0  0
  9 10  4  0  0  0  0
 10 11  1  0  0  0  0
 11 12  1  0  0  0  0
 11 16  1  0  0  0  0
 12 13  1  0  0  0  0
 13 14  1  0  0  0  0
 14 15  1  0  0  0  0
 14 17  1  0  0  0  0
 15 16  1  0  0  0  0
 17 18  1  0  0  0  0
 18 19  1  0  0  0  0
 19 20  1  0  0  0  0
 20 21  1  0  0  0  0
 21 22  4  0  0  0  0
 21 26  4  0  0  0  0
 22 23  4  0  0  0  0
 23 24  4  0  0  0  0
 24 25  4  0  0  0  0
 24 27  1  0  0  0  0
 25 26  4  0  0  0  0
 27 28  4  0  0  0  0
 27 31  4  0  0  0  0
 28 29  4  0  0  0  0
 29 30  4  0  0  0  0
 29 35  4  0  0  0  0
 30 31  4  0  0  0  0
 30 32  4  0  0  0  0
 32 33  4  0  0  0  0
 33 34  4  0  0  0  0
 34 35  4  0  0  0  0
M  STY  1   1 DAT
M  SAL   1  1  28
M  SDT   1 MRV_IMPLICIT_H                                        
M  SDD   1     0.0000    0.0000    DR    ALL  0       0  
M  SED   1 IMPL_H1
M  END
>  <Name_Molregno>
137111

>  <DOPAMINE D2>
8.1

>  <DOPAMINE D3>
8.89

$$$$
137398
  Marvin  02231216192D 0   1.00000     0.00000     0

 33 37  0  0  0  0  0  0  0  0999 V2000
    3.8943    2.1300    0.0000 O   0  0  0  0  0  0  0  0  0
    3.1798    2.5425    0.0000 C   0  0  0  0  0  0  0  0  0
    2.4653    2.1300    0.0000 N   0  0  0  0  0  0  0  0  0
    2.4653    1.3050    0.0000 C   0  0  0  0  0  0  0  0  0
    3.1798    0.8925    0.0000 C   0  0  0  0  0  0  0  0  0
    3.1798    0.0675    0.0000 C   0  0  0  0  0  0  0  0  0
    2.4653   -0.3450    0.0000 C   0  0  0  0  0  0  0  0  0
    1.7509    0.0675    0.0000 C   0  0  0  0  0  0  0  0  0
    1.7509    0.8925    0.0000 C   0  0  0  0  0  0  0  0  0
    2.4653   -1.1700    0.0000 C   0  0  0  0  0  0  0  0  0
    1.7509   -1.5825    0.0000 C   0  0  0  0  0  0  0  0  0
    1.7509   -2.4075    0.0000 N   0  0  0  0  0  0  0  0  0
    2.4653   -2.8200    0.0000 C   0  0  0  0  0  0  0  0  0
    2.4653   -3.6450    0.0000 C   0  0  0  0  0  0  0  0  0
    1.7509   -4.0575    0.0000 C   0  0  0  0  0  0  0  0  0
    1.7509   -4.8825    0.0000 C   0  0  0  0  0  0  0  0  0
    1.0364   -5.2950    0.0000 C   0  0  0  0  0  0  0  0  0
    0.3219   -4.8825    0.0000 C   0  0  0  0  0  0  0  0  0
    0.3219   -4.0575    0.0000 C   0  0  0  0  0  0  0  0  0
    1.0364   -3.6450    0.0000 C   0  0  0  0  0  0  0  0  0
    1.0364   -2.8200    0.0000 C   0  0  0  0  0  0  0  0  0
    1.0364   -6.1200    0.0000 C   0  0  0  0  0  0  0  0  0
    1.0364   -6.9450    0.0000 N   0  0  0  0  0  0  0  0  0
    3.1798    3.3675    0.0000 C   0  0  0  0  0  0  0  0  0
    3.8943    3.7800    0.0000 C   0  0  0  0  0  0  0  0  0
    3.8943    4.6050    0.0000 C   0  0  0  0  0  0  0  0  0
    3.1798    5.0175    0.0000 N   0  0  0  0  0  0  0  0  0
    2.4653    4.6050    0.0000 C   0  0  0  0  0  0  0  0  0
    2.4653    3.7800    0.0000 C   0  0  0  0  0  0  0  0  0
    4.6088    5.0175    0.0000 C   0  0  0  0  0  0  0  0  0
    5.3232    4.6050    0.0000 C   0  0  0  0  0  0  0  0  0
    5.3232    3.7800    0.0000 C   0  0  0  0  0  0  0  0  0
    4.6088    3.3675    0.0000 C   0  0  0  0  0  0  0  0  0
  1  2  2  0  0  0  0
  2  3  1  0  0  0  0
  2 24  1  0  0  0  0
  3  4  1  0  0  0  0
  4  5  1  0  0  0  0
  4  9  1  0  0  0  0
  5  6  1  0  0  0  0
  6  7  1  0  0  0  0
  7  8  1  0  0  0  0
  7 10  1  0  0  0  0
  8  9  1  0  0  0  0
 10 11  1  0  0  0  0
 11 12  1  0  0  0  0
 12 13  1  0  0  0  0
 12 21  1  0  0  0  0
 13 14  1  0  0  0  0
 14 15  1  0  0  0  0
 15 16  4  0  0  0  0
 15 20  4  0  0  0  0
 16 17  4  0  0  0  0
 17 18  4  0  0  0  0
 17 22  1  0  0  0  0
 18 19  4  0  0  0  0
 19 20  4  0  0  0  0
 20 21  1  0  0  0  0
 22 23  3  0  0  0  0
 24 25  4  0  0  0  0
 24 29  4  0  0  0  0
 25 26  4  0  0  0  0
 25 33  4  0  0  0  0
 26 27  4  0  0  0  0
 26 30  4  0  0  0  0
 27 28  4  0  0  0  0
 28 29  4  0  0  0  0
 30 31  4  0  0  0  0
 31 32  4  0  0  0  0
 32 33  4  0  0  0  0
M  END
>  <Name_Molregno>
137398

>  <5-HT1A>
5.3

>  <5-HT1B>
5.2

>  <5-HT1D>
5.85

>  <5-HT1E>
5

>  <5-HT2A>
5

>  <5-HT2C>
5

>  <5-HT6>
5

>  <5-HT7>
5

>  <DOPAMINE D2>
6.17

>  <DOPAMINE D3>
8.18

$$$$
137403
  Marvin  02231216192D 0   1.00000     0.00000     0

 31 35  0  0  0  0  0  0  0  0999 V2000
    0.6285    0.1843    0.0000 O   0  0  0  0  0  0  0  0  0
    0.2160   -0.5302    0.0000 C   0  0  0  0  0  0  0  0  0
   -0.6090   -0.5302    0.0000 C   0  0  0  0  0  0  0  0  0
   -1.0215   -1.2447    0.0000 C   0  0  0  0  0  0  0  0  0
   -1.8465   -1.2447    0.0000 N   0  0  0  0  0  0  0  0  0
   -2.2590   -1.9591    0.0000 C   0  0  0  0  0  0  0  0  0
   -3.0840   -1.9591    0.0000 C   0  0  0  0  0  0  0  0  0
   -3.4965   -1.2447    0.0000 N   0  0  0  0  0  0  0  0  0
   -3.0840   -0.5302    0.0000 C   0  0  0  0  0  0  0  0  0
   -2.2590   -0.5302    0.0000 C   0  0  0  0  0  0  0  0  0
   -4.3215   -1.2447    0.0000 C   0  0  0  0  0  0  0  0  0
   -4.7340   -1.9591    0.0000 C   0  0  0  0  0  0  0  0  0
   -5.5590   -1.9591    0.0000 C   0  0  0  0  0  0  0  0  0
   -5.9715   -1.2447    0.0000 C   0  0  0  0  0  0  0  0  0
   -5.5590   -0.5302    0.0000 C   0  0  0  0  0  0  0  0  0
   -4.7340   -0.5302    0.0000 C   0  0  0  0  0  0  0  0  0
    1.4535    0.1843    0.0000 C   0  0  0  0  0  0  0  0  0
    1.8660    0.8987    0.0000 C   0  0  0  0  0  0  0  0  0
    2.6910    0.8987    0.0000 C   0  0  0  0  0  0  0  0  0
    3.1035    0.1843    0.0000 C   0  0  0  0  0  0  0  0  0
    2.6910   -0.5302    0.0000 C   0  0  0  0  0  0  0  0  0
    1.8660   -0.5302    0.0000 C   0  0  0  0  0  0  0  0  0
    3.9285    0.1843    0.0000 C   0  0  0  0  0  0  0  0  0
    4.4134   -0.4832    0.0000 N   0  0  0  0  0  0  0  0  0
    5.1980   -0.2282    0.0000 C   0  0  0  0  0  0  0  0  0
    5.1980    0.5968    0.0000 C   0  0  0  0  0  0  0  0  0
    4.4134    0.8517    0.0000 N   0  0  0  0  0  0  0  0  0
    5.9125    1.0093    0.0000 C   0  0  0  0  0  0  0  0  0
    6.6270    0.5968    0.0000 C   0  0  0  0  0  0  0  0  0
    6.6270   -0.2282    0.0000 C   0  0  0  0  0  0  0  0  0
    5.9125   -0.6407    0.0000 C   0  0  0  0  0  0  0  0  0
  1  2  1  0  0  0  0
  1 17  1  0  0  0  0
  2  3  1  0  0  0  0
  3  4  1  0  0  0  0
  4  5  1  0  0  0  0
  5  6  1  0  0  0  0
  5 10  1  0  0  0  0
  6  7  1  0  0  0  0
  7  8  1  0  0  0  0
  8  9  1  0  0  0  0
  8 11  1  0  0  0  0
  9 10  1  0  0  0  0
 11 12  4  0  0  0  0
 11 16  4  0  0  0  0
 12 13  4  0  0  0  0
 13 14  4  0  0  0  0
 14 15  4  0  0  0  0
 15 16  4  0  0  0  0
 17 18  4  0  0  0  0
 17 22  4  0  0  0  0
 18 19  4  0  0  0  0
 19 20  4  0  0  0  0
 20 21  4  0  0  0  0
 20 23  1  0  0  0  0
 21 22  4  0  0  0  0
 23 24  4  0  0  0  0
 23 27  4  0  0  0  0
 24 25  4  0  0  0  0
 25 26  4  0  0  0  0
 25 31  4  0  0  0  0
 26 27  4  0  0  0  0
 26 28  4  0  0  0  0
 28 29  4  0  0  0  0
 29 30  4  0  0  0  0
 30 31  4  0  0  0  0
M  STY  1   1 DAT
M  SAL   1  1  24
M  SDT   1 MRV_IMPLICIT_H                                        
M  SDD   1     0.0000    0.0000    DR    ALL  0       0  
M  SED   1 IMPL_H1
M  END
>  <Name_Molregno>
137403

>  <DOPAMINE D2>
6.39

>  <DOPAMINE D3>
8.82

$$$$
140909
  Marvin  02231216192D 0   1.00000     0.00000     0

 20 22  0  0  0  0  0  0  0  0999 V2000
   -0.0237   -0.8788    0.0000 O   0  0  0  0  0  0  0  0  0
    0.6907   -0.4663    0.0000 C   0  0  0  0  0  0  0  0  0
    1.4052   -0.8788    0.0000 C   0  0  0  0  0  0  0  0  0
    2.1197   -0.4663    0.0000 N   0  0  0  0  0  0  0  0  0
    2.8342   -0.8788    0.0000 C   0  0  0  0  0  0  0  0  0
    3.5486   -0.4663    0.0000 C   0  0  0  0  0  0  0  0  0
    3.5486    0.3587    0.0000 C   0  0  0  0  0  0  0  0  0
    4.2631    0.7712    0.0000 C   0  0  0  0  0  0  0  0  0
    4.9776    0.3587    0.0000 C   0  0  0  0  0  0  0  0  0
    4.9776   -0.4663    0.0000 C   0  0  0  0  0  0  0  0  0
    4.2631   -0.8788    0.0000 C   0  0  0  0  0  0  0  0  0
   -0.7382   -0.4663    0.0000 C   0  0  0  0  0  0  0  0  0
   -1.4527   -0.8788    0.0000 C   0  0  0  0  0  0  0  0  0
   -1.6242   -1.6858    0.0000 N   0  0  0  0  0  0  0  0  0
   -2.4447   -1.7720    0.0000 C   0  0  0  0  0  0  0  0  0
   -2.7802   -1.0183    0.0000 N   0  0  0  0  0  0  0  0  0
   -2.1671   -0.4663    0.0000 C   0  0  0  0  0  0  0  0  0
   -2.1671    0.3587    0.0000 C   0  0  0  0  0  0  0  0  0
   -1.4527    0.7712    0.0000 C   0  0  0  0  0  0  0  0  0
   -0.7382    0.3587    0.0000 C   0  0  0  0  0  0  0  0  0
  1  2  1  0  0  0  0
  1 12  1  0  0  0  0
  2  3  1  0  0  0  0
  3  4  1  0  0  0  0
  4  5  1  0  0  0  0
  5  6  1  0  0  0  0
  6  7  4  0  0  0  0
  6 11  4  0  0  0  0
  7  8  4  0  0  0  0
  8  9  4  0  0  0  0
  9 10  4  0  0  0  0
 10 11  4  0  0  0  0
 12 13  4  0  0  0  0
 12 20  4  0  0  0  0
 13 14  4  0  0  0  0
 13 17  4  0  0  0  0
 14 15  4  0  0  0  0
 15 16  4  0  0  0  0
 16 17  4  0  0  0  0
 17 18  4  0  0  0  0
 18 19  4  0  0  0  0
 19 20  4  0  0  0  0
M  STY  1   1 DAT
M  SAL   1  1  16
M  SDT   1 MRV_IMPLICIT_H                                        
M  SDD   1     0.0000    0.0000    DR    ALL  0       0  
M  SED   1 IMPL_H1
M  END
>  <Name_Molregno>
140909

>  <DOPAMINE D2>
7.07

>  <DOPAMINE D3>
7.17

>  <DOPAMINE D4>
7.29

$$$$
141006
  Marvin  02231216192D 0   1.00000     0.00000     0

 20 22  0  0  0  0  0  0  0  0999 V2000
   -0.0237   -0.0097    0.0000 O   0  0  0  0  0  0  0  0  0
    0.6907    0.4028    0.0000 C   0  0  0  0  0  0  0  0  0
    1.4052   -0.0097    0.0000 C   0  0  0  0  0  0  0  0  0
    2.1197    0.4028    0.0000 N   0  0  0  0  0  0  0  0  0
    2.8342   -0.0097    0.0000 C   0  0  0  0  0  0  0  0  0
    3.5486    0.4028    0.0000 C   0  0  0  0  0  0  0  0  0
    3.5486    1.2278    0.0000 C   0  0  0  0  0  0  0  0  0
    4.2631    1.6403    0.0000 C   0  0  0  0  0  0  0  0  0
    4.9776    1.2278    0.0000 C   0  0  0  0  0  0  0  0  0
    4.9776    0.4028    0.0000 C   0  0  0  0  0  0  0  0  0
    4.2631   -0.0097    0.0000 C   0  0  0  0  0  0  0  0  0
   -0.7382    0.4028    0.0000 C   0  0  0  0  0  0  0  0  0
   -1.4527   -0.0097    0.0000 C   0  0  0  0  0  0  0  0  0
   -2.1671    0.4028    0.0000 C   0  0  0  0  0  0  0  0  0
   -2.7802   -0.1493    0.0000 N   0  0  0  0  0  0  0  0  0
   -2.4447   -0.9029    0.0000 N   0  0  0  0  0  0  0  0  0
   -1.6242   -0.8167    0.0000 C   0  0  0  0  0  0  0  0  0
   -2.1671    1.2278    0.0000 C   0  0  0  0  0  0  0  0  0
   -1.4527    1.6403    0.0000 C   0  0  0  0  0  0  0  0  0
   -0.7382    1.2278    0.0000 C   0  0  0  0  0  0  0  0  0
  1  2  1  0  0  0  0
  1 12  1  0  0  0  0
  2  3  1  0  0  0  0
  3  4  1  0  0  0  0
  4  5  1  0  0  0  0
  5  6  1  0  0  0  0
  6  7  4  0  0  0  0
  6 11  4  0  0  0  0
  7  8  4  0  0  0  0
  8  9  4  0  0  0  0
  9 10  4  0  0  0  0
 10 11  4  0  0  0  0
 12 13  4  0  0  0  0
 12 20  4  0  0  0  0
 13 14  4  0  0  0  0
 13 17  4  0  0  0  0
 14 15  4  0  0  0  0
 14 18  4  0  0  0  0
 15 16  4  0  0  0  0
 16 17  4  0  0  0  0
 18 19  4  0  0  0  0
 19 20  4  0  0  0  0
M  STY  1   1 DAT
M  SAL   1  1  15
M  SDT   1 MRV_IMPLICIT_H                                        
M  SDD   1     0.0000    0.0000    DR    ALL  0       0  
M  SED   1 IMPL_H1
M  END
>  <Name_Molregno>
141006

>  <DOPAMINE D2>
7.1

>  <DOPAMINE D3>
8.06

>  <DOPAMINE D4>
6.5

$$$$
141007
  Marvin  02231216192D 0   1.00000     0.00000     0

 24 26  0  0  0  0  0  0  0  0999 V2000
   -6.4931    1.7661    0.0000 F   0  0  0  0  0  0  0  0  0
   -6.0806    1.0517    0.0000 C   0  0  0  0  0  0  0  0  0
   -6.7951    0.6392    0.0000 F   0  0  0  0  0  0  0  0  0
   -5.3661    1.4642    0.0000 F   0  0  0  0  0  0  0  0  0
   -5.6681    0.3372    0.0000 C   0  0  0  0  0  0  0  0  0
   -6.0036   -0.4165    0.0000 N   0  0  0  0  0  0  0  0  0
   -5.3905   -0.9685    0.0000 C   0  0  0  0  0  0  0  0  0
   -4.6761   -0.5560    0.0000 C   0  0  0  0  0  0  0  0  0
   -4.8476    0.2510    0.0000 N   0  0  0  0  0  0  0  0  0
   -3.9616   -0.9685    0.0000 C   0  0  0  0  0  0  0  0  0
   -3.2471   -0.5560    0.0000 O   0  0  0  0  0  0  0  0  0
   -2.5327   -0.9685    0.0000 C   0  0  0  0  0  0  0  0  0
   -1.8182   -0.5560    0.0000 C   0  0  0  0  0  0  0  0  0
   -1.1037   -0.9685    0.0000 N   0  0  0  0  0  0  0  0  0
   -0.3892   -0.5560    0.0000 C   0  0  0  0  0  0  0  0  0
    0.3252   -0.9685    0.0000 C   0  0  0  0  0  0  0  0  0
    1.0397   -0.5560    0.0000 C   0  0  0  0  0  0  0  0  0
    1.7542   -0.9685    0.0000 C   0  0  0  0  0  0  0  0  0
    1.7542   -1.7935    0.0000 C   0  0  0  0  0  0  0  0  0
    1.0397   -2.2060    0.0000 C   0  0  0  0  0  0  0  0  0
    0.3252   -1.7935    0.0000 C   0  0  0  0  0  0  0  0  0
   -3.9616   -1.7935    0.0000 C   0  0  0  0  0  0  0  0  0
   -4.6761   -2.2060    0.0000 C   0  0  0  0  0  0  0  0  0
   -5.3905   -1.7935    0.0000 C   0  0  0  0  0  0  0  0  0
  1  2  1  0  0  0  0
  2  3  1  0  0  0  0
  2  4  1  0  0  0  0
  2  5  1  0  0  0  0
  5  6  4  0  0  0  0
  5  9  4  0  0  0  0
  6  7  4  0  0  0  0
  7  8  4  0  0  0  0
  7 24  4  0  0  0  0
  8  9  4  0  0  0  0
  8 10  4  0  0  0  0
 10 11  1  0  0  0  0
 10 22  4  0  0  0  0
 11 12  1  0  0  0  0
 12 13  1  0  0  0  0
 13 14  1  0  0  0  0
 14 15  1  0  0  0  0
 15 16  1  0  0  0  0
 16 17  4  0  0  0  0
 16 21  4  0  0  0  0
 17 18  4  0  0  0  0
 18 19  4  0  0  0  0
 19 20  4  0  0  0  0
 20 21  4  0  0  0  0
 22 23  4  0  0  0  0
 23 24  4  0  0  0  0
M  STY  1   1 DAT
M  SAL   1  1   6
M  SDT   1 MRV_IMPLICIT_H                                        
M  SDD   1     0.0000    0.0000    DR    ALL  0       0  
M  SED   1 IMPL_H1
M  END
>  <Name_Molregno>
141007

>  <DOPAMINE D2>
8.76

>  <DOPAMINE D3>
8.94

>  <DOPAMINE D4>
8.51

$$$$
141037
  Marvin  02231216192D 0   1.00000     0.00000     0

 25 27  0  0  0  0  0  0  0  0999 V2000
   -3.1695    0.0642    0.0000 Cl  0  0  0  0  0  0  0  0  0
   -3.1695   -0.7608    0.0000 C   0  0  0  0  0  0  0  0  0
   -2.4550   -1.1733    0.0000 C   0  0  0  0  0  0  0  0  0
   -2.4550   -1.9983    0.0000 C   0  0  0  0  0  0  0  0  0
   -1.7405   -2.4108    0.0000 O   0  0  0  0  0  0  0  0  0
   -1.0261   -1.9983    0.0000 C   0  0  0  0  0  0  0  0  0
   -0.3116   -2.4108    0.0000 C   0  0  0  0  0  0  0  0  0
    0.4029   -1.9983    0.0000 N   0  0  0  0  0  0  0  0  0
    1.1173   -2.4108    0.0000 C   0  0  0  0  0  0  0  0  0
    1.8318   -1.9983    0.0000 C   0  0  0  0  0  0  0  0  0
    1.8318   -1.1733    0.0000 C   0  0  0  0  0  0  0  0  0
    2.5463   -0.7608    0.0000 C   0  0  0  0  0  0  0  0  0
    3.2608   -1.1733    0.0000 C   0  0  0  0  0  0  0  0  0
    3.2608   -1.9983    0.0000 C   0  0  0  0  0  0  0  0  0
    2.5463   -2.4108    0.0000 C   0  0  0  0  0  0  0  0  0
   -3.1695   -2.4108    0.0000 C   0  0  0  0  0  0  0  0  0
   -3.3410   -3.2178    0.0000 N   0  0  0  0  0  0  0  0  0
   -4.1615   -3.3040    0.0000 C   0  0  0  0  0  0  0  0  0
   -4.4970   -2.5503    0.0000 N   0  0  0  0  0  0  0  0  0
   -3.8840   -1.9983    0.0000 C   0  0  0  0  0  0  0  0  0
   -3.8840   -1.1733    0.0000 C   0  0  0  0  0  0  0  0  0
   -4.5740   -4.0185    0.0000 C   0  0  0  0  0  0  0  0  0
   -4.9865   -4.7329    0.0000 F   0  0  0  0  0  0  0  0  0
   -5.2885   -3.6060    0.0000 F   0  0  0  0  0  0  0  0  0
   -3.8595   -4.4310    0.0000 F   0  0  0  0  0  0  0  0  0
  1  2  1  0  0  0  0
  2  3  4  0  0  0  0
  2 21  4  0  0  0  0
  3  4  4  0  0  0  0
  4  5  1  0  0  0  0
  4 16  4  0  0  0  0
  5  6  1  0  0  0  0
  6  7  1  0  0  0  0
  7  8  1  0  0  0  0
  8  9  1  0  0  0  0
  9 10  1  0  0  0  0
 10 11  4  0  0  0  0
 10 15  4  0  0  0  0
 11 12  4  0  0  0  0
 12 13  4  0  0  0  0
 13 14  4  0  0  0  0
 14 15  4  0  0  0  0
 16 17  4  0  0  0  0
 16 20  4  0  0  0  0
 17 18  4  0  0  0  0
 18 19  4  0  0  0  0
 18 22  1  0  0  0  0
 19 20  4  0  0  0  0
 20 21  4  0  0  0  0
 22 23  1  0  0  0  0
 22 24  1  0  0  0  0
 22 25  1  0  0  0  0
M  STY  1   1 DAT
M  SAL   1  1  19
M  SDT   1 MRV_IMPLICIT_H                                        
M  SDD   1     0.0000    0.0000    DR    ALL  0       0  
M  SED   1 IMPL_H1
M  END
>  <Name_Molregno>
141037

>  <DOPAMINE D2>
7.49

>  <DOPAMINE D3>
7.38

>  <DOPAMINE D4>
8.15

$$$$
141043
  Marvin  02231216192D 0   1.00000     0.00000     0

 21 23  0  0  0  0  0  0  0  0999 V2000
   -0.0159   -0.6797    0.0000 O   0  0  0  0  0  0  0  0  0
    0.6986   -0.2672    0.0000 C   0  0  0  0  0  0  0  0  0
    1.4131   -0.6797    0.0000 C   0  0  0  0  0  0  0  0  0
    2.1275   -0.2672    0.0000 N   0  0  0  0  0  0  0  0  0
    2.8420   -0.6797    0.0000 C   0  0  0  0  0  0  0  0  0
    3.5565   -0.2672    0.0000 C   0  0  0  0  0  0  0  0  0
    3.5565    0.5578    0.0000 C   0  0  0  0  0  0  0  0  0
    4.2709    0.9703    0.0000 C   0  0  0  0  0  0  0  0  0
    4.9854    0.5578    0.0000 C   0  0  0  0  0  0  0  0  0
    4.9854   -0.2672    0.0000 C   0  0  0  0  0  0  0  0  0
    4.2709   -0.6797    0.0000 C   0  0  0  0  0  0  0  0  0
   -0.7304   -0.2672    0.0000 C   0  0  0  0  0  0  0  0  0
   -1.4448   -0.6797    0.0000 C   0  0  0  0  0  0  0  0  0
   -1.6164   -1.4867    0.0000 N   0  0  0  0  0  0  0  0  0
   -2.4368   -1.5729    0.0000 C   0  0  0  0  0  0  0  0  0
   -2.7724   -0.8192    0.0000 N   0  0  0  0  0  0  0  0  0
   -2.1593   -0.2672    0.0000 C   0  0  0  0  0  0  0  0  0
   -2.1593    0.5578    0.0000 C   0  0  0  0  0  0  0  0  0
   -1.4448    0.9703    0.0000 C   0  0  0  0  0  0  0  0  0
   -0.7304    0.5578    0.0000 C   0  0  0  0  0  0  0  0  0
   -2.8493   -2.2874    0.0000 C   0  0  0  0  0  0  0  0  0
  1  2  1  0  0  0  0
  1 12  1  0  0  0  0
  2  3  1  0  0  0  0
  3  4  1  0  0  0  0
  4  5  1  0  0  0  0
  5  6  1  0  0  0  0
  6  7  4  0  0  0  0
  6 11  4  0  0  0  0
  7  8  4  0  0  0  0
  8  9  4  0  0  0  0
  9 10  4  0  0  0  0
 10 11  4  0  0  0  0
 12 13  4  0  0  0  0
 12 20  4  0  0  0  0
 13 14  4  0  0  0  0
 13 17  4  0  0  0  0
 14 15  4  0  0  0  0
 15 16  4  0  0  0  0
 15 21  1  0  0  0  0
 16 17  4  0  0  0  0
 17 18  4  0  0  0  0
 18 19  4  0  0  0  0
 19 20  4  0  0  0  0
M  STY  1   1 DAT
M  SAL   1  1  16
M  SDT   1 MRV_IMPLICIT_H                                        
M  SDD   1     0.0000    0.0000    DR    ALL  0       0  
M  SED   1 IMPL_H1
M  END
>  <Name_Molregno>
141043

>  <DOPAMINE D2>
7.82

>  <DOPAMINE D3>
7.02

>  <DOPAMINE D4>
7.21

$$$$
141724
  Marvin  02231216192D 0   1.00000     0.00000     0

 21 23  0  0  0  0  0  0  0  0999 V2000
   -0.0159   -0.6797    0.0000 O   0  0  0  0  0  0  0  0  0
    0.6986   -0.2672    0.0000 C   0  0  0  0  0  0  0  0  0
    1.4131   -0.6797    0.0000 C   0  0  0  0  0  0  0  0  0
    2.1275   -0.2672    0.0000 N   0  0  0  0  0  0  0  0  0
    2.8420   -0.6797    0.0000 C   0  0  0  0  0  0  0  0  0
    3.5565   -0.2672    0.0000 C   0  0  0  0  0  0  0  0  0
    3.5565    0.5578    0.0000 C   0  0  0  0  0  0  0  0  0
    4.2709    0.9703    0.0000 C   0  0  0  0  0  0  0  0  0
    4.9854    0.5578    0.0000 C   0  0  0  0  0  0  0  0  0
    4.9854   -0.2672    0.0000 C   0  0  0  0  0  0  0  0  0
    4.2709   -0.6797    0.0000 C   0  0  0  0  0  0  0  0  0
   -0.7304   -0.2672    0.0000 C   0  0  0  0  0  0  0  0  0
   -1.4448   -0.6797    0.0000 C   0  0  0  0  0  0  0  0  0
   -1.6164   -1.4867    0.0000 N   0  0  0  0  0  0  0  0  0
   -2.4368   -1.5729    0.0000 C   0  0  0  0  0  0  0  0  0
   -2.8493   -2.2874    0.0000 O   0  0  0  0  0  0  0  0  0
   -2.7724   -0.8192    0.0000 N   0  0  0  0  0  0  0  0  0
   -2.1593   -0.2672    0.0000 C   0  0  0  0  0  0  0  0  0
   -2.1593    0.5578    0.0000 C   0  0  0  0  0  0  0  0  0
   -1.4448    0.9703    0.0000 C   0  0  0  0  0  0  0  0  0
   -0.7304    0.5578    0.0000 C   0  0  0  0  0  0  0  0  0
  1  2  1  0  0  0  0
  1 12  1  0  0  0  0
  2  3  1  0  0  0  0
  3  4  1  0  0  0  0
  4  5  1  0  0  0  0
  5  6  1  0  0  0  0
  6  7  4  0  0  0  0
  6 11  4  0  0  0  0
  7  8  4  0  0  0  0
  8  9  4  0  0  0  0
  9 10  4  0  0  0  0
 10 11  4  0  0  0  0
 12 13  4  0  0  0  0
 12 21  4  0  0  0  0
 13 14  4  0  0  0  0
 13 18  4  0  0  0  0
 14 15  4  0  0  0  0
 15 16  1  0  0  0  0
 15 17  4  0  0  0  0
 17 18  4  0  0  0  0
 18 19  4  0  0  0  0
 19 20  4  0  0  0  0
 20 21  4  0  0  0  0
M  STY  1   1 DAT
M  SAL   1  1  17
M  SDT   1 MRV_IMPLICIT_H                                        
M  SDD   1     0.0000    0.0000    DR    ALL  0       0  
M  SED   1 IMPL_H1
M  END
>  <Name_Molregno>
141724

>  <DOPAMINE D2>
8.41

>  <DOPAMINE D3>
8.39

>  <DOPAMINE D4>
8.2

$$$$
141853
  Marvin  02231216192D 0   1.00000     0.00000     0

 21 23  0  0  0  0  0  0  0  0999 V2000
    0.3557    1.3676    0.0000 S   0  0  0  0  0  0  0  0  0
    0.7682    0.6532    0.0000 C   0  0  0  0  0  0  0  0  0
    0.4326   -0.1005    0.0000 N   0  0  0  0  0  0  0  0  0
    1.0457   -0.6526    0.0000 C   0  0  0  0  0  0  0  0  0
    1.7602   -0.2401    0.0000 C   0  0  0  0  0  0  0  0  0
    1.5887    0.5669    0.0000 N   0  0  0  0  0  0  0  0  0
    2.4747   -0.6526    0.0000 C   0  0  0  0  0  0  0  0  0
    3.1891   -0.2401    0.0000 O   0  0  0  0  0  0  0  0  0
    3.9036   -0.6526    0.0000 C   0  0  0  0  0  0  0  0  0
    4.6181   -0.2401    0.0000 C   0  0  0  0  0  0  0  0  0
    5.3325   -0.6526    0.0000 N   0  0  0  0  0  0  0  0  0
    6.0470   -0.2401    0.0000 C   0  0  0  0  0  0  0  0  0
    6.7615   -0.6526    0.0000 C   0  0  0  0  0  0  0  0  0
    7.4760   -0.2401    0.0000 C   0  0  0  0  0  0  0  0  0
    8.1904   -0.6526    0.0000 C   0  0  0  0  0  0  0  0  0
    8.1904   -1.4776    0.0000 C   0  0  0  0  0  0  0  0  0
    7.4760   -1.8901    0.0000 C   0  0  0  0  0  0  0  0  0
    6.7615   -1.4776    0.0000 C   0  0  0  0  0  0  0  0  0
    2.4747   -1.4776    0.0000 C   0  0  0  0  0  0  0  0  0
    1.7602   -1.8901    0.0000 C   0  0  0  0  0  0  0  0  0
    1.0457   -1.4776    0.0000 C   0  0  0  0  0  0  0  0  0
  1  2  1  0  0  0  0
  2  3  4  0  0  0  0
  2  6  4  0  0  0  0
  3  4  4  0  0  0  0
  4  5  4  0  0  0  0
  4 21  4  0  0  0  0
  5  6  4  0  0  0  0
  5  7  4  0  0  0  0
  7  8  1  0  0  0  0
  7 19  4  0  0  0  0
  8  9  1  0  0  0  0
  9 10  1  0  0  0  0
 10 11  1  0  0  0  0
 11 12  1  0  0  0  0
 12 13  1  0  0  0  0
 13 14  4  0  0  0  0
 13 18  4  0  0  0  0
 14 15  4  0  0  0  0
 15 16  4  0  0  0  0
 16 17  4  0  0  0  0
 17 18  4  0  0  0  0
 19 20  4  0  0  0  0
 20 21  4  0  0  0  0
M  STY  1   1 DAT
M  SAL   1  1   3
M  SDT   1 MRV_IMPLICIT_H                                        
M  SDD   1     0.0000    0.0000    DR    ALL  0       0  
M  SED   1 IMPL_H1
M  END
>  <Name_Molregno>
141853

>  <DOPAMINE D2>
8.52

>  <DOPAMINE D3>
8.7

>  <DOPAMINE D4>
8.42

$$$$
141854
  Marvin  02231216192D 0   1.00000     0.00000     0

 22 24  0  0  0  0  0  0  0  0999 V2000
   -2.7688   -0.6677    0.0000 Cl  0  0  0  0  0  0  0  0  0
   -2.7688   -1.4927    0.0000 C   0  0  0  0  0  0  0  0  0
   -2.0543   -1.9052    0.0000 C   0  0  0  0  0  0  0  0  0
   -2.0543   -2.7302    0.0000 C   0  0  0  0  0  0  0  0  0
   -1.3398   -3.1427    0.0000 O   0  0  0  0  0  0  0  0  0
   -0.6253   -2.7302    0.0000 C   0  0  0  0  0  0  0  0  0
    0.0891   -3.1427    0.0000 C   0  0  0  0  0  0  0  0  0
    0.8036   -2.7302    0.0000 N   0  0  0  0  0  0  0  0  0
    1.5181   -3.1427    0.0000 C   0  0  0  0  0  0  0  0  0
    2.2325   -2.7302    0.0000 C   0  0  0  0  0  0  0  0  0
    2.2325   -1.9052    0.0000 C   0  0  0  0  0  0  0  0  0
    2.9470   -1.4927    0.0000 C   0  0  0  0  0  0  0  0  0
    3.6615   -1.9052    0.0000 C   0  0  0  0  0  0  0  0  0
    3.6615   -2.7302    0.0000 C   0  0  0  0  0  0  0  0  0
    2.9470   -3.1427    0.0000 C   0  0  0  0  0  0  0  0  0
   -2.7688   -3.1427    0.0000 C   0  0  0  0  0  0  0  0  0
   -2.9403   -3.9497    0.0000 N   0  0  0  0  0  0  0  0  0
   -3.7608   -4.0359    0.0000 C   0  0  0  0  0  0  0  0  0
   -4.1733   -4.7504    0.0000 O   0  0  0  0  0  0  0  0  0
   -4.0963   -3.2822    0.0000 N   0  0  0  0  0  0  0  0  0
   -3.4832   -2.7302    0.0000 C   0  0  0  0  0  0  0  0  0
   -3.4832   -1.9052    0.0000 C   0  0  0  0  0  0  0  0  0
  1  2  1  0  0  0  0
  2  3  4  0  0  0  0
  2 22  4  0  0  0  0
  3  4  4  0  0  0  0
  4  5  1  0  0  0  0
  4 16  4  0  0  0  0
  5  6  1  0  0  0  0
  6  7  1  0  0  0  0
  7  8  1  0  0  0  0
  8  9  1  0  0  0  0
  9 10  1  0  0  0  0
 10 11  4  0  0  0  0
 10 15  4  0  0  0  0
 11 12  4  0  0  0  0
 12 13  4  0  0  0  0
 13 14  4  0  0  0  0
 14 15  4  0  0  0  0
 16 17  4  0  0  0  0
 16 21  4  0  0  0  0
 17 18  4  0  0  0  0
 18 19  1  0  0  0  0
 18 20  4  0  0  0  0
 20 21  4  0  0  0  0
 21 22  4  0  0  0  0
M  STY  1   1 DAT
M  SAL   1  1  20
M  SDT   1 MRV_IMPLICIT_H                                        
M  SDD   1     0.0000    0.0000    DR    ALL  0       0  
M  SED   1 IMPL_H1
M  END
>  <Name_Molregno>
141854

>  <DOPAMINE D2>
8.59

>  <DOPAMINE D3>
8.13

>  <DOPAMINE D4>
7.8

$$$$
141886
  Marvin  02231216192D 0   1.00000     0.00000     0

 22 24  0  0  0  0  0  0  0  0999 V2000
   -2.7688   -0.6677    0.0000 Cl  0  0  0  0  0  0  0  0  0
   -2.7688   -1.4927    0.0000 C   0  0  0  0  0  0  0  0  0
   -2.0543   -1.9052    0.0000 C   0  0  0  0  0  0  0  0  0
   -2.0543   -2.7302    0.0000 C   0  0  0  0  0  0  0  0  0
   -1.3398   -3.1427    0.0000 O   0  0  0  0  0  0  0  0  0
   -0.6253   -2.7302    0.0000 C   0  0  0  0  0  0  0  0  0
    0.0891   -3.1427    0.0000 C   0  0  0  0  0  0  0  0  0
    0.8036   -2.7302    0.0000 N   0  0  0  0  0  0  0  0  0
    1.5181   -3.1427    0.0000 C   0  0  0  0  0  0  0  0  0
    2.2325   -2.7302    0.0000 C   0  0  0  0  0  0  0  0  0
    2.2325   -1.9052    0.0000 C   0  0  0  0  0  0  0  0  0
    2.9470   -1.4927    0.0000 C   0  0  0  0  0  0  0  0  0
    3.6615   -1.9052    0.0000 C   0  0  0  0  0  0  0  0  0
    3.6615   -2.7302    0.0000 C   0  0  0  0  0  0  0  0  0
    2.9470   -3.1427    0.0000 C   0  0  0  0  0  0  0  0  0
   -2.7688   -3.1427    0.0000 C   0  0  0  0  0  0  0  0  0
   -2.9403   -3.9497    0.0000 N   0  0  0  0  0  0  0  0  0
   -3.7608   -4.0359    0.0000 C   0  0  0  0  0  0  0  0  0
   -4.1733   -4.7504    0.0000 S   0  0  0  0  0  0  0  0  0
   -4.0963   -3.2822    0.0000 N   0  0  0  0  0  0  0  0  0
   -3.4832   -2.7302    0.0000 C   0  0  0  0  0  0  0  0  0
   -3.4832   -1.9052    0.0000 C   0  0  0  0  0  0  0  0  0
  1  2  1  0  0  0  0
  2  3  4  0  0  0  0
  2 22  4  0  0  0  0
  3  4  4  0  0  0  0
  4  5  1  0  0  0  0
  4 16  4  0  0  0  0
  5  6  1  0  0  0  0
  6  7  1  0  0  0  0
  7  8  1  0  0  0  0
  8  9  1  0  0  0  0
  9 10  1  0  0  0  0
 10 11  4  0  0  0  0
 10 15  4  0  0  0  0
 11 12  4  0  0  0  0
 12 13  4  0  0  0  0
 13 14  4  0  0  0  0
 14 15  4  0  0  0  0
 16 17  4  0  0  0  0
 16 21  4  0  0  0  0
 17 18  4  0  0  0  0
 18 19  1  0  0  0  0
 18 20  4  0  0  0  0
 20 21  4  0  0  0  0
 21 22  4  0  0  0  0
M  STY  1   1 DAT
M  SAL   1  1  20
M  SDT   1 MRV_IMPLICIT_H                                        
M  SDD   1     0.0000    0.0000    DR    ALL  0       0  
M  SED   1 IMPL_H1
M  END
>  <Name_Molregno>
141886

>  <DOPAMINE D2>
8.19

>  <DOPAMINE D3>
7.91

>  <DOPAMINE D4>
7.95

$$$$
146092
  Marvin  02231216192D 0   1.00000     0.00000     0

 22 25  0  0  0  0  0  0  0  0999 V2000
   -4.8805   -3.2452    0.0000 N   0  0  0  0  0  0  0  0  0
   -4.0959   -2.9903    0.0000 C   0  0  0  0  0  0  0  0  0
   -4.0959   -2.1653    0.0000 C   0  0  0  0  0  0  0  0  0
   -4.8805   -1.9103    0.0000 N   0  0  0  0  0  0  0  0  0
   -5.3655   -2.5778    0.0000 C   0  0  0  0  0  0  0  0  0
   -3.3815   -1.7528    0.0000 C   0  0  0  0  0  0  0  0  0
   -3.3815   -0.9278    0.0000 N   0  0  0  0  0  0  0  0  0
   -4.0959   -0.5153    0.0000 C   0  0  0  0  0  0  0  0  0
   -4.0959    0.3097    0.0000 C   0  0  0  0  0  0  0  0  0
   -3.3815    0.7222    0.0000 N   0  0  0  0  0  0  0  0  0
   -2.6670    0.3097    0.0000 C   0  0  0  0  0  0  0  0  0
   -2.6670   -0.5153    0.0000 C   0  0  0  0  0  0  0  0  0
   -3.3815    1.5472    0.0000 C   0  0  0  0  0  0  0  0  0
   -2.6670    1.9597    0.0000 C   0  0  0  0  0  0  0  0  0
   -2.6670    2.7847    0.0000 C   0  0  0  0  0  0  0  0  0
   -1.9525    3.1972    0.0000 C   0  0  0  0  0  0  0  0  0
   -1.2380    2.7847    0.0000 C   0  0  0  0  0  0  0  0  0
   -1.2380    1.9597    0.0000 C   0  0  0  0  0  0  0  0  0
   -1.9525    1.5472    0.0000 C   0  0  0  0  0  0  0  0  0
   -2.6670   -2.1653    0.0000 C   0  0  0  0  0  0  0  0  0
   -2.6670   -2.9903    0.0000 C   0  0  0  0  0  0  0  0  0
   -3.3815   -3.4028    0.0000 C   0  0  0  0  0  0  0  0  0
  1  2  4  0  0  0  0
  1  5  4  0  0  0  0
  2  3  4  0  0  0  0
  2 22  4  0  0  0  0
  3  4  4  0  0  0  0
  3  6  4  0  0  0  0
  4  5  4  0  0  0  0
  6  7  1  0  0  0  0
  6 20  4  0  0  0  0
  7  8  1  0  0  0  0
  7 12  1  0  0  0  0
  8  9  1  0  0  0  0
  9 10  1  0  0  0  0
 10 11  1  0  0  0  0
 10 13  1  0  0  0  0
 11 12  1  0  0  0  0
 13 14  1  0  0  0  0
 14 15  4  0  0  0  0
 14 19  4  0  0  0  0
 15 16  4  0  0  0  0
 16 17  4  0  0  0  0
 17 18  4  0  0  0  0
 18 19  4  0  0  0  0
 20 21  4  0  0  0  0
 21 22  4  0  0  0  0
M  STY  1   1 DAT
M  SAL   1  1   1
M  SDT   1 MRV_IMPLICIT_H                                        
M  SDD   1     0.0000    0.0000    DR    ALL  0       0  
M  SED   1 IMPL_H1
M  END
>  <Name_Molregno>
146092

>  <DOPAMINE D2>
6.59

>  <DOPAMINE D3>
6.06

>  <DOPAMINE D4>
7.33

$$$$
146093
  Marvin  02231216192D 0   1.00000     0.00000     0

 26 29  0  0  0  0  0  0  0  0999 V2000
    0.1755   -2.6563    0.0000 F   0  0  0  0  0  0  0  0  0
    1.0005   -2.6563    0.0000 C   0  0  0  0  0  0  0  0  0
    1.0005   -3.4813    0.0000 F   0  0  0  0  0  0  0  0  0
    1.0005   -1.8313    0.0000 F   0  0  0  0  0  0  0  0  0
    1.8255   -2.6563    0.0000 C   0  0  0  0  0  0  0  0  0
    2.3104   -3.3237    0.0000 N   0  0  0  0  0  0  0  0  0
    3.0951   -3.0688    0.0000 C   0  0  0  0  0  0  0  0  0
    3.0951   -2.2438    0.0000 C   0  0  0  0  0  0  0  0  0
    2.3104   -1.9888    0.0000 N   0  0  0  0  0  0  0  0  0
    3.8095   -1.8313    0.0000 C   0  0  0  0  0  0  0  0  0
    3.8095   -1.0063    0.0000 N   0  0  0  0  0  0  0  0  0
    3.0951   -0.5938    0.0000 C   0  0  0  0  0  0  0  0  0
    3.0951    0.2312    0.0000 C   0  0  0  0  0  0  0  0  0
    3.8095    0.6437    0.0000 N   0  0  0  0  0  0  0  0  0
    4.5240    0.2312    0.0000 C   0  0  0  0  0  0  0  0  0
    4.5240   -0.5938    0.0000 C   0  0  0  0  0  0  0  0  0
    3.8095    1.4687    0.0000 C   0  0  0  0  0  0  0  0  0
    4.5240    1.8812    0.0000 C   0  0  0  0  0  0  0  0  0
    4.5240    2.7062    0.0000 C   0  0  0  0  0  0  0  0  0
    5.2385    3.1187    0.0000 C   0  0  0  0  0  0  0  0  0
    5.9529    2.7062    0.0000 C   0  0  0  0  0  0  0  0  0
    5.9529    1.8812    0.0000 C   0  0  0  0  0  0  0  0  0
    5.2385    1.4687    0.0000 C   0  0  0  0  0  0  0  0  0
    4.5240   -2.2438    0.0000 C   0  0  0  0  0  0  0  0  0
    4.5240   -3.0688    0.0000 C   0  0  0  0  0  0  0  0  0
    3.8095   -3.4813    0.0000 C   0  0  0  0  0  0  0  0  0
  1  2  1  0  0  0  0
  2  3  1  0  0  0  0
  2  4  1  0  0  0  0
  2  5  1  0  0  0  0
  5  6  4  0  0  0  0
  5  9  4  0  0  0  0
  6  7  4  0  0  0  0
  7  8  4  0  0  0  0
  7 26  4  0  0  0  0
  8  9  4  0  0  0  0
  8 10  4  0  0  0  0
 10 11  1  0  0  0  0
 10 24  4  0  0  0  0
 11 12  1  0  0  0  0
 11 16  1  0  0  0  0
 12 13  1  0  0  0  0
 13 14  1  0  0  0  0
 14 15  1  0  0  0  0
 14 17  1  0  0  0  0
 15 16  1  0  0  0  0
 17 18  1  0  0  0  0
 18 19  4  0  0  0  0
 18 23  4  0  0  0  0
 19 20  4  0  0  0  0
 20 21  4  0  0  0  0
 21 22  4  0  0  0  0
 22 23  4  0  0  0  0
 24 25  4  0  0  0  0
 25 26  4  0  0  0  0
M  STY  1   1 DAT
M  SAL   1  1   6
M  SDT   1 MRV_IMPLICIT_H                                        
M  SDD   1     0.0000    0.0000    DR    ALL  0       0  
M  SED   1 IMPL_H1
M  END
>  <Name_Molregno>
146093

>  <DOPAMINE D2>
8.39

>  <DOPAMINE D3>
7.83

>  <DOPAMINE D4>
8.54

$$$$
146128
  Marvin  02231216192D 0   1.00000     0.00000     0

 24 27  0  0  0  0  0  0  0  0999 V2000
    0.1337   -2.5417    0.0000 Cl  0  0  0  0  0  0  0  0  0
   -0.5808   -2.9542    0.0000 C   0  0  0  0  0  0  0  0  0
   -0.5808   -3.7792    0.0000 C   0  0  0  0  0  0  0  0  0
   -1.2953   -4.1917    0.0000 C   0  0  0  0  0  0  0  0  0
   -2.0098   -3.7792    0.0000 C   0  0  0  0  0  0  0  0  0
   -2.7944   -4.0341    0.0000 N   0  0  0  0  0  0  0  0  0
   -3.2793   -3.3667    0.0000 C   0  0  0  0  0  0  0  0  0
   -4.1043   -3.3667    0.0000 O   0  0  0  0  0  0  0  0  0
   -2.7944   -2.6992    0.0000 C   0  0  0  0  0  0  0  0  0
   -2.0098   -2.9542    0.0000 C   0  0  0  0  0  0  0  0  0
   -1.2953   -2.5417    0.0000 C   0  0  0  0  0  0  0  0  0
   -1.2953   -1.7167    0.0000 N   0  0  0  0  0  0  0  0  0
   -2.0098   -1.3042    0.0000 C   0  0  0  0  0  0  0  0  0
   -2.0098   -0.4792    0.0000 C   0  0  0  0  0  0  0  0  0
   -1.2953   -0.0667    0.0000 N   0  0  0  0  0  0  0  0  0
   -0.5808   -0.4792    0.0000 C   0  0  0  0  0  0  0  0  0
   -0.5808   -1.3042    0.0000 C   0  0  0  0  0  0  0  0  0
   -1.2953    0.7583    0.0000 C   0  0  0  0  0  0  0  0  0
   -0.5808    1.1708    0.0000 C   0  0  0  0  0  0  0  0  0
   -0.5808    1.9958    0.0000 C   0  0  0  0  0  0  0  0  0
    0.1337    2.4083    0.0000 C   0  0  0  0  0  0  0  0  0
    0.8481    1.9958    0.0000 C   0  0  0  0  0  0  0  0  0
    0.8481    1.1708    0.0000 C   0  0  0  0  0  0  0  0  0
    0.1337    0.7583    0.0000 C   0  0  0  0  0  0  0  0  0
  1  2  1  0  0  0  0
  2  3  4  0  0  0  0
  2 11  4  0  0  0  0
  3  4  4  0  0  0  0
  4  5  4  0  0  0  0
  5  6  1  0  0  0  0
  5 10  4  0  0  0  0
  6  7  1  0  0  0  0
  7  8  2  0  0  0  0
  7  9  1  0  0  0  0
  9 10  1  0  0  0  0
 10 11  4  0  0  0  0
 11 12  1  0  0  0  0
 12 13  1  0  0  0  0
 12 17  1  0  0  0  0
 13 14  1  0  0  0  0
 14 15  1  0  0  0  0
 15 16  1  0  0  0  0
 15 18  1  0  0  0  0
 16 17  1  0  0  0  0
 18 19  1  0  0  0  0
 19 20  4  0  0  0  0
 19 24  4  0  0  0  0
 20 21  4  0  0  0  0
 21 22  4  0  0  0  0
 22 23  4  0  0  0  0
 23 24  4  0  0  0  0
M  END
>  <Name_Molregno>
146128

>  <DOPAMINE D2>
6.27

>  <DOPAMINE D3>
6.23

>  <DOPAMINE D4>
8.06

$$$$
146597
  Marvin  02231216192D 0   1.00000     0.00000     0

 23 26  0  0  0  0  0  0  0  0999 V2000
    0.4639   -3.1071    0.0000 O   0  0  0  0  0  0  0  0  0
    1.2889   -3.1071    0.0000 C   0  0  0  0  0  0  0  0  0
    1.7738   -3.7745    0.0000 N   0  0  0  0  0  0  0  0  0
    2.5585   -3.5196    0.0000 C   0  0  0  0  0  0  0  0  0
    2.5585   -2.6946    0.0000 C   0  0  0  0  0  0  0  0  0
    1.7738   -2.4396    0.0000 C   0  0  0  0  0  0  0  0  0
    3.2729   -2.2821    0.0000 C   0  0  0  0  0  0  0  0  0
    3.2729   -1.4571    0.0000 N   0  0  0  0  0  0  0  0  0
    2.5585   -1.0446    0.0000 C   0  0  0  0  0  0  0  0  0
    2.5585   -0.2196    0.0000 C   0  0  0  0  0  0  0  0  0
    3.2729    0.1929    0.0000 N   0  0  0  0  0  0  0  0  0
    3.9874   -0.2196    0.0000 C   0  0  0  0  0  0  0  0  0
    3.9874   -1.0446    0.0000 C   0  0  0  0  0  0  0  0  0
    3.2729    1.0179    0.0000 C   0  0  0  0  0  0  0  0  0
    3.9874    1.4304    0.0000 C   0  0  0  0  0  0  0  0  0
    3.9874    2.2554    0.0000 C   0  0  0  0  0  0  0  0  0
    4.7019    2.6679    0.0000 C   0  0  0  0  0  0  0  0  0
    5.4163    2.2554    0.0000 C   0  0  0  0  0  0  0  0  0
    5.4163    1.4304    0.0000 C   0  0  0  0  0  0  0  0  0
    4.7019    1.0179    0.0000 C   0  0  0  0  0  0  0  0  0
    3.9874   -2.6946    0.0000 C   0  0  0  0  0  0  0  0  0
    3.9874   -3.5196    0.0000 C   0  0  0  0  0  0  0  0  0
    3.2729   -3.9321    0.0000 C   0  0  0  0  0  0  0  0  0
  1  2  2  0  0  0  0
  2  3  1  0  0  0  0
  2  6  1  0  0  0  0
  3  4  1  0  0  0  0
  4  5  4  0  0  0  0
  4 23  4  0  0  0  0
  5  6  1  0  0  0  0
  5  7  4  0  0  0  0
  7  8  1  0  0  0  0
  7 21  4  0  0  0  0
  8  9  1  0  0  0  0
  8 13  1  0  0  0  0
  9 10  1  0  0  0  0
 10 11  1  0  0  0  0
 11 12  1  0  0  0  0
 11 14  1  0  0  0  0
 12 13  1  0  0  0  0
 14 15  1  0  0  0  0
 15 16  4  0  0  0  0
 15 20  4  0  0  0  0
 16 17  4  0  0  0  0
 17 18  4  0  0  0  0
 18 19  4  0  0  0  0
 19 20  4  0  0  0  0
 21 22  4  0  0  0  0
 22 23  4  0  0  0  0
M  END
>  <Name_Molregno>
146597

>  <DOPAMINE D2>
8.1

>  <DOPAMINE D3>
8.27

>  <DOPAMINE D4>
8.52

$$$$
146638
  Marvin  02231216192D 0   1.00000     0.00000     0

 20 22  0  0  0  0  0  0  0  0999 V2000
    1.6910    3.1208    0.0000 O   0  0  0  0  0  0  0  0  0
    1.6910    2.2958    0.0000 C   0  0  0  0  0  0  0  0  0
    2.4055    1.8833    0.0000 C   0  0  0  0  0  0  0  0  0
    2.4055    1.0583    0.0000 C   0  0  0  0  0  0  0  0  0
    3.1200    0.6458    0.0000 N   0  0  0  0  0  0  0  0  0
    3.8344    1.0583    0.0000 C   0  0  0  0  0  0  0  0  0
    4.5489    0.6458    0.0000 C   0  0  0  0  0  0  0  0  0
    4.5489   -0.1792    0.0000 N   0  0  0  0  0  0  0  0  0
    3.8344   -0.5917    0.0000 C   0  0  0  0  0  0  0  0  0
    3.1200   -0.1792    0.0000 C   0  0  0  0  0  0  0  0  0
    5.2634   -0.5917    0.0000 C   0  0  0  0  0  0  0  0  0
    5.2634   -1.4167    0.0000 C   0  0  0  0  0  0  0  0  0
    5.9778   -1.8292    0.0000 C   0  0  0  0  0  0  0  0  0
    5.9778   -2.6542    0.0000 C   0  0  0  0  0  0  0  0  0
    5.2634   -3.0667    0.0000 C   0  0  0  0  0  0  0  0  0
    4.5489   -2.6542    0.0000 C   0  0  0  0  0  0  0  0  0
    4.5489   -1.8292    0.0000 C   0  0  0  0  0  0  0  0  0
    1.6910    0.6458    0.0000 C   0  0  0  0  0  0  0  0  0
    0.9765    1.0583    0.0000 C   0  0  0  0  0  0  0  0  0
    0.9765    1.8833    0.0000 C   0  0  0  0  0  0  0  0  0
  1  2  1  0  0  0  0
  2  3  4  0  0  0  0
  2 20  4  0  0  0  0
  3  4  4  0  0  0  0
  4  5  1  0  0  0  0
  4 18  4  0  0  0  0
  5  6  1  0  0  0  0
  5 10  1  0  0  0  0
  6  7  1  0  0  0  0
  7  8  1  0  0  0  0
  8  9  1  0  0  0  0
  8 11  1  0  0  0  0
  9 10  1  0  0  0  0
 11 12  1  0  0  0  0
 12 13  4  0  0  0  0
 12 17  4  0  0  0  0
 13 14  4  0  0  0  0
 14 15  4  0  0  0  0
 15 16  4  0  0  0  0
 16 17  4  0  0  0  0
 18 19  4  0  0  0  0
 19 20  4  0  0  0  0
M  END
>  <Name_Molregno>
146638

>  <DOPAMINE D2>
7.43

>  <DOPAMINE D3>
7.54

>  <DOPAMINE D4>
6.4

$$$$
146648
  Marvin  02231216192D 0   1.00000     0.00000     0

 23 26  0  0  0  0  0  0  0  0999 V2000
    3.4432   -3.8297    0.0000 Br  0  0  0  0  0  0  0  0  0
    3.4432   -3.0047    0.0000 C   0  0  0  0  0  0  0  0  0
    2.7287   -2.5922    0.0000 C   0  0  0  0  0  0  0  0  0
    1.9441   -2.8472    0.0000 N   0  0  0  0  0  0  0  0  0
    1.4591   -2.1797    0.0000 C   0  0  0  0  0  0  0  0  0
    1.9441   -1.5123    0.0000 C   0  0  0  0  0  0  0  0  0
    2.7287   -1.7672    0.0000 C   0  0  0  0  0  0  0  0  0
    3.4432   -1.3547    0.0000 C   0  0  0  0  0  0  0  0  0
    3.4432   -0.5297    0.0000 N   0  0  0  0  0  0  0  0  0
    2.7287   -0.1172    0.0000 C   0  0  0  0  0  0  0  0  0
    2.7287    0.7078    0.0000 C   0  0  0  0  0  0  0  0  0
    3.4432    1.1203    0.0000 N   0  0  0  0  0  0  0  0  0
    4.1576    0.7078    0.0000 C   0  0  0  0  0  0  0  0  0
    4.1576   -0.1172    0.0000 C   0  0  0  0  0  0  0  0  0
    3.4432    1.9453    0.0000 C   0  0  0  0  0  0  0  0  0
    4.1576    2.3578    0.0000 C   0  0  0  0  0  0  0  0  0
    4.1576    3.1828    0.0000 C   0  0  0  0  0  0  0  0  0
    4.8721    3.5953    0.0000 C   0  0  0  0  0  0  0  0  0
    5.5866    3.1828    0.0000 C   0  0  0  0  0  0  0  0  0
    5.5866    2.3578    0.0000 C   0  0  0  0  0  0  0  0  0
    4.8721    1.9453    0.0000 C   0  0  0  0  0  0  0  0  0
    4.1576   -1.7672    0.0000 C   0  0  0  0  0  0  0  0  0
    4.1576   -2.5922    0.0000 C   0  0  0  0  0  0  0  0  0
  1  2  1  0  0  0  0
  2  3  4  0  0  0  0
  2 23  4  0  0  0  0
  3  4  4  0  0  0  0
  3  7  4  0  0  0  0
  4  5  4  0  0  0  0
  5  6  4  0  0  0  0
  6  7  4  0  0  0  0
  7  8  4  0  0  0  0
  8  9  1  0  0  0  0
  8 22  4  0  0  0  0
  9 10  1  0  0  0  0
  9 14  1  0  0  0  0
 10 11  1  0  0  0  0
 11 12  1  0  0  0  0
 12 13  1  0  0  0  0
 12 15  1  0  0  0  0
 13 14  1  0  0  0  0
 15 16  1  0  0  0  0
 16 17  4  0  0  0  0
 16 21  4  0  0  0  0
 17 18  4  0  0  0  0
 18 19  4  0  0  0  0
 19 20  4  0  0  0  0
 20 21  4  0  0  0  0
 22 23  4  0  0  0  0
M  STY  1   1 DAT
M  SAL   1  1   4
M  SDT   1 MRV_IMPLICIT_H                                        
M  SDD   1     0.0000    0.0000    DR    ALL  0       0  
M  SED   1 IMPL_H1
M  END
>  <Name_Molregno>
146648

>  <DOPAMINE D2>
7.33

>  <DOPAMINE D3>
7.25

>  <DOPAMINE D4>
8.59

$$$$
146649
  Marvin  02231216192D 0   1.00000     0.00000     0

 22 25  0  0  0  0  0  0  0  0999 V2000
   -4.8805   -3.2452    0.0000 N   0  0  0  0  0  0  0  0  0
   -4.0959   -2.9903    0.0000 C   0  0  0  0  0  0  0  0  0
   -4.0959   -2.1653    0.0000 C   0  0  0  0  0  0  0  0  0
   -4.8805   -1.9103    0.0000 C   0  0  0  0  0  0  0  0  0
   -5.3655   -2.5778    0.0000 C   0  0  0  0  0  0  0  0  0
   -3.3815   -1.7528    0.0000 C   0  0  0  0  0  0  0  0  0
   -3.3815   -0.9278    0.0000 N   0  0  0  0  0  0  0  0  0
   -4.0959   -0.5153    0.0000 C   0  0  0  0  0  0  0  0  0
   -4.0959    0.3097    0.0000 C   0  0  0  0  0  0  0  0  0
   -3.3815    0.7222    0.0000 N   0  0  0  0  0  0  0  0  0
   -2.6670    0.3097    0.0000 C   0  0  0  0  0  0  0  0  0
   -2.6670   -0.5153    0.0000 C   0  0  0  0  0  0  0  0  0
   -3.3815    1.5472    0.0000 C   0  0  0  0  0  0  0  0  0
   -2.6670    1.9597    0.0000 C   0  0  0  0  0  0  0  0  0
   -2.6670    2.7847    0.0000 C   0  0  0  0  0  0  0  0  0
   -1.9525    3.1972    0.0000 C   0  0  0  0  0  0  0  0  0
   -1.2380    2.7847    0.0000 C   0  0  0  0  0  0  0  0  0
   -1.2380    1.9597    0.0000 C   0  0  0  0  0  0  0  0  0
   -1.9525    1.5472    0.0000 C   0  0  0  0  0  0  0  0  0
   -2.6670   -2.1653    0.0000 C   0  0  0  0  0  0  0  0  0
   -2.6670   -2.9903    0.0000 C   0  0  0  0  0  0  0  0  0
   -3.3815   -3.4028    0.0000 C   0  0  0  0  0  0  0  0  0
  1  2  4  0  0  0  0
  1  5  4  0  0  0  0
  2  3  4  0  0  0  0
  2 22  4  0  0  0  0
  3  4  4  0  0  0  0
  3  6  4  0  0  0  0
  4  5  4  0  0  0  0
  6  7  1  0  0  0  0
  6 20  4  0  0  0  0
  7  8  1  0  0  0  0
  7 12  1  0  0  0  0
  8  9  1  0  0  0  0
  9 10  1  0  0  0  0
 10 11  1  0  0  0  0
 10 13  1  0  0  0  0
 11 12  1  0  0  0  0
 13 14  1  0  0  0  0
 14 15  4  0  0  0  0
 14 19  4  0  0  0  0
 15 16  4  0  0  0  0
 16 17  4  0  0  0  0
 17 18  4  0  0  0  0
 18 19  4  0  0  0  0
 20 21  4  0  0  0  0
 21 22  4  0  0  0  0
M  STY  1   1 DAT
M  SAL   1  1   1
M  SDT   1 MRV_IMPLICIT_H                                        
M  SDD   1     0.0000    0.0000    DR    ALL  0       0  
M  SED   1 IMPL_H1
M  END
>  <Name_Molregno>
146649

>  <DOPAMINE D2>
7.28

>  <DOPAMINE D3>
7.45

>  <DOPAMINE D4>
7.83

$$$$
146683
  Marvin  02231216192D 0   1.00000     0.00000     0

 23 26  0  0  0  0  0  0  0  0999 V2000
    0.4639   -3.1071    0.0000 O   0  0  0  0  0  0  0  0  0
    1.2889   -3.1071    0.0000 C   0  0  0  0  0  0  0  0  0
    1.7738   -3.7745    0.0000 N   0  0  0  0  0  0  0  0  0
    2.5585   -3.5196    0.0000 C   0  0  0  0  0  0  0  0  0
    2.5585   -2.6946    0.0000 C   0  0  0  0  0  0  0  0  0
    1.7738   -2.4396    0.0000 N   0  0  0  0  0  0  0  0  0
    3.2729   -2.2821    0.0000 C   0  0  0  0  0  0  0  0  0
    3.2729   -1.4571    0.0000 N   0  0  0  0  0  0  0  0  0
    2.5585   -1.0446    0.0000 C   0  0  0  0  0  0  0  0  0
    2.5585   -0.2196    0.0000 C   0  0  0  0  0  0  0  0  0
    3.2729    0.1929    0.0000 N   0  0  0  0  0  0  0  0  0
    3.9874   -0.2196    0.0000 C   0  0  0  0  0  0  0  0  0
    3.9874   -1.0446    0.0000 C   0  0  0  0  0  0  0  0  0
    3.2729    1.0179    0.0000 C   0  0  0  0  0  0  0  0  0
    3.9874    1.4304    0.0000 C   0  0  0  0  0  0  0  0  0
    3.9874    2.2554    0.0000 C   0  0  0  0  0  0  0  0  0
    4.7019    2.6679    0.0000 C   0  0  0  0  0  0  0  0  0
    5.4163    2.2554    0.0000 C   0  0  0  0  0  0  0  0  0
    5.4163    1.4304    0.0000 C   0  0  0  0  0  0  0  0  0
    4.7019    1.0179    0.0000 C   0  0  0  0  0  0  0  0  0
    3.9874   -2.6946    0.0000 C   0  0  0  0  0  0  0  0  0
    3.9874   -3.5196    0.0000 C   0  0  0  0  0  0  0  0  0
    3.2729   -3.9321    0.0000 C   0  0  0  0  0  0  0  0  0
  1  2  1  0  0  0  0
  2  3  4  0  0  0  0
  2  6  4  0  0  0  0
  3  4  4  0  0  0  0
  4  5  4  0  0  0  0
  4 23  4  0  0  0  0
  5  6  4  0  0  0  0
  5  7  4  0  0  0  0
  7  8  1  0  0  0  0
  7 21  4  0  0  0  0
  8  9  1  0  0  0  0
  8 13  1  0  0  0  0
  9 10  1  0  0  0  0
 10 11  1  0  0  0  0
 11 12  1  0  0  0  0
 11 14  1  0  0  0  0
 12 13  1  0  0  0  0
 14 15  1  0  0  0  0
 15 16  4  0  0  0  0
 15 20  4  0  0  0  0
 16 17  4  0  0  0  0
 17 18  4  0  0  0  0
 18 19  4  0  0  0  0
 19 20  4  0  0  0  0
 21 22  4  0  0  0  0
 22 23  4  0  0  0  0
M  STY  1   1 DAT
M  SAL   1  1   3
M  SDT   1 MRV_IMPLICIT_H                                        
M  SDD   1     0.0000    0.0000    DR    ALL  0       0  
M  SED   1 IMPL_H1
M  END
>  <Name_Molregno>
146683

>  <DOPAMINE D2>
7.06

>  <DOPAMINE D3>
7.25

>  <DOPAMINE D4>
7.84

$$$$
146684
  Marvin  02231216192D 0   1.00000     0.00000     0

 23 26  0  0  0  0  0  0  0  0999 V2000
   -0.0872   -2.5006    0.0000 Cl  0  0  0  0  0  0  0  0  0
   -0.8017   -2.9131    0.0000 C   0  0  0  0  0  0  0  0  0
   -0.8017   -3.7381    0.0000 C   0  0  0  0  0  0  0  0  0
   -1.5162   -4.1506    0.0000 C   0  0  0  0  0  0  0  0  0
   -2.2306   -3.7381    0.0000 C   0  0  0  0  0  0  0  0  0
   -3.0152   -3.9931    0.0000 N   0  0  0  0  0  0  0  0  0
   -3.5002   -3.3256    0.0000 C   0  0  0  0  0  0  0  0  0
   -3.0152   -2.6582    0.0000 C   0  0  0  0  0  0  0  0  0
   -2.2306   -2.9131    0.0000 C   0  0  0  0  0  0  0  0  0
   -1.5162   -2.5006    0.0000 C   0  0  0  0  0  0  0  0  0
   -1.5162   -1.6756    0.0000 N   0  0  0  0  0  0  0  0  0
   -2.2306   -1.2631    0.0000 C   0  0  0  0  0  0  0  0  0
   -2.2306   -0.4381    0.0000 C   0  0  0  0  0  0  0  0  0
   -1.5162   -0.0256    0.0000 N   0  0  0  0  0  0  0  0  0
   -0.8017   -0.4381    0.0000 C   0  0  0  0  0  0  0  0  0
   -0.8017   -1.2631    0.0000 C   0  0  0  0  0  0  0  0  0
   -1.5162    0.7994    0.0000 C   0  0  0  0  0  0  0  0  0
   -0.8017    1.2119    0.0000 C   0  0  0  0  0  0  0  0  0
   -0.8017    2.0369    0.0000 C   0  0  0  0  0  0  0  0  0
   -0.0872    2.4494    0.0000 C   0  0  0  0  0  0  0  0  0
    0.6273    2.0369    0.0000 C   0  0  0  0  0  0  0  0  0
    0.6273    1.2119    0.0000 C   0  0  0  0  0  0  0  0  0
   -0.0872    0.7994    0.0000 C   0  0  0  0  0  0  0  0  0
  1  2  1  0  0  0  0
  2  3  4  0  0  0  0
  2 10  4  0  0  0  0
  3  4  4  0  0  0  0
  4  5  4  0  0  0  0
  5  6  4  0  0  0  0
  5  9  4  0  0  0  0
  6  7  4  0  0  0  0
  7  8  4  0  0  0  0
  8  9  4  0  0  0  0
  9 10  4  0  0  0  0
 10 11  1  0  0  0  0
 11 12  1  0  0  0  0
 11 16  1  0  0  0  0
 12 13  1  0  0  0  0
 13 14  1  0  0  0  0
 14 15  1  0  0  0  0
 14 17  1  0  0  0  0
 15 16  1  0  0  0  0
 17 18  1  0  0  0  0
 18 19  4  0  0  0  0
 18 23  4  0  0  0  0
 19 20  4  0  0  0  0
 20 21  4  0  0  0  0
 21 22  4  0  0  0  0
 22 23  4  0  0  0  0
M  STY  1   1 DAT
M  SAL   1  1   6
M  SDT   1 MRV_IMPLICIT_H                                        
M  SDD   1     0.0000    0.0000    DR    ALL  0       0  
M  SED   1 IMPL_H1
M  END
>  <Name_Molregno>
146684

>  <DOPAMINE D2>
7.09

>  <DOPAMINE D3>
7.02

>  <DOPAMINE D4>
8.77

$$$$
147078
  Marvin  02231216192D 0   1.00000     0.00000     0

 23 26  0  0  0  0  0  0  0  0999 V2000
    8.1024   -2.1804    0.0000 Cl  0  0  0  0  0  0  0  0  0
    7.3879   -1.7679    0.0000 C   0  0  0  0  0  0  0  0  0
    6.6735   -2.1804    0.0000 C   0  0  0  0  0  0  0  0  0
    5.9590   -1.7679    0.0000 C   0  0  0  0  0  0  0  0  0
    5.9590   -0.9429    0.0000 C   0  0  0  0  0  0  0  0  0
    5.2445   -0.5304    0.0000 N   0  0  0  0  0  0  0  0  0
    4.5300   -0.9429    0.0000 C   0  0  0  0  0  0  0  0  0
    3.8156   -0.5304    0.0000 C   0  0  0  0  0  0  0  0  0
    3.8156    0.2946    0.0000 N   0  0  0  0  0  0  0  0  0
    4.5300    0.7071    0.0000 C   0  0  0  0  0  0  0  0  0
    5.2445    0.2946    0.0000 C   0  0  0  0  0  0  0  0  0
    3.1011    0.7071    0.0000 C   0  0  0  0  0  0  0  0  0
    3.1011    1.5321    0.0000 C   0  0  0  0  0  0  0  0  0
    2.3866    1.9446    0.0000 N   0  0  0  0  0  0  0  0  0
    1.6020    1.6897    0.0000 N   0  0  0  0  0  0  0  0  0
    1.1171    2.3571    0.0000 C   0  0  0  0  0  0  0  0  0
    1.6020    3.0246    0.0000 C   0  0  0  0  0  0  0  0  0
    2.3866    2.7696    0.0000 C   0  0  0  0  0  0  0  0  0
    3.1011    3.1821    0.0000 C   0  0  0  0  0  0  0  0  0
    3.8156    2.7696    0.0000 C   0  0  0  0  0  0  0  0  0
    3.8156    1.9446    0.0000 C   0  0  0  0  0  0  0  0  0
    6.6735   -0.5304    0.0000 C   0  0  0  0  0  0  0  0  0
    7.3879   -0.9429    0.0000 C   0  0  0  0  0  0  0  0  0
  1  2  1  0  0  0  0
  2  3  4  0  0  0  0
  2 23  4  0  0  0  0
  3  4  4  0  0  0  0
  4  5  4  0  0  0  0
  5  6  1  0  0  0  0
  5 22  4  0  0  0  0
  6  7  1  0  0  0  0
  6 11  1  0  0  0  0
  7  8  1  0  0  0  0
  8  9  1  0  0  0  0
  9 10  1  0  0  0  0
  9 12  1  0  0  0  0
 10 11  1  0  0  0  0
 12 13  1  0  0  0  0
 13 14  4  0  0  0  0
 13 21  4  0  0  0  0
 14 15  4  0  0  0  0
 14 18  4  0  0  0  0
 15 16  4  0  0  0  0
 16 17  4  0  0  0  0
 17 18  4  0  0  0  0
 18 19  4  0  0  0  0
 19 20  4  0  0  0  0
 20 21  4  0  0  0  0
 22 23  4  0  0  0  0
M  END
>  <Name_Molregno>
147078

>  <DOPAMINE D2>
4.51

>  <DOPAMINE D3>
5

>  <DOPAMINE D4>
5.89

$$$$
150603
  Marvin  02231216192D 0   1.00000     0.00000     0

 23 24  0  0  1  0  0  0  0  0999 V2000
   -3.5726    2.0075    0.0000 S   0  0  0  0  0  0  0  0  0
   -2.8582    1.5950    0.0000 O   0  0  0  0  0  0  0  0  0
   -2.8582    0.7700    0.0000 C   0  0  0  0  0  0  0  0  0
   -2.1437    0.3575    0.0000 C   0  0  0  0  0  0  0  0  0
   -2.1437   -0.4675    0.0000 C   0  0  0  0  0  0  0  0  0
   -2.8582   -0.8800    0.0000 C   0  0  0  0  0  0  0  0  0
   -3.5726   -0.4675    0.0000 C   0  0  0  0  0  0  0  0  0
   -3.5726    0.3575    0.0000 C   0  0  0  0  0  0  0  0  0
   -1.4292   -0.8800    0.0000 C   0  0  0  0  0  0  0  0  0
   -0.7148   -0.4675    0.0000 C   0  0  0  0  0  0  0  0  0
   -0.0003   -0.8800    0.0000 C   0  0  0  0  0  0  0  0  0
   -0.0003   -1.7050    0.0000 C   0  0  0  0  0  0  0  0  0
   -0.7148   -2.1175    0.0000 N   0  0  0  0  0  0  0  0  0
   -1.4292   -1.7050    0.0000 C   0  0  0  0  0  0  0  0  0
   -0.7148   -2.9425    0.0000 C   0  0  0  0  0  0  0  0  0
   -0.0003   -3.3550    0.0000 C   0  0  0  0  0  0  0  0  0
   -0.0003   -4.1800    0.0000 C   0  0  0  0  0  0  0  0  0
   -3.1601    2.7220    0.0000 O   0  0  0  0  0  0  0  0  0
   -3.9851    1.2931    0.0000 O   0  0  0  0  0  0  0  0  0
   -4.2871    2.4200    0.0000 C   0  0  0  0  0  0  0  0  0
   -5.0016    2.8325    0.0000 F   0  0  0  0  0  0  0  0  0
   -3.8746    3.1345    0.0000 F   0  0  0  0  0  0  0  0  0
   -4.6996    1.7056    0.0000 F   0  0  0  0  0  0  0  0  0
  1  2  1  0  0  0  0
  1 18  2  0  0  0  0
  1 19  2  0  0  0  0
  1 20  1  0  0  0  0
  2  3  1  0  0  0  0
  3  4  4  0  0  0  0
  3  8  4  0  0  0  0
  4  5  4  0  0  0  0
  5  6  4  0  0  0  0
  5  9  1  0  0  0  0
  6  7  4  0  0  0  0
  7  8  4  0  0  0  0
  9 10  1  0  0  0  0
  9 14  1  0  0  0  0
 10 11  1  0  0  0  0
 11 12  1  0  0  0  0
 12 13  1  0  0  0  0
 13 14  1  0  0  0  0
 13 15  1  0  0  0  0
 15 16  1  0  0  0  0
 16 17  1  0  0  0  0
 20 21  1  0  0  0  0
 20 22  1  0  0  0  0
 20 23  1  0  0  0  0
M  END
>  <Name_Molregno>
150603

>  <DOPAMINE D3>
6.48

>  <DOPAMINE D4>
6.03

$$$$
152080
  Marvin  02231216192D 0   1.00000     0.00000     0

 20 22  0  0  1  0  0  0  0  0999 V2000
    4.0231    0.7002    0.0000 O   0  0  0  0  0  0  0  0  0
    3.2162    0.5287    0.0000 C   0  0  0  0  0  0  0  0  0
    2.8037   -0.1858    0.0000 C   0  0  0  0  0  0  0  0  0
    3.2162   -0.9003    0.0000 C   0  0  0  0  0  0  0  0  0
    2.8037   -1.6147    0.0000 C   0  0  0  0  0  0  0  0  0
    1.9787   -1.6147    0.0000 C   0  0  0  0  0  0  0  0  0
    1.5662   -2.3292    0.0000 N   0  0  0  0  0  0  0  0  0
    0.7412   -2.3292    0.0000 C   0  0  0  0  0  0  0  0  0
    0.3287   -3.0437    0.0000 C   0  0  0  0  0  0  0  0  0
   -0.4963   -3.0437    0.0000 C   0  0  0  0  0  0  0  0  0
    1.9787   -3.0437    0.0000 C   0  0  0  0  0  0  0  0  0
    2.8037   -3.0437    0.0000 C   0  0  0  0  0  0  0  0  0
    3.2162   -3.7582    0.0000 C   0  0  0  0  0  0  0  0  0
    1.5662   -0.9003    0.0000 C   0  0  0  0  0  0  0  0  0
    1.9787   -0.1858    0.0000 C   0  0  0  0  0  0  0  0  0
    1.5662    0.5287    0.0000 C   0  0  0  0  0  0  0  0  0
    1.9787    1.2431    0.0000 C   0  0  0  0  0  0  0  0  0
    2.8037    1.2431    0.0000 C   0  0  0  0  0  0  0  0  0
    3.3557    1.8562    0.0000 C   0  0  0  0  0  0  0  0  0
    4.1094    1.5207    0.0000 C   0  0  0  0  0  0  0  0  0
  1  2  4  0  0  0  0
  1 20  4  0  0  0  0
  2  3  4  0  0  0  0
  2 18  4  0  0  0  0
  3  4  1  0  0  0  0
  3 15  4  0  0  0  0
  4  5  1  0  0  0  0
  5  6  1  0  0  0  0
  6  7  1  0  0  0  0
  6 14  1  0  0  0  0
  7  8  1  0  0  0  0
  7 11  1  0  0  0  0
  8  9  1  0  0  0  0
  9 10  1  0  0  0  0
 11 12  1  0  0  0  0
 12 13  1  0  0  0  0
 14 15  1  0  0  0  0
 15 16  4  0  0  0  0
 16 17  4  0  0  0  0
 17 18  4  0  0  0  0
 18 19  4  0  0  0  0
 19 20  4  0  0  0  0
M  END
>  <Name_Molregno>
152080

>  <5-HT1A>
6.68

>  <DOPAMINE D3>
7.25

$$$$
152134
  Marvin  02231216192D 0   1.00000     0.00000     0

 21 23  0  0  1  0  0  0  0  0999 V2000
    3.1457   -1.4715    0.0000 O   0  0  0  0  0  0  0  0  0
    2.5326   -0.9195    0.0000 C   0  0  0  0  0  0  0  0  0
    2.5326   -0.0945    0.0000 C   0  0  0  0  0  0  0  0  0
    1.8182    0.3180    0.0000 C   0  0  0  0  0  0  0  0  0
    1.1037   -0.0945    0.0000 C   0  0  0  0  0  0  0  0  0
    1.1037   -0.9195    0.0000 C   0  0  0  0  0  0  0  0  0
    1.8182   -1.3320    0.0000 C   0  0  0  0  0  0  0  0  0
    1.9897   -2.1389    0.0000 C   0  0  0  0  0  0  0  0  0
    2.8102   -2.2252    0.0000 C   0  0  0  0  0  0  0  0  0
    1.8182    1.1430    0.0000 C   0  0  0  0  0  0  0  0  0
    1.1037    1.5555    0.0000 C   0  0  0  0  0  0  0  0  0
    2.5326    1.5555    0.0000 C   0  0  0  0  0  0  0  0  0
    2.5326    2.3805    0.0000 N   0  0  0  0  0  0  0  0  0
    1.8182    2.7930    0.0000 C   0  0  0  0  0  0  0  0  0
    1.8182    3.6180    0.0000 C   0  0  0  0  0  0  0  0  0
    1.1037    4.0305    0.0000 C   0  0  0  0  0  0  0  0  0
    3.2471    2.7930    0.0000 C   0  0  0  0  0  0  0  0  0
    3.2471    3.6180    0.0000 C   0  0  0  0  0  0  0  0  0
    3.9616    4.0305    0.0000 C   0  0  0  0  0  0  0  0  0
    3.2471    1.1430    0.0000 C   0  0  0  0  0  0  0  0  0
    3.2471    0.3180    0.0000 C   0  0  0  0  0  0  0  0  0
  1  2  4  0  0  0  0
  1  9  4  0  0  0  0
  2  3  4  0  0  0  0
  2  7  4  0  0  0  0
  3  4  4  0  0  0  0
  3 21  1  0  0  0  0
  4  5  4  0  0  0  0
  4 10  1  0  0  0  0
  5  6  4  0  0  0  0
  6  7  4  0  0  0  0
  7  8  4  0  0  0  0
  8  9  4  0  0  0  0
 10 11  1  0  0  0  0
 10 12  1  0  0  0  0
 12 13  1  0  0  0  0
 12 20  1  0  0  0  0
 13 14  1  0  0  0  0
 13 17  1  0  0  0  0
 14 15  1  0  0  0  0
 15 16  1  0  0  0  0
 17 18  1  0  0  0  0
 18 19  1  0  0  0  0
 20 21  1  0  0  0  0
M  END
>  <Name_Molregno>
152134

>  <5-HT1A>
6.92

>  <5-HT2A>
7.15

>  <5-HT2C>
7.15

>  <DOPAMINE D3>
7.57

>  <DOPAMINE D4>
7.26

$$$$
152137
  Marvin  02231216192D 0   1.00000     0.00000     0

 20 22  0  0  1  0  0  0  0  0999 V2000
   -4.4658   -2.3057    0.0000 O   0  0  0  0  0  0  0  0  0
   -3.6812   -2.0508    0.0000 C   0  0  0  0  0  0  0  0  0
   -3.6812   -1.2258    0.0000 C   0  0  0  0  0  0  0  0  0
   -2.9667   -0.8133    0.0000 C   0  0  0  0  0  0  0  0  0
   -2.9667    0.0117    0.0000 C   0  0  0  0  0  0  0  0  0
   -2.2523    0.4242    0.0000 C   0  0  0  0  0  0  0  0  0
   -2.2523    1.2492    0.0000 N   0  0  0  0  0  0  0  0  0
   -2.9667    1.6617    0.0000 C   0  0  0  0  0  0  0  0  0
   -2.9667    2.4867    0.0000 C   0  0  0  0  0  0  0  0  0
   -3.6812    2.8992    0.0000 C   0  0  0  0  0  0  0  0  0
   -1.5378    1.6617    0.0000 C   0  0  0  0  0  0  0  0  0
   -1.5378    2.4867    0.0000 C   0  0  0  0  0  0  0  0  0
   -0.8233    2.8992    0.0000 C   0  0  0  0  0  0  0  0  0
   -1.5378    0.0117    0.0000 C   0  0  0  0  0  0  0  0  0
   -1.5378   -0.8133    0.0000 C   0  0  0  0  0  0  0  0  0
   -2.2523   -1.2258    0.0000 C   0  0  0  0  0  0  0  0  0
   -2.2523   -2.0508    0.0000 C   0  0  0  0  0  0  0  0  0
   -2.9667   -2.4633    0.0000 C   0  0  0  0  0  0  0  0  0
   -4.4658   -0.9708    0.0000 C   0  0  0  0  0  0  0  0  0
   -4.9507   -1.6383    0.0000 C   0  0  0  0  0  0  0  0  0
  1  2  4  0  0  0  0
  1 20  4  0  0  0  0
  2  3  4  0  0  0  0
  2 18  4  0  0  0  0
  3  4  4  0  0  0  0
  3 19  4  0  0  0  0
  4  5  1  0  0  0  0
  4 16  4  0  0  0  0
  5  6  1  0  0  0  0
  6  7  1  0  0  0  0
  6 14  1  0  0  0  0
  7  8  1  0  0  0  0
  7 11  1  0  0  0  0
  8  9  1  0  0  0  0
  9 10  1  0  0  0  0
 11 12  1  0  0  0  0
 12 13  1  0  0  0  0
 14 15  1  0  0  0  0
 15 16  1  0  0  0  0
 16 17  4  0  0  0  0
 17 18  4  0  0  0  0
 19 20  4  0  0  0  0
M  END
>  <Name_Molregno>
152137

>  <5-HT1A>
8.11

>  <DOPAMINE D3>
7.35

$$$$
152260
  Marvin  02231216192D 0   1.00000     0.00000     0

 20 22  0  0  1  0  0  0  0  0999 V2000
    0.2789   -1.1600    0.0000 O   0  0  0  0  0  0  0  0  0
   -0.2732   -0.5469    0.0000 C   0  0  0  0  0  0  0  0  0
   -1.0982   -0.5469    0.0000 C   0  0  0  0  0  0  0  0  0
   -1.5107   -1.2614    0.0000 C   0  0  0  0  0  0  0  0  0
   -2.3357   -1.2614    0.0000 C   0  0  0  0  0  0  0  0  0
   -2.7482   -1.9758    0.0000 N   0  0  0  0  0  0  0  0  0
   -3.5732   -1.9758    0.0000 C   0  0  0  0  0  0  0  0  0
   -3.9857   -2.6903    0.0000 C   0  0  0  0  0  0  0  0  0
   -4.8107   -2.6903    0.0000 C   0  0  0  0  0  0  0  0  0
   -2.3357   -2.6903    0.0000 C   0  0  0  0  0  0  0  0  0
   -1.5107   -2.6903    0.0000 C   0  0  0  0  0  0  0  0  0
   -1.0982   -3.4048    0.0000 C   0  0  0  0  0  0  0  0  0
   -2.7482   -0.5469    0.0000 C   0  0  0  0  0  0  0  0  0
   -2.3357    0.1676    0.0000 C   0  0  0  0  0  0  0  0  0
   -1.5107    0.1676    0.0000 C   0  0  0  0  0  0  0  0  0
   -1.0982    0.8820    0.0000 C   0  0  0  0  0  0  0  0  0
   -0.2732    0.8820    0.0000 C   0  0  0  0  0  0  0  0  0
    0.1393    0.1676    0.0000 C   0  0  0  0  0  0  0  0  0
    0.9463   -0.0040    0.0000 C   0  0  0  0  0  0  0  0  0
    1.0325   -0.8244    0.0000 C   0  0  0  0  0  0  0  0  0
  1  2  4  0  0  0  0
  1 20  4  0  0  0  0
  2  3  4  0  0  0  0
  2 18  4  0  0  0  0
  3  4  1  0  0  0  0
  3 15  4  0  0  0  0
  4  5  1  0  0  0  0
  5  6  1  0  0  0  0
  5 13  1  0  0  0  0
  6  7  1  0  0  0  0
  6 10  1  0  0  0  0
  7  8  1  0  0  0  0
  8  9  1  0  0  0  0
 10 11  1  0  0  0  0
 11 12  1  0  0  0  0
 13 14  1  0  0  0  0
 14 15  1  0  0  0  0
 15 16  4  0  0  0  0
 16 17  4  0  0  0  0
 17 18  4  0  0  0  0
 18 19  4  0  0  0  0
 19 20  4  0  0  0  0
M  END
>  <Name_Molregno>
152260

>  <5-HT1A>
8.21

>  <DOPAMINE D3>
7.79

$$$$
152295
  Marvin  02231216192D 0   1.00000     0.00000     0

 19 22  0  0  1  0  0  0  0  0999 V2000
   -2.7246    2.1114    0.0000 O   0  0  0  0  0  0  0  0  0
   -2.5530    1.3044    0.0000 C   0  0  0  0  0  0  0  0  0
   -1.8386    0.8919    0.0000 C   0  0  0  0  0  0  0  0  0
   -1.1241    1.3044    0.0000 C   0  0  0  0  0  0  0  0  0
   -0.4096    0.8919    0.0000 C   0  0  0  0  0  0  0  0  0
    0.2035    1.4439    0.0000 N   0  0  0  0  0  0  0  0  0
   -0.1321    2.1976    0.0000 C   0  0  0  0  0  0  0  0  0
   -0.9526    2.1114    0.0000 C   0  0  0  0  0  0  0  0  0
    1.0104    1.2724    0.0000 C   0  0  0  0  0  0  0  0  0
    1.5625    1.8855    0.0000 C   0  0  0  0  0  0  0  0  0
    2.3694    1.7140    0.0000 C   0  0  0  0  0  0  0  0  0
   -0.4096    0.0669    0.0000 C   0  0  0  0  0  0  0  0  0
   -1.1241   -0.3456    0.0000 C   0  0  0  0  0  0  0  0  0
   -1.8386    0.0669    0.0000 C   0  0  0  0  0  0  0  0  0
   -2.5530   -0.3456    0.0000 C   0  0  0  0  0  0  0  0  0
   -3.2675    0.0669    0.0000 C   0  0  0  0  0  0  0  0  0
   -3.2675    0.8919    0.0000 C   0  0  0  0  0  0  0  0  0
   -3.8806    1.4439    0.0000 C   0  0  0  0  0  0  0  0  0
   -3.5450    2.1976    0.0000 C   0  0  0  0  0  0  0  0  0
  1  2  4  0  0  0  0
  1 19  4  0  0  0  0
  2  3  4  0  0  0  0
  2 17  4  0  0  0  0
  3  4  1  0  0  0  0
  3 14  4  0  0  0  0
  4  5  1  0  0  0  0
  4  8  1  0  0  0  0
  5  6  1  0  0  0  0
  5 12  1  0  0  0  0
  6  7  1  0  0  0  0
  6  9  1  0  0  0  0
  7  8  1  0  0  0  0
  9 10  1  0  0  0  0
 10 11  1  0  0  0  0
 12 13  1  0  0  0  0
 13 14  1  0  0  0  0
 14 15  4  0  0  0  0
 15 16  4  0  0  0  0
 16 17  4  0  0  0  0
 17 18  4  0  0  0  0
 18 19  4  0  0  0  0
M  END
>  <Name_Molregno>
152295

>  <5-HT1A>
8.41

>  <5-HT2A>
6.84

>  <5-HT2C>
6.84

>  <DOPAMINE D3>
6.49

>  <DOPAMINE D4>
5.39

$$$$
157077
  Marvin  02231216192D 0   1.00000     0.00000     0

 32 36  0  0  0  0  0  0  0  0999 V2000
   -0.2324    0.2724    0.0000 S   0  0  0  0  0  0  0  0  0
    0.1801    0.9869    0.0000 O   0  0  0  0  0  0  0  0  0
   -0.6449   -0.4420    0.0000 O   0  0  0  0  0  0  0  0  0
    0.4820   -0.1401    0.0000 N   0  0  0  0  0  0  0  0  0
    1.1965    0.2724    0.0000 C   0  0  0  0  0  0  0  0  0
    1.9110   -0.1401    0.0000 C   0  0  0  0  0  0  0  0  0
    2.6254    0.2724    0.0000 C   0  0  0  0  0  0  0  0  0
    2.6254    1.0974    0.0000 C   0  0  0  0  0  0  0  0  0
    3.3399    1.5099    0.0000 N   0  0  0  0  0  0  0  0  0
    4.0544    1.0974    0.0000 C   0  0  0  0  0  0  0  0  0
    4.0544    0.2724    0.0000 C   0  0  0  0  0  0  0  0  0
    3.3399   -0.1401    0.0000 C   0  0  0  0  0  0  0  0  0
    3.3399   -0.9651    0.0000 N   0  0  0  0  0  0  0  0  0
    4.0544   -1.3776    0.0000 C   0  0  0  0  0  0  0  0  0
    4.0544   -2.2026    0.0000 C   0  0  0  0  0  0  0  0  0
    3.3399   -2.6151    0.0000 N   0  0  0  0  0  0  0  0  0
    2.6254   -2.2026    0.0000 C   0  0  0  0  0  0  0  0  0
    2.6254   -1.3776    0.0000 C   0  0  0  0  0  0  0  0  0
    1.9110    1.5099    0.0000 C   0  0  0  0  0  0  0  0  0
    1.1965    1.0974    0.0000 C   0  0  0  0  0  0  0  0  0
   -0.9469    0.6849    0.0000 C   0  0  0  0  0  0  0  0  0
   -1.6614    0.2724    0.0000 C   0  0  0  0  0  0  0  0  0
   -2.3759    0.6849    0.0000 C   0  0  0  0  0  0  0  0  0
   -2.3759    1.5099    0.0000 C   0  0  0  0  0  0  0  0  0
   -1.6614    1.9224    0.0000 C   0  0  0  0  0  0  0  0  0
   -0.9469    1.5099    0.0000 C   0  0  0  0  0  0  0  0  0
   -3.0903    1.9224    0.0000 C   0  0  0  0  0  0  0  0  0
   -3.8048    1.5099    0.0000 C   0  0  0  0  0  0  0  0  0
   -4.5193    1.9224    0.0000 C   0  0  0  0  0  0  0  0  0
   -4.5193    2.7474    0.0000 C   0  0  0  0  0  0  0  0  0
   -3.8048    3.1599    0.0000 C   0  0  0  0  0  0  0  0  0
   -3.0903    2.7474    0.0000 C   0  0  0  0  0  0  0  0  0
  1  2  2  0  0  0  0
  1  3  2  0  0  0  0
  1  4  1  0  0  0  0
  1 21  1  0  0  0  0
  4  5  1  0  0  0  0
  5  6  4  0  0  0  0
  5 20  4  0  0  0  0
  6  7  4  0  0  0  0
  7  8  4  0  0  0  0
  7 12  4  0  0  0  0
  8  9  4  0  0  0  0
  8 19  4  0  0  0  0
  9 10  4  0  0  0  0
 10 11  4  0  0  0  0
 11 12  4  0  0  0  0
 12 13  1  0  0  0  0
 13 14  1  0  0  0  0
 13 18  1  0  0  0  0
 14 15  1  0  0  0  0
 15 16  1  0  0  0  0
 16 17  1  0  0  0  0
 17 18  1  0  0  0  0
 19 20  4  0  0  0  0
 21 22  4  0  0  0  0
 21 26  4  0  0  0  0
 22 23  4  0  0  0  0
 23 24  4  0  0  0  0
 24 25  4  0  0  0  0
 24 27  1  0  0  0  0
 25 26  4  0  0  0  0
 27 28  4  0  0  0  0
 27 32  4  0  0  0  0
 28 29  4  0  0  0  0
 29 30  4  0  0  0  0
 30 31  4  0  0  0  0
 31 32  4  0  0  0  0
M  STY  1   1 DAT
M  SAL   1  1   9
M  SDT   1 MRV_IMPLICIT_H                                        
M  SDD   1     0.0000    0.0000    DR    ALL  0       0  
M  SED   1 IMPL_H1
M  END
>  <Name_Molregno>
157077

>  <5-HT1A>
6.2

>  <5-HT1B>
6.5

>  <5-HT1D>
6.8

>  <5-HT2A>
6.3

>  <5-HT6>
9.3

>  <5-HT7>
5

>  <DOPAMINE D2>
5.3

>  <DOPAMINE D3>
5.5

$$$$
157459
  Marvin  02231216192D 0   1.00000     0.00000     0

 32 36  0  0  0  0  0  0  0  0999 V2000
    0.5977    1.2497    0.0000 Cl  0  0  0  0  0  0  0  0  0
    1.0102    0.5352    0.0000 C   0  0  0  0  0  0  0  0  0
    1.8352    0.5352    0.0000 C   0  0  0  0  0  0  0  0  0
    2.2477   -0.1792    0.0000 C   0  0  0  0  0  0  0  0  0
    1.8352   -0.8937    0.0000 C   0  0  0  0  0  0  0  0  0
    2.3873   -1.5068    0.0000 S   0  0  0  0  0  0  0  0  0
    3.1409   -1.1712    0.0000 C   0  0  0  0  0  0  0  0  0
    3.8554   -1.5837    0.0000 S   0  0  0  0  0  0  0  0  0
    3.4429   -2.2982    0.0000 O   0  0  0  0  0  0  0  0  0
    4.2679   -0.8693    0.0000 O   0  0  0  0  0  0  0  0  0
    4.5699   -1.9962    0.0000 N   0  0  0  0  0  0  0  0  0
    5.2843   -1.5837    0.0000 C   0  0  0  0  0  0  0  0  0
    5.9988   -1.9962    0.0000 C   0  0  0  0  0  0  0  0  0
    6.7133   -1.5837    0.0000 C   0  0  0  0  0  0  0  0  0
    6.7133   -0.7587    0.0000 C   0  0  0  0  0  0  0  0  0
    7.4278   -0.3462    0.0000 N   0  0  0  0  0  0  0  0  0
    8.1422   -0.7587    0.0000 C   0  0  0  0  0  0  0  0  0
    8.1422   -1.5837    0.0000 C   0  0  0  0  0  0  0  0  0
    7.4278   -1.9962    0.0000 C   0  0  0  0  0  0  0  0  0
    7.4278   -2.8212    0.0000 N   0  0  0  0  0  0  0  0  0
    8.1422   -3.2337    0.0000 C   0  0  0  0  0  0  0  0  0
    8.1422   -4.0587    0.0000 C   0  0  0  0  0  0  0  0  0
    7.4278   -4.4712    0.0000 N   0  0  0  0  0  0  0  0  0
    6.7133   -4.0587    0.0000 C   0  0  0  0  0  0  0  0  0
    6.7133   -3.2337    0.0000 C   0  0  0  0  0  0  0  0  0
    8.8567   -0.3462    0.0000 C   0  0  0  0  0  0  0  0  0
    5.9988   -0.3462    0.0000 C   0  0  0  0  0  0  0  0  0
    5.2843   -0.7587    0.0000 C   0  0  0  0  0  0  0  0  0
    3.0547   -0.3508    0.0000 C   0  0  0  0  0  0  0  0  0
    3.6678    0.2013    0.0000 C   0  0  0  0  0  0  0  0  0
    1.0102   -0.8937    0.0000 C   0  0  0  0  0  0  0  0  0
    0.5977   -0.1792    0.0000 C   0  0  0  0  0  0  0  0  0
  1  2  1  0  0  0  0
  2  3  4  0  0  0  0
  2 32  4  0  0  0  0
  3  4  4  0  0  0  0
  4  5  4  0  0  0  0
  4 29  4  0  0  0  0
  5  6  4  0  0  0  0
  5 31  4  0  0  0  0
  6  7  4  0  0  0  0
  7  8  1  0  0  0  0
  7 29  4  0  0  0  0
  8  9  2  0  0  0  0
  8 10  2  0  0  0  0
  8 11  1  0  0  0  0
 11 12  1  0  0  0  0
 12 13  4  0  0  0  0
 12 28  4  0  0  0  0
 13 14  4  0  0  0  0
 14 15  4  0  0  0  0
 14 19  4  0  0  0  0
 15 16  4  0  0  0  0
 15 27  4  0  0  0  0
 16 17  4  0  0  0  0
 17 18  4  0  0  0  0
 17 26  1  0  0  0  0
 18 19  4  0  0  0  0
 19 20  1  0  0  0  0
 20 21  1  0  0  0  0
 20 25  1  0  0  0  0
 21 22  1  0  0  0  0
 22 23  1  0  0  0  0
 23 24  1  0  0  0  0
 24 25  1  0  0  0  0
 27 28  4  0  0  0  0
 29 30  1  0  0  0  0
 31 32  4  0  0  0  0
M  STY  1   1 DAT
M  SAL   1  1  16
M  SDT   1 MRV_IMPLICIT_H                                        
M  SDD   1     0.0000    0.0000    DR    ALL  0       0  
M  SED   1 IMPL_H1
M  END
>  <Name_Molregno>
157459

>  <5-HT1A>
6.1

>  <5-HT1B>
5.9

>  <5-HT1D>
6.5

>  <5-HT2A>
5.7

>  <5-HT2C>
5.6

>  <5-HT6>
8.9

>  <5-HT7>
5.3

>  <DOPAMINE D2>
5.2

>  <DOPAMINE D3>
6

$$$$
157806
  Marvin  02231216192D 0   1.00000     0.00000     0

 32 36  0  0  0  0  0  0  0  0999 V2000
    0.6766    1.5468    0.0000 Cl  0  0  0  0  0  0  0  0  0
    1.0891    0.8324    0.0000 C   0  0  0  0  0  0  0  0  0
    1.9141    0.8324    0.0000 C   0  0  0  0  0  0  0  0  0
    2.3266    0.1179    0.0000 C   0  0  0  0  0  0  0  0  0
    1.9141   -0.5966    0.0000 C   0  0  0  0  0  0  0  0  0
    2.4662   -1.2097    0.0000 S   0  0  0  0  0  0  0  0  0
    3.2198   -0.8741    0.0000 C   0  0  0  0  0  0  0  0  0
    3.9343   -1.2866    0.0000 S   0  0  0  0  0  0  0  0  0
    3.5218   -2.0011    0.0000 O   0  0  0  0  0  0  0  0  0
    4.3468   -0.5721    0.0000 O   0  0  0  0  0  0  0  0  0
    4.6488   -1.6991    0.0000 N   0  0  0  0  0  0  0  0  0
    5.3633   -1.2866    0.0000 C   0  0  0  0  0  0  0  0  0
    6.0777   -1.6991    0.0000 C   0  0  0  0  0  0  0  0  0
    6.7922   -1.2866    0.0000 C   0  0  0  0  0  0  0  0  0
    6.7922   -0.4616    0.0000 C   0  0  0  0  0  0  0  0  0
    7.5067   -0.0491    0.0000 N   0  0  0  0  0  0  0  0  0
    8.2211   -0.4616    0.0000 C   0  0  0  0  0  0  0  0  0
    8.2211   -1.2866    0.0000 C   0  0  0  0  0  0  0  0  0
    7.5067   -1.6991    0.0000 C   0  0  0  0  0  0  0  0  0
    7.5067   -2.5241    0.0000 N   0  0  0  0  0  0  0  0  0
    8.2211   -2.9366    0.0000 C   0  0  0  0  0  0  0  0  0
    8.2211   -3.7616    0.0000 C   0  0  0  0  0  0  0  0  0
    7.5067   -4.1741    0.0000 N   0  0  0  0  0  0  0  0  0
    6.7922   -3.7616    0.0000 C   0  0  0  0  0  0  0  0  0
    6.7922   -2.9366    0.0000 C   0  0  0  0  0  0  0  0  0
    7.5067   -4.9991    0.0000 C   0  0  0  0  0  0  0  0  0
    6.0777   -0.0491    0.0000 C   0  0  0  0  0  0  0  0  0
    5.3633   -0.4616    0.0000 C   0  0  0  0  0  0  0  0  0
    3.1336   -0.0536    0.0000 C   0  0  0  0  0  0  0  0  0
    3.7467    0.4984    0.0000 C   0  0  0  0  0  0  0  0  0
    1.0891   -0.5966    0.0000 C   0  0  0  0  0  0  0  0  0
    0.6766    0.1179    0.0000 C   0  0  0  0  0  0  0  0  0
  1  2  1  0  0  0  0
  2  3  4  0  0  0  0
  2 32  4  0  0  0  0
  3  4  4  0  0  0  0
  4  5  4  0  0  0  0
  4 29  4  0  0  0  0
  5  6  4  0  0  0  0
  5 31  4  0  0  0  0
  6  7  4  0  0  0  0
  7  8  1  0  0  0  0
  7 29  4  0  0  0  0
  8  9  2  0  0  0  0
  8 10  2  0  0  0  0
  8 11  1  0  0  0  0
 11 12  1  0  0  0  0
 12 13  4  0  0  0  0
 12 28  4  0  0  0  0
 13 14  4  0  0  0  0
 14 15  4  0  0  0  0
 14 19  4  0  0  0  0
 15 16  4  0  0  0  0
 15 27  4  0  0  0  0
 16 17  4  0  0  0  0
 17 18  4  0  0  0  0
 18 19  4  0  0  0  0
 19 20  1  0  0  0  0
 20 21  1  0  0  0  0
 20 25  1  0  0  0  0
 21 22  1  0  0  0  0
 22 23  1  0  0  0  0
 23 24  1  0  0  0  0
 23 26  1  0  0  0  0
 24 25  1  0  0  0  0
 27 28  4  0  0  0  0
 29 30  1  0  0  0  0
 31 32  4  0  0  0  0
M  STY  1   1 DAT
M  SAL   1  1  16
M  SDT   1 MRV_IMPLICIT_H                                        
M  SDD   1     0.0000    0.0000    DR    ALL  0       0  
M  SED   1 IMPL_H1
M  END
>  <Name_Molregno>
157806

>  <5-HT1A>
6.1

>  <5-HT1B>
6.3

>  <5-HT1D>
6.6

>  <5-HT2A>
6

>  <5-HT2C>
5.3

>  <5-HT6>
9

>  <5-HT7>
5.7

>  <DOPAMINE D2>
5.1

>  <DOPAMINE D3>
5.4

$$$$
157834
  Marvin  02231216192D 0   1.00000     0.00000     0

 31 35  0  0  0  0  0  0  0  0999 V2000
   -0.2147    0.7807    0.0000 Cl  0  0  0  0  0  0  0  0  0
    0.4998    1.1932    0.0000 C   0  0  0  0  0  0  0  0  0
    1.2143    0.7807    0.0000 C   0  0  0  0  0  0  0  0  0
    1.9287    1.1932    0.0000 C   0  0  0  0  0  0  0  0  0
    2.6432    0.7807    0.0000 C   0  0  0  0  0  0  0  0  0
    2.6432   -0.0443    0.0000 C   0  0  0  0  0  0  0  0  0
    3.3577   -0.4568    0.0000 S   0  0  0  0  0  0  0  0  0
    2.9452   -1.1712    0.0000 O   0  0  0  0  0  0  0  0  0
    3.7702    0.2577    0.0000 O   0  0  0  0  0  0  0  0  0
    4.0721   -0.8693    0.0000 N   0  0  0  0  0  0  0  0  0
    4.7866   -0.4568    0.0000 C   0  0  0  0  0  0  0  0  0
    5.5011   -0.8693    0.0000 C   0  0  0  0  0  0  0  0  0
    6.2156   -0.4568    0.0000 C   0  0  0  0  0  0  0  0  0
    6.2156    0.3682    0.0000 C   0  0  0  0  0  0  0  0  0
    6.9300    0.7807    0.0000 N   0  0  0  0  0  0  0  0  0
    7.6445    0.3682    0.0000 C   0  0  0  0  0  0  0  0  0
    7.6445   -0.4568    0.0000 C   0  0  0  0  0  0  0  0  0
    6.9300   -0.8693    0.0000 C   0  0  0  0  0  0  0  0  0
    6.9300   -1.6943    0.0000 N   0  0  0  0  0  0  0  0  0
    7.6445   -2.1068    0.0000 C   0  0  0  0  0  0  0  0  0
    7.6445   -2.9318    0.0000 C   0  0  0  0  0  0  0  0  0
    6.9300   -3.3443    0.0000 N   0  0  0  0  0  0  0  0  0
    6.2156   -2.9318    0.0000 C   0  0  0  0  0  0  0  0  0
    6.2156   -2.1068    0.0000 C   0  0  0  0  0  0  0  0  0
    5.5011    0.7807    0.0000 C   0  0  0  0  0  0  0  0  0
    4.7866    0.3682    0.0000 C   0  0  0  0  0  0  0  0  0
    1.9287   -0.4568    0.0000 C   0  0  0  0  0  0  0  0  0
    1.2143   -0.0443    0.0000 C   0  0  0  0  0  0  0  0  0
    1.9287    2.0182    0.0000 C   0  0  0  0  0  0  0  0  0
    1.2143    2.4307    0.0000 C   0  0  0  0  0  0  0  0  0
    0.4998    2.0182    0.0000 C   0  0  0  0  0  0  0  0  0
  1  2  1  0  0  0  0
  2  3  4  0  0  0  0
  2 31  4  0  0  0  0
  3  4  4  0  0  0  0
  3 28  4  0  0  0  0
  4  5  4  0  0  0  0
  4 29  4  0  0  0  0
  5  6  4  0  0  0  0
  6  7  1  0  0  0  0
  6 27  4  0  0  0  0
  7  8  2  0  0  0  0
  7  9  2  0  0  0  0
  7 10  1  0  0  0  0
 10 11  1  0  0  0  0
 11 12  4  0  0  0  0
 11 26  4  0  0  0  0
 12 13  4  0  0  0  0
 13 14  4  0  0  0  0
 13 18  4  0  0  0  0
 14 15  4  0  0  0  0
 14 25  4  0  0  0  0
 15 16  4  0  0  0  0
 16 17  4  0  0  0  0
 17 18  4  0  0  0  0
 18 19  1  0  0  0  0
 19 20  1  0  0  0  0
 19 24  1  0  0  0  0
 20 21  1  0  0  0  0
 21 22  1  0  0  0  0
 22 23  1  0  0  0  0
 23 24  1  0  0  0  0
 25 26  4  0  0  0  0
 27 28  4  0  0  0  0
 29 30  4  0  0  0  0
 30 31  4  0  0  0  0
M  STY  1   1 DAT
M  SAL   1  1  15
M  SDT   1 MRV_IMPLICIT_H                                        
M  SDD   1     0.0000    0.0000    DR    ALL  0       0  
M  SED   1 IMPL_H1
M  END
>  <Name_Molregno>
157834

>  <5-HT1A>
6.8

>  <5-HT1B>
6.2

>  <5-HT1D>
6.7

>  <5-HT2A>
6

>  <5-HT2C>
5.6

>  <5-HT6>
9

>  <5-HT7>
5.6

>  <DOPAMINE D2>
5.3

>  <DOPAMINE D3>
5.6

$$$$
157908
  Marvin  02231216192D 0   1.00000     0.00000     0

 30 33  0  0  0  0  0  0  0  0999 V2000
   -1.7605   -0.6940    0.0000 S   0  0  0  0  0  0  0  0  0
   -1.3480    0.0205    0.0000 O   0  0  0  0  0  0  0  0  0
   -2.1730   -1.4085    0.0000 O   0  0  0  0  0  0  0  0  0
   -1.0461   -1.1065    0.0000 N   0  0  0  0  0  0  0  0  0
   -0.3316   -0.6940    0.0000 C   0  0  0  0  0  0  0  0  0
    0.3829   -1.1065    0.0000 C   0  0  0  0  0  0  0  0  0
    1.0973   -0.6940    0.0000 C   0  0  0  0  0  0  0  0  0
    1.0973    0.1310    0.0000 C   0  0  0  0  0  0  0  0  0
    1.8118    0.5435    0.0000 N   0  0  0  0  0  0  0  0  0
    2.5263    0.1310    0.0000 C   0  0  0  0  0  0  0  0  0
    2.5263   -0.6940    0.0000 C   0  0  0  0  0  0  0  0  0
    1.8118   -1.1065    0.0000 C   0  0  0  0  0  0  0  0  0
    1.8118   -1.9315    0.0000 N   0  0  0  0  0  0  0  0  0
    2.5263   -2.3440    0.0000 C   0  0  0  0  0  0  0  0  0
    2.5263   -3.1690    0.0000 C   0  0  0  0  0  0  0  0  0
    1.8118   -3.5815    0.0000 N   0  0  0  0  0  0  0  0  0
    1.0973   -3.1690    0.0000 C   0  0  0  0  0  0  0  0  0
    1.0973   -2.3440    0.0000 C   0  0  0  0  0  0  0  0  0
    0.3829    0.5435    0.0000 C   0  0  0  0  0  0  0  0  0
   -0.3316    0.1310    0.0000 C   0  0  0  0  0  0  0  0  0
   -2.4750   -0.2815    0.0000 C   0  0  0  0  0  0  0  0  0
   -3.1895   -0.6940    0.0000 C   0  0  0  0  0  0  0  0  0
   -3.9040   -0.2815    0.0000 C   0  0  0  0  0  0  0  0  0
   -3.9040    0.5435    0.0000 C   0  0  0  0  0  0  0  0  0
   -3.1895    0.9560    0.0000 C   0  0  0  0  0  0  0  0  0
   -2.4750    0.5435    0.0000 C   0  0  0  0  0  0  0  0  0
   -4.6184    0.9560    0.0000 C   0  0  0  0  0  0  0  0  0
   -5.3329    1.3685    0.0000 C   0  0  0  0  0  0  0  0  0
   -4.2059    1.6705    0.0000 C   0  0  0  0  0  0  0  0  0
   -5.0309    0.2415    0.0000 C   0  0  0  0  0  0  0  0  0
  1  2  2  0  0  0  0
  1  3  2  0  0  0  0
  1  4  1  0  0  0  0
  1 21  1  0  0  0  0
  4  5  1  0  0  0  0
  5  6  4  0  0  0  0
  5 20  4  0  0  0  0
  6  7  4  0  0  0  0
  7  8  4  0  0  0  0
  7 12  4  0  0  0  0
  8  9  4  0  0  0  0
  8 19  4  0  0  0  0
  9 10  4  0  0  0  0
 10 11  4  0  0  0  0
 11 12  4  0  0  0  0
 12 13  1  0  0  0  0
 13 14  1  0  0  0  0
 13 18  1  0  0  0  0
 14 15  1  0  0  0  0
 15 16  1  0  0  0  0
 16 17  1  0  0  0  0
 17 18  1  0  0  0  0
 19 20  4  0  0  0  0
 21 22  4  0  0  0  0
 21 26  4  0  0  0  0
 22 23  4  0  0  0  0
 23 24  4  0  0  0  0
 24 25  4  0  0  0  0
 24 27  1  0  0  0  0
 25 26  4  0  0  0  0
 27 28  1  0  0  0  0
 27 29  1  0  0  0  0
 27 30  1  0  0  0  0
M  STY  1   1 DAT
M  SAL   1  1   9
M  SDT   1 MRV_IMPLICIT_H                                        
M  SDD   1     0.0000    0.0000    DR    ALL  0       0  
M  SED   1 IMPL_H1
M  END
>  <Name_Molregno>
157908

>  <5-HT1A>
6.1

>  <5-HT1B>
5.8

>  <5-HT1D>
5.9

>  <5-HT2A>
5.5

>  <5-HT2C>
5.7

>  <5-HT6>
9.2

>  <5-HT7>
5

>  <DOPAMINE D2>
5

>  <DOPAMINE D3>
5.3

$$$$
157986
  Marvin  02231216192D 0   1.00000     0.00000     0

 32 36  0  0  1  0  0  0  0  0999 V2000
    0.6566    1.4750    0.0000 Cl  0  0  0  0  0  0  0  0  0
    1.0691    0.7605    0.0000 C   0  0  0  0  0  0  0  0  0
    1.8941    0.7605    0.0000 C   0  0  0  0  0  0  0  0  0
    2.3066    0.0461    0.0000 C   0  0  0  0  0  0  0  0  0
    1.8941   -0.6684    0.0000 C   0  0  0  0  0  0  0  0  0
    2.4461   -1.2815    0.0000 S   0  0  0  0  0  0  0  0  0
    3.1998   -0.9460    0.0000 C   0  0  0  0  0  0  0  0  0
    3.9142   -1.3585    0.0000 S   0  0  0  0  0  0  0  0  0
    3.5017   -2.0729    0.0000 O   0  0  0  0  0  0  0  0  0
    4.3267   -0.6440    0.0000 O   0  0  0  0  0  0  0  0  0
    4.6287   -1.7710    0.0000 N   0  0  0  0  0  0  0  0  0
    5.3432   -1.3585    0.0000 C   0  0  0  0  0  0  0  0  0
    6.0576   -1.7710    0.0000 C   0  0  0  0  0  0  0  0  0
    6.7721   -1.3585    0.0000 C   0  0  0  0  0  0  0  0  0
    6.7721   -0.5335    0.0000 C   0  0  0  0  0  0  0  0  0
    7.4866   -0.1210    0.0000 N   0  0  0  0  0  0  0  0  0
    8.2011   -0.5335    0.0000 C   0  0  0  0  0  0  0  0  0
    8.2011   -1.3585    0.0000 C   0  0  0  0  0  0  0  0  0
    7.4866   -1.7710    0.0000 C   0  0  0  0  0  0  0  0  0
    7.4866   -2.5960    0.0000 N   0  0  0  0  0  0  0  0  0
    8.2011   -3.0085    0.0000 C   0  0  0  0  0  0  0  0  0
    8.2011   -3.8335    0.0000 C   0  0  0  0  0  0  0  0  0
    7.4866   -4.2460    0.0000 N   0  0  0  0  0  0  0  0  0
    6.7721   -3.8335    0.0000 C   0  0  0  0  0  0  0  0  0
    6.7721   -3.0085    0.0000 C   0  0  0  0  0  0  0  0  0
    8.9155   -4.2460    0.0000 C   0  0  0  0  0  0  0  0  0
    6.0576   -0.1210    0.0000 C   0  0  0  0  0  0  0  0  0
    5.3432   -0.5335    0.0000 C   0  0  0  0  0  0  0  0  0
    3.1135   -0.1255    0.0000 C   0  0  0  0  0  0  0  0  0
    3.7266    0.4266    0.0000 C   0  0  0  0  0  0  0  0  0
    1.0691   -0.6684    0.0000 C   0  0  0  0  0  0  0  0  0
    0.6566    0.0461    0.0000 C   0  0  0  0  0  0  0  0  0
  1  2  1  0  0  0  0
  2  3  4  0  0  0  0
  2 32  4  0  0  0  0
  3  4  4  0  0  0  0
  4  5  4  0  0  0  0
  4 29  4  0  0  0  0
  5  6  4  0  0  0  0
  5 31  4  0  0  0  0
  6  7  4  0  0  0  0
  7  8  1  0  0  0  0
  7 29  4  0  0  0  0
  8  9  2  0  0  0  0
  8 10  2  0  0  0  0
  8 11  1  0  0  0  0
 11 12  1  0  0  0  0
 12 13  4  0  0  0  0
 12 28  4  0  0  0  0
 13 14  4  0  0  0  0
 14 15  4  0  0  0  0
 14 19  4  0  0  0  0
 15 16  4  0  0  0  0
 15 27  4  0  0  0  0
 16 17  4  0  0  0  0
 17 18  4  0  0  0  0
 18 19  4  0  0  0  0
 19 20  1  0  0  0  0
 20 21  1  0  0  0  0
 20 25  1  0  0  0  0
 21 22  1  0  0  0  0
 22 23  1  0  0  0  0
 22 26  1  0  0  0  0
 23 24  1  0  0  0  0
 24 25  1  0  0  0  0
 27 28  4  0  0  0  0
 29 30  1  0  0  0  0
 31 32  4  0  0  0  0
M  STY  1   1 DAT
M  SAL   1  1  16
M  SDT   1 MRV_IMPLICIT_H                                        
M  SDD   1     0.0000    0.0000    DR    ALL  0       0  
M  SED   1 IMPL_H1
M  END
>  <Name_Molregno>
157986

>  <5-HT1A>
6

>  <5-HT1B>
5.6

>  <5-HT1D>
6.4

>  <5-HT2A>
5.6

>  <5-HT2C>
5.4

>  <5-HT6>
8.9

>  <5-HT7>
5.3

>  <DOPAMINE D2>
5.5

>  <DOPAMINE D3>
5.7

$$$$
158033
  Marvin  02231216192D 0   1.00000     0.00000     0

 31 35  0  0  0  0  0  0  0  0999 V2000
   -3.7032   -0.0442    0.0000 Cl  0  0  0  0  0  0  0  0  0
   -4.2552   -0.6573    0.0000 C   0  0  0  0  0  0  0  0  0
   -4.0003   -1.4419    0.0000 C   0  0  0  0  0  0  0  0  0
   -4.5523   -2.0550    0.0000 C   0  0  0  0  0  0  0  0  0
   -5.3593   -1.8835    0.0000 C   0  0  0  0  0  0  0  0  0
   -5.7718   -2.5979    0.0000 S   0  0  0  0  0  0  0  0  0
   -5.2198   -3.2110    0.0000 C   0  0  0  0  0  0  0  0  0
   -5.3913   -4.0180    0.0000 C   0  0  0  0  0  0  0  0  0
   -4.4661   -2.8755    0.0000 C   0  0  0  0  0  0  0  0  0
   -3.7516   -3.2880    0.0000 S   0  0  0  0  0  0  0  0  0
   -4.1641   -4.0024    0.0000 O   0  0  0  0  0  0  0  0  0
   -3.3391   -2.5735    0.0000 O   0  0  0  0  0  0  0  0  0
   -3.0372   -3.7005    0.0000 N   0  0  0  0  0  0  0  0  0
   -2.3227   -3.2880    0.0000 C   0  0  0  0  0  0  0  0  0
   -1.6082   -3.7005    0.0000 C   0  0  0  0  0  0  0  0  0
   -0.8937   -3.2880    0.0000 C   0  0  0  0  0  0  0  0  0
   -0.8937   -2.4630    0.0000 C   0  0  0  0  0  0  0  0  0
   -0.1793   -2.0505    0.0000 N   0  0  0  0  0  0  0  0  0
    0.5352   -2.4630    0.0000 C   0  0  0  0  0  0  0  0  0
    0.5352   -3.2880    0.0000 C   0  0  0  0  0  0  0  0  0
   -0.1793   -3.7005    0.0000 C   0  0  0  0  0  0  0  0  0
   -0.1793   -4.5255    0.0000 N   0  0  0  0  0  0  0  0  0
    0.5352   -4.9380    0.0000 C   0  0  0  0  0  0  0  0  0
    0.5352   -5.7630    0.0000 C   0  0  0  0  0  0  0  0  0
   -0.1793   -6.1755    0.0000 N   0  0  0  0  0  0  0  0  0
   -0.8937   -5.7630    0.0000 C   0  0  0  0  0  0  0  0  0
   -0.8937   -4.9380    0.0000 C   0  0  0  0  0  0  0  0  0
   -1.6082   -2.0505    0.0000 C   0  0  0  0  0  0  0  0  0
   -2.3227   -2.4630    0.0000 C   0  0  0  0  0  0  0  0  0
   -5.6142   -1.0988    0.0000 C   0  0  0  0  0  0  0  0  0
   -5.0622   -0.4858    0.0000 C   0  0  0  0  0  0  0  0  0
  1  2  1  0  0  0  0
  2  3  4  0  0  0  0
  2 31  4  0  0  0  0
  3  4  4  0  0  0  0
  4  5  4  0  0  0  0
  4  9  4  0  0  0  0
  5  6  4  0  0  0  0
  5 30  4  0  0  0  0
  6  7  4  0  0  0  0
  7  8  1  0  0  0  0
  7  9  4  0  0  0  0
  9 10  1  0  0  0  0
 10 11  2  0  0  0  0
 10 12  2  0  0  0  0
 10 13  1  0  0  0  0
 13 14  1  0  0  0  0
 14 15  4  0  0  0  0
 14 29  4  0  0  0  0
 15 16  4  0  0  0  0
 16 17  4  0  0  0  0
 16 21  4  0  0  0  0
 17 18  4  0  0  0  0
 17 28  4  0  0  0  0
 18 19  4  0  0  0  0
 19 20  4  0  0  0  0
 20 21  4  0  0  0  0
 21 22  1  0  0  0  0
 22 23  1  0  0  0  0
 22 27  1  0  0  0  0
 23 24  1  0  0  0  0
 24 25  1  0  0  0  0
 25 26  1  0  0  0  0
 26 27  1  0  0  0  0
 28 29  4  0  0  0  0
 30 31  4  0  0  0  0
M  STY  1   1 DAT
M  SAL   1  1  18
M  SDT   1 MRV_IMPLICIT_H                                        
M  SDD   1     0.0000    0.0000    DR    ALL  0       0  
M  SED   1 IMPL_H1
M  END
>  <Name_Molregno>
158033

>  <5-HT1A>
6.6

>  <5-HT1B>
6.3

>  <5-HT1D>
6.4

>  <5-HT2A>
5.7

>  <5-HT2C>
5.9

>  <5-HT6>
9

>  <5-HT7>
5.8

>  <DOPAMINE D2>
5.4

>  <DOPAMINE D3>
5.8

$$$$
158053
  Marvin  02231216192D 0   1.00000     0.00000     0

 31 35  0  0  0  0  0  0  0  0999 V2000
    0.7824    2.2935    0.0000 Cl  0  0  0  0  0  0  0  0  0
    1.1949    1.5790    0.0000 C   0  0  0  0  0  0  0  0  0
    2.0199    1.5790    0.0000 C   0  0  0  0  0  0  0  0  0
    2.4324    0.8645    0.0000 C   0  0  0  0  0  0  0  0  0
    2.0199    0.1501    0.0000 C   0  0  0  0  0  0  0  0  0
    2.5720   -0.4630    0.0000 S   0  0  0  0  0  0  0  0  0
    3.3256   -0.1275    0.0000 C   0  0  0  0  0  0  0  0  0
    4.0401   -0.5400    0.0000 S   0  0  0  0  0  0  0  0  0
    3.6276   -1.2545    0.0000 O   0  0  0  0  0  0  0  0  0
    4.4526    0.1745    0.0000 O   0  0  0  0  0  0  0  0  0
    4.7546   -0.9525    0.0000 N   0  0  0  0  0  0  0  0  0
    5.4691   -0.5400    0.0000 C   0  0  0  0  0  0  0  0  0
    6.1835   -0.9525    0.0000 C   0  0  0  0  0  0  0  0  0
    6.8980   -0.5400    0.0000 C   0  0  0  0  0  0  0  0  0
    6.8980    0.2850    0.0000 C   0  0  0  0  0  0  0  0  0
    7.6125    0.6975    0.0000 N   0  0  0  0  0  0  0  0  0
    8.3269    0.2850    0.0000 C   0  0  0  0  0  0  0  0  0
    8.3269   -0.5400    0.0000 C   0  0  0  0  0  0  0  0  0
    7.6125   -0.9525    0.0000 C   0  0  0  0  0  0  0  0  0
    7.6125   -1.7775    0.0000 N   0  0  0  0  0  0  0  0  0
    8.3269   -2.1900    0.0000 C   0  0  0  0  0  0  0  0  0
    8.3269   -3.0150    0.0000 C   0  0  0  0  0  0  0  0  0
    7.6125   -3.4275    0.0000 N   0  0  0  0  0  0  0  0  0
    6.8980   -3.0150    0.0000 C   0  0  0  0  0  0  0  0  0
    6.8980   -2.1900    0.0000 C   0  0  0  0  0  0  0  0  0
    6.1835    0.6975    0.0000 C   0  0  0  0  0  0  0  0  0
    5.4691    0.2850    0.0000 C   0  0  0  0  0  0  0  0  0
    3.2394    0.6930    0.0000 C   0  0  0  0  0  0  0  0  0
    3.8525    1.2450    0.0000 C   0  0  0  0  0  0  0  0  0
    1.1949    0.1501    0.0000 C   0  0  0  0  0  0  0  0  0
    0.7824    0.8645    0.0000 C   0  0  0  0  0  0  0  0  0
  1  2  1  0  0  0  0
  2  3  4  0  0  0  0
  2 31  4  0  0  0  0
  3  4  4  0  0  0  0
  4  5  4  0  0  0  0
  4 28  4  0  0  0  0
  5  6  4  0  0  0  0
  5 30  4  0  0  0  0
  6  7  4  0  0  0  0
  7  8  1  0  0  0  0
  7 28  4  0  0  0  0
  8  9  2  0  0  0  0
  8 10  2  0  0  0  0
  8 11  1  0  0  0  0
 11 12  1  0  0  0  0
 12 13  4  0  0  0  0
 12 27  4  0  0  0  0
 13 14  4  0  0  0  0
 14 15  4  0  0  0  0
 14 19  4  0  0  0  0
 15 16  4  0  0  0  0
 15 26  4  0  0  0  0
 16 17  4  0  0  0  0
 17 18  4  0  0  0  0
 18 19  4  0  0  0  0
 19 20  1  0  0  0  0
 20 21  1  0  0  0  0
 20 25  1  0  0  0  0
 21 22  1  0  0  0  0
 22 23  1  0  0  0  0
 23 24  1  0  0  0  0
 24 25  1  0  0  0  0
 26 27  4  0  0  0  0
 28 29  1  0  0  0  0
 30 31  4  0  0  0  0
M  STY  1   1 DAT
M  SAL   1  1  16
M  SDT   1 MRV_IMPLICIT_H                                        
M  SDD   1     0.0000    0.0000    DR    ALL  0       0  
M  SED   1 IMPL_H1
M  END
>  <Name_Molregno>
158053

>  <5-HT1A>
6

>  <5-HT1B>
5.7

>  <5-HT1D>
6.2

>  <5-HT2A>
5.6

>  <5-HT2C>
5.6

>  <5-HT6>
8.7

>  <5-HT7>
5.1

>  <DOPAMINE D2>
5

>  <DOPAMINE D3>
5.8

$$$$
158169
  Marvin  02231216192D 0   1.00000     0.00000     0

 32 36  0  0  0  0  0  0  0  0999 V2000
    0.7068    2.2807    0.0000 Cl  0  0  0  0  0  0  0  0  0
    1.1193    1.5662    0.0000 C   0  0  0  0  0  0  0  0  0
    1.9443    1.5662    0.0000 C   0  0  0  0  0  0  0  0  0
    2.3568    0.8517    0.0000 C   0  0  0  0  0  0  0  0  0
    1.9443    0.1373    0.0000 C   0  0  0  0  0  0  0  0  0
    2.4963   -0.4758    0.0000 S   0  0  0  0  0  0  0  0  0
    3.2500   -0.1403    0.0000 C   0  0  0  0  0  0  0  0  0
    3.9645   -0.5528    0.0000 S   0  0  0  0  0  0  0  0  0
    3.5520   -1.2672    0.0000 O   0  0  0  0  0  0  0  0  0
    4.3770    0.1617    0.0000 O   0  0  0  0  0  0  0  0  0
    4.6789   -0.9653    0.0000 N   0  0  0  0  0  0  0  0  0
    5.3934   -0.5528    0.0000 C   0  0  0  0  0  0  0  0  0
    6.1079   -0.9653    0.0000 C   0  0  0  0  0  0  0  0  0
    6.8223   -0.5528    0.0000 C   0  0  0  0  0  0  0  0  0
    6.8223    0.2722    0.0000 C   0  0  0  0  0  0  0  0  0
    7.5368    0.6847    0.0000 N   0  0  0  0  0  0  0  0  0
    8.2513    0.2722    0.0000 C   0  0  0  0  0  0  0  0  0
    8.2513   -0.5528    0.0000 C   0  0  0  0  0  0  0  0  0
    7.5368   -0.9653    0.0000 C   0  0  0  0  0  0  0  0  0
    7.5368   -1.7903    0.0000 N   0  0  0  0  0  0  0  0  0
    8.2513   -2.2028    0.0000 C   0  0  0  0  0  0  0  0  0
    8.2513   -3.0278    0.0000 C   0  0  0  0  0  0  0  0  0
    7.5368   -3.4403    0.0000 N   0  0  0  0  0  0  0  0  0
    6.8223   -3.0278    0.0000 C   0  0  0  0  0  0  0  0  0
    6.8223   -2.2028    0.0000 C   0  0  0  0  0  0  0  0  0
    6.1079    0.6847    0.0000 C   0  0  0  0  0  0  0  0  0
    5.3934    0.2722    0.0000 C   0  0  0  0  0  0  0  0  0
    3.1638    0.6802    0.0000 C   0  0  0  0  0  0  0  0  0
    3.7768    1.2322    0.0000 C   0  0  0  0  0  0  0  0  0
    4.5615    0.9773    0.0000 C   0  0  0  0  0  0  0  0  0
    1.1193    0.1373    0.0000 C   0  0  0  0  0  0  0  0  0
    0.7068    0.8517    0.0000 C   0  0  0  0  0  0  0  0  0
  1  2  1  0  0  0  0
  2  3  4  0  0  0  0
  2 32  4  0  0  0  0
  3  4  4  0  0  0  0
  4  5  4  0  0  0  0
  4 28  4  0  0  0  0
  5  6  4  0  0  0  0
  5 31  4  0  0  0  0
  6  7  4  0  0  0  0
  7  8  1  0  0  0  0
  7 28  4  0  0  0  0
  8  9  2  0  0  0  0
  8 10  2  0  0  0  0
  8 11  1  0  0  0  0
 11 12  1  0  0  0  0
 12 13  4  0  0  0  0
 12 27  4  0  0  0  0
 13 14  4  0  0  0  0
 14 15  4  0  0  0  0
 14 19  4  0  0  0  0
 15 16  4  0  0  0  0
 15 26  4  0  0  0  0
 16 17  4  0  0  0  0
 17 18  4  0  0  0  0
 18 19  4  0  0  0  0
 19 20  1  0  0  0  0
 20 21  1  0  0  0  0
 20 25  1  0  0  0  0
 21 22  1  0  0  0  0
 22 23  1  0  0  0  0
 23 24  1  0  0  0  0
 24 25  1  0  0  0  0
 26 27  4  0  0  0  0
 28 29  1  0  0  0  0
 29 30  1  0  0  0  0
 31 32  4  0  0  0  0
M  STY  1   1 DAT
M  SAL   1  1  16
M  SDT   1 MRV_IMPLICIT_H                                        
M  SDD   1     0.0000    0.0000    DR    ALL  0       0  
M  SED   1 IMPL_H1
M  END
>  <Name_Molregno>
158169

>  <5-HT1A>
5.4

>  <5-HT1B>
5.5

>  <5-HT1D>
5.6

>  <5-HT2A>
5.9

>  <5-HT2C>
5.9

>  <5-HT6>
8.9

>  <5-HT7>
5.3

>  <DOPAMINE D2>
6

>  <DOPAMINE D3>
5

$$$$
158511
  Marvin  02231216192D 0   1.00000     0.00000     0

 17 18  0  0  1  0  0  0  0  0999 V2000
    1.8593    1.5574    0.0000 N   0  0  0  0  0  0  0  0  0
    2.4114    2.1705    0.0000 C   0  0  0  0  0  0  0  0  0
    3.1650    1.8349    0.0000 C   0  0  0  0  0  0  0  0  0
    3.0788    1.0145    0.0000 C   0  0  0  0  0  0  0  0  0
    2.2718    0.8429    0.0000 C   0  0  0  0  0  0  0  0  0
    1.8593    0.1285    0.0000 C   0  0  0  0  0  0  0  0  0
    1.0343    0.1285    0.0000 C   0  0  0  0  0  0  0  0  0
    0.6218   -0.5860    0.0000 N   0  0  0  0  0  0  0  0  0
   -0.2032   -0.5860    0.0000 C   0  0  0  0  0  0  0  0  0
   -0.6157   -1.3005    0.0000 C   0  0  0  0  0  0  0  0  0
   -1.4407   -1.3005    0.0000 C   0  0  0  0  0  0  0  0  0
    1.0343   -1.3005    0.0000 C   0  0  0  0  0  0  0  0  0
    1.8593   -1.3005    0.0000 C   0  0  0  0  0  0  0  0  0
    2.2718   -2.0150    0.0000 C   0  0  0  0  0  0  0  0  0
    0.6218    0.8429    0.0000 C   0  0  0  0  0  0  0  0  0
    1.0343    1.5574    0.0000 C   0  0  0  0  0  0  0  0  0
    3.8795    2.2474    0.0000 C   0  0  0  0  0  0  0  0  0
  1  2  4  0  0  0  0
  1  5  4  0  0  0  0
  1 16  1  0  0  0  0
  2  3  4  0  0  0  0
  3  4  4  0  0  0  0
  3 17  1  0  0  0  0
  4  5  4  0  0  0  0
  5  6  1  0  0  0  0
  6  7  1  0  0  0  0
  7  8  1  0  0  0  0
  7 15  1  0  0  0  0
  8  9  1  0  0  0  0
  8 12  1  0  0  0  0
  9 10  1  0  0  0  0
 10 11  1  0  0  0  0
 12 13  1  0  0  0  0
 13 14  1  0  0  0  0
 15 16  1  0  0  0  0
M  END
>  <Name_Molregno>
158511

>  <DOPAMINE D3>
6.07

$$$$
158550
  Marvin  02231216192D 0   1.00000     0.00000     0

 17 18  0  0  1  0  0  0  0  0999 V2000
   -1.1356    1.6980    0.0000 N   0  0  0  0  0  0  0  0  0
   -0.7231    0.9835    0.0000 C   0  0  0  0  0  0  0  0  0
   -1.1356    0.2690    0.0000 C   0  0  0  0  0  0  0  0  0
   -1.9606    0.2690    0.0000 C   0  0  0  0  0  0  0  0  0
   -2.3731   -0.4454    0.0000 N   0  0  0  0  0  0  0  0  0
   -3.1981   -0.4454    0.0000 C   0  0  0  0  0  0  0  0  0
   -3.6106   -1.1599    0.0000 C   0  0  0  0  0  0  0  0  0
   -4.4356   -1.1599    0.0000 C   0  0  0  0  0  0  0  0  0
   -1.9606   -1.1599    0.0000 C   0  0  0  0  0  0  0  0  0
   -1.1356   -1.1599    0.0000 C   0  0  0  0  0  0  0  0  0
   -0.7231   -1.8744    0.0000 C   0  0  0  0  0  0  0  0  0
   -2.3731    0.9835    0.0000 C   0  0  0  0  0  0  0  0  0
   -1.9606    1.6980    0.0000 C   0  0  0  0  0  0  0  0  0
    0.0839    1.1550    0.0000 C   0  0  0  0  0  0  0  0  0
    0.1701    1.9755    0.0000 C   0  0  0  0  0  0  0  0  0
   -0.5836    2.3111    0.0000 C   0  0  0  0  0  0  0  0  0
    0.6969    0.6030    0.0000 C   0  0  0  0  0  0  0  0  0
  1  2  4  0  0  0  0
  1 13  1  0  0  0  0
  1 16  4  0  0  0  0
  2  3  1  0  0  0  0
  2 14  4  0  0  0  0
  3  4  1  0  0  0  0
  4  5  1  0  0  0  0
  4 12  1  0  0  0  0
  5  6  1  0  0  0  0
  5  9  1  0  0  0  0
  6  7  1  0  0  0  0
  7  8  1  0  0  0  0
  9 10  1  0  0  0  0
 10 11  1  0  0  0  0
 12 13  1  0  0  0  0
 14 15  4  0  0  0  0
 14 17  1  0  0  0  0
 15 16  4  0  0  0  0
M  END
>  <Name_Molregno>
158550

>  <DOPAMINE D3>
6.01

$$$$
158565
  Marvin  02231216192D 0   1.00000     0.00000     0

 18 19  0  0  1  0  0  0  0  0999 V2000
    5.2485   -2.3992    0.0000 O   0  0  0  0  0  0  0  0  0
    4.6965   -1.7861    0.0000 C   0  0  0  0  0  0  0  0  0
    3.8895   -1.9576    0.0000 C   0  0  0  0  0  0  0  0  0
    3.2764   -1.4056    0.0000 C   0  0  0  0  0  0  0  0  0
    2.5619   -1.8181    0.0000 N   0  0  0  0  0  0  0  0  0
    1.8475   -1.4056    0.0000 C   0  0  0  0  0  0  0  0  0
    1.8475   -0.5806    0.0000 C   0  0  0  0  0  0  0  0  0
    2.5619   -0.1681    0.0000 C   0  0  0  0  0  0  0  0  0
    2.5619    0.6569    0.0000 N   0  0  0  0  0  0  0  0  0
    1.8475    1.0694    0.0000 C   0  0  0  0  0  0  0  0  0
    1.8475    1.8944    0.0000 C   0  0  0  0  0  0  0  0  0
    1.1330    2.3069    0.0000 C   0  0  0  0  0  0  0  0  0
    3.2764    1.0694    0.0000 C   0  0  0  0  0  0  0  0  0
    3.2764    1.8944    0.0000 C   0  0  0  0  0  0  0  0  0
    3.9909    2.3069    0.0000 C   0  0  0  0  0  0  0  0  0
    3.2764   -0.5806    0.0000 C   0  0  0  0  0  0  0  0  0
    2.7334   -2.6251    0.0000 C   0  0  0  0  0  0  0  0  0
    3.5539   -2.7113    0.0000 C   0  0  0  0  0  0  0  0  0
  1  2  2  0  0  0  0
  2  3  1  0  0  0  0
  3  4  4  0  0  0  0
  3 18  4  0  0  0  0
  4  5  4  0  0  0  0
  4 16  1  0  0  0  0
  5  6  1  0  0  0  0
  5 17  4  0  0  0  0
  6  7  1  0  0  0  0
  7  8  1  0  0  0  0
  8  9  1  0  0  0  0
  8 16  1  0  0  0  0
  9 10  1  0  0  0  0
  9 13  1  0  0  0  0
 10 11  1  0  0  0  0
 11 12  1  0  0  0  0
 13 14  1  0  0  0  0
 14 15  1  0  0  0  0
 17 18  4  0  0  0  0
M  END
>  <Name_Molregno>
158565

>  <DOPAMINE D3>
5.87

$$$$
158566
  Marvin  02231216192D 0   1.00000     0.00000     0

 18 19  0  0  1  0  0  0  0  0999 V2000
    3.6036   -2.8993    0.0000 O   0  0  0  0  0  0  0  0  0
    3.8586   -2.1147    0.0000 C   0  0  0  0  0  0  0  0  0
    3.3065   -1.5016    0.0000 C   0  0  0  0  0  0  0  0  0
    3.4780   -0.6946    0.0000 N   0  0  0  0  0  0  0  0  0
    2.7636   -0.2821    0.0000 C   0  0  0  0  0  0  0  0  0
    2.7636    0.5429    0.0000 C   0  0  0  0  0  0  0  0  0
    3.4780    0.9554    0.0000 C   0  0  0  0  0  0  0  0  0
    3.4780    1.7804    0.0000 N   0  0  0  0  0  0  0  0  0
    2.7636    2.1929    0.0000 C   0  0  0  0  0  0  0  0  0
    2.7636    3.0179    0.0000 C   0  0  0  0  0  0  0  0  0
    2.0491    3.4304    0.0000 C   0  0  0  0  0  0  0  0  0
    4.1925    2.1929    0.0000 C   0  0  0  0  0  0  0  0  0
    4.1925    3.0179    0.0000 C   0  0  0  0  0  0  0  0  0
    4.9070    3.4304    0.0000 C   0  0  0  0  0  0  0  0  0
    4.1925    0.5429    0.0000 C   0  0  0  0  0  0  0  0  0
    4.1925   -0.2821    0.0000 C   0  0  0  0  0  0  0  0  0
    2.1505   -0.8341    0.0000 C   0  0  0  0  0  0  0  0  0
    2.4860   -1.5878    0.0000 C   0  0  0  0  0  0  0  0  0
  1  2  2  0  0  0  0
  2  3  1  0  0  0  0
  3  4  4  0  0  0  0
  3 18  4  0  0  0  0
  4  5  4  0  0  0  0
  4 16  1  0  0  0  0
  5  6  1  0  0  0  0
  5 17  4  0  0  0  0
  6  7  1  0  0  0  0
  7  8  1  0  0  0  0
  7 15  1  0  0  0  0
  8  9  1  0  0  0  0
  8 12  1  0  0  0  0
  9 10  1  0  0  0  0
 10 11  1  0  0  0  0
 12 13  1  0  0  0  0
 13 14  1  0  0  0  0
 15 16  1  0  0  0  0
 17 18  4  0  0  0  0
M  END
>  <Name_Molregno>
158566

>  <DOPAMINE D2>
6.34

>  <DOPAMINE D3>
7.37

>  <DOPAMINE D4>
6.54

$$$$
158608
  Marvin  02231216192D 0   1.00000     0.00000     0

 18 19  0  0  1  0  0  0  0  0999 V2000
    5.2485   -2.3992    0.0000 O   0  0  0  0  0  0  0  0  0
    4.6965   -1.7861    0.0000 C   0  0  0  0  0  0  0  0  0
    3.8895   -1.9576    0.0000 C   0  0  0  0  0  0  0  0  0
    3.2764   -1.4056    0.0000 C   0  0  0  0  0  0  0  0  0
    2.5619   -1.8181    0.0000 N   0  0  0  0  0  0  0  0  0
    1.8475   -1.4056    0.0000 C   0  0  0  0  0  0  0  0  0
    1.8475   -0.5806    0.0000 C   0  0  0  0  0  0  0  0  0
    2.5619   -0.1681    0.0000 C   0  0  0  0  0  0  0  0  0
    2.5619    0.6569    0.0000 N   0  0  0  0  0  0  0  0  0
    1.8475    1.0694    0.0000 C   0  0  0  0  0  0  0  0  0
    1.8475    1.8944    0.0000 C   0  0  0  0  0  0  0  0  0
    1.1330    2.3069    0.0000 C   0  0  0  0  0  0  0  0  0
    3.2764    1.0694    0.0000 C   0  0  0  0  0  0  0  0  0
    3.2764    1.8944    0.0000 C   0  0  0  0  0  0  0  0  0
    3.9909    2.3069    0.0000 C   0  0  0  0  0  0  0  0  0
    3.2764   -0.5806    0.0000 C   0  0  0  0  0  0  0  0  0
    2.7334   -2.6251    0.0000 C   0  0  0  0  0  0  0  0  0
    3.5539   -2.7113    0.0000 C   0  0  0  0  0  0  0  0  0
  1  2  1  0  0  0  0
  2  3  1  0  0  0  0
  3  4  4  0  0  0  0
  3 18  4  0  0  0  0
  4  5  4  0  0  0  0
  4 16  1  0  0  0  0
  5  6  1  0  0  0  0
  5 17  4  0  0  0  0
  6  7  1  0  0  0  0
  7  8  1  0  0  0  0
  8  9  1  0  0  0  0
  8 16  1  0  0  0  0
  9 10  1  0  0  0  0
  9 13  1  0  0  0  0
 10 11  1  0  0  0  0
 11 12  1  0  0  0  0
 13 14  1  0  0  0  0
 14 15  1  0  0  0  0
 17 18  4  0  0  0  0
M  END
>  <Name_Molregno>
158608

>  <DOPAMINE D3>
5.75

$$$$
158619
  Marvin  02231216192D 0   1.00000     0.00000     0

 18 19  0  0  1  0  0  0  0  0999 V2000
    4.3020   -3.6042    0.0000 O   0  0  0  0  0  0  0  0  0
    4.7145   -2.8897    0.0000 C   0  0  0  0  0  0  0  0  0
    4.3020   -2.1753    0.0000 C   0  0  0  0  0  0  0  0  0
    4.6375   -1.4216    0.0000 C   0  0  0  0  0  0  0  0  0
    4.0245   -0.8696    0.0000 C   0  0  0  0  0  0  0  0  0
    3.3100   -1.2821    0.0000 N   0  0  0  0  0  0  0  0  0
    3.4815   -2.0890    0.0000 C   0  0  0  0  0  0  0  0  0
    2.5955   -0.8696    0.0000 C   0  0  0  0  0  0  0  0  0
    2.5955   -0.0446    0.0000 C   0  0  0  0  0  0  0  0  0
    3.3100    0.3679    0.0000 C   0  0  0  0  0  0  0  0  0
    3.3100    1.1929    0.0000 N   0  0  0  0  0  0  0  0  0
    2.5955    1.6054    0.0000 C   0  0  0  0  0  0  0  0  0
    2.5955    2.4304    0.0000 C   0  0  0  0  0  0  0  0  0
    1.8810    2.8429    0.0000 C   0  0  0  0  0  0  0  0  0
    4.0245    1.6054    0.0000 C   0  0  0  0  0  0  0  0  0
    4.0245    2.4304    0.0000 C   0  0  0  0  0  0  0  0  0
    4.7389    2.8429    0.0000 C   0  0  0  0  0  0  0  0  0
    4.0245   -0.0446    0.0000 C   0  0  0  0  0  0  0  0  0
  1  2  1  0  0  0  0
  2  3  1  0  0  0  0
  3  4  4  0  0  0  0
  3  7  4  0  0  0  0
  4  5  4  0  0  0  0
  5  6  4  0  0  0  0
  5 18  1  0  0  0  0
  6  7  4  0  0  0  0
  6  8  1  0  0  0  0
  8  9  1  0  0  0  0
  9 10  1  0  0  0  0
 10 11  1  0  0  0  0
 10 18  1  0  0  0  0
 11 12  1  0  0  0  0
 11 15  1  0  0  0  0
 12 13  1  0  0  0  0
 13 14  1  0  0  0  0
 15 16  1  0  0  0  0
 16 17  1  0  0  0  0
M  END
>  <Name_Molregno>
158619

>  <DOPAMINE D3>
5.46

$$$$
159009
  Marvin  02231216192D 0   1.00000     0.00000     0

 17 18  0  0  1  0  0  0  0  0999 V2000
   -0.9676    1.4013    0.0000 N   0  0  0  0  0  0  0  0  0
   -0.5551    0.6869    0.0000 C   0  0  0  0  0  0  0  0  0
   -0.9676   -0.0276    0.0000 C   0  0  0  0  0  0  0  0  0
   -1.7926   -0.0276    0.0000 C   0  0  0  0  0  0  0  0  0
   -2.2051   -0.7421    0.0000 N   0  0  0  0  0  0  0  0  0
   -3.0301   -0.7421    0.0000 C   0  0  0  0  0  0  0  0  0
   -3.4426   -1.4566    0.0000 C   0  0  0  0  0  0  0  0  0
   -4.2676   -1.4566    0.0000 C   0  0  0  0  0  0  0  0  0
   -1.7926   -1.4566    0.0000 C   0  0  0  0  0  0  0  0  0
   -0.9676   -1.4566    0.0000 C   0  0  0  0  0  0  0  0  0
   -0.5551   -2.1710    0.0000 C   0  0  0  0  0  0  0  0  0
   -2.2051    0.6869    0.0000 C   0  0  0  0  0  0  0  0  0
   -1.7926    1.4013    0.0000 C   0  0  0  0  0  0  0  0  0
    0.2519    0.8584    0.0000 C   0  0  0  0  0  0  0  0  0
    0.3381    1.6789    0.0000 C   0  0  0  0  0  0  0  0  0
   -0.4155    2.0144    0.0000 C   0  0  0  0  0  0  0  0  0
   -0.5871    2.8214    0.0000 C   0  0  0  0  0  0  0  0  0
  1  2  4  0  0  0  0
  1 13  1  0  0  0  0
  1 16  4  0  0  0  0
  2  3  1  0  0  0  0
  2 14  4  0  0  0  0
  3  4  1  0  0  0  0
  4  5  1  0  0  0  0
  4 12  1  0  0  0  0
  5  6  1  0  0  0  0
  5  9  1  0  0  0  0
  6  7  1  0  0  0  0
  7  8  1  0  0  0  0
  9 10  1  0  0  0  0
 10 11  1  0  0  0  0
 12 13  1  0  0  0  0
 14 15  4  0  0  0  0
 15 16  4  0  0  0  0
 16 17  1  0  0  0  0
M  END
>  <Name_Molregno>
159009

>  <DOPAMINE D3>
6.3

$$$$
159010
  Marvin  02231216192D 0   1.00000     0.00000     0

 18 19  0  0  1  0  0  0  0  0999 V2000
    3.6036   -2.8993    0.0000 O   0  0  0  0  0  0  0  0  0
    3.8586   -2.1147    0.0000 C   0  0  0  0  0  0  0  0  0
    3.3065   -1.5016    0.0000 C   0  0  0  0  0  0  0  0  0
    3.4780   -0.6946    0.0000 N   0  0  0  0  0  0  0  0  0
    2.7636   -0.2821    0.0000 C   0  0  0  0  0  0  0  0  0
    2.7636    0.5429    0.0000 C   0  0  0  0  0  0  0  0  0
    3.4780    0.9554    0.0000 C   0  0  0  0  0  0  0  0  0
    3.4780    1.7804    0.0000 N   0  0  0  0  0  0  0  0  0
    2.7636    2.1929    0.0000 C   0  0  0  0  0  0  0  0  0
    2.7636    3.0179    0.0000 C   0  0  0  0  0  0  0  0  0
    2.0491    3.4304    0.0000 C   0  0  0  0  0  0  0  0  0
    4.1925    2.1929    0.0000 C   0  0  0  0  0  0  0  0  0
    4.1925    3.0179    0.0000 C   0  0  0  0  0  0  0  0  0
    4.9070    3.4304    0.0000 C   0  0  0  0  0  0  0  0  0
    4.1925    0.5429    0.0000 C   0  0  0  0  0  0  0  0  0
    4.1925   -0.2821    0.0000 C   0  0  0  0  0  0  0  0  0
    2.1505   -0.8341    0.0000 C   0  0  0  0  0  0  0  0  0
    2.4860   -1.5878    0.0000 C   0  0  0  0  0  0  0  0  0
  1  2  1  0  0  0  0
  2  3  1  0  0  0  0
  3  4  4  0  0  0  0
  3 18  4  0  0  0  0
  4  5  4  0  0  0  0
  4 16  1  0  0  0  0
  5  6  1  0  0  0  0
  5 17  4  0  0  0  0
  6  7  1  0  0  0  0
  7  8  1  0  0  0  0
  7 15  1  0  0  0  0
  8  9  1  0  0  0  0
  8 12  1  0  0  0  0
  9 10  1  0  0  0  0
 10 11  1  0  0  0  0
 12 13  1  0  0  0  0
 13 14  1  0  0  0  0
 15 16  1  0  0  0  0
 17 18  4  0  0  0  0
M  END
>  <Name_Molregno>
159010

>  <DOPAMINE D3>
6.26

$$$$
159076
  Marvin  02231216192D 0   1.00000     0.00000     0

 16 17  0  0  1  0  0  0  0  0999 V2000
   -1.0893    1.6160    0.0000 N   0  0  0  0  0  0  0  0  0
   -0.6768    0.9015    0.0000 C   0  0  0  0  0  0  0  0  0
   -1.0893    0.1870    0.0000 C   0  0  0  0  0  0  0  0  0
   -1.9143    0.1870    0.0000 C   0  0  0  0  0  0  0  0  0
   -2.3268   -0.5275    0.0000 N   0  0  0  0  0  0  0  0  0
   -3.1518   -0.5275    0.0000 C   0  0  0  0  0  0  0  0  0
   -3.5643   -1.2419    0.0000 C   0  0  0  0  0  0  0  0  0
   -4.3893   -1.2419    0.0000 C   0  0  0  0  0  0  0  0  0
   -1.9143   -1.2419    0.0000 C   0  0  0  0  0  0  0  0  0
   -1.0893   -1.2419    0.0000 C   0  0  0  0  0  0  0  0  0
   -0.6768   -1.9564    0.0000 C   0  0  0  0  0  0  0  0  0
   -2.3268    0.9015    0.0000 C   0  0  0  0  0  0  0  0  0
   -1.9143    1.6160    0.0000 C   0  0  0  0  0  0  0  0  0
    0.1302    1.0730    0.0000 C   0  0  0  0  0  0  0  0  0
    0.2164    1.8935    0.0000 C   0  0  0  0  0  0  0  0  0
   -0.5372    2.2291    0.0000 C   0  0  0  0  0  0  0  0  0
  1  2  4  0  0  0  0
  1 13  1  0  0  0  0
  1 16  4  0  0  0  0
  2  3  1  0  0  0  0
  2 14  4  0  0  0  0
  3  4  1  0  0  0  0
  4  5  1  0  0  0  0
  4 12  1  0  0  0  0
  5  6  1  0  0  0  0
  5  9  1  0  0  0  0
  6  7  1  0  0  0  0
  7  8  1  0  0  0  0
  9 10  1  0  0  0  0
 10 11  1  0  0  0  0
 12 13  1  0  0  0  0
 14 15  4  0  0  0  0
 15 16  4  0  0  0  0
M  END
>  <Name_Molregno>
159076

>  <DOPAMINE D3>
6.01

$$$$
159451
  Marvin  02231216192D 0   1.00000     0.00000     0

 19 21  0  0  1  0  0  0  0  0999 V2000
   -0.0232    0.0218    0.0000 S   0  0  0  0  0  0  0  0  0
   -0.4357    0.7362    0.0000 O   0  0  0  0  0  0  0  0  0
    0.8018    0.0218    0.0000 C   0  0  0  0  0  0  0  0  0
    1.2143   -0.6927    0.0000 C   0  0  0  0  0  0  0  0  0
    2.0393   -0.6927    0.0000 N   0  0  0  0  0  0  0  0  0
    2.4518   -1.4072    0.0000 C   0  0  0  0  0  0  0  0  0
    2.0393   -2.1217    0.0000 C   0  0  0  0  0  0  0  0  0
    1.2143   -2.1217    0.0000 O   0  0  0  0  0  0  0  0  0
    0.8018   -1.4072    0.0000 C   0  0  0  0  0  0  0  0  0
   -0.0232   -1.4072    0.0000 C   0  0  0  0  0  0  0  0  0
   -0.4357   -2.1217    0.0000 C   0  0  0  0  0  0  0  0  0
   -1.2607   -2.1217    0.0000 C   0  0  0  0  0  0  0  0  0
   -1.6732   -2.8361    0.0000 O   0  0  0  0  0  0  0  0  0
   -1.6732   -1.4072    0.0000 C   0  0  0  0  0  0  0  0  0
   -1.2607   -0.6927    0.0000 C   0  0  0  0  0  0  0  0  0
   -0.4357   -0.6927    0.0000 C   0  0  0  0  0  0  0  0  0
    2.4518    0.0218    0.0000 C   0  0  0  0  0  0  0  0  0
    3.2768    0.0218    0.0000 C   0  0  0  0  0  0  0  0  0
    3.6893    0.7362    0.0000 C   0  0  0  0  0  0  0  0  0
  1  2  2  0  0  0  0
  1  3  1  0  0  0  0
  1 16  1  0  0  0  0
  3  4  1  0  0  0  0
  4  5  1  0  0  0  0
  4  9  1  0  0  0  0
  5  6  1  0  0  0  0
  5 17  1  0  0  0  0
  6  7  1  0  0  0  0
  7  8  1  0  0  0  0
  8  9  1  0  0  0  0
  9 10  1  0  0  0  0
 10 11  4  0  0  0  0
 10 16  4  0  0  0  0
 11 12  4  0  0  0  0
 12 13  1  0  0  0  0
 12 14  4  0  0  0  0
 14 15  4  0  0  0  0
 15 16  4  0  0  0  0
 17 18  1  0  0  0  0
 18 19  1  0  0  0  0
M  END
>  <Name_Molregno>
159451

>  <DOPAMINE D3>
7.54

$$$$
160006
  Marvin  02231216192D 0   1.00000     0.00000     0

 18 20  0  0  1  0  0  0  0  0999 V2000
   -0.0114    0.0338    0.0000 S   0  0  0  0  0  0  0  0  0
    0.8136    0.0338    0.0000 C   0  0  0  0  0  0  0  0  0
    1.2261   -0.6807    0.0000 C   0  0  0  0  0  0  0  0  0
    2.0511   -0.6807    0.0000 N   0  0  0  0  0  0  0  0  0
    2.4636   -1.3952    0.0000 C   0  0  0  0  0  0  0  0  0
    2.0511   -2.1097    0.0000 C   0  0  0  0  0  0  0  0  0
    1.2261   -2.1097    0.0000 O   0  0  0  0  0  0  0  0  0
    0.8136   -1.3952    0.0000 C   0  0  0  0  0  0  0  0  0
   -0.0114   -1.3952    0.0000 C   0  0  0  0  0  0  0  0  0
   -0.4239   -2.1097    0.0000 C   0  0  0  0  0  0  0  0  0
   -1.2489   -2.1097    0.0000 C   0  0  0  0  0  0  0  0  0
   -1.6614   -2.8241    0.0000 O   0  0  0  0  0  0  0  0  0
   -1.6614   -1.3952    0.0000 C   0  0  0  0  0  0  0  0  0
   -1.2489   -0.6807    0.0000 C   0  0  0  0  0  0  0  0  0
   -0.4239   -0.6807    0.0000 C   0  0  0  0  0  0  0  0  0
    2.4636    0.0338    0.0000 C   0  0  0  0  0  0  0  0  0
    3.2886    0.0338    0.0000 C   0  0  0  0  0  0  0  0  0
    3.7011    0.7482    0.0000 C   0  0  0  0  0  0  0  0  0
  1  2  1  0  0  0  0
  1 15  1  0  0  0  0
  2  3  1  0  0  0  0
  3  4  1  0  0  0  0
  3  8  1  0  0  0  0
  4  5  1  0  0  0  0
  4 16  1  0  0  0  0
  5  6  1  0  0  0  0
  6  7  1  0  0  0  0
  7  8  1  0  0  0  0
  8  9  1  0  0  0  0
  9 10  4  0  0  0  0
  9 15  4  0  0  0  0
 10 11  4  0  0  0  0
 11 12  1  0  0  0  0
 11 13  4  0  0  0  0
 13 14  4  0  0  0  0
 14 15  4  0  0  0  0
 16 17  1  0  0  0  0
 17 18  1  0  0  0  0
M  END
>  <Name_Molregno>
160006

>  <DOPAMINE D3>
7.83

$$$$
162216
  Marvin  02231216192D 0   1.00000     0.00000     0

 35 39  0  0  1  0  0  0  0  0999 V2000
   12.4150   -0.6719    0.0000 F   0  0  0  0  0  0  0  0  0
   11.7849   -0.1393    0.0000 C   0  0  0  0  0  0  0  0  0
   11.0087   -0.4186    0.0000 C   0  0  0  0  0  0  0  0  0
   10.3786    0.1140    0.0000 C   0  0  0  0  0  0  0  0  0
   10.5249    0.9260    0.0000 C   0  0  0  0  0  0  0  0  0
   11.3011    1.2053    0.0000 C   0  0  0  0  0  0  0  0  0
   11.9312    0.6727    0.0000 C   0  0  0  0  0  0  0  0  0
    9.8948    1.4586    0.0000 C   0  0  0  0  0  0  0  0  0
    9.1185    1.1793    0.0000 C   0  0  0  0  0  0  0  0  0
    8.9723    0.3673    0.0000 C   0  0  0  0  0  0  0  0  0
    8.1960    0.0880    0.0000 N   0  0  0  0  0  0  0  0  0
    8.0498   -0.7239    0.0000 C   0  0  0  0  0  0  0  0  0
    7.2735   -1.0032    0.0000 C   0  0  0  0  0  0  0  0  0
    6.6435   -0.4706    0.0000 N   0  0  0  0  0  0  0  0  0
    6.7897    0.3413    0.0000 C   0  0  0  0  0  0  0  0  0
    7.5660    0.6206    0.0000 C   0  0  0  0  0  0  0  0  0
    5.8672   -0.7499    0.0000 C   0  0  0  0  0  0  0  0  0
    5.2372   -0.2173    0.0000 C   0  0  0  0  0  0  0  0  0
    5.2977    0.6055    0.0000 O   0  0  0  0  0  0  0  0  0
    4.5339    0.9173    0.0000 N   0  0  0  0  0  0  0  0  0
    4.0013    0.2873    0.0000 C   0  0  0  0  0  0  0  0  0
    4.4359   -0.4140    0.0000 C   0  0  0  0  0  0  0  0  0
    4.0460   -1.1410    0.0000 C   0  0  0  0  0  0  0  0  0
    3.2214   -1.1667    0.0000 O   0  0  0  0  0  0  0  0  0
    2.7867   -0.4655    0.0000 C   0  0  0  0  0  0  0  0  0
    1.9621   -0.4912    0.0000 C   0  0  0  0  0  0  0  0  0
    1.5275    0.2100    0.0000 C   0  0  0  0  0  0  0  0  0
    0.7029    0.1842    0.0000 O   0  0  0  0  0  0  0  0  0
    0.3130   -0.5428    0.0000 C   0  0  0  0  0  0  0  0  0
    1.9175    0.9370    0.0000 C   0  0  0  0  0  0  0  0  0
    1.4829    1.6382    0.0000 O   0  0  0  0  0  0  0  0  0
    1.8729    2.3652    0.0000 C   0  0  0  0  0  0  0  0  0
    2.7421    0.9628    0.0000 C   0  0  0  0  0  0  0  0  0
    3.1767    0.2615    0.0000 C   0  0  0  0  0  0  0  0  0
    8.4885    1.7119    0.0000 C   0  0  0  0  0  0  0  0  0
  1  2  1  0  0  0  0
  2  3  4  0  0  0  0
  2  7  4  0  0  0  0
  3  4  4  0  0  0  0
  4  5  4  0  0  0  0
  5  6  4  0  0  0  0
  5  8  1  0  0  0  0
  6  7  4  0  0  0  0
  8  9  2  0  0  0  0
  9 10  1  0  0  0  0
  9 35  1  0  0  0  0
 10 11  1  0  0  0  0
 11 12  1  0  0  0  0
 11 16  1  0  0  0  0
 12 13  1  0  0  0  0
 13 14  1  0  0  0  0
 14 15  1  0  0  0  0
 14 17  1  0  0  0  0
 15 16  1  0  0  0  0
 17 18  1  0  0  0  0
 18 19  1  0  0  0  0
 18 22  1  0  0  0  0
 19 20  1  0  0  0  0
 20 21  2  0  0  0  0
 21 22  1  0  0  0  0
 21 34  1  0  0  0  0
 22 23  1  0  0  0  0
 23 24  1  0  0  0  0
 24 25  1  0  0  0  0
 25 26  4  0  0  0  0
 25 34  4  0  0  0  0
 26 27  4  0  0  0  0
 27 28  1  0  0  0  0
 27 30  4  0  0  0  0
 28 29  1  0  0  0  0
 30 31  1  0  0  0  0
 30 33  4  0  0  0  0
 31 32  1  0  0  0  0
 33 34  4  0  0  0  0
M  END
>  <Name_Molregno>
162216

>  <Alpha-1A>
6.9

>  <Alpha-2A>
8.18

>  <Alpha-2B>
8.19

>  <Alpha-2C>
8.91

>  <DOPAMINE D3>
6.43

>  <HISTAMINE H1>
7.13

>  <Serotonin transporter>
8.71

$$$$
166349
  Marvin  02231216192D 0   1.00000     0.00000     0

 25 28  0  0  0  0  0  0  0  0999 V2000
   -1.0353   -0.8203    0.0000 N   0  0  0  0  0  0  0  0  0
   -1.2902   -1.6049    0.0000 C   0  0  0  0  0  0  0  0  0
   -2.1152   -1.6049    0.0000 N   0  0  0  0  0  0  0  0  0
   -2.3702   -0.8203    0.0000 C   0  0  0  0  0  0  0  0  0
   -3.1548   -0.5654    0.0000 C   0  0  0  0  0  0  0  0  0
   -3.3263    0.2416    0.0000 N   0  0  0  0  0  0  0  0  0
   -4.1109    0.4965    0.0000 C   0  0  0  0  0  0  0  0  0
   -4.2825    1.3035    0.0000 C   0  0  0  0  0  0  0  0  0
   -3.6694    1.8556    0.0000 N   0  0  0  0  0  0  0  0  0
   -2.8848    1.6006    0.0000 C   0  0  0  0  0  0  0  0  0
   -2.7132    0.7936    0.0000 C   0  0  0  0  0  0  0  0  0
   -3.8409    2.6625    0.0000 C   0  0  0  0  0  0  0  0  0
   -4.6255    2.9175    0.0000 N   0  0  0  0  0  0  0  0  0
   -4.7971    3.7244    0.0000 C   0  0  0  0  0  0  0  0  0
   -4.1840    4.2765    0.0000 C   0  0  0  0  0  0  0  0  0
   -3.3993    4.0215    0.0000 C   0  0  0  0  0  0  0  0  0
   -3.2278    3.2146    0.0000 N   0  0  0  0  0  0  0  0  0
   -1.7027   -0.3354    0.0000 C   0  0  0  0  0  0  0  0  0
   -1.7027    0.4896    0.0000 C   0  0  0  0  0  0  0  0  0
   -0.8053   -2.2724    0.0000 C   0  0  0  0  0  0  0  0  0
    0.0152   -2.1861    0.0000 C   0  0  0  0  0  0  0  0  0
    0.5001   -2.8536    0.0000 C   0  0  0  0  0  0  0  0  0
    0.1645   -3.6072    0.0000 C   0  0  0  0  0  0  0  0  0
   -0.6559   -3.6935    0.0000 C   0  0  0  0  0  0  0  0  0
   -1.1409   -3.0260    0.0000 C   0  0  0  0  0  0  0  0  0
  1  2  4  0  0  0  0
  1 18  4  0  0  0  0
  2  3  4  0  0  0  0
  2 20  1  0  0  0  0
  3  4  4  0  0  0  0
  4  5  1  0  0  0  0
  4 18  4  0  0  0  0
  5  6  1  0  0  0  0
  6  7  1  0  0  0  0
  6 11  1  0  0  0  0
  7  8  1  0  0  0  0
  8  9  1  0  0  0  0
  9 10  1  0  0  0  0
  9 12  1  0  0  0  0
 10 11  1  0  0  0  0
 12 13  4  0  0  0  0
 12 17  4  0  0  0  0
 13 14  4  0  0  0  0
 14 15  4  0  0  0  0
 15 16  4  0  0  0  0
 16 17  4  0  0  0  0
 18 19  1  0  0  0  0
 20 21  4  0  0  0  0
 20 25  4  0  0  0  0
 21 22  4  0  0  0  0
 22 23  4  0  0  0  0
 23 24  4  0  0  0  0
 24 25  4  0  0  0  0
M  STY  1   1 DAT
M  SAL   1  1   1
M  SDT   1 MRV_IMPLICIT_H                                        
M  SDD   1     0.0000    0.0000    DR    ALL  0       0  
M  SED   1 IMPL_H1
M  END
>  <Name_Molregno>
166349

>  <DOPAMINE D2>
5.84

>  <DOPAMINE D3>
5.53

>  <DOPAMINE D4>
8.22

$$$$
166379
  Marvin  02231216192D 0   1.00000     0.00000     0

 24 27  0  0  0  0  0  0  0  0999 V2000
    1.0036   -0.3723    0.0000 N   0  0  0  0  0  0  0  0  0
    0.7486   -1.1569    0.0000 C   0  0  0  0  0  0  0  0  0
   -0.0764   -1.1569    0.0000 C   0  0  0  0  0  0  0  0  0
   -0.3313   -0.3723    0.0000 N   0  0  0  0  0  0  0  0  0
    0.3361    0.1126    0.0000 C   0  0  0  0  0  0  0  0  0
    0.3361    0.9376    0.0000 C   0  0  0  0  0  0  0  0  0
   -0.3783    1.3501    0.0000 C   0  0  0  0  0  0  0  0  0
   -0.3783    2.1751    0.0000 C   0  0  0  0  0  0  0  0  0
    0.3361    2.5876    0.0000 C   0  0  0  0  0  0  0  0  0
    1.0506    2.1751    0.0000 C   0  0  0  0  0  0  0  0  0
    1.0506    1.3501    0.0000 C   0  0  0  0  0  0  0  0  0
   -0.5613   -1.8244    0.0000 C   0  0  0  0  0  0  0  0  0
   -1.3818   -1.7381    0.0000 N   0  0  0  0  0  0  0  0  0
   -1.8667   -2.4056    0.0000 C   0  0  0  0  0  0  0  0  0
   -2.6872   -2.3193    0.0000 C   0  0  0  0  0  0  0  0  0
   -3.0227   -1.5657    0.0000 N   0  0  0  0  0  0  0  0  0
   -2.5378   -0.8982    0.0000 C   0  0  0  0  0  0  0  0  0
   -1.7173   -0.9845    0.0000 C   0  0  0  0  0  0  0  0  0
   -3.8432   -1.4794    0.0000 C   0  0  0  0  0  0  0  0  0
   -4.3281   -2.1469    0.0000 N   0  0  0  0  0  0  0  0  0
   -5.1486   -2.0606    0.0000 C   0  0  0  0  0  0  0  0  0
   -5.4842   -1.3070    0.0000 C   0  0  0  0  0  0  0  0  0
   -4.9992   -0.6395    0.0000 C   0  0  0  0  0  0  0  0  0
   -4.1788   -0.7257    0.0000 N   0  0  0  0  0  0  0  0  0
  1  2  4  0  0  0  0
  1  5  4  0  0  0  0
  2  3  4  0  0  0  0
  3  4  4  0  0  0  0
  3 12  1  0  0  0  0
  4  5  4  0  0  0  0
  5  6  1  0  0  0  0
  6  7  4  0  0  0  0
  6 11  4  0  0  0  0
  7  8  4  0  0  0  0
  8  9  4  0  0  0  0
  9 10  4  0  0  0  0
 10 11  4  0  0  0  0
 12 13  1  0  0  0  0
 13 14  1  0  0  0  0
 13 18  1  0  0  0  0
 14 15  1  0  0  0  0
 15 16  1  0  0  0  0
 16 17  1  0  0  0  0
 16 19  1  0  0  0  0
 17 18  1  0  0  0  0
 19 20  4  0  0  0  0
 19 24  4  0  0  0  0
 20 21  4  0  0  0  0
 21 22  4  0  0  0  0
 22 23  4  0  0  0  0
 23 24  4  0  0  0  0
M  STY  1   1 DAT
M  SAL   1  1   1
M  SDT   1 MRV_IMPLICIT_H                                        
M  SDD   1     0.0000    0.0000    DR    ALL  0       0  
M  SED   1 IMPL_H1
M  END
>  <Name_Molregno>
166379

>  <5-HT1A>
6.74

>  <DOPAMINE D2>
5.65

>  <DOPAMINE D3>
5.1

>  <DOPAMINE D4>
8.42

$$$$
166424
  Marvin  02231216192D 0   1.00000     0.00000     0

 24 27  0  0  0  0  0  0  0  0999 V2000
    1.0036   -0.3723    0.0000 N   0  0  0  0  0  0  0  0  0
    0.7486   -1.1569    0.0000 C   0  0  0  0  0  0  0  0  0
   -0.0764   -1.1569    0.0000 C   0  0  0  0  0  0  0  0  0
   -0.3313   -0.3723    0.0000 N   0  0  0  0  0  0  0  0  0
    0.3361    0.1126    0.0000 C   0  0  0  0  0  0  0  0  0
    0.3361    0.9376    0.0000 C   0  0  0  0  0  0  0  0  0
   -0.3783    1.3501    0.0000 C   0  0  0  0  0  0  0  0  0
   -0.3783    2.1751    0.0000 C   0  0  0  0  0  0  0  0  0
    0.3361    2.5876    0.0000 C   0  0  0  0  0  0  0  0  0
    1.0506    2.1751    0.0000 C   0  0  0  0  0  0  0  0  0
    1.0506    1.3501    0.0000 C   0  0  0  0  0  0  0  0  0
   -0.5613   -1.8244    0.0000 C   0  0  0  0  0  0  0  0  0
   -1.3818   -1.7381    0.0000 N   0  0  0  0  0  0  0  0  0
   -1.8667   -2.4056    0.0000 C   0  0  0  0  0  0  0  0  0
   -2.6872   -2.3193    0.0000 C   0  0  0  0  0  0  0  0  0
   -3.0227   -1.5657    0.0000 N   0  0  0  0  0  0  0  0  0
   -2.5378   -0.8982    0.0000 C   0  0  0  0  0  0  0  0  0
   -1.7173   -0.9845    0.0000 C   0  0  0  0  0  0  0  0  0
   -3.8432   -1.4794    0.0000 C   0  0  0  0  0  0  0  0  0
   -4.3281   -2.1469    0.0000 N   0  0  0  0  0  0  0  0  0
   -5.1486   -2.0606    0.0000 C   0  0  0  0  0  0  0  0  0
   -5.4842   -1.3070    0.0000 N   0  0  0  0  0  0  0  0  0
   -4.9992   -0.6395    0.0000 C   0  0  0  0  0  0  0  0  0
   -4.1788   -0.7257    0.0000 C   0  0  0  0  0  0  0  0  0
  1  2  4  0  0  0  0
  1  5  4  0  0  0  0
  2  3  4  0  0  0  0
  3  4  4  0  0  0  0
  3 12  1  0  0  0  0
  4  5  4  0  0  0  0
  5  6  1  0  0  0  0
  6  7  4  0  0  0  0
  6 11  4  0  0  0  0
  7  8  4  0  0  0  0
  8  9  4  0  0  0  0
  9 10  4  0  0  0  0
 10 11  4  0  0  0  0
 12 13  1  0  0  0  0
 13 14  1  0  0  0  0
 13 18  1  0  0  0  0
 14 15  1  0  0  0  0
 15 16  1  0  0  0  0
 16 17  1  0  0  0  0
 16 19  1  0  0  0  0
 17 18  1  0  0  0  0
 19 20  4  0  0  0  0
 19 24  4  0  0  0  0
 20 21  4  0  0  0  0
 21 22  4  0  0  0  0
 22 23  4  0  0  0  0
 23 24  4  0  0  0  0
M  STY  1   1 DAT
M  SAL   1  1   1
M  SDT   1 MRV_IMPLICIT_H                                        
M  SDD   1     0.0000    0.0000    DR    ALL  0       0  
M  SED   1 IMPL_H1
M  END
>  <Name_Molregno>
166424

>  <DOPAMINE D2>
5.38

>  <DOPAMINE D3>
5.1

>  <DOPAMINE D4>
5.85

$$$$
166464
  Marvin  02231216192D 0   1.00000     0.00000     0

 24 27  0  0  0  0  0  0  0  0999 V2000
    1.0036   -0.3723    0.0000 N   0  0  0  0  0  0  0  0  0
    0.7486   -1.1569    0.0000 C   0  0  0  0  0  0  0  0  0
   -0.0764   -1.1569    0.0000 C   0  0  0  0  0  0  0  0  0
   -0.3313   -0.3723    0.0000 N   0  0  0  0  0  0  0  0  0
    0.3361    0.1126    0.0000 C   0  0  0  0  0  0  0  0  0
    0.3361    0.9376    0.0000 C   0  0  0  0  0  0  0  0  0
   -0.3783    1.3501    0.0000 C   0  0  0  0  0  0  0  0  0
   -0.3783    2.1751    0.0000 C   0  0  0  0  0  0  0  0  0
    0.3361    2.5876    0.0000 C   0  0  0  0  0  0  0  0  0
    1.0506    2.1751    0.0000 C   0  0  0  0  0  0  0  0  0
    1.0506    1.3501    0.0000 C   0  0  0  0  0  0  0  0  0
   -0.5613   -1.8244    0.0000 C   0  0  0  0  0  0  0  0  0
   -1.3818   -1.7381    0.0000 N   0  0  0  0  0  0  0  0  0
   -1.8667   -2.4056    0.0000 C   0  0  0  0  0  0  0  0  0
   -2.6872   -2.3193    0.0000 C   0  0  0  0  0  0  0  0  0
   -3.0227   -1.5657    0.0000 N   0  0  0  0  0  0  0  0  0
   -2.5378   -0.8982    0.0000 C   0  0  0  0  0  0  0  0  0
   -1.7173   -0.9845    0.0000 C   0  0  0  0  0  0  0  0  0
   -3.8432   -1.4794    0.0000 C   0  0  0  0  0  0  0  0  0
   -4.3281   -2.1469    0.0000 N   0  0  0  0  0  0  0  0  0
   -5.1486   -2.0606    0.0000 C   0  0  0  0  0  0  0  0  0
   -5.4842   -1.3070    0.0000 C   0  0  0  0  0  0  0  0  0
   -4.9992   -0.6395    0.0000 N   0  0  0  0  0  0  0  0  0
   -4.1788   -0.7257    0.0000 C   0  0  0  0  0  0  0  0  0
  1  2  4  0  0  0  0
  1  5  4  0  0  0  0
  2  3  4  0  0  0  0
  3  4  4  0  0  0  0
  3 12  1  0  0  0  0
  4  5  4  0  0  0  0
  5  6  1  0  0  0  0
  6  7  4  0  0  0  0
  6 11  4  0  0  0  0
  7  8  4  0  0  0  0
  8  9  4  0  0  0  0
  9 10  4  0  0  0  0
 10 11  4  0  0  0  0
 12 13  1  0  0  0  0
 13 14  1  0  0  0  0
 13 18  1  0  0  0  0
 14 15  1  0  0  0  0
 15 16  1  0  0  0  0
 16 17  1  0  0  0  0
 16 19  1  0  0  0  0
 17 18  1  0  0  0  0
 19 20  4  0  0  0  0
 19 24  4  0  0  0  0
 20 21  4  0  0  0  0
 21 22  4  0  0  0  0
 22 23  4  0  0  0  0
 23 24  4  0  0  0  0
M  STY  1   1 DAT
M  SAL   1  1   1
M  SDT   1 MRV_IMPLICIT_H                                        
M  SDD   1     0.0000    0.0000    DR    ALL  0       0  
M  SED   1 IMPL_H1
M  END
>  <Name_Molregno>
166464

>  <DOPAMINE D2>
5.38

>  <DOPAMINE D3>
5.18

>  <DOPAMINE D4>
7.3

$$$$
166465
  Marvin  02231216192D 0   1.00000     0.00000     0

 24 27  0  0  0  0  0  0  0  0999 V2000
    1.0036   -0.3723    0.0000 N   0  0  0  0  0  0  0  0  0
    0.7486   -1.1569    0.0000 C   0  0  0  0  0  0  0  0  0
   -0.0764   -1.1569    0.0000 C   0  0  0  0  0  0  0  0  0
   -0.3313   -0.3723    0.0000 N   0  0  0  0  0  0  0  0  0
    0.3361    0.1126    0.0000 C   0  0  0  0  0  0  0  0  0
    0.3361    0.9376    0.0000 C   0  0  0  0  0  0  0  0  0
   -0.3783    1.3501    0.0000 C   0  0  0  0  0  0  0  0  0
   -0.3783    2.1751    0.0000 C   0  0  0  0  0  0  0  0  0
    0.3361    2.5876    0.0000 C   0  0  0  0  0  0  0  0  0
    1.0506    2.1751    0.0000 C   0  0  0  0  0  0  0  0  0
    1.0506    1.3501    0.0000 C   0  0  0  0  0  0  0  0  0
   -0.5613   -1.8244    0.0000 C   0  0  0  0  0  0  0  0  0
   -1.3818   -1.7381    0.0000 N   0  0  0  0  0  0  0  0  0
   -1.8667   -2.4056    0.0000 C   0  0  0  0  0  0  0  0  0
   -2.6872   -2.3193    0.0000 C   0  0  0  0  0  0  0  0  0
   -3.0227   -1.5657    0.0000 N   0  0  0  0  0  0  0  0  0
   -2.5378   -0.8982    0.0000 C   0  0  0  0  0  0  0  0  0
   -1.7173   -0.9845    0.0000 C   0  0  0  0  0  0  0  0  0
   -3.8432   -1.4794    0.0000 C   0  0  0  0  0  0  0  0  0
   -4.3281   -2.1469    0.0000 C   0  0  0  0  0  0  0  0  0
   -5.1486   -2.0606    0.0000 C   0  0  0  0  0  0  0  0  0
   -5.4842   -1.3070    0.0000 N   0  0  0  0  0  0  0  0  0
   -4.9992   -0.6395    0.0000 C   0  0  0  0  0  0  0  0  0
   -4.1788   -0.7257    0.0000 C   0  0  0  0  0  0  0  0  0
  1  2  4  0  0  0  0
  1  5  4  0  0  0  0
  2  3  4  0  0  0  0
  3  4  4  0  0  0  0
  3 12  1  0  0  0  0
  4  5  4  0  0  0  0
  5  6  1  0  0  0  0
  6  7  4  0  0  0  0
  6 11  4  0  0  0  0
  7  8  4  0  0  0  0
  8  9  4  0  0  0  0
  9 10  4  0  0  0  0
 10 11  4  0  0  0  0
 12 13  1  0  0  0  0
 13 14  1  0  0  0  0
 13 18  1  0  0  0  0
 14 15  1  0  0  0  0
 15 16  1  0  0  0  0
 16 17  1  0  0  0  0
 16 19  1  0  0  0  0
 17 18  1  0  0  0  0
 19 20  4  0  0  0  0
 19 24  4  0  0  0  0
 20 21  4  0  0  0  0
 21 22  4  0  0  0  0
 22 23  4  0  0  0  0
 23 24  4  0  0  0  0
M  STY  2   1 DAT   2 DAT
M  SAL   1  1   1
M  SDT   1 MRV_IMPLICIT_H                                        
M  SDD   1     0.0000    0.0000    DR    ALL  0       0  
M  SED   1 IMPL_H1
M  SAL   2  1  22
M  SDT   2 MRV_IMPLICIT_H                                        
M  SDD   2     0.0000    0.0000    DR    ALL  0       0  
M  SED   2 IMPL_H1
M  END
>  <Name_Molregno>
166465

>  <DOPAMINE D2>
5.46

>  <DOPAMINE D3>
5.1

>  <DOPAMINE D4>
5.14

$$$$
166497
  Marvin  02231216192D 0   1.00000     0.00000     0

 24 27  0  0  0  0  0  0  0  0999 V2000
    1.0036   -0.3723    0.0000 N   0  0  0  0  0  0  0  0  0
    0.7486   -1.1569    0.0000 C   0  0  0  0  0  0  0  0  0
   -0.0764   -1.1569    0.0000 C   0  0  0  0  0  0  0  0  0
   -0.3313   -0.3723    0.0000 N   0  0  0  0  0  0  0  0  0
    0.3361    0.1126    0.0000 C   0  0  0  0  0  0  0  0  0
    0.3361    0.9376    0.0000 C   0  0  0  0  0  0  0  0  0
   -0.3783    1.3501    0.0000 C   0  0  0  0  0  0  0  0  0
   -0.3783    2.1751    0.0000 C   0  0  0  0  0  0  0  0  0
    0.3361    2.5876    0.0000 C   0  0  0  0  0  0  0  0  0
    1.0506    2.1751    0.0000 C   0  0  0  0  0  0  0  0  0
    1.0506    1.3501    0.0000 C   0  0  0  0  0  0  0  0  0
   -0.5613   -1.8244    0.0000 C   0  0  0  0  0  0  0  0  0
   -1.3818   -1.7381    0.0000 N   0  0  0  0  0  0  0  0  0
   -1.8667   -2.4056    0.0000 C   0  0  0  0  0  0  0  0  0
   -2.6872   -2.3193    0.0000 C   0  0  0  0  0  0  0  0  0
   -3.0227   -1.5657    0.0000 N   0  0  0  0  0  0  0  0  0
   -2.5378   -0.8982    0.0000 C   0  0  0  0  0  0  0  0  0
   -1.7173   -0.9845    0.0000 C   0  0  0  0  0  0  0  0  0
   -3.8432   -1.4794    0.0000 C   0  0  0  0  0  0  0  0  0
   -4.3281   -2.1469    0.0000 C   0  0  0  0  0  0  0  0  0
   -5.1486   -2.0606    0.0000 C   0  0  0  0  0  0  0  0  0
   -5.4842   -1.3070    0.0000 C   0  0  0  0  0  0  0  0  0
   -4.9992   -0.6395    0.0000 N   0  0  0  0  0  0  0  0  0
   -4.1788   -0.7257    0.0000 C   0  0  0  0  0  0  0  0  0
  1  2  4  0  0  0  0
  1  5  4  0  0  0  0
  2  3  4  0  0  0  0
  3  4  4  0  0  0  0
  3 12  1  0  0  0  0
  4  5  4  0  0  0  0
  5  6  1  0  0  0  0
  6  7  4  0  0  0  0
  6 11  4  0  0  0  0
  7  8  4  0  0  0  0
  8  9  4  0  0  0  0
  9 10  4  0  0  0  0
 10 11  4  0  0  0  0
 12 13  1  0  0  0  0
 13 14  1  0  0  0  0
 13 18  1  0  0  0  0
 14 15  1  0  0  0  0
 15 16  1  0  0  0  0
 16 17  1  0  0  0  0
 16 19  1  0  0  0  0
 17 18  1  0  0  0  0
 19 20  4  0  0  0  0
 19 24  4  0  0  0  0
 20 21  4  0  0  0  0
 21 22  4  0  0  0  0
 22 23  4  0  0  0  0
 23 24  4  0  0  0  0
M  STY  1   1 DAT
M  SAL   1  1   1
M  SDT   1 MRV_IMPLICIT_H                                        
M  SDD   1     0.0000    0.0000    DR    ALL  0       0  
M  SED   1 IMPL_H1
M  END
>  <Name_Molregno>
166497

>  <DOPAMINE D2>
6.53

>  <DOPAMINE D3>
6.54

>  <DOPAMINE D4>
7.14

$$$$
166538
  Marvin  02231216192D 0   1.00000     0.00000     0

 24 27  0  0  0  0  0  0  0  0999 V2000
    1.0036   -0.3723    0.0000 N   0  0  0  0  0  0  0  0  0
    0.7486   -1.1569    0.0000 C   0  0  0  0  0  0  0  0  0
   -0.0764   -1.1569    0.0000 C   0  0  0  0  0  0  0  0  0
   -0.3313   -0.3723    0.0000 N   0  0  0  0  0  0  0  0  0
    0.3361    0.1126    0.0000 C   0  0  0  0  0  0  0  0  0
    0.3361    0.9376    0.0000 C   0  0  0  0  0  0  0  0  0
   -0.3783    1.3501    0.0000 C   0  0  0  0  0  0  0  0  0
   -0.3783    2.1751    0.0000 C   0  0  0  0  0  0  0  0  0
    0.3361    2.5876    0.0000 C   0  0  0  0  0  0  0  0  0
    1.0506    2.1751    0.0000 C   0  0  0  0  0  0  0  0  0
    1.0506    1.3501    0.0000 C   0  0  0  0  0  0  0  0  0
   -0.5613   -1.8244    0.0000 C   0  0  0  0  0  0  0  0  0
   -1.3818   -1.7381    0.0000 N   0  0  0  0  0  0  0  0  0
   -1.8667   -2.4056    0.0000 C   0  0  0  0  0  0  0  0  0
   -2.6872   -2.3193    0.0000 C   0  0  0  0  0  0  0  0  0
   -3.0227   -1.5657    0.0000 N   0  0  0  0  0  0  0  0  0
   -2.5378   -0.8982    0.0000 C   0  0  0  0  0  0  0  0  0
   -1.7173   -0.9845    0.0000 C   0  0  0  0  0  0  0  0  0
   -3.8432   -1.4794    0.0000 C   0  0  0  0  0  0  0  0  0
   -4.3281   -2.1469    0.0000 N   0  0  0  0  0  0  0  0  0
   -5.1486   -2.0606    0.0000 C   0  0  0  0  0  0  0  0  0
   -5.4842   -1.3070    0.0000 C   0  0  0  0  0  0  0  0  0
   -4.9992   -0.6395    0.0000 C   0  0  0  0  0  0  0  0  0
   -4.1788   -0.7257    0.0000 C   0  0  0  0  0  0  0  0  0
  1  2  4  0  0  0  0
  1  5  4  0  0  0  0
  2  3  4  0  0  0  0
  3  4  4  0  0  0  0
  3 12  1  0  0  0  0
  4  5  4  0  0  0  0
  5  6  1  0  0  0  0
  6  7  4  0  0  0  0
  6 11  4  0  0  0  0
  7  8  4  0  0  0  0
  8  9  4  0  0  0  0
  9 10  4  0  0  0  0
 10 11  4  0  0  0  0
 12 13  1  0  0  0  0
 13 14  1  0  0  0  0
 13 18  1  0  0  0  0
 14 15  1  0  0  0  0
 15 16  1  0  0  0  0
 16 17  1  0  0  0  0
 16 19  1  0  0  0  0
 17 18  1  0  0  0  0
 19 20  4  0  0  0  0
 19 24  4  0  0  0  0
 20 21  4  0  0  0  0
 21 22  4  0  0  0  0
 22 23  4  0  0  0  0
 23 24  4  0  0  0  0
M  STY  1   1 DAT
M  SAL   1  1   1
M  SDT   1 MRV_IMPLICIT_H                                        
M  SDD   1     0.0000    0.0000    DR    ALL  0       0  
M  SED   1 IMPL_H1
M  END
>  <Name_Molregno>
166538

>  <DOPAMINE D2>
5.66

>  <DOPAMINE D3>
5.82

>  <DOPAMINE D4>
8.07

$$$$
167144
  Marvin  02231216192D 0   1.00000     0.00000     0

 24 27  0  0  0  0  0  0  0  0999 V2000
    1.0036   -0.3723    0.0000 N   0  0  0  0  0  0  0  0  0
    0.7486   -1.1569    0.0000 C   0  0  0  0  0  0  0  0  0
   -0.0764   -1.1569    0.0000 C   0  0  0  0  0  0  0  0  0
   -0.3313   -0.3723    0.0000 N   0  0  0  0  0  0  0  0  0
    0.3361    0.1126    0.0000 C   0  0  0  0  0  0  0  0  0
    0.3361    0.9376    0.0000 C   0  0  0  0  0  0  0  0  0
   -0.3783    1.3501    0.0000 C   0  0  0  0  0  0  0  0  0
   -0.3783    2.1751    0.0000 C   0  0  0  0  0  0  0  0  0
    0.3361    2.5876    0.0000 C   0  0  0  0  0  0  0  0  0
    1.0506    2.1751    0.0000 C   0  0  0  0  0  0  0  0  0
    1.0506    1.3501    0.0000 C   0  0  0  0  0  0  0  0  0
   -0.5613   -1.8244    0.0000 C   0  0  0  0  0  0  0  0  0
   -1.3818   -1.7381    0.0000 N   0  0  0  0  0  0  0  0  0
   -1.8667   -2.4056    0.0000 C   0  0  0  0  0  0  0  0  0
   -2.6872   -2.3193    0.0000 C   0  0  0  0  0  0  0  0  0
   -3.0227   -1.5657    0.0000 N   0  0  0  0  0  0  0  0  0
   -2.5378   -0.8982    0.0000 C   0  0  0  0  0  0  0  0  0
   -1.7173   -0.9845    0.0000 C   0  0  0  0  0  0  0  0  0
   -3.8432   -1.4794    0.0000 C   0  0  0  0  0  0  0  0  0
   -4.3281   -2.1469    0.0000 C   0  0  0  0  0  0  0  0  0
   -5.1486   -2.0606    0.0000 C   0  0  0  0  0  0  0  0  0
   -5.4842   -1.3070    0.0000 C   0  0  0  0  0  0  0  0  0
   -4.9992   -0.6395    0.0000 C   0  0  0  0  0  0  0  0  0
   -4.1788   -0.7257    0.0000 C   0  0  0  0  0  0  0  0  0
  1  2  4  0  0  0  0
  1  5  4  0  0  0  0
  2  3  4  0  0  0  0
  3  4  4  0  0  0  0
  3 12  1  0  0  0  0
  4  5  4  0  0  0  0
  5  6  1  0  0  0  0
  6  7  4  0  0  0  0
  6 11  4  0  0  0  0
  7  8  4  0  0  0  0
  8  9  4  0  0  0  0
  9 10  4  0  0  0  0
 10 11  4  0  0  0  0
 12 13  1  0  0  0  0
 13 14  1  0  0  0  0
 13 18  1  0  0  0  0
 14 15  1  0  0  0  0
 15 16  1  0  0  0  0
 16 17  1  0  0  0  0
 16 19  1  0  0  0  0
 17 18  1  0  0  0  0
 19 20  4  0  0  0  0
 19 24  4  0  0  0  0
 20 21  4  0  0  0  0
 21 22  4  0  0  0  0
 22 23  4  0  0  0  0
 23 24  4  0  0  0  0
M  STY  1   1 DAT
M  SAL   1  1   1
M  SDT   1 MRV_IMPLICIT_H                                        
M  SDD   1     0.0000    0.0000    DR    ALL  0       0  
M  SED   1 IMPL_H1
M  END
>  <Name_Molregno>
167144

>  <DOPAMINE D2>
6.6

>  <DOPAMINE D3>
6.71

>  <DOPAMINE D4>
8.28

$$$$
174434
  Marvin  02231216192D 0   1.00000     0.00000     0

 20 22  0  0  0  0  0  0  0  0999 V2000
    6.5563    3.8496    0.0000 O   0  0  0  0  0  0  0  0  0
    5.8418    3.4371    0.0000 C   0  0  0  0  0  0  0  0  0
    5.8418    2.6121    0.0000 C   0  0  0  0  0  0  0  0  0
    6.5093    2.1272    0.0000 C   0  0  0  0  0  0  0  0  0
    6.2543    1.3426    0.0000 C   0  0  0  0  0  0  0  0  0
    5.4293    1.3426    0.0000 N   0  0  0  0  0  0  0  0  0
    5.1744    2.1272    0.0000 C   0  0  0  0  0  0  0  0  0
    4.9444    0.6751    0.0000 C   0  0  0  0  0  0  0  0  0
    5.2800   -0.0785    0.0000 C   0  0  0  0  0  0  0  0  0
    4.7950   -0.7460    0.0000 C   0  0  0  0  0  0  0  0  0
    3.9746   -0.6597    0.0000 N   0  0  0  0  0  0  0  0  0
    3.6390    0.0939    0.0000 C   0  0  0  0  0  0  0  0  0
    4.1239    0.7614    0.0000 C   0  0  0  0  0  0  0  0  0
    3.4896   -1.3272    0.0000 C   0  0  0  0  0  0  0  0  0
    2.6691   -1.2409    0.0000 C   0  0  0  0  0  0  0  0  0
    2.1842   -1.9084    0.0000 C   0  0  0  0  0  0  0  0  0
    1.3637   -1.8221    0.0000 C   0  0  0  0  0  0  0  0  0
    1.0282   -1.0685    0.0000 C   0  0  0  0  0  0  0  0  0
    1.5131   -0.4010    0.0000 C   0  0  0  0  0  0  0  0  0
    2.3336   -0.4873    0.0000 C   0  0  0  0  0  0  0  0  0
  1  2  2  0  0  0  0
  2  3  1  0  0  0  0
  3  4  4  0  0  0  0
  3  7  4  0  0  0  0
  4  5  4  0  0  0  0
  5  6  4  0  0  0  0
  6  7  4  0  0  0  0
  6  8  1  0  0  0  0
  8  9  1  0  0  0  0
  8 13  1  0  0  0  0
  9 10  1  0  0  0  0
 10 11  1  0  0  0  0
 11 12  1  0  0  0  0
 11 14  1  0  0  0  0
 12 13  1  0  0  0  0
 14 15  1  0  0  0  0
 15 16  4  0  0  0  0
 15 20  4  0  0  0  0
 16 17  4  0  0  0  0
 17 18  4  0  0  0  0
 18 19  4  0  0  0  0
 19 20  4  0  0  0  0
M  END
>  <Name_Molregno>
174434

>  <DOPAMINE D2>
4.25

>  <DOPAMINE D3>
4.51

>  <DOPAMINE D4>
6.02

$$$$
174487
  Marvin  02231216192D 0   1.00000     0.00000     0

 20 22  0  0  0  0  0  0  0  0999 V2000
    1.3146   -2.3495    0.0000 N   0  0  0  0  0  0  0  0  0
    1.9820   -2.8344    0.0000 C   0  0  0  0  0  0  0  0  0
    1.7271   -3.6191    0.0000 C   0  0  0  0  0  0  0  0  0
    0.9021   -3.6191    0.0000 C   0  0  0  0  0  0  0  0  0
    0.6471   -2.8344    0.0000 C   0  0  0  0  0  0  0  0  0
   -0.1375   -2.5795    0.0000 C   0  0  0  0  0  0  0  0  0
   -0.9221   -2.3246    0.0000 C   0  0  0  0  0  0  0  0  0
    1.3146   -1.5245    0.0000 C   0  0  0  0  0  0  0  0  0
    0.6001   -1.1120    0.0000 C   0  0  0  0  0  0  0  0  0
    0.6001   -0.2870    0.0000 C   0  0  0  0  0  0  0  0  0
    1.3146    0.1255    0.0000 N   0  0  0  0  0  0  0  0  0
    2.0290   -0.2870    0.0000 C   0  0  0  0  0  0  0  0  0
    2.0290   -1.1120    0.0000 C   0  0  0  0  0  0  0  0  0
    1.3146    0.9505    0.0000 C   0  0  0  0  0  0  0  0  0
    2.0290    1.3630    0.0000 C   0  0  0  0  0  0  0  0  0
    2.0290    2.1880    0.0000 C   0  0  0  0  0  0  0  0  0
    2.7435    2.6005    0.0000 C   0  0  0  0  0  0  0  0  0
    3.4580    2.1880    0.0000 C   0  0  0  0  0  0  0  0  0
    3.4580    1.3630    0.0000 C   0  0  0  0  0  0  0  0  0
    2.7435    0.9505    0.0000 C   0  0  0  0  0  0  0  0  0
  1  2  4  0  0  0  0
  1  5  4  0  0  0  0
  1  8  1  0  0  0  0
  2  3  4  0  0  0  0
  3  4  4  0  0  0  0
  4  5  4  0  0  0  0
  5  6  1  0  0  0  0
  6  7  3  0  0  0  0
  8  9  1  0  0  0  0
  8 13  1  0  0  0  0
  9 10  1  0  0  0  0
 10 11  1  0  0  0  0
 11 12  1  0  0  0  0
 11 14  1  0  0  0  0
 12 13  1  0  0  0  0
 14 15  1  0  0  0  0
 15 16  4  0  0  0  0
 15 20  4  0  0  0  0
 16 17  4  0  0  0  0
 17 18  4  0  0  0  0
 18 19  4  0  0  0  0
 19 20  4  0  0  0  0
M  END
>  <Name_Molregno>
174487

>  <DOPAMINE D2>
5.19

>  <DOPAMINE D3>
5.1

>  <DOPAMINE D4>
6.03

$$$$
174513
  Marvin  02231216192D 0   1.00000     0.00000     0

 24 26  0  0  0  0  0  0  0  0999 V2000
   -0.6950   -1.9511    0.0000 N   0  0  0  0  0  0  0  0  0
   -0.0276   -2.4361    0.0000 C   0  0  0  0  0  0  0  0  0
   -0.2825   -3.2207    0.0000 C   0  0  0  0  0  0  0  0  0
   -1.1075   -3.2207    0.0000 C   0  0  0  0  0  0  0  0  0
   -1.3624   -2.4361    0.0000 C   0  0  0  0  0  0  0  0  0
   -2.1471   -2.1811    0.0000 C   0  0  0  0  0  0  0  0  0
   -2.7601   -2.7332    0.0000 C   0  0  0  0  0  0  0  0  0
   -2.5886   -3.5401    0.0000 C   0  0  0  0  0  0  0  0  0
   -2.4171   -4.3471    0.0000 N   0  0  0  0  0  0  0  0  0
   -3.5448   -2.4782    0.0000 C   0  0  0  0  0  0  0  0  0
   -4.3294   -2.2233    0.0000 N   0  0  0  0  0  0  0  0  0
   -0.6950   -1.1261    0.0000 C   0  0  0  0  0  0  0  0  0
   -1.4095   -0.7136    0.0000 C   0  0  0  0  0  0  0  0  0
   -1.4095    0.1114    0.0000 C   0  0  0  0  0  0  0  0  0
   -0.6950    0.5239    0.0000 N   0  0  0  0  0  0  0  0  0
    0.0195    0.1114    0.0000 C   0  0  0  0  0  0  0  0  0
    0.0195   -0.7136    0.0000 C   0  0  0  0  0  0  0  0  0
   -0.6950    1.3489    0.0000 C   0  0  0  0  0  0  0  0  0
    0.0195    1.7614    0.0000 C   0  0  0  0  0  0  0  0  0
    0.0195    2.5864    0.0000 C   0  0  0  0  0  0  0  0  0
    0.7340    2.9989    0.0000 C   0  0  0  0  0  0  0  0  0
    1.4484    2.5864    0.0000 C   0  0  0  0  0  0  0  0  0
    1.4484    1.7614    0.0000 C   0  0  0  0  0  0  0  0  0
    0.7340    1.3489    0.0000 C   0  0  0  0  0  0  0  0  0
  1  2  4  0  0  0  0
  1  5  4  0  0  0  0
  1 12  1  0  0  0  0
  2  3  4  0  0  0  0
  3  4  4  0  0  0  0
  4  5  4  0  0  0  0
  5  6  1  0  0  0  0
  6  7  2  0  0  0  0
  7  8  1  0  0  0  0
  7 10  1  0  0  0  0
  8  9  3  0  0  0  0
 10 11  3  0  0  0  0
 12 13  1  0  0  0  0
 12 17  1  0  0  0  0
 13 14  1  0  0  0  0
 14 15  1  0  0  0  0
 15 16  1  0  0  0  0
 15 18  1  0  0  0  0
 16 17  1  0  0  0  0
 18 19  1  0  0  0  0
 19 20  4  0  0  0  0
 19 24  4  0  0  0  0
 20 21  4  0  0  0  0
 21 22  4  0  0  0  0
 22 23  4  0  0  0  0
 23 24  4  0  0  0  0
M  END
>  <Name_Molregno>
174513

>  <DOPAMINE D2>
5.04

>  <DOPAMINE D3>
5.29

>  <DOPAMINE D4>
6.55

$$$$
174514
  Marvin  02231216192D 0   1.00000     0.00000     0

 19 21  0  0  0  0  0  0  0  0999 V2000
    0.0969    0.5128    0.0000 I   0  0  0  0  0  0  0  0  0
    0.0969   -0.3122    0.0000 C   0  0  0  0  0  0  0  0  0
    0.7643   -0.7971    0.0000 N   0  0  0  0  0  0  0  0  0
    0.5094   -1.5818    0.0000 C   0  0  0  0  0  0  0  0  0
   -0.3156   -1.5818    0.0000 C   0  0  0  0  0  0  0  0  0
   -0.5706   -0.7971    0.0000 C   0  0  0  0  0  0  0  0  0
    1.5489   -0.5422    0.0000 C   0  0  0  0  0  0  0  0  0
    1.7204    0.2648    0.0000 C   0  0  0  0  0  0  0  0  0
    2.5051    0.5197    0.0000 C   0  0  0  0  0  0  0  0  0
    3.1182   -0.0323    0.0000 N   0  0  0  0  0  0  0  0  0
    2.9466   -0.8393    0.0000 C   0  0  0  0  0  0  0  0  0
    2.1620   -1.0942    0.0000 C   0  0  0  0  0  0  0  0  0
    3.9028    0.2226    0.0000 C   0  0  0  0  0  0  0  0  0
    4.5159   -0.3294    0.0000 C   0  0  0  0  0  0  0  0  0
    5.3005   -0.0745    0.0000 C   0  0  0  0  0  0  0  0  0
    5.9136   -0.6265    0.0000 C   0  0  0  0  0  0  0  0  0
    5.7421   -1.4335    0.0000 C   0  0  0  0  0  0  0  0  0
    4.9574   -1.6884    0.0000 C   0  0  0  0  0  0  0  0  0
    4.3443   -1.1364    0.0000 C   0  0  0  0  0  0  0  0  0
  1  2  1  0  0  0  0
  2  3  4  0  0  0  0
  2  6  4  0  0  0  0
  3  4  4  0  0  0  0
  3  7  1  0  0  0  0
  4  5  4  0  0  0  0
  5  6  4  0  0  0  0
  7  8  1  0  0  0  0
  7 12  1  0  0  0  0
  8  9  1  0  0  0  0
  9 10  1  0  0  0  0
 10 11  1  0  0  0  0
 10 13  1  0  0  0  0
 11 12  1  0  0  0  0
 13 14  1  0  0  0  0
 14 15  4  0  0  0  0
 14 19  4  0  0  0  0
 15 16  4  0  0  0  0
 16 17  4  0  0  0  0
 17 18  4  0  0  0  0
 18 19  4  0  0  0  0
M  END
>  <Name_Molregno>
174514

>  <DOPAMINE D2>
5.18

>  <DOPAMINE D3>
5.59

>  <DOPAMINE D4>
5.82

$$$$
174531
  Marvin  02231216192D 0   1.00000     0.00000     0

 26 29  0  0  0  0  0  0  0  0999 V2000
   -0.1857   -2.7257    0.0000 N   0  0  0  0  0  0  0  0  0
    0.4817   -3.2107    0.0000 C   0  0  0  0  0  0  0  0  0
    0.2268   -3.9953    0.0000 C   0  0  0  0  0  0  0  0  0
   -0.5982   -3.9953    0.0000 C   0  0  0  0  0  0  0  0  0
   -0.8531   -3.2107    0.0000 C   0  0  0  0  0  0  0  0  0
   -1.6378   -2.9557    0.0000 C   0  0  0  0  0  0  0  0  0
   -2.4224   -2.7008    0.0000 C   0  0  0  0  0  0  0  0  0
   -3.2070   -2.4458    0.0000 C   0  0  0  0  0  0  0  0  0
   -3.8201   -2.9979    0.0000 C   0  0  0  0  0  0  0  0  0
   -4.6047   -2.7429    0.0000 C   0  0  0  0  0  0  0  0  0
   -4.7762   -1.9360    0.0000 C   0  0  0  0  0  0  0  0  0
   -4.1631   -1.3839    0.0000 C   0  0  0  0  0  0  0  0  0
   -3.3785   -1.6389    0.0000 C   0  0  0  0  0  0  0  0  0
   -0.1857   -1.9007    0.0000 C   0  0  0  0  0  0  0  0  0
   -0.9002   -1.4882    0.0000 C   0  0  0  0  0  0  0  0  0
   -0.9002   -0.6632    0.0000 C   0  0  0  0  0  0  0  0  0
   -0.1857   -0.2507    0.0000 N   0  0  0  0  0  0  0  0  0
    0.5288   -0.6632    0.0000 C   0  0  0  0  0  0  0  0  0
    0.5288   -1.4882    0.0000 C   0  0  0  0  0  0  0  0  0
   -0.1857    0.5743    0.0000 C   0  0  0  0  0  0  0  0  0
    0.5288    0.9868    0.0000 C   0  0  0  0  0  0  0  0  0
    0.5288    1.8118    0.0000 C   0  0  0  0  0  0  0  0  0
    1.2433    2.2243    0.0000 C   0  0  0  0  0  0  0  0  0
    1.9577    1.8118    0.0000 C   0  0  0  0  0  0  0  0  0
    1.9577    0.9868    0.0000 C   0  0  0  0  0  0  0  0  0
    1.2433    0.5743    0.0000 C   0  0  0  0  0  0  0  0  0
  1  2  4  0  0  0  0
  1  5  4  0  0  0  0
  1 14  1  0  0  0  0
  2  3  4  0  0  0  0
  3  4  4  0  0  0  0
  4  5  4  0  0  0  0
  5  6  1  0  0  0  0
  6  7  3  0  0  0  0
  7  8  1  0  0  0  0
  8  9  4  0  0  0  0
  8 13  4  0  0  0  0
  9 10  4  0  0  0  0
 10 11  4  0  0  0  0
 11 12  4  0  0  0  0
 12 13  4  0  0  0  0
 14 15  1  0  0  0  0
 14 19  1  0  0  0  0
 15 16  1  0  0  0  0
 16 17  1  0  0  0  0
 17 18  1  0  0  0  0
 17 20  1  0  0  0  0
 18 19  1  0  0  0  0
 20 21  1  0  0  0  0
 21 22  4  0  0  0  0
 21 26  4  0  0  0  0
 22 23  4  0  0  0  0
 23 24  4  0  0  0  0
 24 25  4  0  0  0  0
 25 26  4  0  0  0  0
M  END
>  <Name_Molregno>
174531

>  <DOPAMINE D2>
5.04

>  <DOPAMINE D3>
5.06

>  <DOPAMINE D4>
5.48

$$$$
174532
  Marvin  02231216192D 0   1.00000     0.00000     0

 23 26  0  0  0  0  0  0  0  0999 V2000
    5.6522   -1.2992    0.0000 O   0  0  0  0  0  0  0  0  0
    5.3973   -2.0838    0.0000 C   0  0  0  0  0  0  0  0  0
    4.5723   -2.0838    0.0000 N   0  0  0  0  0  0  0  0  0
    4.3173   -1.2992    0.0000 C   0  0  0  0  0  0  0  0  0
    4.9848   -0.8143    0.0000 C   0  0  0  0  0  0  0  0  0
    4.9848    0.0107    0.0000 C   0  0  0  0  0  0  0  0  0
    4.3173    0.4956    0.0000 N   0  0  0  0  0  0  0  0  0
    4.5723    1.2802    0.0000 C   0  0  0  0  0  0  0  0  0
    5.3973    1.2802    0.0000 C   0  0  0  0  0  0  0  0  0
    5.6522    0.4956    0.0000 C   0  0  0  0  0  0  0  0  0
    3.5327    0.2407    0.0000 C   0  0  0  0  0  0  0  0  0
    3.3612   -0.5663    0.0000 C   0  0  0  0  0  0  0  0  0
    2.5766   -0.8212    0.0000 C   0  0  0  0  0  0  0  0  0
    1.9635   -0.2692    0.0000 N   0  0  0  0  0  0  0  0  0
    2.1350    0.5378    0.0000 C   0  0  0  0  0  0  0  0  0
    2.9196    0.7927    0.0000 C   0  0  0  0  0  0  0  0  0
    1.1788   -0.5241    0.0000 C   0  0  0  0  0  0  0  0  0
    0.5658    0.0279    0.0000 C   0  0  0  0  0  0  0  0  0
   -0.2189   -0.2270    0.0000 C   0  0  0  0  0  0  0  0  0
   -0.8320    0.3250    0.0000 C   0  0  0  0  0  0  0  0  0
   -0.6604    1.1320    0.0000 C   0  0  0  0  0  0  0  0  0
    0.1242    1.3869    0.0000 C   0  0  0  0  0  0  0  0  0
    0.7373    0.8349    0.0000 C   0  0  0  0  0  0  0  0  0
  1  2  4  0  0  0  0
  1  5  4  0  0  0  0
  2  3  4  0  0  0  0
  3  4  4  0  0  0  0
  4  5  4  0  0  0  0
  5  6  1  0  0  0  0
  6  7  4  0  0  0  0
  6 10  4  0  0  0  0
  7  8  4  0  0  0  0
  7 11  1  0  0  0  0
  8  9  4  0  0  0  0
  9 10  4  0  0  0  0
 11 12  1  0  0  0  0
 11 16  1  0  0  0  0
 12 13  1  0  0  0  0
 13 14  1  0  0  0  0
 14 15  1  0  0  0  0
 14 17  1  0  0  0  0
 15 16  1  0  0  0  0
 17 18  1  0  0  0  0
 18 19  4  0  0  0  0
 18 23  4  0  0  0  0
 19 20  4  0  0  0  0
 20 21  4  0  0  0  0
 21 22  4  0  0  0  0
 22 23  4  0  0  0  0
M  END
>  <Name_Molregno>
174532

>  <DOPAMINE D2>
6.35

>  <DOPAMINE D3>
6.11

>  <DOPAMINE D4>
7.2

$$$$
174562
  Marvin  02231216192D 0   1.00000     0.00000     0

 20 22  0  0  0  0  0  0  0  0999 V2000
    0.1068    2.3658    0.0000 O   0  0  0  0  0  0  0  0  0
    0.8213    1.9533    0.0000 C   0  0  0  0  0  0  0  0  0
    0.8213    1.1283    0.0000 C   0  0  0  0  0  0  0  0  0
    1.4887    0.6434    0.0000 N   0  0  0  0  0  0  0  0  0
    1.2338   -0.1413    0.0000 C   0  0  0  0  0  0  0  0  0
    0.4088   -0.1413    0.0000 C   0  0  0  0  0  0  0  0  0
    0.1538    0.6434    0.0000 C   0  0  0  0  0  0  0  0  0
    2.2733    0.8983    0.0000 C   0  0  0  0  0  0  0  0  0
    2.4449    1.7053    0.0000 C   0  0  0  0  0  0  0  0  0
    3.2295    1.9602    0.0000 C   0  0  0  0  0  0  0  0  0
    3.8426    1.4082    0.0000 N   0  0  0  0  0  0  0  0  0
    3.6710    0.6012    0.0000 C   0  0  0  0  0  0  0  0  0
    2.8864    0.3463    0.0000 C   0  0  0  0  0  0  0  0  0
    4.6272    1.6631    0.0000 C   0  0  0  0  0  0  0  0  0
    5.2403    1.1111    0.0000 C   0  0  0  0  0  0  0  0  0
    6.0249    1.3660    0.0000 C   0  0  0  0  0  0  0  0  0
    6.6380    0.8140    0.0000 C   0  0  0  0  0  0  0  0  0
    6.4665    0.0070    0.0000 C   0  0  0  0  0  0  0  0  0
    5.6819   -0.2479    0.0000 C   0  0  0  0  0  0  0  0  0
    5.0688    0.3041    0.0000 C   0  0  0  0  0  0  0  0  0
  1  2  2  0  0  0  0
  2  3  1  0  0  0  0
  3  4  4  0  0  0  0
  3  7  4  0  0  0  0
  4  5  4  0  0  0  0
  4  8  1  0  0  0  0
  5  6  4  0  0  0  0
  6  7  4  0  0  0  0
  8  9  1  0  0  0  0
  8 13  1  0  0  0  0
  9 10  1  0  0  0  0
 10 11  1  0  0  0  0
 11 12  1  0  0  0  0
 11 14  1  0  0  0  0
 12 13  1  0  0  0  0
 14 15  1  0  0  0  0
 15 16  4  0  0  0  0
 15 20  4  0  0  0  0
 16 17  4  0  0  0  0
 17 18  4  0  0  0  0
 18 19  4  0  0  0  0
 19 20  4  0  0  0  0
M  END
>  <Name_Molregno>
174562

>  <DOPAMINE D2>
5.84

>  <DOPAMINE D3>
5.6

>  <DOPAMINE D4>
6.7

$$$$
174566
  Marvin  02231216192D 0   1.00000     0.00000     0

 24 26  0  0  0  0  0  0  0  0999 V2000
   -1.1493   -0.9433    0.0000 N   0  0  0  0  0  0  0  0  0
   -0.4818   -1.4283    0.0000 C   0  0  0  0  0  0  0  0  0
   -0.7368   -2.2129    0.0000 C   0  0  0  0  0  0  0  0  0
   -1.5618   -2.2129    0.0000 C   0  0  0  0  0  0  0  0  0
   -1.8167   -1.4283    0.0000 C   0  0  0  0  0  0  0  0  0
   -0.2518   -2.8803    0.0000 C   0  0  0  0  0  0  0  0  0
   -0.5874   -3.6340    0.0000 C   0  0  0  0  0  0  0  0  0
   -0.1025   -4.3014    0.0000 C   0  0  0  0  0  0  0  0  0
    0.3824   -4.9689    0.0000 N   0  0  0  0  0  0  0  0  0
   -1.4079   -3.7202    0.0000 C   0  0  0  0  0  0  0  0  0
   -2.2284   -3.8065    0.0000 N   0  0  0  0  0  0  0  0  0
   -1.1493   -0.1183    0.0000 C   0  0  0  0  0  0  0  0  0
   -1.8637    0.2942    0.0000 C   0  0  0  0  0  0  0  0  0
   -1.8637    1.1192    0.0000 C   0  0  0  0  0  0  0  0  0
   -1.1493    1.5317    0.0000 N   0  0  0  0  0  0  0  0  0
   -0.4348    1.1192    0.0000 C   0  0  0  0  0  0  0  0  0
   -0.4348    0.2942    0.0000 C   0  0  0  0  0  0  0  0  0
   -1.1493    2.3567    0.0000 C   0  0  0  0  0  0  0  0  0
   -0.4348    2.7692    0.0000 C   0  0  0  0  0  0  0  0  0
   -0.4348    3.5942    0.0000 C   0  0  0  0  0  0  0  0  0
    0.2797    4.0067    0.0000 C   0  0  0  0  0  0  0  0  0
    0.9941    3.5942    0.0000 C   0  0  0  0  0  0  0  0  0
    0.9941    2.7692    0.0000 C   0  0  0  0  0  0  0  0  0
    0.2797    2.3567    0.0000 C   0  0  0  0  0  0  0  0  0
  1  2  4  0  0  0  0
  1  5  4  0  0  0  0
  1 12  1  0  0  0  0
  2  3  4  0  0  0  0
  3  4  4  0  0  0  0
  3  6  1  0  0  0  0
  4  5  4  0  0  0  0
  6  7  2  0  0  0  0
  7  8  1  0  0  0  0
  7 10  1  0  0  0  0
  8  9  3  0  0  0  0
 10 11  3  0  0  0  0
 12 13  1  0  0  0  0
 12 17  1  0  0  0  0
 13 14  1  0  0  0  0
 14 15  1  0  0  0  0
 15 16  1  0  0  0  0
 15 18  1  0  0  0  0
 16 17  1  0  0  0  0
 18 19  1  0  0  0  0
 19 20  4  0  0  0  0
 19 24  4  0  0  0  0
 20 21  4  0  0  0  0
 21 22  4  0  0  0  0
 22 23  4  0  0  0  0
 23 24  4  0  0  0  0
M  END
>  <Name_Molregno>
174566

>  <DOPAMINE D2>
4.81

>  <DOPAMINE D3>
5.15

>  <DOPAMINE D4>
6.64

$$$$
174594
  Marvin  02231216192D 0   1.00000     0.00000     0

 23 26  0  0  0  0  0  0  0  0999 V2000
    2.3802   -3.7897    0.0000 O   0  0  0  0  0  0  0  0  0
    2.1252   -4.5743    0.0000 C   0  0  0  0  0  0  0  0  0
    1.3002   -4.5743    0.0000 N   0  0  0  0  0  0  0  0  0
    1.0453   -3.7897    0.0000 C   0  0  0  0  0  0  0  0  0
    1.7127   -3.3047    0.0000 C   0  0  0  0  0  0  0  0  0
    1.7127   -2.4797    0.0000 C   0  0  0  0  0  0  0  0  0
    1.0453   -1.9948    0.0000 C   0  0  0  0  0  0  0  0  0
    1.3002   -1.2102    0.0000 C   0  0  0  0  0  0  0  0  0
    2.1252   -1.2102    0.0000 N   0  0  0  0  0  0  0  0  0
    2.3802   -1.9948    0.0000 C   0  0  0  0  0  0  0  0  0
    2.6102   -0.5428    0.0000 C   0  0  0  0  0  0  0  0  0
    2.2746    0.2109    0.0000 C   0  0  0  0  0  0  0  0  0
    2.7595    0.8784    0.0000 C   0  0  0  0  0  0  0  0  0
    3.5800    0.7921    0.0000 N   0  0  0  0  0  0  0  0  0
    3.9156    0.0384    0.0000 C   0  0  0  0  0  0  0  0  0
    3.4306   -0.6290    0.0000 C   0  0  0  0  0  0  0  0  0
    4.0649    1.4596    0.0000 C   0  0  0  0  0  0  0  0  0
    4.8854    1.3733    0.0000 C   0  0  0  0  0  0  0  0  0
    5.3703    2.0408    0.0000 C   0  0  0  0  0  0  0  0  0
    6.1908    1.9545    0.0000 C   0  0  0  0  0  0  0  0  0
    6.5264    1.2009    0.0000 C   0  0  0  0  0  0  0  0  0
    6.0415    0.5334    0.0000 C   0  0  0  0  0  0  0  0  0
    5.2210    0.6197    0.0000 C   0  0  0  0  0  0  0  0  0
  1  2  4  0  0  0  0
  1  5  4  0  0  0  0
  2  3  4  0  0  0  0
  3  4  4  0  0  0  0
  4  5  4  0  0  0  0
  5  6  1  0  0  0  0
  6  7  4  0  0  0  0
  6 10  4  0  0  0  0
  7  8  4  0  0  0  0
  8  9  4  0  0  0  0
  9 10  4  0  0  0  0
  9 11  1  0  0  0  0
 11 12  1  0  0  0  0
 11 16  1  0  0  0  0
 12 13  1  0  0  0  0
 13 14  1  0  0  0  0
 14 15  1  0  0  0  0
 14 17  1  0  0  0  0
 15 16  1  0  0  0  0
 17 18  1  0  0  0  0
 18 19  4  0  0  0  0
 18 23  4  0  0  0  0
 19 20  4  0  0  0  0
 20 21  4  0  0  0  0
 21 22  4  0  0  0  0
 22 23  4  0  0  0  0
M  END
>  <Name_Molregno>
174594

>  <DOPAMINE D2>
5.48

>  <DOPAMINE D3>
5.17

>  <DOPAMINE D4>
6.89

$$$$
174616
  Marvin  02231216192D 0   1.00000     0.00000     0

 18 20  0  0  0  0  0  0  0  0999 V2000
   -2.3255   -1.3945    0.0000 N   0  0  0  0  0  0  0  0  0
   -1.6581   -1.8794    0.0000 C   0  0  0  0  0  0  0  0  0
   -1.9130   -2.6641    0.0000 C   0  0  0  0  0  0  0  0  0
   -2.7380   -2.6641    0.0000 C   0  0  0  0  0  0  0  0  0
   -2.9929   -1.8794    0.0000 C   0  0  0  0  0  0  0  0  0
   -2.3255   -0.5695    0.0000 C   0  0  0  0  0  0  0  0  0
   -3.0400   -0.1570    0.0000 C   0  0  0  0  0  0  0  0  0
   -3.0400    0.6680    0.0000 C   0  0  0  0  0  0  0  0  0
   -2.3255    1.0805    0.0000 N   0  0  0  0  0  0  0  0  0
   -1.6110    0.6680    0.0000 C   0  0  0  0  0  0  0  0  0
   -1.6110   -0.1570    0.0000 C   0  0  0  0  0  0  0  0  0
   -2.3255    1.9055    0.0000 C   0  0  0  0  0  0  0  0  0
   -1.6110    2.3180    0.0000 C   0  0  0  0  0  0  0  0  0
   -1.6110    3.1430    0.0000 C   0  0  0  0  0  0  0  0  0
   -0.8966    3.5555    0.0000 C   0  0  0  0  0  0  0  0  0
   -0.1821    3.1430    0.0000 C   0  0  0  0  0  0  0  0  0
   -0.1821    2.3180    0.0000 C   0  0  0  0  0  0  0  0  0
   -0.8966    1.9055    0.0000 C   0  0  0  0  0  0  0  0  0
  1  2  4  0  0  0  0
  1  5  4  0  0  0  0
  1  6  1  0  0  0  0
  2  3  4  0  0  0  0
  3  4  4  0  0  0  0
  4  5  4  0  0  0  0
  6  7  1  0  0  0  0
  6 11  1  0  0  0  0
  7  8  1  0  0  0  0
  8  9  1  0  0  0  0
  9 10  1  0  0  0  0
  9 12  1  0  0  0  0
 10 11  1  0  0  0  0
 12 13  1  0  0  0  0
 13 14  4  0  0  0  0
 13 18  4  0  0  0  0
 14 15  4  0  0  0  0
 15 16  4  0  0  0  0
 16 17  4  0  0  0  0
 17 18  4  0  0  0  0
M  END
>  <Name_Molregno>
174616

>  <DOPAMINE D2>
5.04

>  <DOPAMINE D3>
4.82

>  <DOPAMINE D4>
5.96

$$$$
178068
  Marvin  02231216192D 0   1.00000     0.00000     0

 32 35  0  0  0  0  0  0  0  0999 V2000
    3.7835    3.5848    0.0000 O   0  0  0  0  0  0  0  0  0
    3.0690    3.9973    0.0000 C   0  0  0  0  0  0  0  0  0
    3.7835    2.7598    0.0000 C   0  0  0  0  0  0  0  0  0
    4.4980    2.3473    0.0000 C   0  0  0  0  0  0  0  0  0
    4.4980    1.5223    0.0000 C   0  0  0  0  0  0  0  0  0
    3.7835    1.1098    0.0000 C   0  0  0  0  0  0  0  0  0
    3.7835    0.2848    0.0000 N   0  0  0  0  0  0  0  0  0
    4.4980   -0.1277    0.0000 C   0  0  0  0  0  0  0  0  0
    5.2124    0.2848    0.0000 O   0  0  0  0  0  0  0  0  0
    4.4980   -0.9527    0.0000 N   0  0  0  0  0  0  0  0  0
    5.2124   -1.3652    0.0000 C   0  0  0  0  0  0  0  0  0
    5.2124   -2.1902    0.0000 C   0  0  0  0  0  0  0  0  0
    4.4980   -2.6027    0.0000 N   0  0  0  0  0  0  0  0  0
    3.7835   -2.1902    0.0000 C   0  0  0  0  0  0  0  0  0
    3.7835   -1.3652    0.0000 C   0  0  0  0  0  0  0  0  0
    4.4980   -3.4277    0.0000 C   0  0  0  0  0  0  0  0  0
    5.2124   -3.8402    0.0000 C   0  0  0  0  0  0  0  0  0
    5.2124   -4.6652    0.0000 C   0  0  0  0  0  0  0  0  0
    4.4980   -5.0777    0.0000 C   0  0  0  0  0  0  0  0  0
    3.7835   -4.6652    0.0000 C   0  0  0  0  0  0  0  0  0
    3.7835   -3.8402    0.0000 C   0  0  0  0  0  0  0  0  0
    3.0690   -3.4277    0.0000 O   0  0  0  0  0  0  0  0  0
    2.3546   -3.8402    0.0000 C   0  0  0  0  0  0  0  0  0
    3.0690    1.5223    0.0000 C   0  0  0  0  0  0  0  0  0
    3.0690    2.3473    0.0000 C   0  0  0  0  0  0  0  0  0
    2.3546    2.7598    0.0000 N   0  0  0  0  0  0  0  0  0
    1.6401    2.3473    0.0000 C   0  0  0  0  0  0  0  0  0
    0.9256    2.7598    0.0000 C   0  0  0  0  0  0  0  0  0
    0.9256    3.5848    0.0000 N   0  0  0  0  0  0  0  0  0
    1.6401    3.9973    0.0000 C   0  0  0  0  0  0  0  0  0
    2.3546    3.5848    0.0000 C   0  0  0  0  0  0  0  0  0
    0.2111    3.9973    0.0000 C   0  0  0  0  0  0  0  0  0
  1  2  1  0  0  0  0
  1  3  1  0  0  0  0
  3  4  4  0  0  0  0
  3 25  4  0  0  0  0
  4  5  4  0  0  0  0
  5  6  4  0  0  0  0
  6  7  1  0  0  0  0
  6 24  4  0  0  0  0
  7  8  1  0  0  0  0
  8  9  2  0  0  0  0
  8 10  1  0  0  0  0
 10 11  1  0  0  0  0
 10 15  1  0  0  0  0
 11 12  1  0  0  0  0
 12 13  1  0  0  0  0
 13 14  1  0  0  0  0
 13 16  1  0  0  0  0
 14 15  1  0  0  0  0
 16 17  4  0  0  0  0
 16 21  4  0  0  0  0
 17 18  4  0  0  0  0
 18 19  4  0  0  0  0
 19 20  4  0  0  0  0
 20 21  4  0  0  0  0
 21 22  1  0  0  0  0
 22 23  1  0  0  0  0
 24 25  4  0  0  0  0
 25 26  1  0  0  0  0
 26 27  1  0  0  0  0
 26 31  1  0  0  0  0
 27 28  1  0  0  0  0
 28 29  1  0  0  0  0
 29 30  1  0  0  0  0
 29 32  1  0  0  0  0
 30 31  1  0  0  0  0
M  END
>  <Name_Molregno>
178068

>  <5-HT1A>
6.17

>  <5-HT1B>
8.44

>  <5-HT1D>
7.02

>  <5-HT2A>
5.17

>  <5-HT2C>
5.71

>  <5-HT6>
5.62

>  <5-HT7>
5.85

>  <DOPAMINE D1>
5

>  <DOPAMINE D2>
5

>  <DOPAMINE D3>
5

>  <DOPAMINE D4>
5

>  <DOPAMINE D5>
5

>  <HISTAMINE H1>
5

>  <Muscarinic acetylcholine receptor M1>
5

>  <Muscarinic acetylcholine receptor M2>
5

>  <Muscarinic acetylcholine receptor M3>
5

>  <Muscarinic acetylcholine receptor M4>
5

>  <Muscarinic acetylcholine receptor M5>
5

$$$$
178194
  Marvin  02231216192D 0   1.00000     0.00000     0

 17 18  0  0  1  0  0  0  0  0999 V2000
    1.5848    5.4307    0.0000 N   0  0  0  0  0  0  0  0  0
    1.5848    4.6057    0.0000 C   0  0  0  0  0  0  0  0  0
    1.5848    3.7807    0.0000 C   0  0  0  0  0  0  0  0  0
    2.2992    3.3682    0.0000 C   0  0  0  0  0  0  0  0  0
    2.2992    2.5432    0.0000 C   0  0  0  0  0  0  0  0  0
    1.5848    2.1307    0.0000 C   0  0  0  0  0  0  0  0  0
    0.8703    2.5432    0.0000 C   0  0  0  0  0  0  0  0  0
    0.8703    3.3682    0.0000 C   0  0  0  0  0  0  0  0  0
    3.0137    2.1307    0.0000 C   0  0  0  0  0  0  0  0  0
    3.7282    2.5432    0.0000 C   0  0  0  0  0  0  0  0  0
    4.4427    2.1307    0.0000 C   0  0  0  0  0  0  0  0  0
    4.4427    1.3057    0.0000 C   0  0  0  0  0  0  0  0  0
    3.7282    0.8932    0.0000 N   0  0  0  0  0  0  0  0  0
    3.0137    1.3057    0.0000 C   0  0  0  0  0  0  0  0  0
    3.7282    0.0682    0.0000 C   0  0  0  0  0  0  0  0  0
    3.0137   -0.3443    0.0000 C   0  0  0  0  0  0  0  0  0
    3.0137   -1.1693    0.0000 C   0  0  0  0  0  0  0  0  0
  1  2  3  0  0  0  0
  2  3  1  0  0  0  0
  3  4  4  0  0  0  0
  3  8  4  0  0  0  0
  4  5  4  0  0  0  0
  5  6  4  0  0  0  0
  5  9  1  0  0  0  0
  6  7  4  0  0  0  0
  7  8  4  0  0  0  0
  9 10  1  0  0  0  0
  9 14  1  0  0  0  0
 10 11  1  0  0  0  0
 11 12  1  0  0  0  0
 12 13  1  0  0  0  0
 13 14  1  0  0  0  0
 13 15  1  0  0  0  0
 15 16  1  0  0  0  0
 16 17  1  0  0  0  0
M  END
>  <Name_Molregno>
178194

>  <DOPAMINE D3>
6.22

>  <DOPAMINE D4>
6.03

$$$$
199111
  Marvin  02231216192D 0   1.00000     0.00000     0

 14 15  0  0  1  0  0  0  0  0999 V2000
   -0.1663    0.8600    0.0000 N   0  0  0  0  0  0  0  0  0
    0.5482    0.4475    0.0000 C   0  0  0  0  0  0  0  0  0
    1.2627    0.8600    0.0000 C   0  0  0  0  0  0  0  0  0
    1.2627    1.6850    0.0000 C   0  0  0  0  0  0  0  0  0
    1.9771    2.0975    0.0000 C   0  0  0  0  0  0  0  0  0
    2.6916    1.6850    0.0000 C   0  0  0  0  0  0  0  0  0
    2.6916    0.8600    0.0000 C   0  0  0  0  0  0  0  0  0
    1.9771    0.4475    0.0000 C   0  0  0  0  0  0  0  0  0
    1.9771   -0.3775    0.0000 N   0  0  0  0  0  0  0  0  0
    2.6916   -0.7900    0.0000 C   0  0  0  0  0  0  0  0  0
    2.6916   -1.6150    0.0000 C   0  0  0  0  0  0  0  0  0
    1.2627   -0.7900    0.0000 C   0  0  0  0  0  0  0  0  0
    0.5482    2.0975    0.0000 C   0  0  0  0  0  0  0  0  0
   -0.1663    1.6850    0.0000 C   0  0  0  0  0  0  0  0  0
  1  2  4  0  0  0  0
  1 14  4  0  0  0  0
  2  3  4  0  0  0  0
  3  4  4  0  0  0  0
  3  8  1  0  0  0  0
  4  5  1  0  0  0  0
  4 13  4  0  0  0  0
  5  6  1  0  0  0  0
  6  7  1  0  0  0  0
  7  8  1  0  0  0  0
  8  9  1  0  0  0  0
  9 10  1  0  0  0  0
  9 12  1  0  0  0  0
 10 11  1  0  0  0  0
 13 14  4  0  0  0  0
M  END
>  <Name_Molregno>
199111

>  <5-HT1A>
5

>  <5-HT1B>
5

>  <5-HT2C>
5

>  <5-HT3>
5

>  <5-HT5>
5

>  <5-HT6>
5

>  <5-HT7>
5

>  <Beta-1>
5

>  <Beta-2>
5

>  <DOPAMINE D1>
5

>  <DOPAMINE D2>
5

>  <DOPAMINE D3>
5

>  <DOPAMINE D4>
5

>  <DOPAMINE D5>
5

>  <HISTAMINE H1>
5

>  <HISTAMINE H2>
5

>  <Muscarinic acetylcholine receptor M1>
5

>  <Muscarinic acetylcholine receptor M2>
5

>  <Muscarinic acetylcholine receptor M3>
5

>  <Muscarinic acetylcholine receptor M4>
5

>  <Muscarinic acetylcholine receptor M5>
5

$$$$
206713
  Marvin  02231216192D 0   1.00000     0.00000     0

 30 33  0  0  0  0  0  0  0  0999 V2000
    0.6799    1.4485    0.0000 O   0  0  0  0  0  0  0  0  0
   -0.1271    1.6200    0.0000 C   0  0  0  0  0  0  0  0  0
   -0.5396    0.9055    0.0000 C   0  0  0  0  0  0  0  0  0
    0.0124    0.2924    0.0000 C   0  0  0  0  0  0  0  0  0
    0.7661    0.6280    0.0000 C   0  0  0  0  0  0  0  0  0
    1.4806    0.2155    0.0000 C   0  0  0  0  0  0  0  0  0
    1.4806   -0.6095    0.0000 O   0  0  0  0  0  0  0  0  0
    2.1951    0.6280    0.0000 N   0  0  0  0  0  0  0  0  0
    2.9095    0.2155    0.0000 C   0  0  0  0  0  0  0  0  0
    3.6240    0.6280    0.0000 C   0  0  0  0  0  0  0  0  0
    4.3385    0.2155    0.0000 C   0  0  0  0  0  0  0  0  0
    5.0529    0.6280    0.0000 C   0  0  0  0  0  0  0  0  0
    5.7674    0.2155    0.0000 N   0  0  0  0  0  0  0  0  0
    6.4819    0.6280    0.0000 C   0  0  0  0  0  0  0  0  0
    7.1963    0.2155    0.0000 C   0  0  0  0  0  0  0  0  0
    7.1963   -0.6095    0.0000 N   0  0  0  0  0  0  0  0  0
    6.4819   -1.0220    0.0000 C   0  0  0  0  0  0  0  0  0
    5.7674   -0.6095    0.0000 C   0  0  0  0  0  0  0  0  0
    7.9108   -1.0220    0.0000 C   0  0  0  0  0  0  0  0  0
    8.6253   -0.6095    0.0000 C   0  0  0  0  0  0  0  0  0
    9.3398   -1.0220    0.0000 C   0  0  0  0  0  0  0  0  0
    9.3398   -1.8470    0.0000 C   0  0  0  0  0  0  0  0  0
    8.6253   -2.2595    0.0000 C   0  0  0  0  0  0  0  0  0
    7.9108   -1.8470    0.0000 C   0  0  0  0  0  0  0  0  0
    7.1963   -2.2595    0.0000 O   0  0  0  0  0  0  0  0  0
    7.1963   -3.0845    0.0000 C   0  0  0  0  0  0  0  0  0
   -1.3646    0.9055    0.0000 C   0  0  0  0  0  0  0  0  0
   -1.7771    1.6200    0.0000 C   0  0  0  0  0  0  0  0  0
   -1.3646    2.3344    0.0000 C   0  0  0  0  0  0  0  0  0
   -0.5396    2.3344    0.0000 C   0  0  0  0  0  0  0  0  0
  1  2  4  0  0  0  0
  1  5  4  0  0  0  0
  2  3  4  0  0  0  0
  2 30  4  0  0  0  0
  3  4  4  0  0  0  0
  3 27  4  0  0  0  0
  4  5  4  0  0  0  0
  5  6  1  0  0  0  0
  6  7  2  0  0  0  0
  6  8  1  0  0  0  0
  8  9  1  0  0  0  0
  9 10  1  0  0  0  0
 10 11  1  0  0  0  0
 11 12  1  0  0  0  0
 12 13  1  0  0  0  0
 13 14  1  0  0  0  0
 13 18  1  0  0  0  0
 14 15  1  0  0  0  0
 15 16  1  0  0  0  0
 16 17  1  0  0  0  0
 16 19  1  0  0  0  0
 17 18  1  0  0  0  0
 19 20  4  0  0  0  0
 19 24  4  0  0  0  0
 20 21  4  0  0  0  0
 21 22  4  0  0  0  0
 22 23  4  0  0  0  0
 23 24  4  0  0  0  0
 24 25  1  0  0  0  0
 25 26  1  0  0  0  0
 27 28  4  0  0  0  0
 28 29  4  0  0  0  0
 29 30  4  0  0  0  0
M  END
>  <Name_Molregno>
206713

>  <DOPAMINE D2>
6.96

>  <DOPAMINE D3>
8.98

>  <DOPAMINE D4>
7.52

$$$$
207150
  Marvin  02231216192D 0   1.00000     0.00000     0

 30 33  0  0  0  0  0  0  0  0999 V2000
   -8.7727   -0.1050    0.0000 O   0  0  0  0  0  0  0  0  0
   -9.4871   -0.5175    0.0000 C   0  0  0  0  0  0  0  0  0
   -8.7727    0.7200    0.0000 C   0  0  0  0  0  0  0  0  0
   -9.4871    1.1325    0.0000 C   0  0  0  0  0  0  0  0  0
   -9.4871    1.9575    0.0000 C   0  0  0  0  0  0  0  0  0
   -8.7727    2.3700    0.0000 C   0  0  0  0  0  0  0  0  0
   -8.0582    1.9575    0.0000 C   0  0  0  0  0  0  0  0  0
   -8.0582    1.1325    0.0000 C   0  0  0  0  0  0  0  0  0
   -7.3437    0.7200    0.0000 N   0  0  0  0  0  0  0  0  0
   -6.6292    1.1325    0.0000 C   0  0  0  0  0  0  0  0  0
   -5.9148    0.7200    0.0000 C   0  0  0  0  0  0  0  0  0
   -5.9148   -0.1050    0.0000 N   0  0  0  0  0  0  0  0  0
   -6.6292   -0.5175    0.0000 C   0  0  0  0  0  0  0  0  0
   -7.3437   -0.1050    0.0000 C   0  0  0  0  0  0  0  0  0
   -5.2003   -0.5175    0.0000 C   0  0  0  0  0  0  0  0  0
   -4.4858   -0.1050    0.0000 C   0  0  0  0  0  0  0  0  0
   -3.7714   -0.5175    0.0000 C   0  0  0  0  0  0  0  0  0
   -3.0569   -0.1050    0.0000 C   0  0  0  0  0  0  0  0  0
   -2.3424   -0.5175    0.0000 N   0  0  0  0  0  0  0  0  0
   -1.6279   -0.1050    0.0000 C   0  0  0  0  0  0  0  0  0
   -1.6279    0.7200    0.0000 O   0  0  0  0  0  0  0  0  0
   -0.9135   -0.5175    0.0000 C   0  0  0  0  0  0  0  0  0
   -0.8272   -1.3380    0.0000 N   0  0  0  0  0  0  0  0  0
   -0.0203   -1.5095    0.0000 C   0  0  0  0  0  0  0  0  0
    0.3922   -0.7951    0.0000 C   0  0  0  0  0  0  0  0  0
   -0.1598   -0.1820    0.0000 C   0  0  0  0  0  0  0  0  0
    1.2172   -0.7951    0.0000 C   0  0  0  0  0  0  0  0  0
    1.6297   -1.5095    0.0000 C   0  0  0  0  0  0  0  0  0
    1.2172   -2.2240    0.0000 C   0  0  0  0  0  0  0  0  0
    0.3922   -2.2240    0.0000 C   0  0  0  0  0  0  0  0  0
  1  2  1  0  0  0  0
  1  3  1  0  0  0  0
  3  4  4  0  0  0  0
  3  8  4  0  0  0  0
  4  5  4  0  0  0  0
  5  6  4  0  0  0  0
  6  7  4  0  0  0  0
  7  8  4  0  0  0  0
  8  9  1  0  0  0  0
  9 10  1  0  0  0  0
  9 14  1  0  0  0  0
 10 11  1  0  0  0  0
 11 12  1  0  0  0  0
 12 13  1  0  0  0  0
 12 15  1  0  0  0  0
 13 14  1  0  0  0  0
 15 16  1  0  0  0  0
 16 17  1  0  0  0  0
 17 18  1  0  0  0  0
 18 19  1  0  0  0  0
 19 20  1  0  0  0  0
 20 21  2  0  0  0  0
 20 22  1  0  0  0  0
 22 23  4  0  0  0  0
 22 26  4  0  0  0  0
 23 24  4  0  0  0  0
 24 25  4  0  0  0  0
 24 30  4  0  0  0  0
 25 26  4  0  0  0  0
 25 27  4  0  0  0  0
 27 28  4  0  0  0  0
 28 29  4  0  0  0  0
 29 30  4  0  0  0  0
M  STY  1   1 DAT
M  SAL   1  1  23
M  SDT   1 MRV_IMPLICIT_H                                        
M  SDD   1     0.0000    0.0000    DR    ALL  0       0  
M  SED   1 IMPL_H1
M  END
>  <Name_Molregno>
207150

>  <DOPAMINE D3>
9.49

>  <DOPAMINE D4>
6.32

$$$$
208205
  Marvin  02231216192D 0   1.00000     0.00000     0

 15 17  0  0  1  0  0  0  0  0999 V2000
   -0.7051    0.0302    0.0000 O   0  0  0  0  0  0  0  0  0
   -0.2277   -0.6427    0.0000 C   0  0  0  0  0  0  0  0  0
   -0.5277   -1.4998    0.0000 N   0  0  0  0  0  0  0  0  0
   -1.2402   -1.9123    0.0000 C   0  0  0  0  0  0  0  0  0
   -1.2402   -2.7373    0.0000 C   0  0  0  0  0  0  0  0  0
   -1.9549   -3.1494    0.0000 N   0  0  0  0  0  0  0  0  0
   -1.9554   -3.9744    0.0000 C   0  0  0  0  0  0  0  0  0
   -0.5277   -3.1498    0.0000 C   0  0  0  0  0  0  0  0  0
    0.1848   -2.7373    0.0000 C   0  0  0  0  0  0  0  0  0
    0.1848   -1.9123    0.0000 C   0  0  0  0  0  0  0  0  0
    0.9027   -1.4998    0.0000 C   0  0  0  0  0  0  0  0  0
    0.5973   -0.6427    0.0000 N   0  0  0  0  0  0  0  0  0
    1.6152   -1.9123    0.0000 C   0  0  0  0  0  0  0  0  0
    1.6152   -2.7373    0.0000 C   0  0  0  0  0  0  0  0  0
    0.9027   -3.1498    0.0000 C   0  0  0  0  0  0  0  0  0
  1  2  1  0  0  0  0
  2  3  4  0  0  0  0
  2 12  4  0  0  0  0
  3  4  1  0  0  0  0
  3 10  4  0  0  0  0
  4  5  1  0  0  0  0
  5  6  1  0  0  0  0
  5  8  1  0  0  0  0
  6  7  1  0  0  0  0
  8  9  1  0  0  0  0
  9 10  4  0  0  0  0
  9 15  4  0  0  0  0
 10 11  4  0  0  0  0
 11 12  4  0  0  0  0
 11 13  4  0  0  0  0
 13 14  4  0  0  0  0
 14 15  4  0  0  0  0
M  END
>  <Name_Molregno>
208205

>  <5-HT1A>
7.14

>  <DOPAMINE D2>
8.05

>  <DOPAMINE D3>
5.63

$$$$
209616
  Marvin  02231216192D 0   1.00000     0.00000     0

 22 25  0  0  0  0  0  0  0  0999 V2000
    0.4466    0.9226    0.0000 N   0  0  0  0  0  0  0  0  0
    0.9610    0.2776    0.0000 C   0  0  0  0  0  0  0  0  0
    0.7774   -0.5267    0.0000 C   0  0  0  0  0  0  0  0  0
    0.0341   -0.8847    0.0000 C   0  0  0  0  0  0  0  0  0
   -0.7092   -0.5267    0.0000 C   0  0  0  0  0  0  0  0  0
   -0.8927    0.2776    0.0000 C   0  0  0  0  0  0  0  0  0
   -1.6811    0.5208    0.0000 C   0  0  0  0  0  0  0  0  0
   -2.2859   -0.0404    0.0000 C   0  0  0  0  0  0  0  0  0
   -2.1023   -0.8447    0.0000 C   0  0  0  0  0  0  0  0  0
   -1.3139   -1.0879    0.0000 C   0  0  0  0  0  0  0  0  0
   -0.3784    0.9226    0.0000 C   0  0  0  0  0  0  0  0  0
   -0.7363    1.6659    0.0000 N   0  0  0  0  0  0  0  0  0
   -1.5590    1.7276    0.0000 C   0  0  0  0  0  0  0  0  0
   -1.9170    2.4709    0.0000 C   0  0  0  0  0  0  0  0  0
   -1.4522    3.1525    0.0000 N   0  0  0  0  0  0  0  0  0
   -0.6295    3.0909    0.0000 C   0  0  0  0  0  0  0  0  0
   -0.2716    2.3476    0.0000 C   0  0  0  0  0  0  0  0  0
   -1.8102    3.8958    0.0000 C   0  0  0  0  0  0  0  0  0
    1.3822   -1.0879    0.0000 C   0  0  0  0  0  0  0  0  0
    2.1706   -0.8447    0.0000 C   0  0  0  0  0  0  0  0  0
    2.3541   -0.0404    0.0000 C   0  0  0  0  0  0  0  0  0
    1.7494    0.5208    0.0000 C   0  0  0  0  0  0  0  0  0
  1  2  1  0  0  0  0
  1 11  2  0  0  0  0
  2  3  4  0  0  0  0
  2 22  4  0  0  0  0
  3  4  1  0  0  0  0
  3 19  4  0  0  0  0
  4  5  1  0  0  0  0
  5  6  4  0  0  0  0
  5 10  4  0  0  0  0
  6  7  4  0  0  0  0
  6 11  1  0  0  0  0
  7  8  4  0  0  0  0
  8  9  4  0  0  0  0
  9 10  4  0  0  0  0
 11 12  1  0  0  0  0
 12 13  1  0  0  0  0
 12 17  1  0  0  0  0
 13 14  1  0  0  0  0
 14 15  1  0  0  0  0
 15 16  1  0  0  0  0
 15 18  1  0  0  0  0
 16 17  1  0  0  0  0
 19 20  4  0  0  0  0
 20 21  4  0  0  0  0
 21 22  4  0  0  0  0
M  END
>  <Name_Molregno>
209616

>  <5-HT2A>
7.7

>  <5-HT6>
6.82

>  <DOPAMINE D2>
7.22

>  <DOPAMINE D3>
7

>  <DOPAMINE D4>
7.52

>  <HISTAMINE H4>
5.32

$$$$
210229
  Marvin  02231216192D 0   1.00000     0.00000     0

 31 33  0  0  0  0  0  0  0  0999 V2000
   -8.7107    1.2676    0.0000 O   0  0  0  0  0  0  0  0  0
   -9.4252    0.8551    0.0000 C   0  0  0  0  0  0  0  0  0
   -8.7107    2.0926    0.0000 C   0  0  0  0  0  0  0  0  0
   -9.4252    2.5051    0.0000 C   0  0  0  0  0  0  0  0  0
   -9.4252    3.3301    0.0000 C   0  0  0  0  0  0  0  0  0
   -8.7107    3.7426    0.0000 C   0  0  0  0  0  0  0  0  0
   -7.9962    3.3301    0.0000 C   0  0  0  0  0  0  0  0  0
   -7.9962    2.5051    0.0000 C   0  0  0  0  0  0  0  0  0
   -7.2817    2.0926    0.0000 C   0  0  0  0  0  0  0  0  0
   -7.2817    1.2676    0.0000 C   0  0  0  0  0  0  0  0  0
   -6.5673    0.8551    0.0000 C   0  0  0  0  0  0  0  0  0
   -6.5673    0.0301    0.0000 O   0  0  0  0  0  0  0  0  0
   -5.8528    1.2676    0.0000 N   0  0  0  0  0  0  0  0  0
   -5.1383    0.8551    0.0000 C   0  0  0  0  0  0  0  0  0
   -4.4239    1.2676    0.0000 C   0  0  0  0  0  0  0  0  0
   -3.7094    0.8551    0.0000 C   0  0  0  0  0  0  0  0  0
   -2.9949    1.2676    0.0000 C   0  0  0  0  0  0  0  0  0
   -2.2804    0.8551    0.0000 N   0  0  0  0  0  0  0  0  0
   -1.5660    1.2676    0.0000 C   0  0  0  0  0  0  0  0  0
   -0.8515    0.8551    0.0000 C   0  0  0  0  0  0  0  0  0
   -0.8515    0.0301    0.0000 N   0  0  0  0  0  0  0  0  0
   -1.5660   -0.3824    0.0000 C   0  0  0  0  0  0  0  0  0
   -2.2804    0.0301    0.0000 C   0  0  0  0  0  0  0  0  0
   -0.1370   -0.3824    0.0000 C   0  0  0  0  0  0  0  0  0
    0.5774    0.0301    0.0000 C   0  0  0  0  0  0  0  0  0
    1.2919   -0.3824    0.0000 C   0  0  0  0  0  0  0  0  0
    1.2919   -1.2074    0.0000 C   0  0  0  0  0  0  0  0  0
    0.5774   -1.6199    0.0000 C   0  0  0  0  0  0  0  0  0
   -0.1370   -1.2074    0.0000 C   0  0  0  0  0  0  0  0  0
   -0.8515   -1.6199    0.0000 O   0  0  0  0  0  0  0  0  0
   -0.8515   -2.4449    0.0000 C   0  0  0  0  0  0  0  0  0
  1  2  1  0  0  0  0
  1  3  1  0  0  0  0
  3  4  4  0  0  0  0
  3  8  4  0  0  0  0
  4  5  4  0  0  0  0
  5  6  4  0  0  0  0
  6  7  4  0  0  0  0
  7  8  4  0  0  0  0
  8  9  1  0  0  0  0
  9 10  2  0  0  0  0
 10 11  1  0  0  0  0
 11 12  2  0  0  0  0
 11 13  1  0  0  0  0
 13 14  1  0  0  0  0
 14 15  1  0  0  0  0
 15 16  1  0  0  0  0
 16 17  1  0  0  0  0
 17 18  1  0  0  0  0
 18 19  1  0  0  0  0
 18 23  1  0  0  0  0
 19 20  1  0  0  0  0
 20 21  1  0  0  0  0
 21 22  1  0  0  0  0
 21 24  1  0  0  0  0
 22 23  1  0  0  0  0
 24 25  4  0  0  0  0
 24 29  4  0  0  0  0
 25 26  4  0  0  0  0
 26 27  4  0  0  0  0
 27 28  4  0  0  0  0
 28 29  4  0  0  0  0
 29 30  1  0  0  0  0
 30 31  1  0  0  0  0
M  END
>  <Name_Molregno>
210229

>  <DOPAMINE D3>
9.25

$$$$
210471
  Marvin  02231216192D 0   1.00000     0.00000     0

 32 35  0  0  0  0  0  0  0  0999 V2000
   -8.2281    1.5279    0.0000 O   0  0  0  0  0  0  0  0  0
   -8.9425    1.1154    0.0000 C   0  0  0  0  0  0  0  0  0
   -8.9425    0.2904    0.0000 C   0  0  0  0  0  0  0  0  0
   -8.2281   -0.1221    0.0000 C   0  0  0  0  0  0  0  0  0
   -7.5136    0.2904    0.0000 C   0  0  0  0  0  0  0  0  0
   -6.7991   -0.1221    0.0000 C   0  0  0  0  0  0  0  0  0
   -6.7991   -0.9471    0.0000 O   0  0  0  0  0  0  0  0  0
   -6.0846    0.2904    0.0000 N   0  0  0  0  0  0  0  0  0
   -5.3702   -0.1221    0.0000 C   0  0  0  0  0  0  0  0  0
   -4.6557    0.2904    0.0000 C   0  0  0  0  0  0  0  0  0
   -3.9412   -0.1221    0.0000 C   0  0  0  0  0  0  0  0  0
   -3.2268    0.2904    0.0000 C   0  0  0  0  0  0  0  0  0
   -2.5123   -0.1221    0.0000 N   0  0  0  0  0  0  0  0  0
   -1.7978    0.2904    0.0000 C   0  0  0  0  0  0  0  0  0
   -1.0833   -0.1221    0.0000 C   0  0  0  0  0  0  0  0  0
   -1.0833   -0.9471    0.0000 N   0  0  0  0  0  0  0  0  0
   -1.7978   -1.3596    0.0000 C   0  0  0  0  0  0  0  0  0
   -2.5123   -0.9471    0.0000 C   0  0  0  0  0  0  0  0  0
   -0.3689   -1.3596    0.0000 C   0  0  0  0  0  0  0  0  0
    0.3456   -0.9471    0.0000 C   0  0  0  0  0  0  0  0  0
    1.0601   -1.3596    0.0000 C   0  0  0  0  0  0  0  0  0
    1.0601   -2.1846    0.0000 C   0  0  0  0  0  0  0  0  0
    0.3456   -2.5971    0.0000 C   0  0  0  0  0  0  0  0  0
   -0.3689   -2.1846    0.0000 C   0  0  0  0  0  0  0  0  0
   -1.0833   -2.5971    0.0000 O   0  0  0  0  0  0  0  0  0
   -1.0833   -3.4221    0.0000 C   0  0  0  0  0  0  0  0  0
   -7.5136    1.1154    0.0000 C   0  0  0  0  0  0  0  0  0
   -6.7991    1.5279    0.0000 O   0  0  0  0  0  0  0  0  0
   -9.6570   -0.1221    0.0000 C   0  0  0  0  0  0  0  0  0
  -10.3715    0.2904    0.0000 C   0  0  0  0  0  0  0  0  0
  -10.3715    1.1154    0.0000 C   0  0  0  0  0  0  0  0  0
   -9.6570    1.5279    0.0000 C   0  0  0  0  0  0  0  0  0
  1  2  1  0  0  0  0
  1 27  1  0  0  0  0
  2  3  4  0  0  0  0
  2 32  4  0  0  0  0
  3  4  1  0  0  0  0
  3 29  4  0  0  0  0
  4  5  2  0  0  0  0
  5  6  1  0  0  0  0
  5 27  1  0  0  0  0
  6  7  2  0  0  0  0
  6  8  1  0  0  0  0
  8  9  1  0  0  0  0
  9 10  1  0  0  0  0
 10 11  1  0  0  0  0
 11 12  1  0  0  0  0
 12 13  1  0  0  0  0
 13 14  1  0  0  0  0
 13 18  1  0  0  0  0
 14 15  1  0  0  0  0
 15 16  1  0  0  0  0
 16 17  1  0  0  0  0
 16 19  1  0  0  0  0
 17 18  1  0  0  0  0
 19 20  4  0  0  0  0
 19 24  4  0  0  0  0
 20 21  4  0  0  0  0
 21 22  4  0  0  0  0
 22 23  4  0  0  0  0
 23 24  4  0  0  0  0
 24 25  1  0  0  0  0
 25 26  1  0  0  0  0
 27 28  2  0  0  0  0
 29 30  4  0  0  0  0
 30 31  4  0  0  0  0
 31 32  4  0  0  0  0
M  END
>  <Name_Molregno>
210471

>  <DOPAMINE D2>
6.84

>  <DOPAMINE D3>
7.22

$$$$
210490
  Marvin  02231216192D 0   1.00000     0.00000     0

 24 26  0  0  0  0  0  0  0  0999 V2000
    0.1578    2.6676    0.0000 F   0  0  0  0  0  0  0  0  0
    0.8723    2.2551    0.0000 C   0  0  0  0  0  0  0  0  0
    1.5868    2.6676    0.0000 C   0  0  0  0  0  0  0  0  0
    2.3013    2.2551    0.0000 C   0  0  0  0  0  0  0  0  0
    2.3013    1.4301    0.0000 C   0  0  0  0  0  0  0  0  0
    1.5868    1.0176    0.0000 C   0  0  0  0  0  0  0  0  0
    0.8723    1.4301    0.0000 C   0  0  0  0  0  0  0  0  0
    3.0157    1.0176    0.0000 C   0  0  0  0  0  0  0  0  0
    3.0157    0.1926    0.0000 O   0  0  0  0  0  0  0  0  0
    3.7302    1.4301    0.0000 C   0  0  0  0  0  0  0  0  0
    4.4447    1.0176    0.0000 C   0  0  0  0  0  0  0  0  0
    5.1591    1.4301    0.0000 C   0  0  0  0  0  0  0  0  0
    5.8736    1.0176    0.0000 N   0  0  0  0  0  0  0  0  0
    6.5881    1.4301    0.0000 C   0  0  0  0  0  0  0  0  0
    7.3026    1.0176    0.0000 C   0  0  0  0  0  0  0  0  0
    7.3026    0.1926    0.0000 N   0  0  0  0  0  0  0  0  0
    6.5881   -0.2199    0.0000 C   0  0  0  0  0  0  0  0  0
    5.8736    0.1926    0.0000 C   0  0  0  0  0  0  0  0  0
    8.0170   -0.2199    0.0000 C   0  0  0  0  0  0  0  0  0
    8.7315    0.1926    0.0000 N   0  0  0  0  0  0  0  0  0
    9.4460   -0.2199    0.0000 C   0  0  0  0  0  0  0  0  0
    9.4460   -1.0449    0.0000 C   0  0  0  0  0  0  0  0  0
    8.7315   -1.4574    0.0000 C   0  0  0  0  0  0  0  0  0
    8.0170   -1.0449    0.0000 C   0  0  0  0  0  0  0  0  0
  1  2  1  0  0  0  0
  2  3  4  0  0  0  0
  2  7  4  0  0  0  0
  3  4  4  0  0  0  0
  4  5  4  0  0  0  0
  5  6  4  0  0  0  0
  5  8  1  0  0  0  0
  6  7  4  0  0  0  0
  8  9  2  0  0  0  0
  8 10  1  0  0  0  0
 10 11  1  0  0  0  0
 11 12  1  0  0  0  0
 12 13  1  0  0  0  0
 13 14  1  0  0  0  0
 13 18  1  0  0  0  0
 14 15  1  0  0  0  0
 15 16  1  0  0  0  0
 16 17  1  0  0  0  0
 16 19  1  0  0  0  0
 17 18  1  0  0  0  0
 19 20  4  0  0  0  0
 19 24  4  0  0  0  0
 20 21  4  0  0  0  0
 21 22  4  0  0  0  0
 22 23  4  0  0  0  0
 23 24  4  0  0  0  0
M  END
>  <Name_Molregno>
210490

>  <DOPAMINE D2>
7.28

>  <DOPAMINE D3>
7.28

$$$$
210553
  Marvin  02231216192D 0   1.00000     0.00000     0

 26 28  0  0  1  0  0  0  0  0999 V2000
    1.7138    2.6466    0.0000 Cl  0  0  0  0  0  0  0  0  0
    1.9960    1.8714    0.0000 C   0  0  0  0  0  0  0  0  0
    2.8084    1.7281    0.0000 C   0  0  0  0  0  0  0  0  0
    3.0906    0.9529    0.0000 C   0  0  0  0  0  0  0  0  0
    2.5603    0.3209    0.0000 C   0  0  0  0  0  0  0  0  0
    1.7478    0.4642    0.0000 C   0  0  0  0  0  0  0  0  0
    1.4657    1.2394    0.0000 C   0  0  0  0  0  0  0  0  0
    2.8425   -0.4543    0.0000 C   0  0  0  0  0  0  0  0  0
    2.0300   -0.5976    0.0000 O   0  0  0  0  0  0  0  0  0
    3.5569   -0.0418    0.0000 C   0  0  0  0  0  0  0  0  0
    4.2714   -0.4543    0.0000 C   0  0  0  0  0  0  0  0  0
    4.2714   -1.2793    0.0000 N   0  0  0  0  0  0  0  0  0
    3.5569   -1.6918    0.0000 C   0  0  0  0  0  0  0  0  0
    2.8425   -1.2793    0.0000 C   0  0  0  0  0  0  0  0  0
    4.9859   -1.6918    0.0000 C   0  0  0  0  0  0  0  0  0
    5.7003   -1.2793    0.0000 C   0  0  0  0  0  0  0  0  0
    6.4148   -1.6918    0.0000 C   0  0  0  0  0  0  0  0  0
    7.1293   -1.2793    0.0000 C   0  0  0  0  0  0  0  0  0
    7.1293   -0.4543    0.0000 O   0  0  0  0  0  0  0  0  0
    7.8438   -1.6918    0.0000 C   0  0  0  0  0  0  0  0  0
    8.5582   -1.2793    0.0000 C   0  0  0  0  0  0  0  0  0
    9.2727   -1.6918    0.0000 C   0  0  0  0  0  0  0  0  0
    9.2727   -2.5168    0.0000 C   0  0  0  0  0  0  0  0  0
    9.9872   -2.9293    0.0000 F   0  0  0  0  0  0  0  0  0
    8.5582   -2.9293    0.0000 C   0  0  0  0  0  0  0  0  0
    7.8438   -2.5168    0.0000 C   0  0  0  0  0  0  0  0  0
  1  2  1  0  0  0  0
  2  3  4  0  0  0  0
  2  7  4  0  0  0  0
  3  4  4  0  0  0  0
  4  5  4  0  0  0  0
  5  6  4  0  0  0  0
  5  8  1  0  0  0  0
  6  7  4  0  0  0  0
  8  9  1  0  0  0  0
  8 10  1  0  0  0  0
  8 14  1  0  0  0  0
 10 11  1  0  0  0  0
 11 12  1  0  0  0  0
 12 13  1  0  0  0  0
 12 15  1  0  0  0  0
 13 14  1  0  0  0  0
 15 16  1  0  0  0  0
 16 17  1  0  0  0  0
 17 18  1  0  0  0  0
 18 19  1  0  0  0  0
 18 20  1  0  0  0  0
 20 21  4  0  0  0  0
 20 26  4  0  0  0  0
 21 22  4  0  0  0  0
 22 23  4  0  0  0  0
 23 24  1  0  0  0  0
 23 25  4  0  0  0  0
 25 26  4  0  0  0  0
M  END
>  <Name_Molregno>
210553

>  <DOPAMINE D2>
6.85

>  <DOPAMINE D3>
6.18

$$$$
210573
  Marvin  02231216192D 0   1.00000     0.00000     0

 25 27  0  0  1  0  0  0  0  0999 V2000
    0.2242    1.7332    0.0000 F   0  0  0  0  0  0  0  0  0
    0.9387    1.3207    0.0000 C   0  0  0  0  0  0  0  0  0
    1.6532    1.7332    0.0000 C   0  0  0  0  0  0  0  0  0
    2.3676    1.3207    0.0000 C   0  0  0  0  0  0  0  0  0
    2.3676    0.4957    0.0000 C   0  0  0  0  0  0  0  0  0
    1.6532    0.0832    0.0000 C   0  0  0  0  0  0  0  0  0
    0.9387    0.4957    0.0000 C   0  0  0  0  0  0  0  0  0
    3.0821    0.0832    0.0000 C   0  0  0  0  0  0  0  0  0
    3.0821   -0.7418    0.0000 O   0  0  0  0  0  0  0  0  0
    3.7966    0.4957    0.0000 C   0  0  0  0  0  0  0  0  0
    4.5110    0.0833    0.0000 C   0  0  0  0  0  0  0  0  0
    5.2255    0.4957    0.0000 C   0  0  0  0  0  0  0  0  0
    5.9400    0.0833    0.0000 N   0  0  0  0  0  0  0  0  0
    6.6544    0.4958    0.0000 C   0  0  0  0  0  0  0  0  0
    7.3689    0.0833    0.0000 C   0  0  0  0  0  0  0  0  0
    7.3689   -0.7417    0.0000 N   0  0  0  0  0  0  0  0  0
    6.6544   -1.1542    0.0000 C   0  0  0  0  0  0  0  0  0
    5.9400   -0.7417    0.0000 C   0  0  0  0  0  0  0  0  0
    8.0834   -1.1543    0.0000 C   0  0  0  0  0  0  0  0  0
    8.7979   -0.7417    0.0000 N   0  0  0  0  0  0  0  0  0
    9.5123   -1.1543    0.0000 C   0  0  0  0  0  0  0  0  0
    9.5123   -1.9793    0.0000 C   0  0  0  0  0  0  0  0  0
   10.2268   -2.3918    0.0000 F   0  0  0  0  0  0  0  0  0
    8.7979   -2.3918    0.0000 C   0  0  0  0  0  0  0  0  0
    8.0834   -1.9792    0.0000 N   0  0  0  0  0  0  0  0  0
  1  2  1  0  0  0  0
  2  3  4  0  0  0  0
  2  7  4  0  0  0  0
  3  4  4  0  0  0  0
  4  5  4  0  0  0  0
  5  6  4  0  0  0  0
  5  8  1  0  0  0  0
  6  7  4  0  0  0  0
  8  9  1  0  0  0  0
  8 10  1  0  0  0  0
 10 11  1  0  0  0  0
 11 12  1  0  0  0  0
 12 13  1  0  0  0  0
 13 14  1  0  0  0  0
 13 18  1  0  0  0  0
 14 15  1  0  0  0  0
 15 16  1  0  0  0  0
 16 17  1  0  0  0  0
 16 19  1  0  0  0  0
 17 18  1  0  0  0  0
 19 20  4  0  0  0  0
 19 25  4  0  0  0  0
 20 21  4  0  0  0  0
 21 22  4  0  0  0  0
 22 23  1  0  0  0  0
 22 24  4  0  0  0  0
 24 25  4  0  0  0  0
M  END
>  <Name_Molregno>
210573

>  <DOPAMINE D2>
5.39

>  <DOPAMINE D3>
5.7

$$$$
210612
  Marvin  02231216192D 0   1.00000     0.00000     0

 24 26  0  0  1  0  0  0  0  0999 V2000
    0.1578    2.6676    0.0000 F   0  0  0  0  0  0  0  0  0
    0.8723    2.2551    0.0000 C   0  0  0  0  0  0  0  0  0
    1.5868    2.6676    0.0000 C   0  0  0  0  0  0  0  0  0
    2.3013    2.2551    0.0000 C   0  0  0  0  0  0  0  0  0
    2.3013    1.4301    0.0000 C   0  0  0  0  0  0  0  0  0
    1.5868    1.0176    0.0000 C   0  0  0  0  0  0  0  0  0
    0.8723    1.4301    0.0000 C   0  0  0  0  0  0  0  0  0
    3.0157    1.0176    0.0000 C   0  0  0  0  0  0  0  0  0
    3.0157    0.1926    0.0000 O   0  0  0  0  0  0  0  0  0
    3.7302    1.4301    0.0000 C   0  0  0  0  0  0  0  0  0
    4.4447    1.0176    0.0000 C   0  0  0  0  0  0  0  0  0
    5.1591    1.4301    0.0000 C   0  0  0  0  0  0  0  0  0
    5.8736    1.0176    0.0000 N   0  0  0  0  0  0  0  0  0
    6.5881    1.4301    0.0000 C   0  0  0  0  0  0  0  0  0
    7.3026    1.0176    0.0000 C   0  0  0  0  0  0  0  0  0
    7.3026    0.1926    0.0000 N   0  0  0  0  0  0  0  0  0
    6.5881   -0.2199    0.0000 C   0  0  0  0  0  0  0  0  0
    5.8736    0.1926    0.0000 C   0  0  0  0  0  0  0  0  0
    8.0170   -0.2199    0.0000 C   0  0  0  0  0  0  0  0  0
    8.7315    0.1926    0.0000 N   0  0  0  0  0  0  0  0  0
    9.4460   -0.2199    0.0000 C   0  0  0  0  0  0  0  0  0
    9.4460   -1.0449    0.0000 C   0  0  0  0  0  0  0  0  0
    8.7315   -1.4574    0.0000 C   0  0  0  0  0  0  0  0  0
    8.0170   -1.0449    0.0000 C   0  0  0  0  0  0  0  0  0
  1  2  1  0  0  0  0
  2  3  4  0  0  0  0
  2  7  4  0  0  0  0
  3  4  4  0  0  0  0
  4  5  4  0  0  0  0
  5  6  4  0  0  0  0
  5  8  1  0  0  0  0
  6  7  4  0  0  0  0
  8  9  1  0  0  0  0
  8 10  1  0  0  0  0
 10 11  1  0  0  0  0
 11 12  1  0  0  0  0
 12 13  1  0  0  0  0
 13 14  1  0  0  0  0
 13 18  1  0  0  0  0
 14 15  1  0  0  0  0
 15 16  1  0  0  0  0
 16 17  1  0  0  0  0
 16 19  1  0  0  0  0
 17 18  1  0  0  0  0
 19 20  4  0  0  0  0
 19 24  4  0  0  0  0
 20 21  4  0  0  0  0
 21 22  4  0  0  0  0
 22 23  4  0  0  0  0
 23 24  4  0  0  0  0
M  END
>  <Name_Molregno>
210612

>  <DOPAMINE D2>
6.69

>  <DOPAMINE D3>
6.66

$$$$
214713
  Marvin  02231216192D 0   1.00000     0.00000     0

 20 21  0  0  0  0  0  0  0  0999 V2000
   -0.0647   -0.0092    0.0000 O   0  0  0  0  0  0  0  0  0
    0.6498    0.4033    0.0000 C   0  0  0  0  0  0  0  0  0
    1.3643   -0.0092    0.0000 C   0  0  0  0  0  0  0  0  0
    2.0787    0.4033    0.0000 C   0  0  0  0  0  0  0  0  0
    2.7932   -0.0092    0.0000 N   0  0  0  0  0  0  0  0  0
    3.5077    0.4033    0.0000 C   0  0  0  0  0  0  0  0  0
    4.2222   -0.0092    0.0000 C   0  0  0  0  0  0  0  0  0
    4.9366    0.4033    0.0000 O   0  0  0  0  0  0  0  0  0
    5.6511   -0.0092    0.0000 C   0  0  0  0  0  0  0  0  0
    6.3656    0.4033    0.0000 C   0  0  0  0  0  0  0  0  0
    7.0800   -0.0092    0.0000 C   0  0  0  0  0  0  0  0  0
    7.0800   -0.8342    0.0000 C   0  0  0  0  0  0  0  0  0
    6.3656   -1.2467    0.0000 C   0  0  0  0  0  0  0  0  0
    5.6511   -0.8342    0.0000 C   0  0  0  0  0  0  0  0  0
   -0.7791    0.4033    0.0000 C   0  0  0  0  0  0  0  0  0
   -1.4936   -0.0092    0.0000 C   0  0  0  0  0  0  0  0  0
   -2.2081    0.4033    0.0000 C   0  0  0  0  0  0  0  0  0
   -2.2081    1.2283    0.0000 C   0  0  0  0  0  0  0  0  0
   -1.4936    1.6408    0.0000 C   0  0  0  0  0  0  0  0  0
   -0.7791    1.2283    0.0000 C   0  0  0  0  0  0  0  0  0
  1  2  1  0  0  0  0
  1 15  1  0  0  0  0
  2  3  1  0  0  0  0
  3  4  1  0  0  0  0
  4  5  1  0  0  0  0
  5  6  1  0  0  0  0
  6  7  1  0  0  0  0
  7  8  1  0  0  0  0
  8  9  1  0  0  0  0
  9 10  4  0  0  0  0
  9 14  4  0  0  0  0
 10 11  4  0  0  0  0
 11 12  4  0  0  0  0
 12 13  4  0  0  0  0
 13 14  4  0  0  0  0
 15 16  4  0  0  0  0
 15 20  4  0  0  0  0
 16 17  4  0  0  0  0
 17 18  4  0  0  0  0
 18 19  4  0  0  0  0
 19 20  4  0  0  0  0
M  END
>  <Name_Molregno>
214713

>  <DOPAMINE D2>
6.6

>  <DOPAMINE D3>
6.87

>  <DOPAMINE D4>
8.7

$$$$
214715
  Marvin  02231216192D 0   1.00000     0.00000     0

 21 22  0  0  0  0  0  0  0  0999 V2000
   -7.3800   -1.9681    0.0000 Cl  0  0  0  0  0  0  0  0  0
   -7.3800   -1.1431    0.0000 C   0  0  0  0  0  0  0  0  0
   -8.0944   -0.7306    0.0000 C   0  0  0  0  0  0  0  0  0
   -8.0944    0.0944    0.0000 C   0  0  0  0  0  0  0  0  0
   -7.3800    0.5069    0.0000 C   0  0  0  0  0  0  0  0  0
   -6.6655    0.0944    0.0000 C   0  0  0  0  0  0  0  0  0
   -6.6655   -0.7306    0.0000 C   0  0  0  0  0  0  0  0  0
   -5.9510   -1.1431    0.0000 O   0  0  0  0  0  0  0  0  0
   -5.2366   -0.7306    0.0000 C   0  0  0  0  0  0  0  0  0
   -4.5221   -1.1431    0.0000 C   0  0  0  0  0  0  0  0  0
   -3.8076   -0.7306    0.0000 N   0  0  0  0  0  0  0  0  0
   -3.0931   -1.1431    0.0000 C   0  0  0  0  0  0  0  0  0
   -2.3787   -0.7306    0.0000 C   0  0  0  0  0  0  0  0  0
   -1.6642   -1.1431    0.0000 C   0  0  0  0  0  0  0  0  0
   -0.9497   -0.7306    0.0000 O   0  0  0  0  0  0  0  0  0
   -0.2353   -1.1431    0.0000 C   0  0  0  0  0  0  0  0  0
    0.4792   -0.7306    0.0000 C   0  0  0  0  0  0  0  0  0
    1.1937   -1.1431    0.0000 C   0  0  0  0  0  0  0  0  0
    1.1937   -1.9681    0.0000 C   0  0  0  0  0  0  0  0  0
    0.4792   -2.3806    0.0000 C   0  0  0  0  0  0  0  0  0
   -0.2353   -1.9681    0.0000 C   0  0  0  0  0  0  0  0  0
  1  2  1  0  0  0  0
  2  3  4  0  0  0  0
  2  7  4  0  0  0  0
  3  4  4  0  0  0  0
  4  5  4  0  0  0  0
  5  6  4  0  0  0  0
  6  7  4  0  0  0  0
  7  8  1  0  0  0  0
  8  9  1  0  0  0  0
  9 10  1  0  0  0  0
 10 11  1  0  0  0  0
 11 12  1  0  0  0  0
 12 13  1  0  0  0  0
 13 14  1  0  0  0  0
 14 15  1  0  0  0  0
 15 16  1  0  0  0  0
 16 17  4  0  0  0  0
 16 21  4  0  0  0  0
 17 18  4  0  0  0  0
 18 19  4  0  0  0  0
 19 20  4  0  0  0  0
 20 21  4  0  0  0  0
M  END
>  <Name_Molregno>
214715

>  <DOPAMINE D2>
6.95

>  <DOPAMINE D3>
7.77

>  <DOPAMINE D4>
8.36

$$$$
214945
  Marvin  02231216192D 0   1.00000     0.00000     0

 22 23  0  0  0  0  0  0  0  0999 V2000
   -0.0457    0.0465    0.0000 O   0  0  0  0  0  0  0  0  0
    0.6687    0.4590    0.0000 C   0  0  0  0  0  0  0  0  0
    1.3832    0.0465    0.0000 C   0  0  0  0  0  0  0  0  0
    2.0977    0.4590    0.0000 C   0  0  0  0  0  0  0  0  0
    2.8121    0.0465    0.0000 N   0  0  0  0  0  0  0  0  0
    3.5266    0.4590    0.0000 C   0  0  0  0  0  0  0  0  0
    4.2411    0.0465    0.0000 C   0  0  0  0  0  0  0  0  0
    4.9556    0.4590    0.0000 O   0  0  0  0  0  0  0  0  0
    5.6700    0.0465    0.0000 C   0  0  0  0  0  0  0  0  0
    6.3845    0.4590    0.0000 C   0  0  0  0  0  0  0  0  0
    7.0990    0.0465    0.0000 C   0  0  0  0  0  0  0  0  0
    7.0990   -0.7785    0.0000 C   0  0  0  0  0  0  0  0  0
    7.8134   -1.1910    0.0000 O   0  0  0  0  0  0  0  0  0
    7.8134   -2.0160    0.0000 C   0  0  0  0  0  0  0  0  0
    6.3845   -1.1910    0.0000 C   0  0  0  0  0  0  0  0  0
    5.6700   -0.7785    0.0000 C   0  0  0  0  0  0  0  0  0
   -0.7602    0.4590    0.0000 C   0  0  0  0  0  0  0  0  0
   -1.4747    0.0465    0.0000 C   0  0  0  0  0  0  0  0  0
   -2.1892    0.4590    0.0000 C   0  0  0  0  0  0  0  0  0
   -2.1892    1.2840    0.0000 C   0  0  0  0  0  0  0  0  0
   -1.4747    1.6965    0.0000 C   0  0  0  0  0  0  0  0  0
   -0.7602    1.2840    0.0000 C   0  0  0  0  0  0  0  0  0
  1  2  1  0  0  0  0
  1 17  1  0  0  0  0
  2  3  1  0  0  0  0
  3  4  1  0  0  0  0
  4  5  1  0  0  0  0
  5  6  1  0  0  0  0
  6  7  1  0  0  0  0
  7  8  1  0  0  0  0
  8  9  1  0  0  0  0
  9 10  4  0  0  0  0
  9 16  4  0  0  0  0
 10 11  4  0  0  0  0
 11 12  4  0  0  0  0
 12 13  1  0  0  0  0
 12 15  4  0  0  0  0
 13 14  1  0  0  0  0
 15 16  4  0  0  0  0
 17 18  4  0  0  0  0
 17 22  4  0  0  0  0
 18 19  4  0  0  0  0
 19 20  4  0  0  0  0
 20 21  4  0  0  0  0
 21 22  4  0  0  0  0
M  END
>  <Name_Molregno>
214945

>  <DOPAMINE D2>
5.71

>  <DOPAMINE D3>
6.43

>  <DOPAMINE D4>
8.27

$$$$
214970
  Marvin  02231216192D 0   1.00000     0.00000     0

 21 22  0  0  0  0  0  0  0  0999 V2000
   -0.0711   -0.0137    0.0000 O   0  0  0  0  0  0  0  0  0
    0.6434    0.3988    0.0000 C   0  0  0  0  0  0  0  0  0
    1.3579   -0.0137    0.0000 C   0  0  0  0  0  0  0  0  0
    2.0723    0.3988    0.0000 C   0  0  0  0  0  0  0  0  0
    2.7868   -0.0137    0.0000 N   0  0  0  0  0  0  0  0  0
    3.5013    0.3988    0.0000 C   0  0  0  0  0  0  0  0  0
    4.2158   -0.0137    0.0000 C   0  0  0  0  0  0  0  0  0
    4.9302    0.3988    0.0000 O   0  0  0  0  0  0  0  0  0
    5.6447   -0.0137    0.0000 C   0  0  0  0  0  0  0  0  0
    6.3592    0.3988    0.0000 C   0  0  0  0  0  0  0  0  0
    7.0736   -0.0137    0.0000 C   0  0  0  0  0  0  0  0  0
    7.0736   -0.8387    0.0000 C   0  0  0  0  0  0  0  0  0
    6.3592   -1.2512    0.0000 C   0  0  0  0  0  0  0  0  0
    5.6447   -0.8387    0.0000 C   0  0  0  0  0  0  0  0  0
    7.7881   -1.2512    0.0000 C   0  0  0  0  0  0  0  0  0
   -0.7855    0.3988    0.0000 C   0  0  0  0  0  0  0  0  0
   -1.5000   -0.0137    0.0000 C   0  0  0  0  0  0  0  0  0
   -2.2145    0.3988    0.0000 C   0  0  0  0  0  0  0  0  0
   -2.2145    1.2238    0.0000 C   0  0  0  0  0  0  0  0  0
   -1.5000    1.6363    0.0000 C   0  0  0  0  0  0  0  0  0
   -0.7855    1.2238    0.0000 C   0  0  0  0  0  0  0  0  0
  1  2  1  0  0  0  0
  1 16  1  0  0  0  0
  2  3  1  0  0  0  0
  3  4  1  0  0  0  0
  4  5  1  0  0  0  0
  5  6  1  0  0  0  0
  6  7  1  0  0  0  0
  7  8  1  0  0  0  0
  8  9  1  0  0  0  0
  9 10  4  0  0  0  0
  9 14  4  0  0  0  0
 10 11  4  0  0  0  0
 11 12  4  0  0  0  0
 12 13  4  0  0  0  0
 12 15  1  0  0  0  0
 13 14  4  0  0  0  0
 16 17  4  0  0  0  0
 16 21  4  0  0  0  0
 17 18  4  0  0  0  0
 18 19  4  0  0  0  0
 19 20  4  0  0  0  0
 20 21  4  0  0  0  0
M  END
>  <Name_Molregno>
214970

>  <DOPAMINE D2>
6.57

>  <DOPAMINE D3>
6.77

>  <DOPAMINE D4>
9.28

$$$$
215039
  Marvin  02231216192D 0   1.00000     0.00000     0

 22 23  0  0  0  0  0  0  0  0999 V2000
   -0.1252    0.0331    0.0000 Cl  0  0  0  0  0  0  0  0  0
    0.5892   -0.3794    0.0000 C   0  0  0  0  0  0  0  0  0
    1.3037    0.0331    0.0000 C   0  0  0  0  0  0  0  0  0
    2.0182   -0.3794    0.0000 C   0  0  0  0  0  0  0  0  0
    2.7327    0.0331    0.0000 O   0  0  0  0  0  0  0  0  0
    3.4471   -0.3794    0.0000 C   0  0  0  0  0  0  0  0  0
    4.1616    0.0331    0.0000 C   0  0  0  0  0  0  0  0  0
    4.8761   -0.3794    0.0000 N   0  0  0  0  0  0  0  0  0
    5.5905    0.0331    0.0000 C   0  0  0  0  0  0  0  0  0
    6.3050   -0.3794    0.0000 C   0  0  0  0  0  0  0  0  0
    7.0195    0.0331    0.0000 C   0  0  0  0  0  0  0  0  0
    7.7339   -0.3794    0.0000 O   0  0  0  0  0  0  0  0  0
    8.4484    0.0331    0.0000 C   0  0  0  0  0  0  0  0  0
    8.4484    0.8581    0.0000 C   0  0  0  0  0  0  0  0  0
    9.1629    1.2706    0.0000 C   0  0  0  0  0  0  0  0  0
    9.8774    0.8581    0.0000 C   0  0  0  0  0  0  0  0  0
    9.8774    0.0331    0.0000 C   0  0  0  0  0  0  0  0  0
    9.1629   -0.3794    0.0000 C   0  0  0  0  0  0  0  0  0
    2.0182   -1.2044    0.0000 C   0  0  0  0  0  0  0  0  0
    1.3037   -1.6169    0.0000 C   0  0  0  0  0  0  0  0  0
    0.5892   -1.2044    0.0000 C   0  0  0  0  0  0  0  0  0
   -0.1252   -1.6169    0.0000 C   0  0  0  0  0  0  0  0  0
  1  2  1  0  0  0  0
  2  3  4  0  0  0  0
  2 21  4  0  0  0  0
  3  4  4  0  0  0  0
  4  5  1  0  0  0  0
  4 19  4  0  0  0  0
  5  6  1  0  0  0  0
  6  7  1  0  0  0  0
  7  8  1  0  0  0  0
  8  9  1  0  0  0  0
  9 10  1  0  0  0  0
 10 11  1  0  0  0  0
 11 12  1  0  0  0  0
 12 13  1  0  0  0  0
 13 14  4  0  0  0  0
 13 18  4  0  0  0  0
 14 15  4  0  0  0  0
 15 16  4  0  0  0  0
 16 17  4  0  0  0  0
 17 18  4  0  0  0  0
 19 20  4  0  0  0  0
 20 21  4  0  0  0  0
 21 22  1  0  0  0  0
M  END
>  <Name_Molregno>
215039

>  <DOPAMINE D2>
6.52

>  <DOPAMINE D3>
8.41

>  <DOPAMINE D4>
9.28

$$$$
215041
  Marvin  02231216192D 0   1.00000     0.00000     0

 22 23  0  0  0  0  0  0  0  0999 V2000
   -0.0642   -0.2445    0.0000 O   0  0  0  0  0  0  0  0  0
    0.6503    0.1680    0.0000 C   0  0  0  0  0  0  0  0  0
    1.3647   -0.2445    0.0000 C   0  0  0  0  0  0  0  0  0
    2.0792    0.1680    0.0000 C   0  0  0  0  0  0  0  0  0
    2.7937   -0.2445    0.0000 N   0  0  0  0  0  0  0  0  0
    3.5081    0.1680    0.0000 C   0  0  0  0  0  0  0  0  0
    4.2226   -0.2445    0.0000 C   0  0  0  0  0  0  0  0  0
    4.9371    0.1680    0.0000 O   0  0  0  0  0  0  0  0  0
    5.6515   -0.2445    0.0000 C   0  0  0  0  0  0  0  0  0
    6.3660    0.1680    0.0000 C   0  0  0  0  0  0  0  0  0
    7.0805   -0.2445    0.0000 C   0  0  0  0  0  0  0  0  0
    7.0805   -1.0695    0.0000 C   0  0  0  0  0  0  0  0  0
    6.3660   -1.4820    0.0000 C   0  0  0  0  0  0  0  0  0
    5.6515   -1.0695    0.0000 C   0  0  0  0  0  0  0  0  0
    7.7950   -1.4820    0.0000 C   0  0  0  0  0  0  0  0  0
   -0.7787    0.1680    0.0000 C   0  0  0  0  0  0  0  0  0
   -1.4932   -0.2445    0.0000 C   0  0  0  0  0  0  0  0  0
   -2.2076    0.1680    0.0000 C   0  0  0  0  0  0  0  0  0
   -2.2076    0.9930    0.0000 C   0  0  0  0  0  0  0  0  0
   -1.4932    1.4055    0.0000 C   0  0  0  0  0  0  0  0  0
   -0.7787    0.9930    0.0000 C   0  0  0  0  0  0  0  0  0
   -2.9221   -0.2445    0.0000 C   0  0  0  0  0  0  0  0  0
  1  2  1  0  0  0  0
  1 16  1  0  0  0  0
  2  3  1  0  0  0  0
  3  4  1  0  0  0  0
  4  5  1  0  0  0  0
  5  6  1  0  0  0  0
  6  7  1  0  0  0  0
  7  8  1  0  0  0  0
  8  9  1  0  0  0  0
  9 10  4  0  0  0  0
  9 14  4  0  0  0  0
 10 11  4  0  0  0  0
 11 12  4  0  0  0  0
 12 13  4  0  0  0  0
 12 15  1  0  0  0  0
 13 14  4  0  0  0  0
 16 17  4  0  0  0  0
 16 21  4  0  0  0  0
 17 18  4  0  0  0  0
 18 19  4  0  0  0  0
 18 22  1  0  0  0  0
 19 20  4  0  0  0  0
 20 21  4  0  0  0  0
M  END
>  <Name_Molregno>
215041

>  <DOPAMINE D2>
6.53

>  <DOPAMINE D3>
6.72

>  <DOPAMINE D4>
8.92

$$$$
215048
  Marvin  02231216192D 0   1.00000     0.00000     0

 22 23  0  0  0  0  0  0  0  0999 V2000
    0.0299    1.0150    0.0000 Cl  0  0  0  0  0  0  0  0  0
    0.7444    0.6025    0.0000 C   0  0  0  0  0  0  0  0  0
    1.4589    1.0150    0.0000 C   0  0  0  0  0  0  0  0  0
    2.1734    0.6025    0.0000 C   0  0  0  0  0  0  0  0  0
    2.1734   -0.2225    0.0000 C   0  0  0  0  0  0  0  0  0
    2.8878   -0.6350    0.0000 O   0  0  0  0  0  0  0  0  0
    3.6023   -0.2225    0.0000 C   0  0  0  0  0  0  0  0  0
    4.3168   -0.6350    0.0000 C   0  0  0  0  0  0  0  0  0
    5.0312   -0.2225    0.0000 N   0  0  0  0  0  0  0  0  0
    5.7457   -0.6350    0.0000 C   0  0  0  0  0  0  0  0  0
    6.4602   -0.2225    0.0000 C   0  0  0  0  0  0  0  0  0
    7.1747   -0.6350    0.0000 C   0  0  0  0  0  0  0  0  0
    7.8891   -0.2225    0.0000 O   0  0  0  0  0  0  0  0  0
    8.6036   -0.6350    0.0000 C   0  0  0  0  0  0  0  0  0
    9.3181   -0.2225    0.0000 C   0  0  0  0  0  0  0  0  0
   10.0325   -0.6350    0.0000 C   0  0  0  0  0  0  0  0  0
   10.0325   -1.4600    0.0000 C   0  0  0  0  0  0  0  0  0
   10.7470   -1.8725    0.0000 F   0  0  0  0  0  0  0  0  0
    9.3181   -1.8725    0.0000 C   0  0  0  0  0  0  0  0  0
    8.6036   -1.4600    0.0000 C   0  0  0  0  0  0  0  0  0
    1.4589   -0.6350    0.0000 C   0  0  0  0  0  0  0  0  0
    0.7444   -0.2225    0.0000 C   0  0  0  0  0  0  0  0  0
  1  2  1  0  0  0  0
  2  3  4  0  0  0  0
  2 22  4  0  0  0  0
  3  4  4  0  0  0  0
  4  5  4  0  0  0  0
  5  6  1  0  0  0  0
  5 21  4  0  0  0  0
  6  7  1  0  0  0  0
  7  8  1  0  0  0  0
  8  9  1  0  0  0  0
  9 10  1  0  0  0  0
 10 11  1  0  0  0  0
 11 12  1  0  0  0  0
 12 13  1  0  0  0  0
 13 14  1  0  0  0  0
 14 15  4  0  0  0  0
 14 20  4  0  0  0  0
 15 16  4  0  0  0  0
 16 17  4  0  0  0  0
 17 18  1  0  0  0  0
 17 19  4  0  0  0  0
 19 20  4  0  0  0  0
 21 22  4  0  0  0  0
M  END
>  <Name_Molregno>
215048

>  <DOPAMINE D2>
6.61

>  <DOPAMINE D3>
7.01

>  <DOPAMINE D4>
9.08

$$$$
215069
  Marvin  02231216192D 0   1.00000     0.00000     0

 22 23  0  0  0  0  0  0  0  0999 V2000
   -0.1322   -0.0974    0.0000 O   0  0  0  0  0  0  0  0  0
    0.5822    0.3151    0.0000 C   0  0  0  0  0  0  0  0  0
    1.2967   -0.0974    0.0000 C   0  0  0  0  0  0  0  0  0
    2.0112    0.3151    0.0000 C   0  0  0  0  0  0  0  0  0
    2.7257   -0.0974    0.0000 N   0  0  0  0  0  0  0  0  0
    3.4401    0.3151    0.0000 C   0  0  0  0  0  0  0  0  0
    4.1546   -0.0974    0.0000 C   0  0  0  0  0  0  0  0  0
    4.8691    0.3151    0.0000 O   0  0  0  0  0  0  0  0  0
    5.5835   -0.0974    0.0000 C   0  0  0  0  0  0  0  0  0
    6.2980    0.3151    0.0000 C   0  0  0  0  0  0  0  0  0
    7.0125   -0.0974    0.0000 C   0  0  0  0  0  0  0  0  0
    7.0125   -0.9224    0.0000 C   0  0  0  0  0  0  0  0  0
    6.2980   -1.3349    0.0000 C   0  0  0  0  0  0  0  0  0
    5.5835   -0.9224    0.0000 C   0  0  0  0  0  0  0  0  0
    7.7270   -1.3349    0.0000 C   0  0  0  0  0  0  0  0  0
   -0.8467    0.3151    0.0000 C   0  0  0  0  0  0  0  0  0
   -1.5612   -0.0974    0.0000 C   0  0  0  0  0  0  0  0  0
   -2.2756    0.3151    0.0000 C   0  0  0  0  0  0  0  0  0
   -2.2756    1.1401    0.0000 C   0  0  0  0  0  0  0  0  0
   -1.5612    1.5526    0.0000 C   0  0  0  0  0  0  0  0  0
   -0.8467    1.1401    0.0000 C   0  0  0  0  0  0  0  0  0
   -0.1322    1.5526    0.0000 C   0  0  0  0  0  0  0  0  0
  1  2  1  0  0  0  0
  1 16  1  0  0  0  0
  2  3  1  0  0  0  0
  3  4  1  0  0  0  0
  4  5  1  0  0  0  0
  5  6  1  0  0  0  0
  6  7  1  0  0  0  0
  7  8  1  0  0  0  0
  8  9  1  0  0  0  0
  9 10  4  0  0  0  0
  9 14  4  0  0  0  0
 10 11  4  0  0  0  0
 11 12  4  0  0  0  0
 12 13  4  0  0  0  0
 12 15  1  0  0  0  0
 13 14  4  0  0  0  0
 16 17  4  0  0  0  0
 16 21  4  0  0  0  0
 17 18  4  0  0  0  0
 18 19  4  0  0  0  0
 19 20  4  0  0  0  0
 20 21  4  0  0  0  0
 21 22  1  0  0  0  0
M  END
>  <Name_Molregno>
215069

>  <DOPAMINE D2>
6.53

>  <DOPAMINE D3>
6.42

>  <DOPAMINE D4>
8.96

$$$$
215073
  Marvin  02231216192D 0   1.00000     0.00000     0

 22 23  0  0  0  0  0  0  0  0999 V2000
    0.0299    1.0150    0.0000 Cl  0  0  0  0  0  0  0  0  0
    0.7444    0.6025    0.0000 C   0  0  0  0  0  0  0  0  0
    1.4589    1.0150    0.0000 C   0  0  0  0  0  0  0  0  0
    2.1734    0.6025    0.0000 C   0  0  0  0  0  0  0  0  0
    2.1734   -0.2225    0.0000 C   0  0  0  0  0  0  0  0  0
    2.8878   -0.6350    0.0000 O   0  0  0  0  0  0  0  0  0
    3.6023   -0.2225    0.0000 C   0  0  0  0  0  0  0  0  0
    4.3168   -0.6350    0.0000 C   0  0  0  0  0  0  0  0  0
    5.0312   -0.2225    0.0000 N   0  0  0  0  0  0  0  0  0
    5.7457   -0.6350    0.0000 C   0  0  0  0  0  0  0  0  0
    6.4602   -0.2225    0.0000 C   0  0  0  0  0  0  0  0  0
    7.1747   -0.6350    0.0000 C   0  0  0  0  0  0  0  0  0
    7.8891   -0.2225    0.0000 O   0  0  0  0  0  0  0  0  0
    8.6036   -0.6350    0.0000 C   0  0  0  0  0  0  0  0  0
    9.3181   -0.2225    0.0000 C   0  0  0  0  0  0  0  0  0
   10.0325   -0.6350    0.0000 C   0  0  0  0  0  0  0  0  0
   10.0325   -1.4600    0.0000 C   0  0  0  0  0  0  0  0  0
    9.3181   -1.8725    0.0000 C   0  0  0  0  0  0  0  0  0
    8.6036   -1.4600    0.0000 C   0  0  0  0  0  0  0  0  0
   10.7470   -1.8725    0.0000 C   0  0  0  0  0  0  0  0  0
    1.4589   -0.6350    0.0000 C   0  0  0  0  0  0  0  0  0
    0.7444   -0.2225    0.0000 C   0  0  0  0  0  0  0  0  0
  1  2  1  0  0  0  0
  2  3  4  0  0  0  0
  2 22  4  0  0  0  0
  3  4  4  0  0  0  0
  4  5  4  0  0  0  0
  5  6  1  0  0  0  0
  5 21  4  0  0  0  0
  6  7  1  0  0  0  0
  7  8  1  0  0  0  0
  8  9  1  0  0  0  0
  9 10  1  0  0  0  0
 10 11  1  0  0  0  0
 11 12  1  0  0  0  0
 12 13  1  0  0  0  0
 13 14  1  0  0  0  0
 14 15  4  0  0  0  0
 14 19  4  0  0  0  0
 15 16  4  0  0  0  0
 16 17  4  0  0  0  0
 17 18  4  0  0  0  0
 17 20  1  0  0  0  0
 18 19  4  0  0  0  0
 21 22  4  0  0  0  0
M  END
>  <Name_Molregno>
215073

>  <DOPAMINE D2>
5.88

>  <DOPAMINE D3>
6.75

>  <DOPAMINE D4>
8.25

$$$$
215104
  Marvin  02231216192D 0   1.00000     0.00000     0

 21 22  0  0  0  0  0  0  0  0999 V2000
   -0.0573   -0.0154    0.0000 O   0  0  0  0  0  0  0  0  0
    0.6572    0.3971    0.0000 C   0  0  0  0  0  0  0  0  0
    1.3716   -0.0154    0.0000 C   0  0  0  0  0  0  0  0  0
    2.0861    0.3971    0.0000 C   0  0  0  0  0  0  0  0  0
    2.8006   -0.0154    0.0000 N   0  0  0  0  0  0  0  0  0
    3.5150    0.3971    0.0000 C   0  0  0  0  0  0  0  0  0
    4.2295   -0.0154    0.0000 C   0  0  0  0  0  0  0  0  0
    4.9440    0.3971    0.0000 O   0  0  0  0  0  0  0  0  0
    5.6585   -0.0154    0.0000 C   0  0  0  0  0  0  0  0  0
    6.3729    0.3971    0.0000 C   0  0  0  0  0  0  0  0  0
    7.0874   -0.0154    0.0000 C   0  0  0  0  0  0  0  0  0
    7.0874   -0.8404    0.0000 C   0  0  0  0  0  0  0  0  0
    6.3729   -1.2529    0.0000 C   0  0  0  0  0  0  0  0  0
    5.6585   -0.8404    0.0000 C   0  0  0  0  0  0  0  0  0
   -0.7718    0.3971    0.0000 C   0  0  0  0  0  0  0  0  0
   -1.4863   -0.0154    0.0000 C   0  0  0  0  0  0  0  0  0
   -2.2007    0.3971    0.0000 C   0  0  0  0  0  0  0  0  0
   -2.2007    1.2221    0.0000 C   0  0  0  0  0  0  0  0  0
   -1.4863    1.6346    0.0000 C   0  0  0  0  0  0  0  0  0
   -0.7718    1.2221    0.0000 C   0  0  0  0  0  0  0  0  0
   -2.9152    1.6346    0.0000 C   0  0  0  0  0  0  0  0  0
  1  2  1  0  0  0  0
  1 15  1  0  0  0  0
  2  3  1  0  0  0  0
  3  4  1  0  0  0  0
  4  5  1  0  0  0  0
  5  6  1  0  0  0  0
  6  7  1  0  0  0  0
  7  8  1  0  0  0  0
  8  9  1  0  0  0  0
  9 10  4  0  0  0  0
  9 14  4  0  0  0  0
 10 11  4  0  0  0  0
 11 12  4  0  0  0  0
 12 13  4  0  0  0  0
 13 14  4  0  0  0  0
 15 16  4  0  0  0  0
 15 20  4  0  0  0  0
 16 17  4  0  0  0  0
 17 18  4  0  0  0  0
 18 19  4  0  0  0  0
 18 21  1  0  0  0  0
 19 20  4  0  0  0  0
M  END
>  <Name_Molregno>
215104

>  <DOPAMINE D2>
7.19

>  <DOPAMINE D3>
7.18

>  <DOPAMINE D4>
8.57

$$$$
215172
  Marvin  02231216192D 0   1.00000     0.00000     0

 23 24  0  0  0  0  0  0  0  0999 V2000
   -0.0839    0.0096    0.0000 O   0  0  0  0  0  0  0  0  0
    0.6306    0.4221    0.0000 C   0  0  0  0  0  0  0  0  0
    1.3450    0.0096    0.0000 C   0  0  0  0  0  0  0  0  0
    2.0595    0.4221    0.0000 C   0  0  0  0  0  0  0  0  0
    2.7740    0.0096    0.0000 N   0  0  0  0  0  0  0  0  0
    3.4884    0.4221    0.0000 C   0  0  0  0  0  0  0  0  0
    4.2029    0.0096    0.0000 C   0  0  0  0  0  0  0  0  0
    4.9174    0.4221    0.0000 O   0  0  0  0  0  0  0  0  0
    5.6319    0.0096    0.0000 C   0  0  0  0  0  0  0  0  0
    6.3463    0.4221    0.0000 C   0  0  0  0  0  0  0  0  0
    7.0608    0.0096    0.0000 C   0  0  0  0  0  0  0  0  0
    7.0608   -0.8154    0.0000 C   0  0  0  0  0  0  0  0  0
    7.7753   -1.2279    0.0000 N   0  3  0  0  0  0  0  0  0
    7.7753   -2.0529    0.0000 O   0  5  0  0  0  0  0  0  0
    8.4897   -0.8154    0.0000 O   0  5  0  0  0  0  0  0  0
    6.3463   -1.2279    0.0000 C   0  0  0  0  0  0  0  0  0
    5.6319   -0.8154    0.0000 C   0  0  0  0  0  0  0  0  0
   -0.7984    0.4221    0.0000 C   0  0  0  0  0  0  0  0  0
   -1.5129    0.0096    0.0000 C   0  0  0  0  0  0  0  0  0
   -2.2273    0.4221    0.0000 C   0  0  0  0  0  0  0  0  0
   -2.2273    1.2471    0.0000 C   0  0  0  0  0  0  0  0  0
   -1.5129    1.6596    0.0000 C   0  0  0  0  0  0  0  0  0
   -0.7984    1.2471    0.0000 C   0  0  0  0  0  0  0  0  0
  1  2  1  0  0  0  0
  1 18  1  0  0  0  0
  2  3  1  0  0  0  0
  3  4  1  0  0  0  0
  4  5  1  0  0  0  0
  5  6  1  0  0  0  0
  6  7  1  0  0  0  0
  7  8  1  0  0  0  0
  8  9  1  0  0  0  0
  9 10  4  0  0  0  0
  9 17  4  0  0  0  0
 10 11  4  0  0  0  0
 11 12  4  0  0  0  0
 12 13  1  0  0  0  0
 12 16  4  0  0  0  0
 13 14  1  0  0  0  0
 13 15  1  0  0  0  0
 16 17  4  0  0  0  0
 18 19  4  0  0  0  0
 18 23  4  0  0  0  0
 19 20  4  0  0  0  0
 20 21  4  0  0  0  0
 21 22  4  0  0  0  0
 22 23  4  0  0  0  0
M  CHG  3  13   1  14  -1  15  -1
M  END
>  <Name_Molregno>
215172

>  <DOPAMINE D2>
5.85

>  <DOPAMINE D3>
6.46

>  <DOPAMINE D4>
8.36

$$$$
215267
  Marvin  02231216192D 0   1.00000     0.00000     0

 22 23  0  0  0  0  0  0  0  0999 V2000
    0.0299    1.8725    0.0000 F   0  0  0  0  0  0  0  0  0
    0.7444    1.4600    0.0000 C   0  0  0  0  0  0  0  0  0
    1.4589    1.8725    0.0000 C   0  0  0  0  0  0  0  0  0
    2.1734    1.4600    0.0000 C   0  0  0  0  0  0  0  0  0
    2.1734    0.6350    0.0000 C   0  0  0  0  0  0  0  0  0
    2.8878    0.2225    0.0000 O   0  0  0  0  0  0  0  0  0
    3.6023    0.6350    0.0000 C   0  0  0  0  0  0  0  0  0
    4.3168    0.2225    0.0000 C   0  0  0  0  0  0  0  0  0
    5.0312    0.6350    0.0000 C   0  0  0  0  0  0  0  0  0
    5.7457    0.2225    0.0000 N   0  0  0  0  0  0  0  0  0
    6.4602    0.6350    0.0000 C   0  0  0  0  0  0  0  0  0
    7.1747    0.2225    0.0000 C   0  0  0  0  0  0  0  0  0
    7.8891    0.6350    0.0000 O   0  0  0  0  0  0  0  0  0
    8.6036    0.2225    0.0000 C   0  0  0  0  0  0  0  0  0
    9.3181    0.6350    0.0000 C   0  0  0  0  0  0  0  0  0
   10.0325    0.2225    0.0000 C   0  0  0  0  0  0  0  0  0
   10.0325   -0.6025    0.0000 C   0  0  0  0  0  0  0  0  0
    9.3181   -1.0150    0.0000 C   0  0  0  0  0  0  0  0  0
    8.6036   -0.6025    0.0000 C   0  0  0  0  0  0  0  0  0
   10.7470   -1.0150    0.0000 C   0  0  0  0  0  0  0  0  0
    1.4589    0.2225    0.0000 C   0  0  0  0  0  0  0  0  0
    0.7444    0.6350    0.0000 C   0  0  0  0  0  0  0  0  0
  1  2  1  0  0  0  0
  2  3  4  0  0  0  0
  2 22  4  0  0  0  0
  3  4  4  0  0  0  0
  4  5  4  0  0  0  0
  5  6  1  0  0  0  0
  5 21  4  0  0  0  0
  6  7  1  0  0  0  0
  7  8  1  0  0  0  0
  8  9  1  0  0  0  0
  9 10  1  0  0  0  0
 10 11  1  0  0  0  0
 11 12  1  0  0  0  0
 12 13  1  0  0  0  0
 13 14  1  0  0  0  0
 14 15  4  0  0  0  0
 14 19  4  0  0  0  0
 15 16  4  0  0  0  0
 16 17  4  0  0  0  0
 17 18  4  0  0  0  0
 17 20  1  0  0  0  0
 18 19  4  0  0  0  0
 21 22  4  0  0  0  0
M  END
>  <Name_Molregno>
215267

>  <DOPAMINE D2>
6.41

>  <DOPAMINE D3>
6.63

>  <DOPAMINE D4>
9.02

$$$$
215268
  Marvin  02231216192D 0   1.00000     0.00000     0

 22 23  0  0  0  0  0  0  0  0999 V2000
    0.0299    1.8725    0.0000 Br  0  0  0  0  0  0  0  0  0
    0.7444    1.4600    0.0000 C   0  0  0  0  0  0  0  0  0
    1.4589    1.8725    0.0000 C   0  0  0  0  0  0  0  0  0
    2.1734    1.4600    0.0000 C   0  0  0  0  0  0  0  0  0
    2.1734    0.6350    0.0000 C   0  0  0  0  0  0  0  0  0
    2.8878    0.2225    0.0000 O   0  0  0  0  0  0  0  0  0
    3.6023    0.6350    0.0000 C   0  0  0  0  0  0  0  0  0
    4.3168    0.2225    0.0000 C   0  0  0  0  0  0  0  0  0
    5.0312    0.6350    0.0000 C   0  0  0  0  0  0  0  0  0
    5.7457    0.2225    0.0000 N   0  0  0  0  0  0  0  0  0
    6.4602    0.6350    0.0000 C   0  0  0  0  0  0  0  0  0
    7.1747    0.2225    0.0000 C   0  0  0  0  0  0  0  0  0
    7.8891    0.6350    0.0000 O   0  0  0  0  0  0  0  0  0
    8.6036    0.2225    0.0000 C   0  0  0  0  0  0  0  0  0
    9.3181    0.6350    0.0000 C   0  0  0  0  0  0  0  0  0
   10.0325    0.2225    0.0000 C   0  0  0  0  0  0  0  0  0
   10.0325   -0.6025    0.0000 C   0  0  0  0  0  0  0  0  0
    9.3181   -1.0150    0.0000 C   0  0  0  0  0  0  0  0  0
    8.6036   -0.6025    0.0000 C   0  0  0  0  0  0  0  0  0
   10.7470   -1.0150    0.0000 C   0  0  0  0  0  0  0  0  0
    1.4589    0.2225    0.0000 C   0  0  0  0  0  0  0  0  0
    0.7444    0.6350    0.0000 C   0  0  0  0  0  0  0  0  0
  1  2  1  0  0  0  0
  2  3  4  0  0  0  0
  2 22  4  0  0  0  0
  3  4  4  0  0  0  0
  4  5  4  0  0  0  0
  5  6  1  0  0  0  0
  5 21  4  0  0  0  0
  6  7  1  0  0  0  0
  7  8  1  0  0  0  0
  8  9  1  0  0  0  0
  9 10  1  0  0  0  0
 10 11  1  0  0  0  0
 11 12  1  0  0  0  0
 12 13  1  0  0  0  0
 13 14  1  0  0  0  0
 14 15  4  0  0  0  0
 14 19  4  0  0  0  0
 15 16  4  0  0  0  0
 16 17  4  0  0  0  0
 17 18  4  0  0  0  0
 17 20  1  0  0  0  0
 18 19  4  0  0  0  0
 21 22  4  0  0  0  0
M  END
>  <Name_Molregno>
215268

>  <DOPAMINE D2>
5.24

>  <DOPAMINE D3>
5.77

>  <DOPAMINE D4>
7.57

$$$$
215311
  Marvin  02231216192D 0   1.00000     0.00000     0

 22 23  0  0  0  0  0  0  0  0999 V2000
   -0.0634   -0.3872    0.0000 O   0  0  0  0  0  0  0  0  0
    0.6511    0.0253    0.0000 C   0  0  0  0  0  0  0  0  0
    1.3655   -0.3872    0.0000 C   0  0  0  0  0  0  0  0  0
    2.0800    0.0253    0.0000 C   0  0  0  0  0  0  0  0  0
    2.7945   -0.3872    0.0000 N   0  0  0  0  0  0  0  0  0
    3.5089    0.0253    0.0000 C   0  0  0  0  0  0  0  0  0
    4.2234   -0.3872    0.0000 C   0  0  0  0  0  0  0  0  0
    4.9379    0.0253    0.0000 O   0  0  0  0  0  0  0  0  0
    5.6524   -0.3872    0.0000 C   0  0  0  0  0  0  0  0  0
    6.3668    0.0253    0.0000 C   0  0  0  0  0  0  0  0  0
    7.0813   -0.3872    0.0000 C   0  0  0  0  0  0  0  0  0
    7.0813   -1.2122    0.0000 C   0  0  0  0  0  0  0  0  0
    6.3668   -1.6247    0.0000 C   0  0  0  0  0  0  0  0  0
    5.6524   -1.2122    0.0000 C   0  0  0  0  0  0  0  0  0
    7.7958   -1.6247    0.0000 C   0  0  0  0  0  0  0  0  0
   -0.7779    0.0253    0.0000 C   0  0  0  0  0  0  0  0  0
   -1.4924   -0.3872    0.0000 C   0  0  0  0  0  0  0  0  0
   -2.2068    0.0253    0.0000 C   0  0  0  0  0  0  0  0  0
   -2.2068    0.8503    0.0000 C   0  0  0  0  0  0  0  0  0
   -1.4924    1.2628    0.0000 C   0  0  0  0  0  0  0  0  0
   -0.7779    0.8503    0.0000 C   0  0  0  0  0  0  0  0  0
   -2.9213    1.2628    0.0000 C   0  0  0  0  0  0  0  0  0
  1  2  1  0  0  0  0
  1 16  1  0  0  0  0
  2  3  1  0  0  0  0
  3  4  1  0  0  0  0
  4  5  1  0  0  0  0
  5  6  1  0  0  0  0
  6  7  1  0  0  0  0
  7  8  1  0  0  0  0
  8  9  1  0  0  0  0
  9 10  4  0  0  0  0
  9 14  4  0  0  0  0
 10 11  4  0  0  0  0
 11 12  4  0  0  0  0
 12 13  4  0  0  0  0
 12 15  1  0  0  0  0
 13 14  4  0  0  0  0
 16 17  4  0  0  0  0
 16 21  4  0  0  0  0
 17 18  4  0  0  0  0
 18 19  4  0  0  0  0
 19 20  4  0  0  0  0
 19 22  1  0  0  0  0
 20 21  4  0  0  0  0
M  END
>  <Name_Molregno>
215311

>  <DOPAMINE D2>
6.56

>  <DOPAMINE D3>
6.63

>  <DOPAMINE D4>
7.96

$$$$
215743
  Marvin  02231216192D 0   1.00000     0.00000     0

 22 23  0  0  0  0  0  0  0  0999 V2000
   -0.0509   -0.5073    0.0000 O   0  0  0  0  0  0  0  0  0
    0.6635   -0.0948    0.0000 C   0  0  0  0  0  0  0  0  0
    1.3780   -0.5073    0.0000 C   0  0  0  0  0  0  0  0  0
    2.0925   -0.0948    0.0000 N   0  0  0  0  0  0  0  0  0
    2.8069   -0.5073    0.0000 C   0  0  0  0  0  0  0  0  0
    3.5214   -0.0948    0.0000 C   0  0  0  0  0  0  0  0  0
    4.2359   -0.5073    0.0000 C   0  0  0  0  0  0  0  0  0
    4.9504   -0.0948    0.0000 O   0  0  0  0  0  0  0  0  0
    5.6648   -0.5073    0.0000 C   0  0  0  0  0  0  0  0  0
    6.3793   -0.0948    0.0000 C   0  0  0  0  0  0  0  0  0
    7.0938   -0.5073    0.0000 C   0  0  0  0  0  0  0  0  0
    7.0938   -1.3323    0.0000 C   0  0  0  0  0  0  0  0  0
    6.3793   -1.7448    0.0000 C   0  0  0  0  0  0  0  0  0
    5.6648   -1.3323    0.0000 C   0  0  0  0  0  0  0  0  0
   -0.7654   -0.0948    0.0000 C   0  0  0  0  0  0  0  0  0
   -1.4799   -0.5073    0.0000 C   0  0  0  0  0  0  0  0  0
   -2.1944   -0.0948    0.0000 C   0  0  0  0  0  0  0  0  0
   -2.9088   -0.5073    0.0000 C   0  0  0  0  0  0  0  0  0
   -2.1944    0.7302    0.0000 C   0  0  0  0  0  0  0  0  0
   -1.4799    1.1427    0.0000 C   0  0  0  0  0  0  0  0  0
   -0.7654    0.7302    0.0000 C   0  0  0  0  0  0  0  0  0
   -2.9088    1.1427    0.0000 C   0  0  0  0  0  0  0  0  0
  1  2  1  0  0  0  0
  1 15  1  0  0  0  0
  2  3  1  0  0  0  0
  3  4  1  0  0  0  0
  4  5  1  0  0  0  0
  5  6  1  0  0  0  0
  6  7  1  0  0  0  0
  7  8  1  0  0  0  0
  8  9  1  0  0  0  0
  9 10  4  0  0  0  0
  9 14  4  0  0  0  0
 10 11  4  0  0  0  0
 11 12  4  0  0  0  0
 12 13  4  0  0  0  0
 13 14  4  0  0  0  0
 15 16  4  0  0  0  0
 15 21  4  0  0  0  0
 16 17  4  0  0  0  0
 17 18  1  0  0  0  0
 17 19  4  0  0  0  0
 19 20  4  0  0  0  0
 19 22  1  0  0  0  0
 20 21  4  0  0  0  0
M  END
>  <Name_Molregno>
215743

>  <DOPAMINE D2>
6.84

>  <DOPAMINE D3>
7.14

>  <DOPAMINE D4>
9.46

$$$$
215788
  Marvin  02231216192D 0   1.00000     0.00000     0

 21 22  0  0  0  0  0  0  0  0999 V2000
    0.0302    0.9893    0.0000 Cl  0  0  0  0  0  0  0  0  0
    0.7447    0.5768    0.0000 C   0  0  0  0  0  0  0  0  0
    1.4591    0.9893    0.0000 C   0  0  0  0  0  0  0  0  0
    2.1736    0.5768    0.0000 C   0  0  0  0  0  0  0  0  0
    2.1736   -0.2482    0.0000 C   0  0  0  0  0  0  0  0  0
    2.8881   -0.6607    0.0000 O   0  0  0  0  0  0  0  0  0
    3.6026   -0.2482    0.0000 C   0  0  0  0  0  0  0  0  0
    4.3170   -0.6607    0.0000 C   0  0  0  0  0  0  0  0  0
    5.0315   -0.2482    0.0000 N   0  0  0  0  0  0  0  0  0
    5.7460   -0.6607    0.0000 C   0  0  0  0  0  0  0  0  0
    6.4604   -0.2482    0.0000 C   0  0  0  0  0  0  0  0  0
    7.1749   -0.6607    0.0000 C   0  0  0  0  0  0  0  0  0
    7.8894   -0.2482    0.0000 O   0  0  0  0  0  0  0  0  0
    8.6039   -0.6607    0.0000 C   0  0  0  0  0  0  0  0  0
    9.3183   -0.2482    0.0000 C   0  0  0  0  0  0  0  0  0
   10.0328   -0.6607    0.0000 C   0  0  0  0  0  0  0  0  0
   10.0328   -1.4857    0.0000 C   0  0  0  0  0  0  0  0  0
    9.3183   -1.8982    0.0000 C   0  0  0  0  0  0  0  0  0
    8.6039   -1.4857    0.0000 C   0  0  0  0  0  0  0  0  0
    1.4591   -0.6607    0.0000 C   0  0  0  0  0  0  0  0  0
    0.7447   -0.2482    0.0000 C   0  0  0  0  0  0  0  0  0
  1  2  1  0  0  0  0
  2  3  4  0  0  0  0
  2 21  4  0  0  0  0
  3  4  4  0  0  0  0
  4  5  4  0  0  0  0
  5  6  1  0  0  0  0
  5 20  4  0  0  0  0
  6  7  1  0  0  0  0
  7  8  1  0  0  0  0
  8  9  1  0  0  0  0
  9 10  1  0  0  0  0
 10 11  1  0  0  0  0
 11 12  1  0  0  0  0
 12 13  1  0  0  0  0
 13 14  1  0  0  0  0
 14 15  4  0  0  0  0
 14 19  4  0  0  0  0
 15 16  4  0  0  0  0
 16 17  4  0  0  0  0
 17 18  4  0  0  0  0
 18 19  4  0  0  0  0
 20 21  4  0  0  0  0
M  END
>  <Name_Molregno>
215788

>  <DOPAMINE D2>
6.64

>  <DOPAMINE D3>
7.51

>  <DOPAMINE D4>
9.28

$$$$
217067
  Marvin  02231216192D 0   1.00000     0.00000     0

 29 31  0  0  1  0  0  0  0  0999 V2000
   -1.2017    1.0936    0.0000 S   0  0  0  0  0  0  0  0  0
   -1.2017    0.2686    0.0000 O   0  0  0  0  0  0  0  0  0
   -1.2017    1.9186    0.0000 O   0  0  0  0  0  0  0  0  0
   -2.0267    1.0936    0.0000 C   0  0  0  0  0  0  0  0  0
   -2.4392    0.3791    0.0000 C   0  0  0  0  0  0  0  0  0
   -2.0267   -0.3354    0.0000 C   0  0  0  0  0  0  0  0  0
   -2.4392   -1.0498    0.0000 C   0  0  0  0  0  0  0  0  0
   -2.0267   -1.7643    0.0000 C   0  0  0  0  0  0  0  0  0
   -2.4392   -2.4788    0.0000 C   0  0  0  0  0  0  0  0  0
   -3.2642   -2.4788    0.0000 C   0  0  0  0  0  0  0  0  0
   -3.6767   -3.1932    0.0000 N   0  0  0  0  0  0  0  0  0
   -4.5017   -3.1932    0.0000 C   0  0  0  0  0  0  0  0  0
   -4.9142   -3.9077    0.0000 C   0  0  0  0  0  0  0  0  0
   -5.7392   -3.9077    0.0000 C   0  0  0  0  0  0  0  0  0
   -3.2642   -3.9077    0.0000 C   0  0  0  0  0  0  0  0  0
   -2.4392   -3.9077    0.0000 C   0  0  0  0  0  0  0  0  0
   -2.0267   -4.6222    0.0000 C   0  0  0  0  0  0  0  0  0
   -3.6767   -1.7643    0.0000 C   0  0  0  0  0  0  0  0  0
   -3.2642   -1.0498    0.0000 C   0  0  0  0  0  0  0  0  0
   -3.6767   -0.3354    0.0000 C   0  0  0  0  0  0  0  0  0
   -3.2642    0.3791    0.0000 C   0  0  0  0  0  0  0  0  0
   -0.3767    1.0936    0.0000 C   0  0  0  0  0  0  0  0  0
    0.0358    1.8081    0.0000 C   0  0  0  0  0  0  0  0  0
    0.8608    1.8081    0.0000 C   0  0  0  0  0  0  0  0  0
    1.2733    1.0936    0.0000 C   0  0  0  0  0  0  0  0  0
    2.0983    1.0936    0.0000 O   0  0  0  0  0  0  0  0  0
    2.5108    1.8081    0.0000 C   0  0  0  0  0  0  0  0  0
    0.8608    0.3791    0.0000 C   0  0  0  0  0  0  0  0  0
    0.0358    0.3791    0.0000 C   0  0  0  0  0  0  0  0  0
  1  2  2  0  0  0  0
  1  3  2  0  0  0  0
  1  4  1  0  0  0  0
  1 22  1  0  0  0  0
  4  5  1  0  0  0  0
  5  6  4  0  0  0  0
  5 21  4  0  0  0  0
  6  7  4  0  0  0  0
  7  8  1  0  0  0  0
  7 19  4  0  0  0  0
  8  9  1  0  0  0  0
  9 10  1  0  0  0  0
 10 11  1  0  0  0  0
 10 18  1  0  0  0  0
 11 12  1  0  0  0  0
 11 15  1  0  0  0  0
 12 13  1  0  0  0  0
 13 14  1  0  0  0  0
 15 16  1  0  0  0  0
 16 17  1  0  0  0  0
 18 19  1  0  0  0  0
 19 20  4  0  0  0  0
 20 21  4  0  0  0  0
 22 23  4  0  0  0  0
 22 29  4  0  0  0  0
 23 24  4  0  0  0  0
 24 25  4  0  0  0  0
 25 26  1  0  0  0  0
 25 28  4  0  0  0  0
 26 27  1  0  0  0  0
 28 29  4  0  0  0  0
M  END
>  <Name_Molregno>
217067

>  <5-HT1A>
6.8

>  <5-HT1B>
6

>  <5-HT1D>
6

>  <5-HT2A>
6

>  <5-HT2C>
6

>  <DOPAMINE D1>
6

>  <DOPAMINE D2>
7.03

>  <DOPAMINE D3>
8.88

>  <DOPAMINE D4>
5

>  <DOPAMINE D5>
6

$$$$
217302
  Marvin  02231216192D 0   1.00000     0.00000     0

 31 35  0  0  0  0  0  0  0  0999 V2000
   -8.3842    0.5579    0.0000 F   0  0  0  0  0  0  0  0  0
   -8.5558   -0.2490    0.0000 C   0  0  0  0  0  0  0  0  0
   -7.9427   -0.8011    0.0000 C   0  0  0  0  0  0  0  0  0
   -8.1142   -1.6080    0.0000 C   0  0  0  0  0  0  0  0  0
   -8.8988   -1.8630    0.0000 C   0  0  0  0  0  0  0  0  0
   -8.8988   -2.6880    0.0000 N   0  0  0  0  0  0  0  0  0
   -8.1142   -2.9429    0.0000 C   0  0  0  0  0  0  0  0  0
   -7.6293   -2.2755    0.0000 C   0  0  0  0  0  0  0  0  0
   -6.8043   -2.2755    0.0000 C   0  0  0  0  0  0  0  0  0
   -6.3918   -1.5610    0.0000 C   0  0  0  0  0  0  0  0  0
   -5.5668   -1.5610    0.0000 C   0  0  0  0  0  0  0  0  0
   -5.1543   -2.2755    0.0000 N   0  0  0  0  0  0  0  0  0
   -5.5668   -2.9900    0.0000 C   0  0  0  0  0  0  0  0  0
   -6.3918   -2.9900    0.0000 C   0  0  0  0  0  0  0  0  0
   -4.3293   -2.2755    0.0000 C   0  0  0  0  0  0  0  0  0
   -3.9168   -1.5610    0.0000 C   0  0  0  0  0  0  0  0  0
   -3.0918   -1.5610    0.0000 C   0  0  0  0  0  0  0  0  0
   -2.6793   -0.8465    0.0000 C   0  0  0  0  0  0  0  0  0
   -1.8543   -0.8465    0.0000 N   0  0  0  0  0  0  0  0  0
   -1.3694   -1.5140    0.0000 C   0  0  0  0  0  0  0  0  0
   -1.6243   -2.2986    0.0000 O   0  0  0  0  0  0  0  0  0
   -0.5847   -1.2590    0.0000 C   0  0  0  0  0  0  0  0  0
   -0.5847   -0.4340    0.0000 C   0  0  0  0  0  0  0  0  0
    0.1297   -0.0215    0.0000 C   0  0  0  0  0  0  0  0  0
    0.8442   -0.4340    0.0000 C   0  0  0  0  0  0  0  0  0
    0.8442   -1.2590    0.0000 C   0  0  0  0  0  0  0  0  0
    0.1297   -1.6715    0.0000 C   0  0  0  0  0  0  0  0  0
   -1.3694   -0.1791    0.0000 C   0  0  0  0  0  0  0  0  0
   -1.6243    0.6055    0.0000 O   0  0  0  0  0  0  0  0  0
   -9.5119   -1.3110    0.0000 C   0  0  0  0  0  0  0  0  0
   -9.3404   -0.5040    0.0000 C   0  0  0  0  0  0  0  0  0
  1  2  1  0  0  0  0
  2  3  4  0  0  0  0
  2 31  4  0  0  0  0
  3  4  4  0  0  0  0
  4  5  4  0  0  0  0
  4  8  4  0  0  0  0
  5  6  4  0  0  0  0
  5 30  4  0  0  0  0
  6  7  4  0  0  0  0
  7  8  4  0  0  0  0
  8  9  1  0  0  0  0
  9 10  1  0  0  0  0
  9 14  2  0  0  0  0
 10 11  1  0  0  0  0
 11 12  1  0  0  0  0
 12 13  1  0  0  0  0
 12 15  1  0  0  0  0
 13 14  1  0  0  0  0
 15 16  1  0  0  0  0
 16 17  1  0  0  0  0
 17 18  1  0  0  0  0
 18 19  1  0  0  0  0
 19 20  1  0  0  0  0
 19 28  1  0  0  0  0
 20 21  2  0  0  0  0
 20 22  1  0  0  0  0
 22 23  4  0  0  0  0
 22 27  4  0  0  0  0
 23 24  4  0  0  0  0
 23 28  1  0  0  0  0
 24 25  4  0  0  0  0
 25 26  4  0  0  0  0
 26 27  4  0  0  0  0
 28 29  2  0  0  0  0
 30 31  4  0  0  0  0
M  STY  1   1 DAT
M  SAL   1  1   6
M  SDT   1 MRV_IMPLICIT_H                                        
M  SDD   1     0.0000    0.0000    DR    ALL  0       0  
M  SED   1 IMPL_H1
M  END
>  <Name_Molregno>
217302

>  <5-HT1A>
8.6

>  <5-HT2A>
7

>  <5-HT2C>
7.4

>  <5-HT6>
6.4

>  <5-HT7>
7

>  <DOPAMINE D3>
9.1

>  <Serotonin transporter>
9.1

$$$$
228506
  Marvin  02231216192D 0   1.00000     0.00000     0

 20 22  0  0  1  0  0  0  0  0999 V2000
   -4.2966   -3.3388    0.0000 O   0  0  0  0  0  0  0  0  0
   -3.9610   -4.0924    0.0000 C   0  0  0  0  0  0  0  0  0
   -3.1405   -4.0062    0.0000 C   0  0  0  0  0  0  0  0  0
   -2.9690   -3.1992    0.0000 C   0  0  0  0  0  0  0  0  0
   -3.6835   -2.7867    0.0000 C   0  0  0  0  0  0  0  0  0
   -3.6835   -1.9617    0.0000 C   0  0  0  0  0  0  0  0  0
   -2.9690   -1.5492    0.0000 C   0  0  0  0  0  0  0  0  0
   -2.9690   -0.7242    0.0000 C   0  0  0  0  0  0  0  0  0
   -2.2545   -0.3117    0.0000 C   0  0  0  0  0  0  0  0  0
   -2.2545    0.5133    0.0000 N   0  0  0  0  0  0  0  0  0
   -2.9690    0.9258    0.0000 C   0  0  0  0  0  0  0  0  0
   -2.9690    1.7508    0.0000 C   0  0  0  0  0  0  0  0  0
   -3.6835    2.1633    0.0000 C   0  0  0  0  0  0  0  0  0
   -1.5401    0.9258    0.0000 C   0  0  0  0  0  0  0  0  0
   -1.5401    1.7508    0.0000 C   0  0  0  0  0  0  0  0  0
   -0.8256    2.1633    0.0000 C   0  0  0  0  0  0  0  0  0
   -1.5401   -0.7242    0.0000 C   0  0  0  0  0  0  0  0  0
   -1.5401   -1.5492    0.0000 C   0  0  0  0  0  0  0  0  0
   -2.2545   -1.9617    0.0000 C   0  0  0  0  0  0  0  0  0
   -2.2545   -2.7867    0.0000 C   0  0  0  0  0  0  0  0  0
  1  2  1  0  0  0  0
  1  5  1  0  0  0  0
  2  3  1  0  0  0  0
  3  4  1  0  0  0  0
  4  5  4  0  0  0  0
  4 20  4  0  0  0  0
  5  6  4  0  0  0  0
  6  7  4  0  0  0  0
  7  8  1  0  0  0  0
  7 19  4  0  0  0  0
  8  9  1  0  0  0  0
  9 10  1  0  0  0  0
  9 17  1  0  0  0  0
 10 11  1  0  0  0  0
 10 14  1  0  0  0  0
 11 12  1  0  0  0  0
 12 13  1  0  0  0  0
 14 15  1  0  0  0  0
 15 16  1  0  0  0  0
 17 18  1  0  0  0  0
 18 19  1  0  0  0  0
 19 20  4  0  0  0  0
M  END
>  <Name_Molregno>
228506

>  <DOPAMINE D2>
6.6

>  <DOPAMINE D3>
7.82

$$$$
229082
  Marvin  02231216192D 0   1.00000     0.00000     0

 19 20  0  0  1  0  0  0  0  0999 V2000
   -0.6441    1.1125    0.0000 F   0  0  0  0  0  0  0  0  0
   -1.4691    1.1125    0.0000 C   0  0  0  0  0  0  0  0  0
   -1.8816    0.3980    0.0000 C   0  0  0  0  0  0  0  0  0
   -1.4691   -0.3165    0.0000 C   0  0  0  0  0  0  0  0  0
   -1.8816   -1.0309    0.0000 C   0  0  0  0  0  0  0  0  0
   -2.7066   -1.0309    0.0000 C   0  0  0  0  0  0  0  0  0
   -3.1191   -1.7454    0.0000 N   0  0  0  0  0  0  0  0  0
   -3.9441   -1.7454    0.0000 C   0  0  0  0  0  0  0  0  0
   -4.3566   -2.4599    0.0000 C   0  0  0  0  0  0  0  0  0
   -5.1816   -2.4599    0.0000 C   0  0  0  0  0  0  0  0  0
   -5.5941   -3.1743    0.0000 C   0  0  0  0  0  0  0  0  0
   -2.7066   -2.4599    0.0000 C   0  0  0  0  0  0  0  0  0
   -1.8816   -2.4599    0.0000 C   0  0  0  0  0  0  0  0  0
   -1.4691   -3.1743    0.0000 C   0  0  0  0  0  0  0  0  0
   -3.1191   -0.3165    0.0000 C   0  0  0  0  0  0  0  0  0
   -2.7066    0.3980    0.0000 C   0  0  0  0  0  0  0  0  0
   -3.1191    1.1125    0.0000 C   0  0  0  0  0  0  0  0  0
   -2.7066    1.8270    0.0000 C   0  0  0  0  0  0  0  0  0
   -1.8816    1.8270    0.0000 C   0  0  0  0  0  0  0  0  0
  1  2  1  0  0  0  0
  2  3  4  0  0  0  0
  2 19  4  0  0  0  0
  3  4  1  0  0  0  0
  3 16  4  0  0  0  0
  4  5  1  0  0  0  0
  5  6  1  0  0  0  0
  6  7  1  0  0  0  0
  6 15  1  0  0  0  0
  7  8  1  0  0  0  0
  7 12  1  0  0  0  0
  8  9  1  0  0  0  0
  9 10  1  0  0  0  0
 10 11  1  0  0  0  0
 12 13  1  0  0  0  0
 13 14  1  0  0  0  0
 15 16  1  0  0  0  0
 16 17  4  0  0  0  0
 17 18  4  0  0  0  0
 18 19  4  0  0  0  0
M  END
>  <Name_Molregno>
229082

>  <DOPAMINE D2>
6.68

>  <DOPAMINE D3>
8.35

$$$$
229083
  Marvin  02231216192D 0   1.00000     0.00000     0

 16 17  0  0  1  0  0  0  0  0999 V2000
   -5.0347   -0.8342    0.0000 F   0  0  0  0  0  0  0  0  0
   -4.3202   -1.2467    0.0000 C   0  0  0  0  0  0  0  0  0
   -3.6058   -0.8342    0.0000 C   0  0  0  0  0  0  0  0  0
   -3.6058   -0.0092    0.0000 C   0  0  0  0  0  0  0  0  0
   -2.8913    0.4033    0.0000 C   0  0  0  0  0  0  0  0  0
   -2.1768   -0.0092    0.0000 C   0  0  0  0  0  0  0  0  0
   -1.4623    0.4033    0.0000 N   0  0  0  0  0  0  0  0  0
   -0.7479   -0.0092    0.0000 C   0  0  0  0  0  0  0  0  0
   -0.0334    0.4033    0.0000 C   0  0  0  0  0  0  0  0  0
    0.6811   -0.0092    0.0000 C   0  0  0  0  0  0  0  0  0
    1.3955    0.4033    0.0000 C   0  0  0  0  0  0  0  0  0
   -2.1768   -0.8342    0.0000 C   0  0  0  0  0  0  0  0  0
   -2.8913   -1.2467    0.0000 C   0  0  0  0  0  0  0  0  0
   -2.8913   -2.0717    0.0000 C   0  0  0  0  0  0  0  0  0
   -3.6058   -2.4842    0.0000 C   0  0  0  0  0  0  0  0  0
   -4.3202   -2.0717    0.0000 C   0  0  0  0  0  0  0  0  0
  1  2  1  0  0  0  0
  2  3  4  0  0  0  0
  2 16  4  0  0  0  0
  3  4  1  0  0  0  0
  3 13  4  0  0  0  0
  4  5  1  0  0  0  0
  5  6  1  0  0  0  0
  6  7  1  0  0  0  0
  6 12  1  0  0  0  0
  7  8  1  0  0  0  0
  8  9  1  0  0  0  0
  9 10  1  0  0  0  0
 10 11  1  0  0  0  0
 12 13  1  0  0  0  0
 13 14  4  0  0  0  0
 14 15  4  0  0  0  0
 15 16  4  0  0  0  0
M  END
>  <Name_Molregno>
229083

>  <DOPAMINE D2>
6.1

>  <DOPAMINE D3>
6.8

$$$$
229084
  Marvin  02231216192D 0   1.00000     0.00000     0

 19 21  0  0  1  0  0  0  0  0999 V2000
   -5.2145    1.4455    0.0000 F   0  0  0  0  0  0  0  0  0
   -5.2145    0.6205    0.0000 C   0  0  0  0  0  0  0  0  0
   -4.5000    0.2080    0.0000 C   0  0  0  0  0  0  0  0  0
   -3.7856    0.6205    0.0000 C   0  0  0  0  0  0  0  0  0
   -3.0711    0.2080    0.0000 C   0  0  0  0  0  0  0  0  0
   -3.0711   -0.6170    0.0000 C   0  0  0  0  0  0  0  0  0
   -2.3566   -1.0295    0.0000 N   0  0  0  0  0  0  0  0  0
   -1.6422   -0.6170    0.0000 C   0  0  0  0  0  0  0  0  0
   -0.9277   -1.0295    0.0000 C   0  0  0  0  0  0  0  0  0
   -0.2132   -0.6170    0.0000 C   0  0  0  0  0  0  0  0  0
    0.5013   -1.0295    0.0000 C   0  0  0  0  0  0  0  0  0
    0.5013   -1.8545    0.0000 C   0  0  0  0  0  0  0  0  0
   -0.2132   -2.2670    0.0000 C   0  0  0  0  0  0  0  0  0
   -0.9277   -1.8545    0.0000 C   0  0  0  0  0  0  0  0  0
   -3.7856   -1.0295    0.0000 C   0  0  0  0  0  0  0  0  0
   -4.5000   -0.6170    0.0000 C   0  0  0  0  0  0  0  0  0
   -5.2145   -1.0295    0.0000 C   0  0  0  0  0  0  0  0  0
   -5.9290   -0.6170    0.0000 C   0  0  0  0  0  0  0  0  0
   -5.9290    0.2080    0.0000 C   0  0  0  0  0  0  0  0  0
  1  2  1  0  0  0  0
  2  3  4  0  0  0  0
  2 19  4  0  0  0  0
  3  4  1  0  0  0  0
  3 16  4  0  0  0  0
  4  5  1  0  0  0  0
  5  6  1  0  0  0  0
  6  7  1  0  0  0  0
  6 15  1  0  0  0  0
  7  8  1  0  0  0  0
  8  9  1  0  0  0  0
  9 10  4  0  0  0  0
  9 14  4  0  0  0  0
 10 11  4  0  0  0  0
 11 12  4  0  0  0  0
 12 13  4  0  0  0  0
 13 14  4  0  0  0  0
 15 16  1  0  0  0  0
 16 17  4  0  0  0  0
 17 18  4  0  0  0  0
 18 19  4  0  0  0  0
M  END
>  <Name_Molregno>
229084

>  <DOPAMINE D2>
5.55

>  <DOPAMINE D3>
5.98

$$$$
229224
  Marvin  02231216192D 0   1.00000     0.00000     0

 15 16  0  0  1  0  0  0  0  0999 V2000
   -3.6405    1.0096    0.0000 F   0  0  0  0  0  0  0  0  0
   -3.6405    0.1846    0.0000 C   0  0  0  0  0  0  0  0  0
   -2.9260   -0.2279    0.0000 C   0  0  0  0  0  0  0  0  0
   -2.2115    0.1846    0.0000 C   0  0  0  0  0  0  0  0  0
   -1.4970   -0.2279    0.0000 C   0  0  0  0  0  0  0  0  0
   -1.4970   -1.0529    0.0000 C   0  0  0  0  0  0  0  0  0
   -0.7826   -1.4654    0.0000 N   0  0  0  0  0  0  0  0  0
   -0.0681   -1.0529    0.0000 C   0  0  0  0  0  0  0  0  0
    0.6464   -1.4654    0.0000 C   0  0  0  0  0  0  0  0  0
    1.3608   -1.0529    0.0000 C   0  0  0  0  0  0  0  0  0
   -2.2115   -1.4654    0.0000 C   0  0  0  0  0  0  0  0  0
   -2.9260   -1.0529    0.0000 C   0  0  0  0  0  0  0  0  0
   -3.6405   -1.4654    0.0000 C   0  0  0  0  0  0  0  0  0
   -4.3549   -1.0529    0.0000 C   0  0  0  0  0  0  0  0  0
   -4.3549   -0.2279    0.0000 C   0  0  0  0  0  0  0  0  0
  1  2  1  0  0  0  0
  2  3  4  0  0  0  0
  2 15  4  0  0  0  0
  3  4  1  0  0  0  0
  3 12  4  0  0  0  0
  4  5  1  0  0  0  0
  5  6  1  0  0  0  0
  6  7  1  0  0  0  0
  6 11  1  0  0  0  0
  7  8  1  0  0  0  0
  8  9  1  0  0  0  0
  9 10  1  0  0  0  0
 11 12  1  0  0  0  0
 12 13  4  0  0  0  0
 13 14  4  0  0  0  0
 14 15  4  0  0  0  0
M  END
>  <Name_Molregno>
229224

>  <DOPAMINE D2>
6.24

>  <DOPAMINE D3>
7.45

$$$$
229225
  Marvin  02231216192D 0   1.00000     0.00000     0

 15 16  0  0  1  0  0  0  0  0999 V2000
   -3.2498    1.2913    0.0000 F   0  0  0  0  0  0  0  0  0
   -3.2498    0.4663    0.0000 C   0  0  0  0  0  0  0  0  0
   -2.5354    0.0538    0.0000 C   0  0  0  0  0  0  0  0  0
   -1.8209    0.4663    0.0000 C   0  0  0  0  0  0  0  0  0
   -1.1064    0.0538    0.0000 C   0  0  0  0  0  0  0  0  0
   -1.1064   -0.7712    0.0000 C   0  0  0  0  0  0  0  0  0
   -0.3920   -1.1837    0.0000 N   0  0  0  0  0  0  0  0  0
   -0.3920   -2.0087    0.0000 C   0  0  0  0  0  0  0  0  0
    0.3225   -2.4212    0.0000 C   0  0  0  0  0  0  0  0  0
   -1.1064   -2.4212    0.0000 C   0  0  0  0  0  0  0  0  0
   -1.8209   -1.1837    0.0000 C   0  0  0  0  0  0  0  0  0
   -2.5354   -0.7712    0.0000 C   0  0  0  0  0  0  0  0  0
   -3.2498   -1.1837    0.0000 C   0  0  0  0  0  0  0  0  0
   -3.9643   -0.7712    0.0000 C   0  0  0  0  0  0  0  0  0
   -3.9643    0.0538    0.0000 C   0  0  0  0  0  0  0  0  0
  1  2  1  0  0  0  0
  2  3  4  0  0  0  0
  2 15  4  0  0  0  0
  3  4  1  0  0  0  0
  3 12  4  0  0  0  0
  4  5  1  0  0  0  0
  5  6  1  0  0  0  0
  6  7  1  0  0  0  0
  6 11  1  0  0  0  0
  7  8  1  0  0  0  0
  8  9  1  0  0  0  0
  8 10  1  0  0  0  0
 11 12  1  0  0  0  0
 12 13  4  0  0  0  0
 13 14  4  0  0  0  0
 14 15  4  0  0  0  0
M  END
>  <Name_Molregno>
229225

>  <DOPAMINE D2>
5.23

>  <DOPAMINE D3>
5.84

$$$$
229226
  Marvin  02231216192D 0   1.00000     0.00000     0

 12 13  0  0  1  0  0  0  0  0999 V2000
   -2.2994    0.6418    0.0000 F   0  0  0  0  0  0  0  0  0
   -2.2994   -0.1832    0.0000 C   0  0  0  0  0  0  0  0  0
   -1.5850   -0.5957    0.0000 C   0  0  0  0  0  0  0  0  0
   -0.8705   -0.1832    0.0000 C   0  0  0  0  0  0  0  0  0
   -0.1560   -0.5957    0.0000 C   0  0  0  0  0  0  0  0  0
   -0.1560   -1.4207    0.0000 C   0  0  0  0  0  0  0  0  0
    0.5584   -1.8332    0.0000 N   0  0  0  0  0  0  0  0  0
   -0.8705   -1.8332    0.0000 C   0  0  0  0  0  0  0  0  0
   -1.5850   -1.4207    0.0000 C   0  0  0  0  0  0  0  0  0
   -2.2994   -1.8332    0.0000 C   0  0  0  0  0  0  0  0  0
   -3.0139   -1.4207    0.0000 C   0  0  0  0  0  0  0  0  0
   -3.0139   -0.5957    0.0000 C   0  0  0  0  0  0  0  0  0
  1  2  1  0  0  0  0
  2  3  4  0  0  0  0
  2 12  4  0  0  0  0
  3  4  1  0  0  0  0
  3  9  4  0  0  0  0
  4  5  1  0  0  0  0
  5  6  1  0  0  0  0
  6  7  1  0  0  0  0
  6  8  1  0  0  0  0
  8  9  1  0  0  0  0
  9 10  4  0  0  0  0
 10 11  4  0  0  0  0
 11 12  4  0  0  0  0
M  END
>  <Name_Molregno>
229226

>  <DOPAMINE D2>
6.06

>  <DOPAMINE D3>
6.82

$$$$
229438
  Marvin  02231216192D 0   1.00000     0.00000     0

 18 19  0  0  1  0  0  0  0  0999 V2000
    0.7027    1.1485    0.0000 F   0  0  0  0  0  0  0  0  0
    0.7027    0.3235    0.0000 C   0  0  0  0  0  0  0  0  0
    1.4172   -0.0890    0.0000 C   0  0  0  0  0  0  0  0  0
    2.1317    0.3235    0.0000 C   0  0  0  0  0  0  0  0  0
    2.8461   -0.0890    0.0000 C   0  0  0  0  0  0  0  0  0
    2.8461   -0.9140    0.0000 C   0  0  0  0  0  0  0  0  0
    3.5606   -1.3265    0.0000 N   0  0  0  0  0  0  0  0  0
    3.5606   -2.1515    0.0000 C   0  0  0  0  0  0  0  0  0
    4.2751   -2.5640    0.0000 C   0  0  0  0  0  0  0  0  0
    2.8461   -2.5640    0.0000 C   0  0  0  0  0  0  0  0  0
    4.2751   -0.9140    0.0000 C   0  0  0  0  0  0  0  0  0
    4.9895   -1.3265    0.0000 C   0  0  0  0  0  0  0  0  0
    5.7040   -0.9140    0.0000 C   0  0  0  0  0  0  0  0  0
    2.1317   -1.3265    0.0000 C   0  0  0  0  0  0  0  0  0
    1.4172   -0.9140    0.0000 C   0  0  0  0  0  0  0  0  0
    0.7027   -1.3265    0.0000 C   0  0  0  0  0  0  0  0  0
   -0.0118   -0.9140    0.0000 C   0  0  0  0  0  0  0  0  0
   -0.0118   -0.0890    0.0000 C   0  0  0  0  0  0  0  0  0
  1  2  1  0  0  0  0
  2  3  4  0  0  0  0
  2 18  4  0  0  0  0
  3  4  1  0  0  0  0
  3 15  4  0  0  0  0
  4  5  1  0  0  0  0
  5  6  1  0  0  0  0
  6  7  1  0  0  0  0
  6 14  1  0  0  0  0
  7  8  1  0  0  0  0
  7 11  1  0  0  0  0
  8  9  1  0  0  0  0
  8 10  1  0  0  0  0
 11 12  1  0  0  0  0
 12 13  1  0  0  0  0
 14 15  1  0  0  0  0
 15 16  4  0  0  0  0
 16 17  4  0  0  0  0
 17 18  4  0  0  0  0
M  END
>  <Name_Molregno>
229438

>  <DOPAMINE D2>
5.33

>  <DOPAMINE D3>
6.7

$$$$
229525
  Marvin  02231216192D 0   1.00000     0.00000     0

 31 34  0  0  1  0  0  0  0  0999 V2000
    6.9783   -1.5288    0.0000 F   0  0  0  0  0  0  0  0  0
    6.1681   -1.3729    0.0000 C   0  0  0  0  0  0  0  0  0
    5.6280   -1.9966    0.0000 C   0  0  0  0  0  0  0  0  0
    5.8981   -2.7761    0.0000 C   0  0  0  0  0  0  0  0  0
    5.3580   -3.3998    0.0000 C   0  0  0  0  0  0  0  0  0
    4.5479   -3.2439    0.0000 C   0  0  0  0  0  0  0  0  0
    4.0078   -3.8675    0.0000 N   0  0  0  0  0  0  0  0  0
    3.1976   -3.7116    0.0000 C   0  0  0  0  0  0  0  0  0
    2.6575   -4.3352    0.0000 C   0  0  0  0  0  0  0  0  0
    1.8474   -4.1793    0.0000 C   0  0  0  0  0  0  0  0  0
    1.3073   -4.8030    0.0000 C   0  0  0  0  0  0  0  0  0
    0.4972   -4.6470    0.0000 N   0  0  0  0  0  0  0  0  0
   -0.0429   -5.2707    0.0000 C   0  0  0  0  0  0  0  0  0
    0.2271   -6.0502    0.0000 O   0  0  0  0  0  0  0  0  0
   -0.8530   -5.1148    0.0000 C   0  0  0  0  0  0  0  0  0
   -1.1231   -4.3352    0.0000 C   0  0  0  0  0  0  0  0  0
   -0.5830   -3.7116    0.0000 C   0  0  0  0  0  0  0  0  0
    0.2271   -3.8675    0.0000 C   0  0  0  0  0  0  0  0  0
    0.7672   -3.2439    0.0000 O   0  0  0  0  0  0  0  0  0
   -1.7254   -4.8990    0.0000 C   0  0  0  0  0  0  0  0  0
   -2.4477   -4.5004    0.0000 C   0  0  0  0  0  0  0  0  0
   -2.2918   -3.6902    0.0000 C   0  0  0  0  0  0  0  0  0
   -1.4731   -3.5882    0.0000 C   0  0  0  0  0  0  0  0  0
    4.2778   -4.6470    0.0000 C   0  0  0  0  0  0  0  0  0
    5.0879   -4.8030    0.0000 C   0  0  0  0  0  0  0  0  0
    5.3580   -5.5825    0.0000 C   0  0  0  0  0  0  0  0  0
    4.2778   -2.4643    0.0000 C   0  0  0  0  0  0  0  0  0
    4.8179   -1.8407    0.0000 C   0  0  0  0  0  0  0  0  0
    4.5479   -1.0611    0.0000 C   0  0  0  0  0  0  0  0  0
    5.0879   -0.4375    0.0000 C   0  0  0  0  0  0  0  0  0
    5.8981   -0.5934    0.0000 C   0  0  0  0  0  0  0  0  0
  1  2  1  0  0  0  0
  2  3  4  0  0  0  0
  2 31  4  0  0  0  0
  3  4  1  0  0  0  0
  3 28  4  0  0  0  0
  4  5  1  0  0  0  0
  5  6  1  0  0  0  0
  6  7  1  0  0  0  0
  6 27  1  0  0  0  0
  7  8  1  0  0  0  0
  7 24  1  0  0  0  0
  8  9  1  0  0  0  0
  9 10  1  0  0  0  0
 10 11  1  0  0  0  0
 11 12  1  0  0  0  0
 12 13  1  0  0  0  0
 12 18  1  0  0  0  0
 13 14  2  0  0  0  0
 13 15  1  0  0  0  0
 15 16  1  0  0  0  0
 16 17  1  0  0  0  0
 16 20  1  0  0  0  0
 16 23  1  0  0  0  0
 17 18  1  0  0  0  0
 18 19  2  0  0  0  0
 20 21  1  0  0  0  0
 21 22  1  0  0  0  0
 22 23  1  0  0  0  0
 24 25  1  0  0  0  0
 25 26  1  0  0  0  0
 27 28  1  0  0  0  0
 28 29  4  0  0  0  0
 29 30  4  0  0  0  0
 30 31  4  0  0  0  0
M  END
>  <Name_Molregno>
229525

>  <DOPAMINE D2>
7.77

>  <DOPAMINE D3>
9.6

$$$$
229929
  Marvin  02231216192D 0   1.00000     0.00000     0

 28 31  0  0  1  0  0  0  0  0999 V2000
   -7.8619   -3.6226    0.0000 F   0  0  0  0  0  0  0  0  0
   -7.1474   -4.0351    0.0000 C   0  0  0  0  0  0  0  0  0
   -6.4329   -3.6226    0.0000 C   0  0  0  0  0  0  0  0  0
   -6.4329   -2.7976    0.0000 C   0  0  0  0  0  0  0  0  0
   -5.7184   -2.3851    0.0000 C   0  0  0  0  0  0  0  0  0
   -5.0040   -2.7976    0.0000 C   0  0  0  0  0  0  0  0  0
   -4.2895   -2.3851    0.0000 N   0  0  0  0  0  0  0  0  0
   -3.5750   -2.7976    0.0000 C   0  0  0  0  0  0  0  0  0
   -2.8606   -2.3851    0.0000 C   0  0  0  0  0  0  0  0  0
   -2.1461   -2.7976    0.0000 C   0  0  0  0  0  0  0  0  0
   -1.4316   -2.3851    0.0000 C   0  0  0  0  0  0  0  0  0
   -0.7172   -2.7976    0.0000 N   0  0  0  0  0  0  0  0  0
   -0.0027   -2.3851    0.0000 C   0  0  0  0  0  0  0  0  0
   -0.0027   -1.5601    0.0000 O   0  0  0  0  0  0  0  0  0
    0.7118   -2.7976    0.0000 C   0  0  0  0  0  0  0  0  0
    0.7118   -3.6226    0.0000 C   0  0  0  0  0  0  0  0  0
   -0.0027   -4.0351    0.0000 C   0  0  0  0  0  0  0  0  0
   -0.7172   -3.6226    0.0000 C   0  0  0  0  0  0  0  0  0
   -1.4316   -4.0351    0.0000 O   0  0  0  0  0  0  0  0  0
    1.4655   -3.2871    0.0000 C   0  0  0  0  0  0  0  0  0
    2.0175   -3.9002    0.0000 C   0  0  0  0  0  0  0  0  0
    1.6050   -4.6146    0.0000 C   0  0  0  0  0  0  0  0  0
    0.7980   -4.4431    0.0000 C   0  0  0  0  0  0  0  0  0
   -5.0040   -3.6226    0.0000 C   0  0  0  0  0  0  0  0  0
   -5.7184   -4.0351    0.0000 C   0  0  0  0  0  0  0  0  0
   -5.7184   -4.8601    0.0000 C   0  0  0  0  0  0  0  0  0
   -6.4329   -5.2726    0.0000 C   0  0  0  0  0  0  0  0  0
   -7.1474   -4.8601    0.0000 C   0  0  0  0  0  0  0  0  0
  1  2  1  0  0  0  0
  2  3  4  0  0  0  0
  2 28  4  0  0  0  0
  3  4  1  0  0  0  0
  3 25  4  0  0  0  0
  4  5  1  0  0  0  0
  5  6  1  0  0  0  0
  6  7  1  0  0  0  0
  6 24  1  0  0  0  0
  7  8  1  0  0  0  0
  8  9  1  0  0  0  0
  9 10  1  0  0  0  0
 10 11  1  0  0  0  0
 11 12  1  0  0  0  0
 12 13  1  0  0  0  0
 12 18  1  0  0  0  0
 13 14  2  0  0  0  0
 13 15  1  0  0  0  0
 15 16  1  0  0  0  0
 16 17  1  0  0  0  0
 16 20  1  0  0  0  0
 16 23  1  0  0  0  0
 17 18  1  0  0  0  0
 18 19  2  0  0  0  0
 20 21  1  0  0  0  0
 21 22  1  0  0  0  0
 22 23  1  0  0  0  0
 24 25  1  0  0  0  0
 25 26  4  0  0  0  0
 26 27  4  0  0  0  0
 27 28  4  0  0  0  0
M  END
>  <Name_Molregno>
229929

>  <DOPAMINE D2>
7.17

>  <DOPAMINE D3>
8.31

$$$$
232974
  Marvin  02231216192D 0   1.00000     0.00000     0

 24 26  0  0  0  0  0  0  0  0999 V2000
    0.1578    2.6676    0.0000 F   0  0  0  0  0  0  0  0  0
    0.8723    2.2551    0.0000 C   0  0  0  0  0  0  0  0  0
    1.5868    2.6676    0.0000 C   0  0  0  0  0  0  0  0  0
    2.3013    2.2551    0.0000 C   0  0  0  0  0  0  0  0  0
    2.3013    1.4301    0.0000 C   0  0  0  0  0  0  0  0  0
    1.5868    1.0176    0.0000 C   0  0  0  0  0  0  0  0  0
    0.8723    1.4301    0.0000 C   0  0  0  0  0  0  0  0  0
    3.0157    1.0176    0.0000 C   0  0  0  0  0  0  0  0  0
    3.0157    0.1926    0.0000 O   0  0  0  0  0  0  0  0  0
    3.7302    1.4301    0.0000 C   0  0  0  0  0  0  0  0  0
    4.4447    1.0176    0.0000 C   0  0  0  0  0  0  0  0  0
    5.1591    1.4301    0.0000 C   0  0  0  0  0  0  0  0  0
    5.8736    1.0176    0.0000 N   0  0  0  0  0  0  0  0  0
    6.5881    1.4301    0.0000 C   0  0  0  0  0  0  0  0  0
    7.3026    1.0176    0.0000 C   0  0  0  0  0  0  0  0  0
    7.3026    0.1926    0.0000 N   0  0  0  0  0  0  0  0  0
    6.5881   -0.2199    0.0000 C   0  0  0  0  0  0  0  0  0
    5.8736    0.1926    0.0000 C   0  0  0  0  0  0  0  0  0
    8.0170   -0.2199    0.0000 C   0  0  0  0  0  0  0  0  0
    8.7315    0.1926    0.0000 N   0  0  0  0  0  0  0  0  0
    9.4460   -0.2199    0.0000 C   0  0  0  0  0  0  0  0  0
    9.4460   -1.0449    0.0000 C   0  0  0  0  0  0  0  0  0
    8.7315   -1.4574    0.0000 C   0  0  0  0  0  0  0  0  0
    8.0170   -1.0449    0.0000 N   0  0  0  0  0  0  0  0  0
  1  2  1  0  0  0  0
  2  3  4  0  0  0  0
  2  7  4  0  0  0  0
  3  4  4  0  0  0  0
  4  5  4  0  0  0  0
  5  6  4  0  0  0  0
  5  8  1  0  0  0  0
  6  7  4  0  0  0  0
  8  9  2  0  0  0  0
  8 10  1  0  0  0  0
 10 11  1  0  0  0  0
 11 12  1  0  0  0  0
 12 13  1  0  0  0  0
 13 14  1  0  0  0  0
 13 18  1  0  0  0  0
 14 15  1  0  0  0  0
 15 16  1  0  0  0  0
 16 17  1  0  0  0  0
 16 19  1  0  0  0  0
 17 18  1  0  0  0  0
 19 20  4  0  0  0  0
 19 24  4  0  0  0  0
 20 21  4  0  0  0  0
 21 22  4  0  0  0  0
 22 23  4  0  0  0  0
 23 24  4  0  0  0  0
M  END
>  <Name_Molregno>
232974

>  <5-HT1A>
7.52

>  <5-HT2A>
7.66

>  <5-HT2C>
5.38

>  <DOPAMINE D2>
7.01

>  <DOPAMINE D3>
6.61

>  <DOPAMINE D4>
8.19

>  <HISTAMINE H1>
6.04

$$$$
234098
  Marvin  02231216192D 0   1.00000     0.00000     0

 25 28  0  0  0  0  0  0  0  0999 V2000
   -4.0857   -3.1191    0.0000 Cl  0  0  0  0  0  0  0  0  0
   -4.9107   -3.1191    0.0000 C   0  0  0  0  0  0  0  0  0
   -5.3232   -3.8336    0.0000 C   0  0  0  0  0  0  0  0  0
   -6.1482   -3.8336    0.0000 C   0  0  0  0  0  0  0  0  0
   -6.5607   -3.1191    0.0000 C   0  0  0  0  0  0  0  0  0
   -6.1482   -2.4046    0.0000 C   0  0  0  0  0  0  0  0  0
   -5.3232   -2.4046    0.0000 C   0  0  0  0  0  0  0  0  0
   -4.9107   -1.6902    0.0000 N   0  0  0  0  0  0  0  0  0
   -5.3232   -0.9757    0.0000 C   0  0  0  0  0  0  0  0  0
   -4.9107   -0.2612    0.0000 C   0  0  0  0  0  0  0  0  0
   -4.0857   -0.2612    0.0000 N   0  0  0  0  0  0  0  0  0
   -3.6732   -0.9757    0.0000 C   0  0  0  0  0  0  0  0  0
   -4.0857   -1.6902    0.0000 C   0  0  0  0  0  0  0  0  0
   -3.6732    0.4532    0.0000 C   0  0  0  0  0  0  0  0  0
   -2.8482    0.4532    0.0000 C   0  0  0  0  0  0  0  0  0
   -2.3633    1.1207    0.0000 N   0  0  0  0  0  0  0  0  0
   -1.5786    0.8657    0.0000 C   0  0  0  0  0  0  0  0  0
   -0.8642    1.2782    0.0000 C   0  0  0  0  0  0  0  0  0
   -0.1497    0.8657    0.0000 C   0  0  0  0  0  0  0  0  0
   -0.1497    0.0407    0.0000 C   0  0  0  0  0  0  0  0  0
   -0.8642   -0.3718    0.0000 C   0  0  0  0  0  0  0  0  0
   -1.5786    0.0407    0.0000 C   0  0  0  0  0  0  0  0  0
   -2.3633   -0.2142    0.0000 C   0  0  0  0  0  0  0  0  0
    0.5648    1.2782    0.0000 C   0  0  0  0  0  0  0  0  0
    1.2792    1.6907    0.0000 N   0  0  0  0  0  0  0  0  0
  1  2  1  0  0  0  0
  2  3  4  0  0  0  0
  2  7  4  0  0  0  0
  3  4  4  0  0  0  0
  4  5  4  0  0  0  0
  5  6  4  0  0  0  0
  6  7  4  0  0  0  0
  7  8  1  0  0  0  0
  8  9  1  0  0  0  0
  8 13  1  0  0  0  0
  9 10  1  0  0  0  0
 10 11  1  0  0  0  0
 11 12  1  0  0  0  0
 11 14  1  0  0  0  0
 12 13  1  0  0  0  0
 14 15  1  0  0  0  0
 15 16  4  0  0  0  0
 15 23  4  0  0  0  0
 16 17  4  0  0  0  0
 17 18  4  0  0  0  0
 17 22  4  0  0  0  0
 18 19  4  0  0  0  0
 19 20  4  0  0  0  0
 19 24  1  0  0  0  0
 20 21  4  0  0  0  0
 21 22  4  0  0  0  0
 22 23  4  0  0  0  0
 24 25  3  0  0  0  0
M  STY  1   1 DAT
M  SAL   1  1  16
M  SDT   1 MRV_IMPLICIT_H                                        
M  SDD   1     0.0000    0.0000    DR    ALL  0       0  
M  SED   1 IMPL_H1
M  END
>  <Name_Molregno>
234098

>  <DOPAMINE D2>
6.48

>  <DOPAMINE D3>
6.04

>  <DOPAMINE D4>
8.47

$$$$
234131
  Marvin  02231216192D 0   1.00000     0.00000     0

 24 27  0  0  0  0  0  0  0  0999 V2000
   -2.5283   -0.9188    0.0000 N   0  0  0  0  0  0  0  0  0
   -3.0132   -0.2514    0.0000 C   0  0  0  0  0  0  0  0  0
   -2.5283    0.4160    0.0000 C   0  0  0  0  0  0  0  0  0
   -1.7436    0.1611    0.0000 C   0  0  0  0  0  0  0  0  0
   -1.0292    0.5736    0.0000 C   0  0  0  0  0  0  0  0  0
   -0.3147    0.1611    0.0000 C   0  0  0  0  0  0  0  0  0
   -0.3147   -0.6639    0.0000 C   0  0  0  0  0  0  0  0  0
   -1.0292   -1.0764    0.0000 C   0  0  0  0  0  0  0  0  0
   -1.7436   -0.6639    0.0000 C   0  0  0  0  0  0  0  0  0
    0.3998    0.5736    0.0000 C   0  0  0  0  0  0  0  0  0
    1.1142    0.9861    0.0000 N   0  0  0  0  0  0  0  0  0
   -2.7832    1.2007    0.0000 C   0  0  0  0  0  0  0  0  0
   -2.2312    1.8138    0.0000 N   0  0  0  0  0  0  0  0  0
   -2.4861    2.5984    0.0000 C   0  0  0  0  0  0  0  0  0
   -1.9341    3.2115    0.0000 C   0  0  0  0  0  0  0  0  0
   -1.1271    3.0400    0.0000 N   0  0  0  0  0  0  0  0  0
   -0.8722    2.2553    0.0000 C   0  0  0  0  0  0  0  0  0
   -1.4242    1.6422    0.0000 C   0  0  0  0  0  0  0  0  0
   -0.5751    3.6530    0.0000 C   0  0  0  0  0  0  0  0  0
   -0.8300    4.4377    0.0000 C   0  0  0  0  0  0  0  0  0
   -0.2780    5.0508    0.0000 C   0  0  0  0  0  0  0  0  0
    0.5290    4.8792    0.0000 C   0  0  0  0  0  0  0  0  0
    0.7839    4.0946    0.0000 C   0  0  0  0  0  0  0  0  0
    0.2319    3.4815    0.0000 C   0  0  0  0  0  0  0  0  0
  1  2  4  0  0  0  0
  1  9  4  0  0  0  0
  2  3  4  0  0  0  0
  3  4  4  0  0  0  0
  3 12  1  0  0  0  0
  4  5  4  0  0  0  0
  4  9  4  0  0  0  0
  5  6  4  0  0  0  0
  6  7  4  0  0  0  0
  6 10  1  0  0  0  0
  7  8  4  0  0  0  0
  8  9  4  0  0  0  0
 10 11  3  0  0  0  0
 12 13  1  0  0  0  0
 13 14  1  0  0  0  0
 13 18  1  0  0  0  0
 14 15  1  0  0  0  0
 15 16  1  0  0  0  0
 16 17  1  0  0  0  0
 16 19  1  0  0  0  0
 17 18  1  0  0  0  0
 19 20  4  0  0  0  0
 19 24  4  0  0  0  0
 20 21  4  0  0  0  0
 21 22  4  0  0  0  0
 22 23  4  0  0  0  0
 23 24  4  0  0  0  0
M  STY  1   1 DAT
M  SAL   1  1   1
M  SDT   1 MRV_IMPLICIT_H                                        
M  SDD   1     0.0000    0.0000    DR    ALL  0       0  
M  SED   1 IMPL_H1
M  END
>  <Name_Molregno>
234131

>  <DOPAMINE D2>
4.96

>  <DOPAMINE D3>
5.36

>  <DOPAMINE D4>
7.3

$$$$
234135
  Marvin  02231216192D 0   1.00000     0.00000     0

 25 28  0  0  0  0  0  0  0  0999 V2000
    1.4305   -2.7045    0.0000 Cl  0  0  0  0  0  0  0  0  0
    1.8430   -1.9900    0.0000 C   0  0  0  0  0  0  0  0  0
    1.4305   -1.2756    0.0000 C   0  0  0  0  0  0  0  0  0
    1.8430   -0.5611    0.0000 C   0  0  0  0  0  0  0  0  0
    2.6680   -0.5611    0.0000 C   0  0  0  0  0  0  0  0  0
    3.0805    0.1534    0.0000 N   0  0  0  0  0  0  0  0  0
    2.6680    0.8678    0.0000 C   0  0  0  0  0  0  0  0  0
    3.0805    1.5823    0.0000 C   0  0  0  0  0  0  0  0  0
    3.9055    1.5823    0.0000 N   0  0  0  0  0  0  0  0  0
    4.3180    0.8678    0.0000 C   0  0  0  0  0  0  0  0  0
    3.9055    0.1534    0.0000 C   0  0  0  0  0  0  0  0  0
    4.3180    2.2968    0.0000 C   0  0  0  0  0  0  0  0  0
    5.1430    2.2968    0.0000 C   0  0  0  0  0  0  0  0  0
    5.6280    1.6293    0.0000 N   0  0  0  0  0  0  0  0  0
    6.4126    1.8843    0.0000 C   0  0  0  0  0  0  0  0  0
    6.4126    2.7093    0.0000 C   0  0  0  0  0  0  0  0  0
    7.1270    3.1218    0.0000 C   0  0  0  0  0  0  0  0  0
    7.8415    2.7093    0.0000 C   0  0  0  0  0  0  0  0  0
    7.8415    1.8843    0.0000 C   0  0  0  0  0  0  0  0  0
    7.1270    1.4718    0.0000 C   0  0  0  0  0  0  0  0  0
    8.5560    3.1218    0.0000 C   0  0  0  0  0  0  0  0  0
    9.2705    3.5343    0.0000 N   0  0  0  0  0  0  0  0  0
    5.6280    2.9642    0.0000 C   0  0  0  0  0  0  0  0  0
    3.0805   -1.2756    0.0000 C   0  0  0  0  0  0  0  0  0
    2.6680   -1.9900    0.0000 C   0  0  0  0  0  0  0  0  0
  1  2  1  0  0  0  0
  2  3  4  0  0  0  0
  2 25  4  0  0  0  0
  3  4  4  0  0  0  0
  4  5  4  0  0  0  0
  5  6  1  0  0  0  0
  5 24  4  0  0  0  0
  6  7  1  0  0  0  0
  6 11  1  0  0  0  0
  7  8  1  0  0  0  0
  8  9  1  0  0  0  0
  9 10  1  0  0  0  0
  9 12  1  0  0  0  0
 10 11  1  0  0  0  0
 12 13  1  0  0  0  0
 13 14  4  0  0  0  0
 13 23  4  0  0  0  0
 14 15  4  0  0  0  0
 15 16  4  0  0  0  0
 15 20  4  0  0  0  0
 16 17  4  0  0  0  0
 16 23  4  0  0  0  0
 17 18  4  0  0  0  0
 18 19  4  0  0  0  0
 18 21  1  0  0  0  0
 19 20  4  0  0  0  0
 21 22  3  0  0  0  0
 24 25  4  0  0  0  0
M  STY  1   1 DAT
M  SAL   1  1  14
M  SDT   1 MRV_IMPLICIT_H                                        
M  SDD   1     0.0000    0.0000    DR    ALL  0       0  
M  SED   1 IMPL_H1
M  END
>  <Name_Molregno>
234135

>  <DOPAMINE D2>
5.11

>  <DOPAMINE D3>
4.89

>  <DOPAMINE D4>
8.68

$$$$
234156
  Marvin  02231216192D 0   1.00000     0.00000     0

 29 32  0  0  0  0  0  0  0  0999 V2000
   -8.0455   -0.5938    0.0000 O   0  0  0  0  0  0  0  0  0
   -8.7599   -1.0063    0.0000 C   0  0  0  0  0  0  0  0  0
   -8.0455    0.2312    0.0000 C   0  0  0  0  0  0  0  0  0
   -8.7599    0.6437    0.0000 C   0  0  0  0  0  0  0  0  0
   -8.7599    1.4687    0.0000 C   0  0  0  0  0  0  0  0  0
   -8.0455    1.8812    0.0000 C   0  0  0  0  0  0  0  0  0
   -7.3310    1.4687    0.0000 C   0  0  0  0  0  0  0  0  0
   -7.3310    0.6437    0.0000 C   0  0  0  0  0  0  0  0  0
   -6.6165    0.2312    0.0000 N   0  0  0  0  0  0  0  0  0
   -5.9021    0.6437    0.0000 C   0  0  0  0  0  0  0  0  0
   -5.1876    0.2312    0.0000 C   0  0  0  0  0  0  0  0  0
   -5.1876   -0.5938    0.0000 N   0  0  0  0  0  0  0  0  0
   -5.9021   -1.0063    0.0000 C   0  0  0  0  0  0  0  0  0
   -6.6165   -0.5938    0.0000 C   0  0  0  0  0  0  0  0  0
   -4.4731   -1.0063    0.0000 C   0  0  0  0  0  0  0  0  0
   -3.7586   -0.5938    0.0000 C   0  0  0  0  0  0  0  0  0
   -3.0442   -1.0063    0.0000 C   0  0  0  0  0  0  0  0  0
   -2.3297   -0.5938    0.0000 N   0  0  0  0  0  0  0  0  0
   -1.6152   -1.0063    0.0000 C   0  0  0  0  0  0  0  0  0
   -1.6152   -1.8313    0.0000 O   0  0  0  0  0  0  0  0  0
   -0.9008   -0.5938    0.0000 C   0  0  0  0  0  0  0  0  0
   -0.1471   -0.9293    0.0000 C   0  0  0  0  0  0  0  0  0
    0.4049   -0.3162    0.0000 N   0  0  0  0  0  0  0  0  0
   -0.0076    0.3983    0.0000 N   0  0  0  0  0  0  0  0  0
   -0.8145    0.2267    0.0000 C   0  0  0  0  0  0  0  0  0
    1.2119   -0.4877    0.0000 C   0  0  0  0  0  0  0  0  0
    1.4669   -1.2724    0.0000 C   0  0  0  0  0  0  0  0  0
    0.9148   -1.8855    0.0000 C   0  0  0  0  0  0  0  0  0
    0.1079   -1.7139    0.0000 C   0  0  0  0  0  0  0  0  0
  1  2  1  0  0  0  0
  1  3  1  0  0  0  0
  3  4  4  0  0  0  0
  3  8  4  0  0  0  0
  4  5  4  0  0  0  0
  5  6  4  0  0  0  0
  6  7  4  0  0  0  0
  7  8  4  0  0  0  0
  8  9  1  0  0  0  0
  9 10  1  0  0  0  0
  9 14  1  0  0  0  0
 10 11  1  0  0  0  0
 11 12  1  0  0  0  0
 12 13  1  0  0  0  0
 12 15  1  0  0  0  0
 13 14  1  0  0  0  0
 15 16  1  0  0  0  0
 16 17  1  0  0  0  0
 17 18  1  0  0  0  0
 18 19  1  0  0  0  0
 19 20  2  0  0  0  0
 19 21  1  0  0  0  0
 21 22  4  0  0  0  0
 21 25  4  0  0  0  0
 22 23  4  0  0  0  0
 22 29  4  0  0  0  0
 23 24  4  0  0  0  0
 23 26  4  0  0  0  0
 24 25  4  0  0  0  0
 26 27  4  0  0  0  0
 27 28  4  0  0  0  0
 28 29  4  0  0  0  0
M  END
>  <Name_Molregno>
234156

>  <DOPAMINE D2>
7.92

>  <DOPAMINE D3>
6.99

>  <DOPAMINE D4>
7.55

$$$$
234157
  Marvin  02231216192D 0   1.00000     0.00000     0

 31 34  0  0  0  0  0  0  0  0999 V2000
   -9.3945   -0.0189    0.0000 O   0  0  0  0  0  0  0  0  0
  -10.1090   -0.4314    0.0000 C   0  0  0  0  0  0  0  0  0
   -9.3945    0.8061    0.0000 C   0  0  0  0  0  0  0  0  0
  -10.1090    1.2186    0.0000 C   0  0  0  0  0  0  0  0  0
  -10.1090    2.0436    0.0000 C   0  0  0  0  0  0  0  0  0
   -9.3945    2.4561    0.0000 C   0  0  0  0  0  0  0  0  0
   -8.6800    2.0436    0.0000 C   0  0  0  0  0  0  0  0  0
   -8.6800    1.2186    0.0000 C   0  0  0  0  0  0  0  0  0
   -7.9656    0.8061    0.0000 N   0  0  0  0  0  0  0  0  0
   -7.2511    1.2186    0.0000 C   0  0  0  0  0  0  0  0  0
   -6.5366    0.8061    0.0000 C   0  0  0  0  0  0  0  0  0
   -6.5366   -0.0189    0.0000 N   0  0  0  0  0  0  0  0  0
   -7.2511   -0.4314    0.0000 C   0  0  0  0  0  0  0  0  0
   -7.9656   -0.0189    0.0000 C   0  0  0  0  0  0  0  0  0
   -5.8222   -0.4314    0.0000 C   0  0  0  0  0  0  0  0  0
   -5.1077   -0.0189    0.0000 C   0  0  0  0  0  0  0  0  0
   -4.3932   -0.4314    0.0000 C   0  0  0  0  0  0  0  0  0
   -3.6787   -0.0189    0.0000 C   0  0  0  0  0  0  0  0  0
   -2.9643   -0.4314    0.0000 C   0  0  0  0  0  0  0  0  0
   -2.2498   -0.0189    0.0000 N   0  0  0  0  0  0  0  0  0
   -1.5353   -0.4314    0.0000 C   0  0  0  0  0  0  0  0  0
   -1.5353   -1.2564    0.0000 O   0  0  0  0  0  0  0  0  0
   -0.8209   -0.0189    0.0000 C   0  0  0  0  0  0  0  0  0
   -0.0672   -0.3544    0.0000 C   0  0  0  0  0  0  0  0  0
    0.4849    0.2587    0.0000 N   0  0  0  0  0  0  0  0  0
    0.0724    0.9732    0.0000 N   0  0  0  0  0  0  0  0  0
   -0.7346    0.8016    0.0000 C   0  0  0  0  0  0  0  0  0
    1.2918    0.0872    0.0000 C   0  0  0  0  0  0  0  0  0
    1.5468   -0.6975    0.0000 C   0  0  0  0  0  0  0  0  0
    0.9947   -1.3106    0.0000 C   0  0  0  0  0  0  0  0  0
    0.1878   -1.1390    0.0000 C   0  0  0  0  0  0  0  0  0
  1  2  1  0  0  0  0
  1  3  1  0  0  0  0
  3  4  4  0  0  0  0
  3  8  4  0  0  0  0
  4  5  4  0  0  0  0
  5  6  4  0  0  0  0
  6  7  4  0  0  0  0
  7  8  4  0  0  0  0
  8  9  1  0  0  0  0
  9 10  1  0  0  0  0
  9 14  1  0  0  0  0
 10 11  1  0  0  0  0
 11 12  1  0  0  0  0
 12 13  1  0  0  0  0
 12 15  1  0  0  0  0
 13 14  1  0  0  0  0
 15 16  1  0  0  0  0
 16 17  1  0  0  0  0
 17 18  1  0  0  0  0
 18 19  1  0  0  0  0
 19 20  1  0  0  0  0
 20 21  1  0  0  0  0
 21 22  2  0  0  0  0
 21 23  1  0  0  0  0
 23 24  4  0  0  0  0
 23 27  4  0  0  0  0
 24 25  4  0  0  0  0
 24 31  4  0  0  0  0
 25 26  4  0  0  0  0
 25 28  4  0  0  0  0
 26 27  4  0  0  0  0
 28 29  4  0  0  0  0
 29 30  4  0  0  0  0
 30 31  4  0  0  0  0
M  END
>  <Name_Molregno>
234157

>  <DOPAMINE D2>
7.52

>  <DOPAMINE D3>
7.19

>  <DOPAMINE D4>
7.17

$$$$
234162
  Marvin  02231216192D 0   1.00000     0.00000     0

 26 29  0  0  0  0  0  0  0  0999 V2000
    0.6818    3.0106    0.0000 Cl  0  0  0  0  0  0  0  0  0
    0.9367    2.2260    0.0000 C   0  0  0  0  0  0  0  0  0
    1.7437    2.0545    0.0000 C   0  0  0  0  0  0  0  0  0
    1.9986    1.2698    0.0000 C   0  0  0  0  0  0  0  0  0
    2.8056    1.0983    0.0000 N   0  0  0  0  0  0  0  0  0
    3.3577    1.7114    0.0000 C   0  0  0  0  0  0  0  0  0
    4.1646    1.5399    0.0000 C   0  0  0  0  0  0  0  0  0
    4.4196    0.7553    0.0000 N   0  0  0  0  0  0  0  0  0
    3.8675    0.1422    0.0000 C   0  0  0  0  0  0  0  0  0
    3.0606    0.3137    0.0000 C   0  0  0  0  0  0  0  0  0
    5.2265    0.5837    0.0000 C   0  0  0  0  0  0  0  0  0
    5.4815   -0.2009    0.0000 C   0  0  0  0  0  0  0  0  0
    6.2661   -0.4558    0.0000 C   0  0  0  0  0  0  0  0  0
    6.9806   -0.0433    0.0000 C   0  0  0  0  0  0  0  0  0
    7.6950   -0.4558    0.0000 C   0  0  0  0  0  0  0  0  0
    7.6950   -1.2808    0.0000 C   0  0  0  0  0  0  0  0  0
    6.9806   -1.6933    0.0000 C   0  0  0  0  0  0  0  0  0
    6.2661   -1.2808    0.0000 C   0  0  0  0  0  0  0  0  0
    5.4815   -1.5358    0.0000 N   0  0  0  0  0  0  0  0  0
    4.9966   -0.8683    0.0000 C   0  0  0  0  0  0  0  0  0
    8.4095   -0.0433    0.0000 C   0  0  0  0  0  0  0  0  0
    9.1240    0.3692    0.0000 N   0  0  0  0  0  0  0  0  0
    1.4466    0.6567    0.0000 C   0  0  0  0  0  0  0  0  0
    0.6396    0.8283    0.0000 C   0  0  0  0  0  0  0  0  0
    0.3847    1.6129    0.0000 C   0  0  0  0  0  0  0  0  0
   -0.4223    1.7844    0.0000 Cl  0  0  0  0  0  0  0  0  0
  1  2  1  0  0  0  0
  2  3  4  0  0  0  0
  2 25  4  0  0  0  0
  3  4  4  0  0  0  0
  4  5  1  0  0  0  0
  4 23  4  0  0  0  0
  5  6  1  0  0  0  0
  5 10  1  0  0  0  0
  6  7  1  0  0  0  0
  7  8  1  0  0  0  0
  8  9  1  0  0  0  0
  8 11  1  0  0  0  0
  9 10  1  0  0  0  0
 11 12  1  0  0  0  0
 12 13  4  0  0  0  0
 12 20  4  0  0  0  0
 13 14  4  0  0  0  0
 13 18  4  0  0  0  0
 14 15  4  0  0  0  0
 15 16  4  0  0  0  0
 15 21  1  0  0  0  0
 16 17  4  0  0  0  0
 17 18  4  0  0  0  0
 18 19  4  0  0  0  0
 19 20  4  0  0  0  0
 21 22  3  0  0  0  0
 23 24  4  0  0  0  0
 24 25  4  0  0  0  0
 25 26  1  0  0  0  0
M  STY  1   1 DAT
M  SAL   1  1  19
M  SDT   1 MRV_IMPLICIT_H                                        
M  SDD   1     0.0000    0.0000    DR    ALL  0       0  
M  SED   1 IMPL_H1
M  END
>  <Name_Molregno>
234162

>  <DOPAMINE D2>
6.21

>  <DOPAMINE D3>
6.06

>  <DOPAMINE D4>
7.66

$$$$
234165
  Marvin  02231216192D 0   1.00000     0.00000     0

 26 29  0  0  0  0  0  0  0  0999 V2000
    0.4419   -2.1189    0.0000 Cl  0  0  0  0  0  0  0  0  0
    1.2669   -2.1189    0.0000 C   0  0  0  0  0  0  0  0  0
    1.6794   -1.4044    0.0000 C   0  0  0  0  0  0  0  0  0
    2.5044   -1.4044    0.0000 C   0  0  0  0  0  0  0  0  0
    2.9169   -0.6899    0.0000 N   0  0  0  0  0  0  0  0  0
    2.5044    0.0245    0.0000 C   0  0  0  0  0  0  0  0  0
    2.9169    0.7390    0.0000 C   0  0  0  0  0  0  0  0  0
    3.7419    0.7390    0.0000 N   0  0  0  0  0  0  0  0  0
    4.1544    0.0245    0.0000 C   0  0  0  0  0  0  0  0  0
    3.7419   -0.6899    0.0000 C   0  0  0  0  0  0  0  0  0
    4.1544    1.4535    0.0000 C   0  0  0  0  0  0  0  0  0
    4.9794    1.4535    0.0000 C   0  0  0  0  0  0  0  0  0
    5.4643    0.7860    0.0000 N   0  0  0  0  0  0  0  0  0
    6.2489    1.0410    0.0000 C   0  0  0  0  0  0  0  0  0
    6.2489    1.8660    0.0000 C   0  0  0  0  0  0  0  0  0
    6.9634    2.2785    0.0000 C   0  0  0  0  0  0  0  0  0
    7.6779    1.8660    0.0000 C   0  0  0  0  0  0  0  0  0
    7.6779    1.0410    0.0000 C   0  0  0  0  0  0  0  0  0
    6.9634    0.6285    0.0000 C   0  0  0  0  0  0  0  0  0
    8.3923    2.2785    0.0000 C   0  0  0  0  0  0  0  0  0
    9.1068    2.6910    0.0000 N   0  0  0  0  0  0  0  0  0
    5.4643    2.1209    0.0000 C   0  0  0  0  0  0  0  0  0
    2.9169   -2.1189    0.0000 C   0  0  0  0  0  0  0  0  0
    2.5044   -2.8334    0.0000 C   0  0  0  0  0  0  0  0  0
    1.6794   -2.8334    0.0000 C   0  0  0  0  0  0  0  0  0
    1.2669   -3.5478    0.0000 Cl  0  0  0  0  0  0  0  0  0
  1  2  1  0  0  0  0
  2  3  4  0  0  0  0
  2 25  4  0  0  0  0
  3  4  4  0  0  0  0
  4  5  1  0  0  0  0
  4 23  4  0  0  0  0
  5  6  1  0  0  0  0
  5 10  1  0  0  0  0
  6  7  1  0  0  0  0
  7  8  1  0  0  0  0
  8  9  1  0  0  0  0
  8 11  1  0  0  0  0
  9 10  1  0  0  0  0
 11 12  1  0  0  0  0
 12 13  4  0  0  0  0
 12 22  4  0  0  0  0
 13 14  4  0  0  0  0
 14 15  4  0  0  0  0
 14 19  4  0  0  0  0
 15 16  4  0  0  0  0
 15 22  4  0  0  0  0
 16 17  4  0  0  0  0
 17 18  4  0  0  0  0
 17 20  1  0  0  0  0
 18 19  4  0  0  0  0
 20 21  3  0  0  0  0
 23 24  4  0  0  0  0
 24 25  4  0  0  0  0
 25 26  1  0  0  0  0
M  STY  1   1 DAT
M  SAL   1  1  13
M  SDT   1 MRV_IMPLICIT_H                                        
M  SDD   1     0.0000    0.0000    DR    ALL  0       0  
M  SED   1 IMPL_H1
M  END
>  <Name_Molregno>
234165

>  <DOPAMINE D2>
4.41

>  <DOPAMINE D3>
4.7

>  <DOPAMINE D4>
8.12

$$$$
234167
  Marvin  02231216192D 0   1.00000     0.00000     0

 26 29  0  0  0  0  0  0  0  0999 V2000
    0.4419   -2.1189    0.0000 Cl  0  0  0  0  0  0  0  0  0
    1.2669   -2.1189    0.0000 C   0  0  0  0  0  0  0  0  0
    1.6794   -1.4044    0.0000 C   0  0  0  0  0  0  0  0  0
    2.5044   -1.4044    0.0000 C   0  0  0  0  0  0  0  0  0
    2.9169   -0.6899    0.0000 N   0  0  0  0  0  0  0  0  0
    2.5044    0.0245    0.0000 C   0  0  0  0  0  0  0  0  0
    2.9169    0.7390    0.0000 C   0  0  0  0  0  0  0  0  0
    3.7419    0.7390    0.0000 N   0  0  0  0  0  0  0  0  0
    4.1544    0.0245    0.0000 C   0  0  0  0  0  0  0  0  0
    3.7419   -0.6899    0.0000 C   0  0  0  0  0  0  0  0  0
    4.1544    1.4535    0.0000 C   0  0  0  0  0  0  0  0  0
    4.9794    1.4535    0.0000 C   0  0  0  0  0  0  0  0  0
    5.4643    2.1209    0.0000 N   0  0  0  0  0  0  0  0  0
    6.2489    1.8660    0.0000 C   0  0  0  0  0  0  0  0  0
    6.9634    2.2785    0.0000 C   0  0  0  0  0  0  0  0  0
    7.6779    1.8660    0.0000 C   0  0  0  0  0  0  0  0  0
    7.6779    1.0410    0.0000 C   0  0  0  0  0  0  0  0  0
    6.9634    0.6285    0.0000 C   0  0  0  0  0  0  0  0  0
    6.2489    1.0410    0.0000 C   0  0  0  0  0  0  0  0  0
    5.4643    0.7860    0.0000 C   0  0  0  0  0  0  0  0  0
    8.3923    2.2785    0.0000 C   0  0  0  0  0  0  0  0  0
    9.1068    2.6910    0.0000 N   0  0  0  0  0  0  0  0  0
    2.9169   -2.1189    0.0000 C   0  0  0  0  0  0  0  0  0
    2.5044   -2.8334    0.0000 C   0  0  0  0  0  0  0  0  0
    1.6794   -2.8334    0.0000 C   0  0  0  0  0  0  0  0  0
    1.2669   -3.5478    0.0000 Cl  0  0  0  0  0  0  0  0  0
  1  2  1  0  0  0  0
  2  3  4  0  0  0  0
  2 25  4  0  0  0  0
  3  4  4  0  0  0  0
  4  5  1  0  0  0  0
  4 23  4  0  0  0  0
  5  6  1  0  0  0  0
  5 10  1  0  0  0  0
  6  7  1  0  0  0  0
  7  8  1  0  0  0  0
  8  9  1  0  0  0  0
  8 11  1  0  0  0  0
  9 10  1  0  0  0  0
 11 12  1  0  0  0  0
 12 13  4  0  0  0  0
 12 20  4  0  0  0  0
 13 14  4  0  0  0  0
 14 15  4  0  0  0  0
 14 19  4  0  0  0  0
 15 16  4  0  0  0  0
 16 17  4  0  0  0  0
 16 21  1  0  0  0  0
 17 18  4  0  0  0  0
 18 19  4  0  0  0  0
 19 20  4  0  0  0  0
 21 22  3  0  0  0  0
 23 24  4  0  0  0  0
 24 25  4  0  0  0  0
 25 26  1  0  0  0  0
M  STY  1   1 DAT
M  SAL   1  1  13
M  SDT   1 MRV_IMPLICIT_H                                        
M  SDD   1     0.0000    0.0000    DR    ALL  0       0  
M  SED   1 IMPL_H1
M  END
>  <Name_Molregno>
234167

>  <DOPAMINE D2>
5.77

>  <DOPAMINE D3>
4.48

>  <DOPAMINE D4>
8.05

$$$$
234168
  Marvin  02231216192D 0   1.00000     0.00000     0

 25 28  0  0  0  0  0  0  0  0999 V2000
   -4.0857   -3.1191    0.0000 Cl  0  0  0  0  0  0  0  0  0
   -4.9107   -3.1191    0.0000 C   0  0  0  0  0  0  0  0  0
   -5.3232   -3.8336    0.0000 C   0  0  0  0  0  0  0  0  0
   -6.1482   -3.8336    0.0000 C   0  0  0  0  0  0  0  0  0
   -6.5607   -3.1191    0.0000 C   0  0  0  0  0  0  0  0  0
   -6.1482   -2.4046    0.0000 C   0  0  0  0  0  0  0  0  0
   -5.3232   -2.4046    0.0000 C   0  0  0  0  0  0  0  0  0
   -4.9107   -1.6902    0.0000 N   0  0  0  0  0  0  0  0  0
   -5.3232   -0.9757    0.0000 C   0  0  0  0  0  0  0  0  0
   -4.9107   -0.2612    0.0000 C   0  0  0  0  0  0  0  0  0
   -4.0857   -0.2612    0.0000 N   0  0  0  0  0  0  0  0  0
   -3.6732   -0.9757    0.0000 C   0  0  0  0  0  0  0  0  0
   -4.0857   -1.6902    0.0000 C   0  0  0  0  0  0  0  0  0
   -3.6732    0.4532    0.0000 C   0  0  0  0  0  0  0  0  0
   -2.8482    0.4532    0.0000 C   0  0  0  0  0  0  0  0  0
   -2.3633   -0.2142    0.0000 N   0  0  0  0  0  0  0  0  0
   -1.5786    0.0407    0.0000 C   0  0  0  0  0  0  0  0  0
   -1.5786    0.8657    0.0000 C   0  0  0  0  0  0  0  0  0
   -0.8642    1.2782    0.0000 C   0  0  0  0  0  0  0  0  0
   -0.1497    0.8657    0.0000 C   0  0  0  0  0  0  0  0  0
   -0.1497    0.0407    0.0000 C   0  0  0  0  0  0  0  0  0
   -0.8642   -0.3718    0.0000 C   0  0  0  0  0  0  0  0  0
    0.5648    1.2782    0.0000 C   0  0  0  0  0  0  0  0  0
    1.2792    1.6907    0.0000 N   0  0  0  0  0  0  0  0  0
   -2.3633    1.1207    0.0000 C   0  0  0  0  0  0  0  0  0
  1  2  1  0  0  0  0
  2  3  4  0  0  0  0
  2  7  4  0  0  0  0
  3  4  4  0  0  0  0
  4  5  4  0  0  0  0
  5  6  4  0  0  0  0
  6  7  4  0  0  0  0
  7  8  1  0  0  0  0
  8  9  1  0  0  0  0
  8 13  1  0  0  0  0
  9 10  1  0  0  0  0
 10 11  1  0  0  0  0
 11 12  1  0  0  0  0
 11 14  1  0  0  0  0
 12 13  1  0  0  0  0
 14 15  1  0  0  0  0
 15 16  4  0  0  0  0
 15 25  4  0  0  0  0
 16 17  4  0  0  0  0
 17 18  4  0  0  0  0
 17 22  4  0  0  0  0
 18 19  4  0  0  0  0
 18 25  4  0  0  0  0
 19 20  4  0  0  0  0
 20 21  4  0  0  0  0
 20 23  1  0  0  0  0
 21 22  4  0  0  0  0
 23 24  3  0  0  0  0
M  STY  1   1 DAT
M  SAL   1  1  16
M  SDT   1 MRV_IMPLICIT_H                                        
M  SDD   1     0.0000    0.0000    DR    ALL  0       0  
M  SED   1 IMPL_H1
M  END
>  <Name_Molregno>
234168

>  <DOPAMINE D2>
5.83

>  <DOPAMINE D3>
5.77

>  <DOPAMINE D4>
8.85

$$$$
234169
  Marvin  02231216192D 0   1.00000     0.00000     0

 24 27  0  0  0  0  0  0  0  0999 V2000
   -0.1165   -2.0247    0.0000 N   0  0  0  0  0  0  0  0  0
    0.6681   -1.7697    0.0000 C   0  0  0  0  0  0  0  0  0
    0.6681   -0.9447    0.0000 C   0  0  0  0  0  0  0  0  0
    1.3826   -0.5322    0.0000 C   0  0  0  0  0  0  0  0  0
    2.0970   -0.9447    0.0000 C   0  0  0  0  0  0  0  0  0
    2.0970   -1.7697    0.0000 C   0  0  0  0  0  0  0  0  0
    1.3826   -2.1822    0.0000 C   0  0  0  0  0  0  0  0  0
    2.8115   -0.5322    0.0000 C   0  0  0  0  0  0  0  0  0
    3.5260   -0.1197    0.0000 N   0  0  0  0  0  0  0  0  0
   -0.1165   -0.6898    0.0000 C   0  0  0  0  0  0  0  0  0
   -0.6014   -1.3572    0.0000 C   0  0  0  0  0  0  0  0  0
   -1.4264   -1.3572    0.0000 C   0  0  0  0  0  0  0  0  0
   -1.8389   -0.6428    0.0000 N   0  0  0  0  0  0  0  0  0
   -2.6639   -0.6428    0.0000 C   0  0  0  0  0  0  0  0  0
   -3.0764    0.0717    0.0000 C   0  0  0  0  0  0  0  0  0
   -2.6639    0.7862    0.0000 N   0  0  0  0  0  0  0  0  0
   -1.8389    0.7862    0.0000 C   0  0  0  0  0  0  0  0  0
   -1.4264    0.0717    0.0000 C   0  0  0  0  0  0  0  0  0
   -3.0764    1.5007    0.0000 C   0  0  0  0  0  0  0  0  0
   -3.9014    1.5007    0.0000 C   0  0  0  0  0  0  0  0  0
   -4.3139    2.2151    0.0000 C   0  0  0  0  0  0  0  0  0
   -3.9014    2.9296    0.0000 C   0  0  0  0  0  0  0  0  0
   -3.0764    2.9296    0.0000 C   0  0  0  0  0  0  0  0  0
   -2.6639    2.2151    0.0000 C   0  0  0  0  0  0  0  0  0
  1  2  4  0  0  0  0
  1 11  4  0  0  0  0
  2  3  4  0  0  0  0
  2  7  4  0  0  0  0
  3  4  4  0  0  0  0
  3 10  4  0  0  0  0
  4  5  4  0  0  0  0
  5  6  4  0  0  0  0
  5  8  1  0  0  0  0
  6  7  4  0  0  0  0
  8  9  3  0  0  0  0
 10 11  4  0  0  0  0
 11 12  1  0  0  0  0
 12 13  1  0  0  0  0
 13 14  1  0  0  0  0
 13 18  1  0  0  0  0
 14 15  1  0  0  0  0
 15 16  1  0  0  0  0
 16 17  1  0  0  0  0
 16 19  1  0  0  0  0
 17 18  1  0  0  0  0
 19 20  4  0  0  0  0
 19 24  4  0  0  0  0
 20 21  4  0  0  0  0
 21 22  4  0  0  0  0
 22 23  4  0  0  0  0
 23 24  4  0  0  0  0
M  STY  1   1 DAT
M  SAL   1  1   1
M  SDT   1 MRV_IMPLICIT_H                                        
M  SDD   1     0.0000    0.0000    DR    ALL  0       0  
M  SED   1 IMPL_H1
M  END
>  <Name_Molregno>
234169

>  <DOPAMINE D2>
6.03

>  <DOPAMINE D3>
5.77

>  <DOPAMINE D4>
9.28

$$$$
234194
  Marvin  02231216192D 0   1.00000     0.00000     0

 24 27  0  0  0  0  0  0  0  0999 V2000
    2.4573    0.8027    0.0000 N   0  0  0  0  0  0  0  0  0
    3.2419    0.5478    0.0000 C   0  0  0  0  0  0  0  0  0
    3.9564    0.9603    0.0000 C   0  0  0  0  0  0  0  0  0
    4.6708    0.5478    0.0000 C   0  0  0  0  0  0  0  0  0
    4.6708   -0.2772    0.0000 C   0  0  0  0  0  0  0  0  0
    3.9564   -0.6897    0.0000 C   0  0  0  0  0  0  0  0  0
    3.2419   -0.2772    0.0000 C   0  0  0  0  0  0  0  0  0
    2.4573   -0.5322    0.0000 C   0  0  0  0  0  0  0  0  0
    1.9723    0.1353    0.0000 C   0  0  0  0  0  0  0  0  0
    1.1473    0.1353    0.0000 C   0  0  0  0  0  0  0  0  0
    0.7348   -0.5792    0.0000 N   0  0  0  0  0  0  0  0  0
    1.1473   -1.2937    0.0000 C   0  0  0  0  0  0  0  0  0
    0.7348   -2.0082    0.0000 C   0  0  0  0  0  0  0  0  0
   -0.0902   -2.0082    0.0000 N   0  0  0  0  0  0  0  0  0
   -0.5027   -1.2937    0.0000 C   0  0  0  0  0  0  0  0  0
   -0.0902   -0.5792    0.0000 C   0  0  0  0  0  0  0  0  0
   -0.5027   -2.7226    0.0000 C   0  0  0  0  0  0  0  0  0
   -0.0902   -3.4371    0.0000 C   0  0  0  0  0  0  0  0  0
   -0.5027   -4.1516    0.0000 C   0  0  0  0  0  0  0  0  0
   -1.3277   -4.1516    0.0000 C   0  0  0  0  0  0  0  0  0
   -1.7402   -3.4371    0.0000 C   0  0  0  0  0  0  0  0  0
   -1.3277   -2.7226    0.0000 C   0  0  0  0  0  0  0  0  0
    5.3853    0.9603    0.0000 C   0  0  0  0  0  0  0  0  0
    6.0998    1.3728    0.0000 N   0  0  0  0  0  0  0  0  0
  1  2  4  0  0  0  0
  1  9  4  0  0  0  0
  2  3  4  0  0  0  0
  2  7  4  0  0  0  0
  3  4  4  0  0  0  0
  4  5  4  0  0  0  0
  4 23  1  0  0  0  0
  5  6  4  0  0  0  0
  6  7  4  0  0  0  0
  7  8  4  0  0  0  0
  8  9  4  0  0  0  0
  9 10  1  0  0  0  0
 10 11  1  0  0  0  0
 11 12  1  0  0  0  0
 11 16  1  0  0  0  0
 12 13  1  0  0  0  0
 13 14  1  0  0  0  0
 14 15  1  0  0  0  0
 14 17  1  0  0  0  0
 15 16  1  0  0  0  0
 17 18  4  0  0  0  0
 17 22  4  0  0  0  0
 18 19  4  0  0  0  0
 19 20  4  0  0  0  0
 20 21  4  0  0  0  0
 21 22  4  0  0  0  0
 23 24  3  0  0  0  0
M  STY  1   1 DAT
M  SAL   1  1   1
M  SDT   1 MRV_IMPLICIT_H                                        
M  SDD   1     0.0000    0.0000    DR    ALL  0       0  
M  SED   1 IMPL_H1
M  END
>  <Name_Molregno>
234194

>  <DOPAMINE D2>
5.42

>  <DOPAMINE D3>
5.51

>  <DOPAMINE D4>
8.44

$$$$
234195
  Marvin  02231216192D 0   1.00000     0.00000     0

 25 28  0  0  0  0  0  0  0  0999 V2000
    1.4305   -2.7045    0.0000 F   0  0  0  0  0  0  0  0  0
    1.8430   -1.9900    0.0000 C   0  0  0  0  0  0  0  0  0
    1.4305   -1.2756    0.0000 C   0  0  0  0  0  0  0  0  0
    1.8430   -0.5611    0.0000 C   0  0  0  0  0  0  0  0  0
    2.6680   -0.5611    0.0000 C   0  0  0  0  0  0  0  0  0
    3.0805    0.1534    0.0000 N   0  0  0  0  0  0  0  0  0
    2.6680    0.8678    0.0000 C   0  0  0  0  0  0  0  0  0
    3.0805    1.5823    0.0000 C   0  0  0  0  0  0  0  0  0
    3.9055    1.5823    0.0000 N   0  0  0  0  0  0  0  0  0
    4.3180    0.8678    0.0000 C   0  0  0  0  0  0  0  0  0
    3.9055    0.1534    0.0000 C   0  0  0  0  0  0  0  0  0
    4.3180    2.2968    0.0000 C   0  0  0  0  0  0  0  0  0
    5.1430    2.2968    0.0000 C   0  0  0  0  0  0  0  0  0
    5.6280    1.6293    0.0000 N   0  0  0  0  0  0  0  0  0
    6.4126    1.8843    0.0000 C   0  0  0  0  0  0  0  0  0
    6.4126    2.7093    0.0000 C   0  0  0  0  0  0  0  0  0
    7.1270    3.1218    0.0000 C   0  0  0  0  0  0  0  0  0
    7.8415    2.7093    0.0000 C   0  0  0  0  0  0  0  0  0
    7.8415    1.8843    0.0000 C   0  0  0  0  0  0  0  0  0
    7.1270    1.4718    0.0000 C   0  0  0  0  0  0  0  0  0
    8.5560    3.1218    0.0000 C   0  0  0  0  0  0  0  0  0
    9.2705    3.5343    0.0000 N   0  0  0  0  0  0  0  0  0
    5.6280    2.9642    0.0000 C   0  0  0  0  0  0  0  0  0
    3.0805   -1.2756    0.0000 C   0  0  0  0  0  0  0  0  0
    2.6680   -1.9900    0.0000 C   0  0  0  0  0  0  0  0  0
  1  2  1  0  0  0  0
  2  3  4  0  0  0  0
  2 25  4  0  0  0  0
  3  4  4  0  0  0  0
  4  5  4  0  0  0  0
  5  6  1  0  0  0  0
  5 24  4  0  0  0  0
  6  7  1  0  0  0  0
  6 11  1  0  0  0  0
  7  8  1  0  0  0  0
  8  9  1  0  0  0  0
  9 10  1  0  0  0  0
  9 12  1  0  0  0  0
 10 11  1  0  0  0  0
 12 13  1  0  0  0  0
 13 14  4  0  0  0  0
 13 23  4  0  0  0  0
 14 15  4  0  0  0  0
 15 16  4  0  0  0  0
 15 20  4  0  0  0  0
 16 17  4  0  0  0  0
 16 23  4  0  0  0  0
 17 18  4  0  0  0  0
 18 19  4  0  0  0  0
 18 21  1  0  0  0  0
 19 20  4  0  0  0  0
 21 22  3  0  0  0  0
 24 25  4  0  0  0  0
M  STY  1   1 DAT
M  SAL   1  1  14
M  SDT   1 MRV_IMPLICIT_H                                        
M  SDD   1     0.0000    0.0000    DR    ALL  0       0  
M  SED   1 IMPL_H1
M  END
>  <Name_Molregno>
234195

>  <DOPAMINE D2>
4.64

>  <DOPAMINE D3>
4.82

>  <DOPAMINE D4>
9

$$$$
234235
  Marvin  02231216192D 0   1.00000     0.00000     0

 25 28  0  0  0  0  0  0  0  0999 V2000
    0.0643    1.7721    0.0000 Cl  0  0  0  0  0  0  0  0  0
    0.8713    1.6006    0.0000 C   0  0  0  0  0  0  0  0  0
    1.4234    2.2137    0.0000 C   0  0  0  0  0  0  0  0  0
    2.2303    2.0422    0.0000 C   0  0  0  0  0  0  0  0  0
    2.4853    1.2575    0.0000 C   0  0  0  0  0  0  0  0  0
    3.2922    1.0860    0.0000 N   0  0  0  0  0  0  0  0  0
    3.8443    1.6991    0.0000 C   0  0  0  0  0  0  0  0  0
    4.6512    1.5276    0.0000 C   0  0  0  0  0  0  0  0  0
    4.9062    0.7430    0.0000 N   0  0  0  0  0  0  0  0  0
    4.3541    0.1299    0.0000 C   0  0  0  0  0  0  0  0  0
    3.5472    0.3014    0.0000 C   0  0  0  0  0  0  0  0  0
    5.7131    0.5714    0.0000 C   0  0  0  0  0  0  0  0  0
    5.9681   -0.2132    0.0000 C   0  0  0  0  0  0  0  0  0
    6.7527   -0.4681    0.0000 C   0  0  0  0  0  0  0  0  0
    7.4672   -0.0556    0.0000 C   0  0  0  0  0  0  0  0  0
    8.1817   -0.4681    0.0000 C   0  0  0  0  0  0  0  0  0
    8.1817   -1.2931    0.0000 C   0  0  0  0  0  0  0  0  0
    7.4672   -1.7056    0.0000 C   0  0  0  0  0  0  0  0  0
    6.7527   -1.2931    0.0000 C   0  0  0  0  0  0  0  0  0
    5.9681   -1.5481    0.0000 N   0  0  0  0  0  0  0  0  0
    5.4832   -0.8806    0.0000 C   0  0  0  0  0  0  0  0  0
    8.8961   -0.0556    0.0000 C   0  0  0  0  0  0  0  0  0
    9.6106    0.3569    0.0000 N   0  0  0  0  0  0  0  0  0
    1.9332    0.6444    0.0000 C   0  0  0  0  0  0  0  0  0
    1.1263    0.8160    0.0000 C   0  0  0  0  0  0  0  0  0
  1  2  1  0  0  0  0
  2  3  4  0  0  0  0
  2 25  4  0  0  0  0
  3  4  4  0  0  0  0
  4  5  4  0  0  0  0
  5  6  1  0  0  0  0
  5 24  4  0  0  0  0
  6  7  1  0  0  0  0
  6 11  1  0  0  0  0
  7  8  1  0  0  0  0
  8  9  1  0  0  0  0
  9 10  1  0  0  0  0
  9 12  1  0  0  0  0
 10 11  1  0  0  0  0
 12 13  1  0  0  0  0
 13 14  4  0  0  0  0
 13 21  4  0  0  0  0
 14 15  4  0  0  0  0
 14 19  4  0  0  0  0
 15 16  4  0  0  0  0
 16 17  4  0  0  0  0
 16 22  1  0  0  0  0
 17 18  4  0  0  0  0
 18 19  4  0  0  0  0
 19 20  4  0  0  0  0
 20 21  4  0  0  0  0
 22 23  3  0  0  0  0
 24 25  4  0  0  0  0
M  STY  1   1 DAT
M  SAL   1  1  20
M  SDT   1 MRV_IMPLICIT_H                                        
M  SDD   1     0.0000    0.0000    DR    ALL  0       0  
M  SED   1 IMPL_H1
M  END
>  <Name_Molregno>
234235

>  <DOPAMINE D2>
5.48

>  <DOPAMINE D3>
5.19

>  <DOPAMINE D4>
7.54

$$$$
234236
  Marvin  02231216192D 0   1.00000     0.00000     0

 25 28  0  0  0  0  0  0  0  0999 V2000
    0.0643    1.7721    0.0000 F   0  0  0  0  0  0  0  0  0
    0.8713    1.6006    0.0000 C   0  0  0  0  0  0  0  0  0
    1.4234    2.2137    0.0000 C   0  0  0  0  0  0  0  0  0
    2.2303    2.0422    0.0000 C   0  0  0  0  0  0  0  0  0
    2.4853    1.2575    0.0000 C   0  0  0  0  0  0  0  0  0
    3.2922    1.0860    0.0000 N   0  0  0  0  0  0  0  0  0
    3.8443    1.6991    0.0000 C   0  0  0  0  0  0  0  0  0
    4.6512    1.5276    0.0000 C   0  0  0  0  0  0  0  0  0
    4.9062    0.7430    0.0000 N   0  0  0  0  0  0  0  0  0
    4.3541    0.1299    0.0000 C   0  0  0  0  0  0  0  0  0
    3.5472    0.3014    0.0000 C   0  0  0  0  0  0  0  0  0
    5.7131    0.5714    0.0000 C   0  0  0  0  0  0  0  0  0
    5.9681   -0.2132    0.0000 C   0  0  0  0  0  0  0  0  0
    6.7527   -0.4681    0.0000 C   0  0  0  0  0  0  0  0  0
    7.4672   -0.0556    0.0000 C   0  0  0  0  0  0  0  0  0
    8.1817   -0.4681    0.0000 C   0  0  0  0  0  0  0  0  0
    8.1817   -1.2931    0.0000 C   0  0  0  0  0  0  0  0  0
    7.4672   -1.7056    0.0000 C   0  0  0  0  0  0  0  0  0
    6.7527   -1.2931    0.0000 C   0  0  0  0  0  0  0  0  0
    5.9681   -1.5481    0.0000 N   0  0  0  0  0  0  0  0  0
    5.4832   -0.8806    0.0000 C   0  0  0  0  0  0  0  0  0
    8.8961   -0.0556    0.0000 C   0  0  0  0  0  0  0  0  0
    9.6106    0.3569    0.0000 N   0  0  0  0  0  0  0  0  0
    1.9332    0.6444    0.0000 C   0  0  0  0  0  0  0  0  0
    1.1263    0.8160    0.0000 C   0  0  0  0  0  0  0  0  0
  1  2  1  0  0  0  0
  2  3  4  0  0  0  0
  2 25  4  0  0  0  0
  3  4  4  0  0  0  0
  4  5  4  0  0  0  0
  5  6  1  0  0  0  0
  5 24  4  0  0  0  0
  6  7  1  0  0  0  0
  6 11  1  0  0  0  0
  7  8  1  0  0  0  0
  8  9  1  0  0  0  0
  9 10  1  0  0  0  0
  9 12  1  0  0  0  0
 10 11  1  0  0  0  0
 12 13  1  0  0  0  0
 13 14  4  0  0  0  0
 13 21  4  0  0  0  0
 14 15  4  0  0  0  0
 14 19  4  0  0  0  0
 15 16  4  0  0  0  0
 16 17  4  0  0  0  0
 16 22  1  0  0  0  0
 17 18  4  0  0  0  0
 18 19  4  0  0  0  0
 19 20  4  0  0  0  0
 20 21  4  0  0  0  0
 22 23  3  0  0  0  0
 24 25  4  0  0  0  0
M  STY  1   1 DAT
M  SAL   1  1  20
M  SDT   1 MRV_IMPLICIT_H                                        
M  SDD   1     0.0000    0.0000    DR    ALL  0       0  
M  SED   1 IMPL_H1
M  END
>  <Name_Molregno>
234236

>  <DOPAMINE D2>
5.68

>  <DOPAMINE D3>
5.28

>  <DOPAMINE D4>
6.96

$$$$
234274
  Marvin  02231216192D 0   1.00000     0.00000     0

 25 28  0  0  0  0  0  0  0  0999 V2000
   -5.7961   -0.6294    0.0000 Cl  0  0  0  0  0  0  0  0  0
   -6.0511    0.1552    0.0000 C   0  0  0  0  0  0  0  0  0
   -6.8581    0.3267    0.0000 C   0  0  0  0  0  0  0  0  0
   -7.1130    1.1114    0.0000 C   0  0  0  0  0  0  0  0  0
   -6.5610    1.7245    0.0000 C   0  0  0  0  0  0  0  0  0
   -5.7540    1.5529    0.0000 C   0  0  0  0  0  0  0  0  0
   -5.4991    0.7683    0.0000 C   0  0  0  0  0  0  0  0  0
   -4.6921    0.5968    0.0000 N   0  0  0  0  0  0  0  0  0
   -4.1401    1.2099    0.0000 C   0  0  0  0  0  0  0  0  0
   -3.3331    1.0384    0.0000 C   0  0  0  0  0  0  0  0  0
   -3.0781    0.2537    0.0000 N   0  0  0  0  0  0  0  0  0
   -3.6302   -0.3594    0.0000 C   0  0  0  0  0  0  0  0  0
   -4.4371   -0.1878    0.0000 C   0  0  0  0  0  0  0  0  0
   -2.2712    0.0822    0.0000 C   0  0  0  0  0  0  0  0  0
   -2.0162   -0.7024    0.0000 C   0  0  0  0  0  0  0  0  0
   -1.2316   -0.9574    0.0000 C   0  0  0  0  0  0  0  0  0
   -0.5171   -0.5449    0.0000 C   0  0  0  0  0  0  0  0  0
    0.1973   -0.9574    0.0000 C   0  0  0  0  0  0  0  0  0
    0.1973   -1.7824    0.0000 C   0  0  0  0  0  0  0  0  0
   -0.5171   -2.1949    0.0000 C   0  0  0  0  0  0  0  0  0
   -1.2316   -1.7824    0.0000 C   0  0  0  0  0  0  0  0  0
   -2.0162   -2.0373    0.0000 N   0  0  0  0  0  0  0  0  0
   -2.5012   -1.3699    0.0000 C   0  0  0  0  0  0  0  0  0
    0.9118   -0.5449    0.0000 C   0  0  0  0  0  0  0  0  0
    1.6263   -0.1324    0.0000 N   0  0  0  0  0  0  0  0  0
  1  2  1  0  0  0  0
  2  3  4  0  0  0  0
  2  7  4  0  0  0  0
  3  4  4  0  0  0  0
  4  5  4  0  0  0  0
  5  6  4  0  0  0  0
  6  7  4  0  0  0  0
  7  8  1  0  0  0  0
  8  9  1  0  0  0  0
  8 13  1  0  0  0  0
  9 10  1  0  0  0  0
 10 11  1  0  0  0  0
 11 12  1  0  0  0  0
 11 14  1  0  0  0  0
 12 13  1  0  0  0  0
 14 15  1  0  0  0  0
 15 16  4  0  0  0  0
 15 23  4  0  0  0  0
 16 17  4  0  0  0  0
 16 21  4  0  0  0  0
 17 18  4  0  0  0  0
 18 19  4  0  0  0  0
 18 24  1  0  0  0  0
 19 20  4  0  0  0  0
 20 21  4  0  0  0  0
 21 22  4  0  0  0  0
 22 23  4  0  0  0  0
 24 25  3  0  0  0  0
M  STY  1   1 DAT
M  SAL   1  1  22
M  SDT   1 MRV_IMPLICIT_H                                        
M  SDD   1     0.0000    0.0000    DR    ALL  0       0  
M  SED   1 IMPL_H1
M  END
>  <Name_Molregno>
234274

>  <DOPAMINE D2>
6.06

>  <DOPAMINE D3>
6.26

>  <DOPAMINE D4>
7.77

$$$$
234375
  Marvin  02231216192D 0   1.00000     0.00000     0

 30 33  0  0  0  0  0  0  0  0999 V2000
   -8.7727   -0.1050    0.0000 O   0  0  0  0  0  0  0  0  0
   -9.4871   -0.5175    0.0000 C   0  0  0  0  0  0  0  0  0
   -8.7727    0.7200    0.0000 C   0  0  0  0  0  0  0  0  0
   -9.4871    1.1325    0.0000 C   0  0  0  0  0  0  0  0  0
   -9.4871    1.9575    0.0000 C   0  0  0  0  0  0  0  0  0
   -8.7727    2.3700    0.0000 C   0  0  0  0  0  0  0  0  0
   -8.0582    1.9575    0.0000 C   0  0  0  0  0  0  0  0  0
   -8.0582    1.1325    0.0000 C   0  0  0  0  0  0  0  0  0
   -7.3437    0.7200    0.0000 N   0  0  0  0  0  0  0  0  0
   -6.6292    1.1325    0.0000 C   0  0  0  0  0  0  0  0  0
   -5.9148    0.7200    0.0000 C   0  0  0  0  0  0  0  0  0
   -5.9148   -0.1050    0.0000 N   0  0  0  0  0  0  0  0  0
   -6.6292   -0.5175    0.0000 C   0  0  0  0  0  0  0  0  0
   -7.3437   -0.1050    0.0000 C   0  0  0  0  0  0  0  0  0
   -5.2003   -0.5175    0.0000 C   0  0  0  0  0  0  0  0  0
   -4.4858   -0.1050    0.0000 C   0  0  0  0  0  0  0  0  0
   -3.7714   -0.5175    0.0000 C   0  0  0  0  0  0  0  0  0
   -3.0569   -0.1050    0.0000 C   0  0  0  0  0  0  0  0  0
   -2.3424   -0.5175    0.0000 N   0  0  0  0  0  0  0  0  0
   -1.6279   -0.1050    0.0000 C   0  0  0  0  0  0  0  0  0
   -1.6279    0.7200    0.0000 O   0  0  0  0  0  0  0  0  0
   -0.9135   -0.5175    0.0000 C   0  0  0  0  0  0  0  0  0
   -0.8272   -1.3380    0.0000 N   0  0  0  0  0  0  0  0  0
   -0.0203   -1.5095    0.0000 N   0  0  0  0  0  0  0  0  0
    0.3922   -0.7951    0.0000 C   0  0  0  0  0  0  0  0  0
   -0.1598   -0.1820    0.0000 C   0  0  0  0  0  0  0  0  0
    1.2172   -0.7951    0.0000 C   0  0  0  0  0  0  0  0  0
    1.6297   -1.5095    0.0000 C   0  0  0  0  0  0  0  0  0
    1.2172   -2.2240    0.0000 C   0  0  0  0  0  0  0  0  0
    0.3922   -2.2240    0.0000 C   0  0  0  0  0  0  0  0  0
  1  2  1  0  0  0  0
  1  3  1  0  0  0  0
  3  4  4  0  0  0  0
  3  8  4  0  0  0  0
  4  5  4  0  0  0  0
  5  6  4  0  0  0  0
  6  7  4  0  0  0  0
  7  8  4  0  0  0  0
  8  9  1  0  0  0  0
  9 10  1  0  0  0  0
  9 14  1  0  0  0  0
 10 11  1  0  0  0  0
 11 12  1  0  0  0  0
 12 13  1  0  0  0  0
 12 15  1  0  0  0  0
 13 14  1  0  0  0  0
 15 16  1  0  0  0  0
 16 17  1  0  0  0  0
 17 18  1  0  0  0  0
 18 19  1  0  0  0  0
 19 20  1  0  0  0  0
 20 21  2  0  0  0  0
 20 22  1  0  0  0  0
 22 23  4  0  0  0  0
 22 26  4  0  0  0  0
 23 24  4  0  0  0  0
 24 25  4  0  0  0  0
 24 30  4  0  0  0  0
 25 26  4  0  0  0  0
 25 27  4  0  0  0  0
 27 28  4  0  0  0  0
 28 29  4  0  0  0  0
 29 30  4  0  0  0  0
M  END
>  <Name_Molregno>
234375

>  <DOPAMINE D2>
6.61

>  <DOPAMINE D3>
7.74

>  <DOPAMINE D4>
7.49

$$$$
234449
  Marvin  02231216192D 0   1.00000     0.00000     0

 31 34  0  0  0  0  0  0  0  0999 V2000
   -8.1339   -1.3113    0.0000 O   0  0  0  0  0  0  0  0  0
   -8.1339   -2.1363    0.0000 C   0  0  0  0  0  0  0  0  0
   -8.8484   -0.8988    0.0000 C   0  0  0  0  0  0  0  0  0
   -9.5629   -1.3113    0.0000 C   0  0  0  0  0  0  0  0  0
  -10.2773   -0.8988    0.0000 C   0  0  0  0  0  0  0  0  0
  -10.2773   -0.0738    0.0000 C   0  0  0  0  0  0  0  0  0
   -9.5629    0.3387    0.0000 C   0  0  0  0  0  0  0  0  0
   -8.8484   -0.0738    0.0000 C   0  0  0  0  0  0  0  0  0
   -8.1339    0.3387    0.0000 N   0  0  0  0  0  0  0  0  0
   -8.1339    1.1637    0.0000 C   0  0  0  0  0  0  0  0  0
   -7.4194    1.5762    0.0000 C   0  0  0  0  0  0  0  0  0
   -6.7050    1.1637    0.0000 N   0  0  0  0  0  0  0  0  0
   -6.7050    0.3387    0.0000 C   0  0  0  0  0  0  0  0  0
   -7.4194   -0.0738    0.0000 C   0  0  0  0  0  0  0  0  0
   -5.9905    1.5762    0.0000 C   0  0  0  0  0  0  0  0  0
   -5.2760    1.1637    0.0000 C   0  0  0  0  0  0  0  0  0
   -4.5616    1.5762    0.0000 C   0  0  0  0  0  0  0  0  0
   -3.8471    1.1637    0.0000 C   0  0  0  0  0  0  0  0  0
   -3.1326    1.5762    0.0000 C   0  0  0  0  0  0  0  0  0
   -2.4181    1.1637    0.0000 N   0  0  0  0  0  0  0  0  0
   -1.7037    1.5762    0.0000 C   0  0  0  0  0  0  0  0  0
   -1.7037    2.4012    0.0000 O   0  0  0  0  0  0  0  0  0
   -0.9892    1.1637    0.0000 C   0  0  0  0  0  0  0  0  0
   -0.9030    0.3432    0.0000 N   0  0  0  0  0  0  0  0  0
   -0.0960    0.1717    0.0000 N   0  0  0  0  0  0  0  0  0
    0.3165    0.8862    0.0000 C   0  0  0  0  0  0  0  0  0
   -0.2355    1.4993    0.0000 C   0  0  0  0  0  0  0  0  0
    1.1415    0.8862    0.0000 C   0  0  0  0  0  0  0  0  0
    1.5540    0.1717    0.0000 C   0  0  0  0  0  0  0  0  0
    1.1415   -0.5428    0.0000 C   0  0  0  0  0  0  0  0  0
    0.3165   -0.5428    0.0000 C   0  0  0  0  0  0  0  0  0
  1  2  1  0  0  0  0
  1  3  1  0  0  0  0
  3  4  4  0  0  0  0
  3  8  4  0  0  0  0
  4  5  4  0  0  0  0
  5  6  4  0  0  0  0
  6  7  4  0  0  0  0
  7  8  4  0  0  0  0
  8  9  1  0  0  0  0
  9 10  1  0  0  0  0
  9 14  1  0  0  0  0
 10 11  1  0  0  0  0
 11 12  1  0  0  0  0
 12 13  1  0  0  0  0
 12 15  1  0  0  0  0
 13 14  1  0  0  0  0
 15 16  1  0  0  0  0
 16 17  1  0  0  0  0
 17 18  1  0  0  0  0
 18 19  1  0  0  0  0
 19 20  1  0  0  0  0
 20 21  1  0  0  0  0
 21 22  2  0  0  0  0
 21 23  1  0  0  0  0
 23 24  4  0  0  0  0
 23 27  4  0  0  0  0
 24 25  4  0  0  0  0
 25 26  4  0  0  0  0
 25 31  4  0  0  0  0
 26 27  4  0  0  0  0
 26 28  4  0  0  0  0
 28 29  4  0  0  0  0
 29 30  4  0  0  0  0
 30 31  4  0  0  0  0
M  END
>  <Name_Molregno>
234449

>  <DOPAMINE D2>
7.15

>  <DOPAMINE D3>
7.29

>  <DOPAMINE D4>
7.11

$$$$
234538
  Marvin  02231216192D 0   1.00000     0.00000     0

 28 31  0  0  0  0  0  0  0  0999 V2000
   -6.8979   -1.8706    0.0000 O   0  0  0  0  0  0  0  0  0
   -7.3104   -2.5851    0.0000 C   0  0  0  0  0  0  0  0  0
   -7.3104   -1.1561    0.0000 C   0  0  0  0  0  0  0  0  0
   -8.1354   -1.1561    0.0000 C   0  0  0  0  0  0  0  0  0
   -8.5479   -0.4417    0.0000 C   0  0  0  0  0  0  0  0  0
   -8.1354    0.2728    0.0000 C   0  0  0  0  0  0  0  0  0
   -7.3104    0.2728    0.0000 C   0  0  0  0  0  0  0  0  0
   -6.8979   -0.4417    0.0000 C   0  0  0  0  0  0  0  0  0
   -6.0729   -0.4417    0.0000 N   0  0  0  0  0  0  0  0  0
   -5.6604    0.2728    0.0000 C   0  0  0  0  0  0  0  0  0
   -4.8354    0.2728    0.0000 C   0  0  0  0  0  0  0  0  0
   -4.4229   -0.4417    0.0000 N   0  0  0  0  0  0  0  0  0
   -4.8354   -1.1561    0.0000 C   0  0  0  0  0  0  0  0  0
   -5.6604   -1.1561    0.0000 C   0  0  0  0  0  0  0  0  0
   -3.5979   -0.4417    0.0000 C   0  0  0  0  0  0  0  0  0
   -3.1854    0.2728    0.0000 C   0  0  0  0  0  0  0  0  0
   -2.3604    0.2728    0.0000 N   0  0  0  0  0  0  0  0  0
   -1.9479    0.9873    0.0000 C   0  0  0  0  0  0  0  0  0
   -2.3604    1.7017    0.0000 O   0  0  0  0  0  0  0  0  0
   -1.1229    0.9873    0.0000 C   0  0  0  0  0  0  0  0  0
   -0.6379    0.3198    0.0000 N   0  0  0  0  0  0  0  0  0
    0.1467    0.5748    0.0000 N   0  0  0  0  0  0  0  0  0
    0.1467    1.3998    0.0000 C   0  0  0  0  0  0  0  0  0
   -0.6379    1.6547    0.0000 C   0  0  0  0  0  0  0  0  0
    0.8612    1.8123    0.0000 C   0  0  0  0  0  0  0  0  0
    1.5756    1.3998    0.0000 C   0  0  0  0  0  0  0  0  0
    1.5756    0.5748    0.0000 C   0  0  0  0  0  0  0  0  0
    0.8612    0.1623    0.0000 C   0  0  0  0  0  0  0  0  0
  1  2  1  0  0  0  0
  1  3  1  0  0  0  0
  3  4  4  0  0  0  0
  3  8  4  0  0  0  0
  4  5  4  0  0  0  0
  5  6  4  0  0  0  0
  6  7  4  0  0  0  0
  7  8  4  0  0  0  0
  8  9  1  0  0  0  0
  9 10  1  0  0  0  0
  9 14  1  0  0  0  0
 10 11  1  0  0  0  0
 11 12  1  0  0  0  0
 12 13  1  0  0  0  0
 12 15  1  0  0  0  0
 13 14  1  0  0  0  0
 15 16  1  0  0  0  0
 16 17  1  0  0  0  0
 17 18  1  0  0  0  0
 18 19  2  0  0  0  0
 18 20  1  0  0  0  0
 20 21  4  0  0  0  0
 20 24  4  0  0  0  0
 21 22  4  0  0  0  0
 22 23  4  0  0  0  0
 22 28  4  0  0  0  0
 23 24  4  0  0  0  0
 23 25  4  0  0  0  0
 25 26  4  0  0  0  0
 26 27  4  0  0  0  0
 27 28  4  0  0  0  0
M  END
>  <Name_Molregno>
234538

>  <DOPAMINE D2>
6.28

>  <DOPAMINE D3>
6.6

>  <DOPAMINE D4>
7.52

$$$$
234539
  Marvin  02231216192D 0   1.00000     0.00000     0

 29 32  0  0  0  0  0  0  0  0999 V2000
   -6.7961   -1.1716    0.0000 O   0  0  0  0  0  0  0  0  0
   -6.7961   -1.9966    0.0000 C   0  0  0  0  0  0  0  0  0
   -7.5106   -0.7591    0.0000 C   0  0  0  0  0  0  0  0  0
   -8.2250   -1.1716    0.0000 C   0  0  0  0  0  0  0  0  0
   -8.9395   -0.7591    0.0000 C   0  0  0  0  0  0  0  0  0
   -8.9395    0.0659    0.0000 C   0  0  0  0  0  0  0  0  0
   -8.2250    0.4784    0.0000 C   0  0  0  0  0  0  0  0  0
   -7.5106    0.0659    0.0000 C   0  0  0  0  0  0  0  0  0
   -6.7961    0.4784    0.0000 N   0  0  0  0  0  0  0  0  0
   -6.7961    1.3034    0.0000 C   0  0  0  0  0  0  0  0  0
   -6.0816    1.7159    0.0000 C   0  0  0  0  0  0  0  0  0
   -5.3672    1.3034    0.0000 N   0  0  0  0  0  0  0  0  0
   -5.3672    0.4784    0.0000 C   0  0  0  0  0  0  0  0  0
   -6.0816    0.0659    0.0000 C   0  0  0  0  0  0  0  0  0
   -4.6527    1.7159    0.0000 C   0  0  0  0  0  0  0  0  0
   -3.9382    1.3034    0.0000 C   0  0  0  0  0  0  0  0  0
   -3.2237    1.7159    0.0000 C   0  0  0  0  0  0  0  0  0
   -2.5093    1.3034    0.0000 N   0  0  0  0  0  0  0  0  0
   -1.7948    1.7159    0.0000 C   0  0  0  0  0  0  0  0  0
   -1.7948    2.5409    0.0000 O   0  0  0  0  0  0  0  0  0
   -1.0803    1.3034    0.0000 C   0  0  0  0  0  0  0  0  0
   -0.9941    0.4830    0.0000 N   0  0  0  0  0  0  0  0  0
   -0.1871    0.3114    0.0000 N   0  0  0  0  0  0  0  0  0
    0.2254    1.0259    0.0000 C   0  0  0  0  0  0  0  0  0
   -0.3267    1.6390    0.0000 C   0  0  0  0  0  0  0  0  0
    1.0504    1.0259    0.0000 C   0  0  0  0  0  0  0  0  0
    1.4629    0.3114    0.0000 C   0  0  0  0  0  0  0  0  0
    1.0504   -0.4030    0.0000 C   0  0  0  0  0  0  0  0  0
    0.2254   -0.4030    0.0000 C   0  0  0  0  0  0  0  0  0
  1  2  1  0  0  0  0
  1  3  1  0  0  0  0
  3  4  4  0  0  0  0
  3  8  4  0  0  0  0
  4  5  4  0  0  0  0
  5  6  4  0  0  0  0
  6  7  4  0  0  0  0
  7  8  4  0  0  0  0
  8  9  1  0  0  0  0
  9 10  1  0  0  0  0
  9 14  1  0  0  0  0
 10 11  1  0  0  0  0
 11 12  1  0  0  0  0
 12 13  1  0  0  0  0
 12 15  1  0  0  0  0
 13 14  1  0  0  0  0
 15 16  1  0  0  0  0
 16 17  1  0  0  0  0
 17 18  1  0  0  0  0
 18 19  1  0  0  0  0
 19 20  2  0  0  0  0
 19 21  1  0  0  0  0
 21 22  4  0  0  0  0
 21 25  4  0  0  0  0
 22 23  4  0  0  0  0
 23 24  4  0  0  0  0
 23 29  4  0  0  0  0
 24 25  4  0  0  0  0
 24 26  4  0  0  0  0
 26 27  4  0  0  0  0
 27 28  4  0  0  0  0
 28 29  4  0  0  0  0
M  END
>  <Name_Molregno>
234539

>  <DOPAMINE D2>
6.08

>  <DOPAMINE D3>
6.19

>  <DOPAMINE D4>
7.39

$$$$
234543
  Marvin  02231216192D 0   1.00000     0.00000     0

 28 31  0  0  0  0  0  0  0  0999 V2000
   -7.0290   -0.7546    0.0000 O   0  0  0  0  0  0  0  0  0
   -7.8360   -0.9261    0.0000 C   0  0  0  0  0  0  0  0  0
   -6.7740    0.0300    0.0000 C   0  0  0  0  0  0  0  0  0
   -7.3261    0.6431    0.0000 C   0  0  0  0  0  0  0  0  0
   -7.0711    1.4278    0.0000 C   0  0  0  0  0  0  0  0  0
   -6.2642    1.5993    0.0000 C   0  0  0  0  0  0  0  0  0
   -5.7121    0.9862    0.0000 C   0  0  0  0  0  0  0  0  0
   -5.9671    0.2016    0.0000 C   0  0  0  0  0  0  0  0  0
   -5.4150   -0.4115    0.0000 N   0  0  0  0  0  0  0  0  0
   -4.6081   -0.2400    0.0000 C   0  0  0  0  0  0  0  0  0
   -4.0560   -0.8531    0.0000 C   0  0  0  0  0  0  0  0  0
   -4.3110   -1.6377    0.0000 N   0  0  0  0  0  0  0  0  0
   -5.1179   -1.8092    0.0000 C   0  0  0  0  0  0  0  0  0
   -5.6700   -1.1962    0.0000 C   0  0  0  0  0  0  0  0  0
   -3.7589   -2.2508    0.0000 C   0  0  0  0  0  0  0  0  0
   -2.9520   -2.0793    0.0000 C   0  0  0  0  0  0  0  0  0
   -2.6970   -1.2947    0.0000 N   0  0  0  0  0  0  0  0  0
   -1.8901   -1.1231    0.0000 C   0  0  0  0  0  0  0  0  0
   -1.3380   -1.7362    0.0000 O   0  0  0  0  0  0  0  0  0
   -1.6351   -0.3385    0.0000 C   0  0  0  0  0  0  0  0  0
   -0.8505   -0.0836    0.0000 C   0  0  0  0  0  0  0  0  0
   -0.8505    0.7414    0.0000 N   0  0  0  0  0  0  0  0  0
   -1.6351    0.9964    0.0000 N   0  0  0  0  0  0  0  0  0
   -2.1200    0.3289    0.0000 C   0  0  0  0  0  0  0  0  0
   -0.1360    1.1539    0.0000 C   0  0  0  0  0  0  0  0  0
    0.5784    0.7414    0.0000 C   0  0  0  0  0  0  0  0  0
    0.5784   -0.0836    0.0000 C   0  0  0  0  0  0  0  0  0
   -0.1360   -0.4961    0.0000 C   0  0  0  0  0  0  0  0  0
  1  2  1  0  0  0  0
  1  3  1  0  0  0  0
  3  4  4  0  0  0  0
  3  8  4  0  0  0  0
  4  5  4  0  0  0  0
  5  6  4  0  0  0  0
  6  7  4  0  0  0  0
  7  8  4  0  0  0  0
  8  9  1  0  0  0  0
  9 10  1  0  0  0  0
  9 14  1  0  0  0  0
 10 11  1  0  0  0  0
 11 12  1  0  0  0  0
 12 13  1  0  0  0  0
 12 15  1  0  0  0  0
 13 14  1  0  0  0  0
 15 16  1  0  0  0  0
 16 17  1  0  0  0  0
 17 18  1  0  0  0  0
 18 19  2  0  0  0  0
 18 20  1  0  0  0  0
 20 21  4  0  0  0  0
 20 24  4  0  0  0  0
 21 22  4  0  0  0  0
 21 28  4  0  0  0  0
 22 23  4  0  0  0  0
 22 25  4  0  0  0  0
 23 24  4  0  0  0  0
 25 26  4  0  0  0  0
 26 27  4  0  0  0  0
 27 28  4  0  0  0  0
M  END
>  <Name_Molregno>
234543

>  <DOPAMINE D2>
6.54

>  <DOPAMINE D3>
6.44

>  <DOPAMINE D4>
9.17

$$$$
234848
  Marvin  02231216192D 0   1.00000     0.00000     0

 30 33  0  0  0  0  0  0  0  0999 V2000
   -8.6284   -0.5190    0.0000 O   0  0  0  0  0  0  0  0  0
   -9.3429   -0.9315    0.0000 C   0  0  0  0  0  0  0  0  0
   -8.6284    0.3060    0.0000 C   0  0  0  0  0  0  0  0  0
   -9.3429    0.7185    0.0000 C   0  0  0  0  0  0  0  0  0
   -9.3429    1.5435    0.0000 C   0  0  0  0  0  0  0  0  0
   -8.6284    1.9560    0.0000 C   0  0  0  0  0  0  0  0  0
   -7.9139    1.5435    0.0000 C   0  0  0  0  0  0  0  0  0
   -7.9139    0.7185    0.0000 C   0  0  0  0  0  0  0  0  0
   -7.1995    0.3060    0.0000 N   0  0  0  0  0  0  0  0  0
   -6.4850    0.7185    0.0000 C   0  0  0  0  0  0  0  0  0
   -5.7705    0.3060    0.0000 C   0  0  0  0  0  0  0  0  0
   -5.7705   -0.5190    0.0000 N   0  0  0  0  0  0  0  0  0
   -6.4850   -0.9315    0.0000 C   0  0  0  0  0  0  0  0  0
   -7.1995   -0.5190    0.0000 C   0  0  0  0  0  0  0  0  0
   -5.0561   -0.9315    0.0000 C   0  0  0  0  0  0  0  0  0
   -4.3416   -0.5190    0.0000 C   0  0  0  0  0  0  0  0  0
   -3.6271   -0.9315    0.0000 C   0  0  0  0  0  0  0  0  0
   -2.9126   -0.5190    0.0000 C   0  0  0  0  0  0  0  0  0
   -2.1982   -0.9315    0.0000 N   0  0  0  0  0  0  0  0  0
   -1.4837   -0.5190    0.0000 C   0  0  0  0  0  0  0  0  0
   -1.4837    0.3060    0.0000 O   0  0  0  0  0  0  0  0  0
   -0.7692   -0.9315    0.0000 C   0  0  0  0  0  0  0  0  0
   -0.0548   -0.5190    0.0000 C   0  0  0  0  0  0  0  0  0
    0.6597   -0.9315    0.0000 N   0  0  0  0  0  0  0  0  0
    1.2728   -0.3794    0.0000 N   0  0  0  0  0  0  0  0  0
    0.9372    0.3742    0.0000 C   0  0  0  0  0  0  0  0  0
    0.1168    0.2880    0.0000 C   0  0  0  0  0  0  0  0  0
    0.6597   -1.7565    0.0000 C   0  0  0  0  0  0  0  0  0
   -0.0548   -2.1690    0.0000 C   0  0  0  0  0  0  0  0  0
   -0.7692   -1.7565    0.0000 C   0  0  0  0  0  0  0  0  0
  1  2  1  0  0  0  0
  1  3  1  0  0  0  0
  3  4  4  0  0  0  0
  3  8  4  0  0  0  0
  4  5  4  0  0  0  0
  5  6  4  0  0  0  0
  6  7  4  0  0  0  0
  7  8  4  0  0  0  0
  8  9  1  0  0  0  0
  9 10  1  0  0  0  0
  9 14  1  0  0  0  0
 10 11  1  0  0  0  0
 11 12  1  0  0  0  0
 12 13  1  0  0  0  0
 12 15  1  0  0  0  0
 13 14  1  0  0  0  0
 15 16  1  0  0  0  0
 16 17  1  0  0  0  0
 17 18  1  0  0  0  0
 18 19  1  0  0  0  0
 19 20  1  0  0  0  0
 20 21  2  0  0  0  0
 20 22  1  0  0  0  0
 22 23  4  0  0  0  0
 22 30  4  0  0  0  0
 23 24  4  0  0  0  0
 23 27  4  0  0  0  0
 24 25  4  0  0  0  0
 24 28  4  0  0  0  0
 25 26  4  0  0  0  0
 26 27  4  0  0  0  0
 28 29  4  0  0  0  0
 29 30  4  0  0  0  0
M  END
>  <Name_Molregno>
234848

>  <DOPAMINE D2>
6.57

>  <DOPAMINE D3>
7.7

>  <DOPAMINE D4>
7.06

$$$$
234867
  Marvin  02231216192D 0   1.00000     0.00000     0

 30 33  0  0  0  0  0  0  0  0999 V2000
   -0.1145    0.0206    0.0000 Cl  0  0  0  0  0  0  0  0  0
   -0.1145   -0.8044    0.0000 C   0  0  0  0  0  0  0  0  0
    0.6000   -1.2169    0.0000 C   0  0  0  0  0  0  0  0  0
    1.3144   -0.8044    0.0000 N   0  0  0  0  0  0  0  0  0
    1.3144    0.0206    0.0000 C   0  0  0  0  0  0  0  0  0
    2.0289    0.4331    0.0000 C   0  0  0  0  0  0  0  0  0
    2.7434    0.0206    0.0000 N   0  0  0  0  0  0  0  0  0
    2.7434   -0.8044    0.0000 C   0  0  0  0  0  0  0  0  0
    2.0289   -1.2169    0.0000 C   0  0  0  0  0  0  0  0  0
    3.4579    0.4331    0.0000 C   0  0  0  0  0  0  0  0  0
    4.1723    0.0206    0.0000 C   0  0  0  0  0  0  0  0  0
    4.8868    0.4331    0.0000 C   0  0  0  0  0  0  0  0  0
    5.6013    0.0206    0.0000 C   0  0  0  0  0  0  0  0  0
    6.3157    0.4331    0.0000 N   0  0  0  0  0  0  0  0  0
    7.0302    0.0206    0.0000 C   0  0  0  0  0  0  0  0  0
    7.0302   -0.8044    0.0000 O   0  0  0  0  0  0  0  0  0
    7.7447    0.4331    0.0000 C   0  0  0  0  0  0  0  0  0
    8.4984    0.0976    0.0000 O   0  0  0  0  0  0  0  0  0
    9.0504    0.7107    0.0000 C   0  0  0  0  0  0  0  0  0
    8.6379    1.4251    0.0000 C   0  0  0  0  0  0  0  0  0
    7.8309    1.2536    0.0000 C   0  0  0  0  0  0  0  0  0
    9.0504    2.1396    0.0000 C   0  0  0  0  0  0  0  0  0
    9.8754    2.1396    0.0000 C   0  0  0  0  0  0  0  0  0
   10.2879    1.4251    0.0000 C   0  0  0  0  0  0  0  0  0
    9.8754    0.7107    0.0000 C   0  0  0  0  0  0  0  0  0
    0.6000   -2.0419    0.0000 C   0  0  0  0  0  0  0  0  0
   -0.1145   -2.4544    0.0000 C   0  0  0  0  0  0  0  0  0
   -0.8290   -2.0419    0.0000 C   0  0  0  0  0  0  0  0  0
   -0.8290   -1.2169    0.0000 C   0  0  0  0  0  0  0  0  0
   -1.5434   -0.8044    0.0000 Cl  0  0  0  0  0  0  0  0  0
  1  2  1  0  0  0  0
  2  3  4  0  0  0  0
  2 29  4  0  0  0  0
  3  4  1  0  0  0  0
  3 26  4  0  0  0  0
  4  5  1  0  0  0  0
  4  9  1  0  0  0  0
  5  6  1  0  0  0  0
  6  7  1  0  0  0  0
  7  8  1  0  0  0  0
  7 10  1  0  0  0  0
  8  9  1  0  0  0  0
 10 11  1  0  0  0  0
 11 12  1  0  0  0  0
 12 13  1  0  0  0  0
 13 14  1  0  0  0  0
 14 15  1  0  0  0  0
 15 16  2  0  0  0  0
 15 17  1  0  0  0  0
 17 18  4  0  0  0  0
 17 21  4  0  0  0  0
 18 19  4  0  0  0  0
 19 20  4  0  0  0  0
 19 25  4  0  0  0  0
 20 21  4  0  0  0  0
 20 22  4  0  0  0  0
 22 23  4  0  0  0  0
 23 24  4  0  0  0  0
 24 25  4  0  0  0  0
 26 27  4  0  0  0  0
 27 28  4  0  0  0  0
 28 29  4  0  0  0  0
 29 30  1  0  0  0  0
M  END
>  <Name_Molregno>
234867

>  <DOPAMINE D2>
7.03

>  <DOPAMINE D3>
8.91

>  <DOPAMINE D4>
6.29

$$$$
234869
  Marvin  02231216192D 0   1.00000     0.00000     0

 30 33  0  0  0  0  0  0  0  0999 V2000
   -8.6284   -0.5190    0.0000 O   0  0  0  0  0  0  0  0  0
   -9.3429   -0.9315    0.0000 C   0  0  0  0  0  0  0  0  0
   -8.6284    0.3060    0.0000 C   0  0  0  0  0  0  0  0  0
   -9.3429    0.7185    0.0000 C   0  0  0  0  0  0  0  0  0
   -9.3429    1.5435    0.0000 C   0  0  0  0  0  0  0  0  0
   -8.6284    1.9560    0.0000 C   0  0  0  0  0  0  0  0  0
   -7.9139    1.5435    0.0000 C   0  0  0  0  0  0  0  0  0
   -7.9139    0.7185    0.0000 C   0  0  0  0  0  0  0  0  0
   -7.1995    0.3060    0.0000 N   0  0  0  0  0  0  0  0  0
   -6.4850    0.7185    0.0000 C   0  0  0  0  0  0  0  0  0
   -5.7705    0.3060    0.0000 C   0  0  0  0  0  0  0  0  0
   -5.7705   -0.5190    0.0000 N   0  0  0  0  0  0  0  0  0
   -6.4850   -0.9315    0.0000 C   0  0  0  0  0  0  0  0  0
   -7.1995   -0.5190    0.0000 C   0  0  0  0  0  0  0  0  0
   -5.0561   -0.9315    0.0000 C   0  0  0  0  0  0  0  0  0
   -4.3416   -0.5190    0.0000 C   0  0  0  0  0  0  0  0  0
   -3.6271   -0.9315    0.0000 C   0  0  0  0  0  0  0  0  0
   -2.9126   -0.5190    0.0000 C   0  0  0  0  0  0  0  0  0
   -2.1982   -0.9315    0.0000 N   0  0  0  0  0  0  0  0  0
   -1.4837   -0.5190    0.0000 C   0  0  0  0  0  0  0  0  0
   -1.4837    0.3060    0.0000 O   0  0  0  0  0  0  0  0  0
   -0.7692   -0.9315    0.0000 C   0  0  0  0  0  0  0  0  0
   -0.0548   -0.5190    0.0000 N   0  0  0  0  0  0  0  0  0
    0.1168    0.2880    0.0000 N   0  0  0  0  0  0  0  0  0
    0.9372    0.3742    0.0000 C   0  0  0  0  0  0  0  0  0
    1.2728   -0.3794    0.0000 C   0  0  0  0  0  0  0  0  0
    0.6597   -0.9315    0.0000 C   0  0  0  0  0  0  0  0  0
    0.6597   -1.7565    0.0000 C   0  0  0  0  0  0  0  0  0
   -0.0548   -2.1690    0.0000 C   0  0  0  0  0  0  0  0  0
   -0.7692   -1.7565    0.0000 C   0  0  0  0  0  0  0  0  0
  1  2  1  0  0  0  0
  1  3  1  0  0  0  0
  3  4  4  0  0  0  0
  3  8  4  0  0  0  0
  4  5  4  0  0  0  0
  5  6  4  0  0  0  0
  6  7  4  0  0  0  0
  7  8  4  0  0  0  0
  8  9  1  0  0  0  0
  9 10  1  0  0  0  0
  9 14  1  0  0  0  0
 10 11  1  0  0  0  0
 11 12  1  0  0  0  0
 12 13  1  0  0  0  0
 12 15  1  0  0  0  0
 13 14  1  0  0  0  0
 15 16  1  0  0  0  0
 16 17  1  0  0  0  0
 17 18  1  0  0  0  0
 18 19  1  0  0  0  0
 19 20  1  0  0  0  0
 20 21  2  0  0  0  0
 20 22  1  0  0  0  0
 22 23  4  0  0  0  0
 22 30  4  0  0  0  0
 23 24  4  0  0  0  0
 23 27  4  0  0  0  0
 24 25  4  0  0  0  0
 25 26  4  0  0  0  0
 26 27  4  0  0  0  0
 27 28  4  0  0  0  0
 28 29  4  0  0  0  0
 29 30  4  0  0  0  0
M  END
>  <Name_Molregno>
234869

>  <DOPAMINE D2>
6.82

>  <DOPAMINE D3>
7.54

>  <DOPAMINE D4>
8.05

$$$$
234931
  Marvin  02231216192D 0   1.00000     0.00000     0

 30 33  0  0  0  0  0  0  0  0999 V2000
   -8.7068   -0.1359    0.0000 O   0  0  0  0  0  0  0  0  0
   -9.4213   -0.5484    0.0000 C   0  0  0  0  0  0  0  0  0
   -8.7068    0.6891    0.0000 C   0  0  0  0  0  0  0  0  0
   -9.4213    1.1016    0.0000 C   0  0  0  0  0  0  0  0  0
   -9.4213    1.9266    0.0000 C   0  0  0  0  0  0  0  0  0
   -8.7068    2.3391    0.0000 C   0  0  0  0  0  0  0  0  0
   -7.9924    1.9266    0.0000 C   0  0  0  0  0  0  0  0  0
   -7.9924    1.1016    0.0000 C   0  0  0  0  0  0  0  0  0
   -7.2779    0.6891    0.0000 N   0  0  0  0  0  0  0  0  0
   -6.5634    1.1016    0.0000 C   0  0  0  0  0  0  0  0  0
   -5.8490    0.6891    0.0000 C   0  0  0  0  0  0  0  0  0
   -5.8490   -0.1359    0.0000 N   0  0  0  0  0  0  0  0  0
   -6.5634   -0.5484    0.0000 C   0  0  0  0  0  0  0  0  0
   -7.2779   -0.1359    0.0000 C   0  0  0  0  0  0  0  0  0
   -5.1345   -0.5484    0.0000 C   0  0  0  0  0  0  0  0  0
   -4.4200   -0.1359    0.0000 C   0  0  0  0  0  0  0  0  0
   -3.7055   -0.5484    0.0000 C   0  0  0  0  0  0  0  0  0
   -2.9911   -0.1359    0.0000 C   0  0  0  0  0  0  0  0  0
   -2.2766   -0.5484    0.0000 N   0  0  0  0  0  0  0  0  0
   -1.5621   -0.1359    0.0000 C   0  0  0  0  0  0  0  0  0
   -1.5621    0.6891    0.0000 O   0  0  0  0  0  0  0  0  0
   -0.8477   -0.5484    0.0000 C   0  0  0  0  0  0  0  0  0
   -0.1332   -0.1359    0.0000 C   0  0  0  0  0  0  0  0  0
    0.5813   -0.5484    0.0000 C   0  0  0  0  0  0  0  0  0
    0.5813   -1.3734    0.0000 N   0  0  0  0  0  0  0  0  0
    1.1944   -1.9254    0.0000 N   0  0  0  0  0  0  0  0  0
    0.8588   -2.6791    0.0000 C   0  0  0  0  0  0  0  0  0
    0.0383   -2.5928    0.0000 C   0  0  0  0  0  0  0  0  0
   -0.1332   -1.7859    0.0000 C   0  0  0  0  0  0  0  0  0
   -0.8477   -1.3734    0.0000 C   0  0  0  0  0  0  0  0  0
  1  2  1  0  0  0  0
  1  3  1  0  0  0  0
  3  4  4  0  0  0  0
  3  8  4  0  0  0  0
  4  5  4  0  0  0  0
  5  6  4  0  0  0  0
  6  7  4  0  0  0  0
  7  8  4  0  0  0  0
  8  9  1  0  0  0  0
  9 10  1  0  0  0  0
  9 14  1  0  0  0  0
 10 11  1  0  0  0  0
 11 12  1  0  0  0  0
 12 13  1  0  0  0  0
 12 15  1  0  0  0  0
 13 14  1  0  0  0  0
 15 16  1  0  0  0  0
 16 17  1  0  0  0  0
 17 18  1  0  0  0  0
 18 19  1  0  0  0  0
 19 20  1  0  0  0  0
 20 21  2  0  0  0  0
 20 22  1  0  0  0  0
 22 23  4  0  0  0  0
 22 30  4  0  0  0  0
 23 24  4  0  0  0  0
 24 25  4  0  0  0  0
 25 26  4  0  0  0  0
 25 29  4  0  0  0  0
 26 27  4  0  0  0  0
 27 28  4  0  0  0  0
 28 29  4  0  0  0  0
 29 30  4  0  0  0  0
M  END
>  <Name_Molregno>
234931

>  <DOPAMINE D2>
6.72

>  <DOPAMINE D3>
8.55

>  <DOPAMINE D4>
7.17

$$$$
235396
  Marvin  02231216192D 0   1.00000     0.00000     0

 30 33  0  0  0  0  0  0  0  0999 V2000
    0.6799    1.4485    0.0000 S   0  0  0  0  0  0  0  0  0
   -0.1271    1.6200    0.0000 C   0  0  0  0  0  0  0  0  0
   -0.5396    0.9055    0.0000 C   0  0  0  0  0  0  0  0  0
    0.0124    0.2924    0.0000 C   0  0  0  0  0  0  0  0  0
    0.7661    0.6280    0.0000 C   0  0  0  0  0  0  0  0  0
    1.4806    0.2155    0.0000 C   0  0  0  0  0  0  0  0  0
    1.4806   -0.6095    0.0000 O   0  0  0  0  0  0  0  0  0
    2.1951    0.6280    0.0000 N   0  0  0  0  0  0  0  0  0
    2.9095    0.2155    0.0000 C   0  0  0  0  0  0  0  0  0
    3.6240    0.6280    0.0000 C   0  0  0  0  0  0  0  0  0
    4.3385    0.2155    0.0000 C   0  0  0  0  0  0  0  0  0
    5.0529    0.6280    0.0000 C   0  0  0  0  0  0  0  0  0
    5.7674    0.2155    0.0000 N   0  0  0  0  0  0  0  0  0
    6.4819    0.6280    0.0000 C   0  0  0  0  0  0  0  0  0
    7.1963    0.2155    0.0000 C   0  0  0  0  0  0  0  0  0
    7.1963   -0.6095    0.0000 N   0  0  0  0  0  0  0  0  0
    6.4819   -1.0220    0.0000 C   0  0  0  0  0  0  0  0  0
    5.7674   -0.6095    0.0000 C   0  0  0  0  0  0  0  0  0
    7.9108   -1.0220    0.0000 C   0  0  0  0  0  0  0  0  0
    8.6253   -0.6095    0.0000 C   0  0  0  0  0  0  0  0  0
    9.3398   -1.0220    0.0000 C   0  0  0  0  0  0  0  0  0
    9.3398   -1.8470    0.0000 C   0  0  0  0  0  0  0  0  0
    8.6253   -2.2595    0.0000 C   0  0  0  0  0  0  0  0  0
    7.9108   -1.8470    0.0000 C   0  0  0  0  0  0  0  0  0
    7.1963   -2.2595    0.0000 O   0  0  0  0  0  0  0  0  0
    7.1963   -3.0845    0.0000 C   0  0  0  0  0  0  0  0  0
   -1.3646    0.9055    0.0000 C   0  0  0  0  0  0  0  0  0
   -1.7771    1.6200    0.0000 C   0  0  0  0  0  0  0  0  0
   -1.3646    2.3344    0.0000 C   0  0  0  0  0  0  0  0  0
   -0.5396    2.3344    0.0000 C   0  0  0  0  0  0  0  0  0
  1  2  4  0  0  0  0
  1  5  4  0  0  0  0
  2  3  4  0  0  0  0
  2 30  4  0  0  0  0
  3  4  4  0  0  0  0
  3 27  4  0  0  0  0
  4  5  4  0  0  0  0
  5  6  1  0  0  0  0
  6  7  2  0  0  0  0
  6  8  1  0  0  0  0
  8  9  1  0  0  0  0
  9 10  1  0  0  0  0
 10 11  1  0  0  0  0
 11 12  1  0  0  0  0
 12 13  1  0  0  0  0
 13 14  1  0  0  0  0
 13 18  1  0  0  0  0
 14 15  1  0  0  0  0
 15 16  1  0  0  0  0
 16 17  1  0  0  0  0
 16 19  1  0  0  0  0
 17 18  1  0  0  0  0
 19 20  4  0  0  0  0
 19 24  4  0  0  0  0
 20 21  4  0  0  0  0
 21 22  4  0  0  0  0
 22 23  4  0  0  0  0
 23 24  4  0  0  0  0
 24 25  1  0  0  0  0
 25 26  1  0  0  0  0
 27 28  4  0  0  0  0
 28 29  4  0  0  0  0
 29 30  4  0  0  0  0
M  END
>  <Name_Molregno>
235396

>  <DOPAMINE D2>
7.06

>  <DOPAMINE D3>
9.66

>  <DOPAMINE D4>
7.17

$$$$
244014
  Marvin  02231216192D 0   1.00000     0.00000     0

 26 29  0  0  0  0  0  0  0  0999 V2000
    6.2838    4.0735    0.0000 Cl  0  0  0  0  0  0  0  0  0
    6.2838    3.2485    0.0000 C   0  0  0  0  0  0  0  0  0
    6.9983    2.8360    0.0000 C   0  0  0  0  0  0  0  0  0
    6.9983    2.0110    0.0000 C   0  0  0  0  0  0  0  0  0
    6.2838    1.5985    0.0000 C   0  0  0  0  0  0  0  0  0
    5.5693    2.0110    0.0000 C   0  0  0  0  0  0  0  0  0
    5.5693    2.8360    0.0000 C   0  0  0  0  0  0  0  0  0
    6.2838    0.7735    0.0000 C   0  0  0  0  0  0  0  0  0
    6.9512    0.2886    0.0000 N   0  0  0  0  0  0  0  0  0
    6.6963   -0.4960    0.0000 N   0  0  0  0  0  0  0  0  0
    5.8713   -0.4960    0.0000 C   0  0  0  0  0  0  0  0  0
    5.6163    0.2886    0.0000 C   0  0  0  0  0  0  0  0  0
    5.3864   -1.1635    0.0000 C   0  0  0  0  0  0  0  0  0
    5.7219   -1.9171    0.0000 C   0  0  0  0  0  0  0  0  0
    5.2370   -2.5846    0.0000 C   0  0  0  0  0  0  0  0  0
    4.4165   -2.4984    0.0000 N   0  0  0  0  0  0  0  0  0
    4.0810   -1.7447    0.0000 C   0  0  0  0  0  0  0  0  0
    4.5659   -1.0772    0.0000 C   0  0  0  0  0  0  0  0  0
    3.9316   -3.1658    0.0000 C   0  0  0  0  0  0  0  0  0
    4.2672   -3.9195    0.0000 C   0  0  0  0  0  0  0  0  0
    3.7822   -4.5869    0.0000 C   0  0  0  0  0  0  0  0  0
    4.1178   -5.3406    0.0000 C   0  0  0  0  0  0  0  0  0
    3.6329   -6.0080    0.0000 C   0  0  0  0  0  0  0  0  0
    2.8124   -5.9218    0.0000 C   0  0  0  0  0  0  0  0  0
    2.4768   -5.1681    0.0000 C   0  0  0  0  0  0  0  0  0
    2.9617   -4.5007    0.0000 C   0  0  0  0  0  0  0  0  0
  1  2  1  0  0  0  0
  2  3  4  0  0  0  0
  2  7  4  0  0  0  0
  3  4  4  0  0  0  0
  4  5  4  0  0  0  0
  5  6  4  0  0  0  0
  5  8  1  0  0  0  0
  6  7  4  0  0  0  0
  8  9  4  0  0  0  0
  8 12  4  0  0  0  0
  9 10  4  0  0  0  0
 10 11  4  0  0  0  0
 11 12  4  0  0  0  0
 11 13  1  0  0  0  0
 13 14  1  0  0  0  0
 13 18  1  0  0  0  0
 14 15  1  0  0  0  0
 15 16  1  0  0  0  0
 16 17  1  0  0  0  0
 16 19  1  0  0  0  0
 17 18  1  0  0  0  0
 19 20  1  0  0  0  0
 20 21  1  0  0  0  0
 21 22  4  0  0  0  0
 21 26  4  0  0  0  0
 22 23  4  0  0  0  0
 23 24  4  0  0  0  0
 24 25  4  0  0  0  0
 25 26  4  0  0  0  0
M  STY  1   1 DAT
M  SAL   1  1  10
M  SDT   1 MRV_IMPLICIT_H                                        
M  SDD   1     0.0000    0.0000    DR    ALL  0       0  
M  SED   1 IMPL_H1
M  END
>  <Name_Molregno>
244014

>  <DOPAMINE D2>
6.28

>  <DOPAMINE D3>
5.4

>  <DOPAMINE D4>
8.26

$$$$
245431
  Marvin  02231216192D 0   1.00000     0.00000     0

 26 27  0  0  1  0  0  0  0  0999 V2000
   -1.4797   -3.8455    0.0000 Cl  0  0  0  0  0  0  0  0  0
   -0.7652   -3.4330    0.0000 C   0  0  0  0  0  0  0  0  0
   -0.7652   -2.6080    0.0000 C   0  0  0  0  0  0  0  0  0
   -0.0507   -2.1955    0.0000 C   0  0  0  0  0  0  0  0  0
    0.6637   -2.6080    0.0000 C   0  0  0  0  0  0  0  0  0
    0.6637   -3.4330    0.0000 C   0  0  0  0  0  0  0  0  0
   -0.0507   -3.8455    0.0000 C   0  0  0  0  0  0  0  0  0
    1.3782   -2.1955    0.0000 C   0  0  0  0  0  0  0  0  0
    1.3782   -1.3705    0.0000 O   0  0  0  0  0  0  0  0  0
    2.0927   -2.6080    0.0000 C   0  0  0  0  0  0  0  0  0
    2.8071   -2.1955    0.0000 C   0  0  0  0  0  0  0  0  0
    3.5216   -2.6080    0.0000 C   0  0  0  0  0  0  0  0  0
    4.2361   -2.1955    0.0000 N   0  0  0  0  0  0  0  0  0
    4.9505   -2.6080    0.0000 C   0  0  0  0  0  0  0  0  0
    5.6650   -2.1955    0.0000 C   0  0  0  0  0  0  0  0  0
    6.3795   -2.6080    0.0000 C   0  0  0  0  0  0  0  0  0
    7.0940   -2.1955    0.0000 C   0  0  0  0  0  0  0  0  0
    7.0940   -1.3705    0.0000 O   0  0  0  0  0  0  0  0  0
    7.8084   -2.6080    0.0000 C   0  0  0  0  0  0  0  0  0
    8.5229   -2.1955    0.0000 C   0  0  0  0  0  0  0  0  0
    9.2374   -2.6080    0.0000 C   0  0  0  0  0  0  0  0  0
    9.2374   -3.4330    0.0000 C   0  0  0  0  0  0  0  0  0
    9.9518   -3.8455    0.0000 F   0  0  0  0  0  0  0  0  0
    8.5229   -3.8455    0.0000 C   0  0  0  0  0  0  0  0  0
    7.8084   -3.4330    0.0000 C   0  0  0  0  0  0  0  0  0
    4.2361   -1.3705    0.0000 C   0  0  0  0  0  0  0  0  0
  1  2  1  0  0  0  0
  2  3  4  0  0  0  0
  2  7  4  0  0  0  0
  3  4  4  0  0  0  0
  4  5  4  0  0  0  0
  5  6  4  0  0  0  0
  5  8  1  0  0  0  0
  6  7  4  0  0  0  0
  8  9  1  0  0  0  0
  8 10  1  0  0  0  0
 10 11  1  0  0  0  0
 11 12  1  0  0  0  0
 12 13  1  0  0  0  0
 13 14  1  0  0  0  0
 13 26  1  0  0  0  0
 14 15  1  0  0  0  0
 15 16  1  0  0  0  0
 16 17  1  0  0  0  0
 17 18  2  0  0  0  0
 17 19  1  0  0  0  0
 19 20  4  0  0  0  0
 19 25  4  0  0  0  0
 20 21  4  0  0  0  0
 21 22  4  0  0  0  0
 22 23  1  0  0  0  0
 22 24  4  0  0  0  0
 24 25  4  0  0  0  0
M  END
>  <Name_Molregno>
245431

>  <DOPAMINE D2>
7.58

>  <DOPAMINE D3>
6.79

>  <DOPAMINE D4>
6.72

$$$$
245432
  Marvin  02231216192D 0   1.00000     0.00000     0

 24 26  0  0  1  0  0  0  0  0999 V2000
   -0.1382    0.2777    0.0000 Cl  0  0  0  0  0  0  0  0  0
    0.6823    0.3639    0.0000 C   0  0  0  0  0  0  0  0  0
    1.0178    1.1176    0.0000 C   0  0  0  0  0  0  0  0  0
    1.8383    1.2039    0.0000 C   0  0  0  0  0  0  0  0  0
    2.3232    0.5364    0.0000 C   0  0  0  0  0  0  0  0  0
    1.9877   -0.2173    0.0000 C   0  0  0  0  0  0  0  0  0
    1.1672   -0.3035    0.0000 C   0  0  0  0  0  0  0  0  0
    3.1437    0.6227    0.0000 C   0  0  0  0  0  0  0  0  0
    3.5562    1.3371    0.0000 C   0  0  0  0  0  0  0  0  0
    4.3632    1.1656    0.0000 C   0  0  0  0  0  0  0  0  0
    4.4494    0.3451    0.0000 N   0  0  0  0  0  0  0  0  0
    3.6957    0.0096    0.0000 C   0  0  0  0  0  0  0  0  0
    5.1639   -0.0674    0.0000 C   0  0  0  0  0  0  0  0  0
    5.8783    0.3451    0.0000 C   0  0  0  0  0  0  0  0  0
    6.5928   -0.0674    0.0000 C   0  0  0  0  0  0  0  0  0
    7.3073    0.3451    0.0000 C   0  0  0  0  0  0  0  0  0
    7.3073    1.1701    0.0000 O   0  0  0  0  0  0  0  0  0
    8.0218   -0.0674    0.0000 C   0  0  0  0  0  0  0  0  0
    8.7362    0.3451    0.0000 C   0  0  0  0  0  0  0  0  0
    9.4507   -0.0674    0.0000 C   0  0  0  0  0  0  0  0  0
    9.4507   -0.8924    0.0000 C   0  0  0  0  0  0  0  0  0
   10.1652   -1.3049    0.0000 F   0  0  0  0  0  0  0  0  0
    8.7362   -1.3049    0.0000 C   0  0  0  0  0  0  0  0  0
    8.0218   -0.8924    0.0000 C   0  0  0  0  0  0  0  0  0
  1  2  1  0  0  0  0
  2  3  4  0  0  0  0
  2  7  4  0  0  0  0
  3  4  4  0  0  0  0
  4  5  4  0  0  0  0
  5  6  4  0  0  0  0
  5  8  1  0  0  0  0
  6  7  4  0  0  0  0
  8  9  1  0  0  0  0
  8 12  1  0  0  0  0
  9 10  1  0  0  0  0
 10 11  1  0  0  0  0
 11 12  1  0  0  0  0
 11 13  1  0  0  0  0
 13 14  1  0  0  0  0
 14 15  1  0  0  0  0
 15 16  1  0  0  0  0
 16 17  2  0  0  0  0
 16 18  1  0  0  0  0
 18 19  4  0  0  0  0
 18 24  4  0  0  0  0
 19 20  4  0  0  0  0
 20 21  4  0  0  0  0
 21 22  1  0  0  0  0
 21 23  4  0  0  0  0
 23 24  4  0  0  0  0
M  END
>  <Name_Molregno>
245432

>  <DOPAMINE D2>
7.81

>  <DOPAMINE D3>
8

>  <DOPAMINE D4>
7.82

$$$$
245433
  Marvin  02231216192D 0   1.00000     0.00000     0

 25 27  0  0  1  0  0  0  0  0999 V2000
    0.3559    2.6179    0.0000 Cl  0  0  0  0  0  0  0  0  0
    1.0234    2.1329    0.0000 C   0  0  0  0  0  0  0  0  0
    1.7770    2.4685    0.0000 C   0  0  0  0  0  0  0  0  0
    2.4445    1.9836    0.0000 C   0  0  0  0  0  0  0  0  0
    2.3582    1.1631    0.0000 C   0  0  0  0  0  0  0  0  0
    1.6046    0.8275    0.0000 C   0  0  0  0  0  0  0  0  0
    0.9371    1.3125    0.0000 C   0  0  0  0  0  0  0  0  0
    3.0257    0.6782    0.0000 C   0  0  0  0  0  0  0  0  0
    2.4736    0.0651    0.0000 O   0  0  0  0  0  0  0  0  0
    3.4382    1.3926    0.0000 C   0  0  0  0  0  0  0  0  0
    4.2451    1.2211    0.0000 C   0  0  0  0  0  0  0  0  0
    4.3314    0.4006    0.0000 N   0  0  0  0  0  0  0  0  0
    3.5777    0.0651    0.0000 C   0  0  0  0  0  0  0  0  0
    5.0459   -0.0119    0.0000 C   0  0  0  0  0  0  0  0  0
    5.7603    0.4006    0.0000 C   0  0  0  0  0  0  0  0  0
    6.4748   -0.0119    0.0000 C   0  0  0  0  0  0  0  0  0
    7.1893    0.4006    0.0000 C   0  0  0  0  0  0  0  0  0
    7.1893    1.2256    0.0000 O   0  0  0  0  0  0  0  0  0
    7.9037   -0.0119    0.0000 C   0  0  0  0  0  0  0  0  0
    8.6182    0.4006    0.0000 C   0  0  0  0  0  0  0  0  0
    9.3327   -0.0119    0.0000 C   0  0  0  0  0  0  0  0  0
    9.3327   -0.8369    0.0000 C   0  0  0  0  0  0  0  0  0
   10.0472   -1.2494    0.0000 F   0  0  0  0  0  0  0  0  0
    8.6182   -1.2494    0.0000 C   0  0  0  0  0  0  0  0  0
    7.9037   -0.8369    0.0000 C   0  0  0  0  0  0  0  0  0
  1  2  1  0  0  0  0
  2  3  4  0  0  0  0
  2  7  4  0  0  0  0
  3  4  4  0  0  0  0
  4  5  4  0  0  0  0
  5  6  4  0  0  0  0
  5  8  1  0  0  0  0
  6  7  4  0  0  0  0
  8  9  1  0  0  0  0
  8 10  1  0  0  0  0
  8 13  1  0  0  0  0
 10 11  1  0  0  0  0
 11 12  1  0  0  0  0
 12 13  1  0  0  0  0
 12 14  1  0  0  0  0
 14 15  1  0  0  0  0
 15 16  1  0  0  0  0
 16 17  1  0  0  0  0
 17 18  2  0  0  0  0
 17 19  1  0  0  0  0
 19 20  4  0  0  0  0
 19 25  4  0  0  0  0
 20 21  4  0  0  0  0
 21 22  4  0  0  0  0
 22 23  1  0  0  0  0
 22 24  4  0  0  0  0
 24 25  4  0  0  0  0
M  END
>  <Name_Molregno>
245433

>  <5-HT1A>
6.1

>  <5-HT2A>
6.87

>  <5-HT2C>
5.67

>  <Alpha-1A>
7.2

>  <Alpha-1B>
7.18

>  <Alpha-2A>
5.44

>  <Alpha-2B>
5.58

>  <Alpha-2C>
7.41

>  <DOPAMINE D2>
7.07

>  <DOPAMINE D3>
6.45

>  <DOPAMINE D4>
7.7

>  <HISTAMINE H1>
6.21

$$$$
245757
  Marvin  02231216192D 0   1.00000     0.00000     0

 27 29  0  0  1  0  0  0  0  0999 V2000
    0.5628    1.9971    0.0000 Cl  0  0  0  0  0  0  0  0  0
    1.1675    1.4360    0.0000 C   0  0  0  0  0  0  0  0  0
    1.9559    1.6791    0.0000 C   0  0  0  0  0  0  0  0  0
    2.5607    1.1180    0.0000 C   0  0  0  0  0  0  0  0  0
    2.3771    0.3137    0.0000 C   0  0  0  0  0  0  0  0  0
    1.5887    0.0705    0.0000 C   0  0  0  0  0  0  0  0  0
    0.9840    0.6316    0.0000 C   0  0  0  0  0  0  0  0  0
    2.9818   -0.2475    0.0000 C   0  0  0  0  0  0  0  0  0
    2.3002   -0.7122    0.0000 O   0  0  0  0  0  0  0  0  0
    3.3943    0.4670    0.0000 C   0  0  0  0  0  0  0  0  0
    4.2101    0.5900    0.0000 C   0  0  0  0  0  0  0  0  0
    4.8149    0.0288    0.0000 C   0  0  0  0  0  0  0  0  0
    4.7532   -0.7939    0.0000 N   0  0  0  0  0  0  0  0  0
    4.0716   -1.2586    0.0000 C   0  0  0  0  0  0  0  0  0
    3.2833   -1.0154    0.0000 C   0  0  0  0  0  0  0  0  0
    5.4677   -1.2064    0.0000 C   0  0  0  0  0  0  0  0  0
    6.1822   -0.7939    0.0000 C   0  0  0  0  0  0  0  0  0
    6.8967   -1.2064    0.0000 C   0  0  0  0  0  0  0  0  0
    7.6111   -0.7939    0.0000 C   0  0  0  0  0  0  0  0  0
    7.6111    0.0311    0.0000 O   0  0  0  0  0  0  0  0  0
    8.3256   -1.2064    0.0000 C   0  0  0  0  0  0  0  0  0
    9.0401   -0.7939    0.0000 C   0  0  0  0  0  0  0  0  0
    9.7545   -1.2064    0.0000 C   0  0  0  0  0  0  0  0  0
    9.7545   -2.0314    0.0000 C   0  0  0  0  0  0  0  0  0
   10.4690   -2.4439    0.0000 F   0  0  0  0  0  0  0  0  0
    9.0401   -2.4439    0.0000 C   0  0  0  0  0  0  0  0  0
    8.3256   -2.0314    0.0000 C   0  0  0  0  0  0  0  0  0
  1  2  1  0  0  0  0
  2  3  4  0  0  0  0
  2  7  4  0  0  0  0
  3  4  4  0  0  0  0
  4  5  4  0  0  0  0
  5  6  4  0  0  0  0
  5  8  1  0  0  0  0
  6  7  4  0  0  0  0
  8  9  1  0  0  0  0
  8 10  1  0  0  0  0
  8 15  1  0  0  0  0
 10 11  1  0  0  0  0
 11 12  1  0  0  0  0
 12 13  1  0  0  0  0
 13 14  1  0  0  0  0
 13 16  1  0  0  0  0
 14 15  1  0  0  0  0
 16 17  1  0  0  0  0
 17 18  1  0  0  0  0
 18 19  1  0  0  0  0
 19 20  2  0  0  0  0
 19 21  1  0  0  0  0
 21 22  4  0  0  0  0
 21 27  4  0  0  0  0
 22 23  4  0  0  0  0
 23 24  4  0  0  0  0
 24 25  1  0  0  0  0
 24 26  4  0  0  0  0
 26 27  4  0  0  0  0
M  END
>  <Name_Molregno>
245757

>  <DOPAMINE D2>
8.96

>  <DOPAMINE D3>
8.07

>  <DOPAMINE D4>
8.09

$$$$
245758
  Marvin  02231216192D 0   1.00000     0.00000     0

 27 29  0  0  1  0  0  0  0  0999 V2000
    0.8884   -2.1849    0.0000 Cl  0  0  0  0  0  0  0  0  0
    1.4405   -1.5718    0.0000 C   0  0  0  0  0  0  0  0  0
    1.1855   -0.7871    0.0000 C   0  0  0  0  0  0  0  0  0
    1.7375   -0.1740    0.0000 C   0  0  0  0  0  0  0  0  0
    2.5445   -0.3456    0.0000 C   0  0  0  0  0  0  0  0  0
    2.7995   -1.1302    0.0000 C   0  0  0  0  0  0  0  0  0
    2.2474   -1.7433    0.0000 C   0  0  0  0  0  0  0  0  0
    3.0966    0.2675    0.0000 C   0  0  0  0  0  0  0  0  0
    3.5091    0.9820    0.0000 C   0  0  0  0  0  0  0  0  0
    4.3160    0.8105    0.0000 C   0  0  0  0  0  0  0  0  0
    4.4023   -0.0100    0.0000 N   0  0  0  0  0  0  0  0  0
    3.6486   -0.3456    0.0000 C   0  0  0  0  0  0  0  0  0
    5.1167   -0.4225    0.0000 C   0  0  0  0  0  0  0  0  0
    5.8312   -0.0100    0.0000 C   0  0  0  0  0  0  0  0  0
    6.5457   -0.4225    0.0000 C   0  0  0  0  0  0  0  0  0
    7.2601   -0.0100    0.0000 C   0  0  0  0  0  0  0  0  0
    7.2601    0.8150    0.0000 O   0  0  0  0  0  0  0  0  0
    7.9746   -0.4225    0.0000 C   0  0  0  0  0  0  0  0  0
    8.6891   -0.0100    0.0000 C   0  0  0  0  0  0  0  0  0
    9.4036   -0.4225    0.0000 C   0  0  0  0  0  0  0  0  0
    9.4036   -1.2475    0.0000 C   0  0  0  0  0  0  0  0  0
   10.1180   -1.6600    0.0000 F   0  0  0  0  0  0  0  0  0
    8.6891   -1.6600    0.0000 C   0  0  0  0  0  0  0  0  0
    7.9746   -1.2475    0.0000 C   0  0  0  0  0  0  0  0  0
    2.4291    0.7524    0.0000 C   0  0  0  0  0  0  0  0  0
    1.6754    0.4169    0.0000 C   0  0  0  0  0  0  0  0  0
    1.0080    0.9018    0.0000 O   0  0  0  0  0  0  0  0  0
  1  2  1  0  0  0  0
  2  3  4  0  0  0  0
  2  7  4  0  0  0  0
  3  4  4  0  0  0  0
  4  5  4  0  0  0  0
  5  6  4  0  0  0  0
  5  8  1  0  0  0  0
  6  7  4  0  0  0  0
  8  9  1  0  0  0  0
  8 12  1  0  0  0  0
  8 25  1  0  0  0  0
  9 10  1  0  0  0  0
 10 11  1  0  0  0  0
 11 12  1  0  0  0  0
 11 13  1  0  0  0  0
 13 14  1  0  0  0  0
 14 15  1  0  0  0  0
 15 16  1  0  0  0  0
 16 17  2  0  0  0  0
 16 18  1  0  0  0  0
 18 19  4  0  0  0  0
 18 24  4  0  0  0  0
 19 20  4  0  0  0  0
 20 21  4  0  0  0  0
 21 22  1  0  0  0  0
 21 23  4  0  0  0  0
 23 24  4  0  0  0  0
 25 26  1  0  0  0  0
 26 27  1  0  0  0  0
M  END
>  <Name_Molregno>
245758

>  <DOPAMINE D2>
7.64

>  <DOPAMINE D3>
7.49

>  <DOPAMINE D4>
6.71

$$$$
245759
  Marvin  02231216192D 0   1.00000     0.00000     0

 26 28  0  0  1  0  0  0  0  0999 V2000
    0.7894   -2.2136    0.0000 Cl  0  0  0  0  0  0  0  0  0
    1.3414   -1.6005    0.0000 C   0  0  0  0  0  0  0  0  0
    1.0864   -0.8159    0.0000 C   0  0  0  0  0  0  0  0  0
    1.6385   -0.2028    0.0000 C   0  0  0  0  0  0  0  0  0
    2.4454   -0.3743    0.0000 C   0  0  0  0  0  0  0  0  0
    2.7004   -1.1589    0.0000 C   0  0  0  0  0  0  0  0  0
    2.1484   -1.7720    0.0000 C   0  0  0  0  0  0  0  0  0
    2.9975    0.2388    0.0000 C   0  0  0  0  0  0  0  0  0
    3.4100    0.9532    0.0000 C   0  0  0  0  0  0  0  0  0
    4.2170    0.7817    0.0000 C   0  0  0  0  0  0  0  0  0
    4.3032   -0.0388    0.0000 N   0  0  0  0  0  0  0  0  0
    3.5495   -0.3743    0.0000 C   0  0  0  0  0  0  0  0  0
    5.0177   -0.4513    0.0000 C   0  0  0  0  0  0  0  0  0
    5.7321   -0.0388    0.0000 C   0  0  0  0  0  0  0  0  0
    6.4466   -0.4513    0.0000 C   0  0  0  0  0  0  0  0  0
    7.1611   -0.0388    0.0000 C   0  0  0  0  0  0  0  0  0
    7.1611    0.7862    0.0000 O   0  0  0  0  0  0  0  0  0
    7.8755   -0.4513    0.0000 C   0  0  0  0  0  0  0  0  0
    8.5900   -0.0388    0.0000 C   0  0  0  0  0  0  0  0  0
    9.3045   -0.4513    0.0000 C   0  0  0  0  0  0  0  0  0
    9.3045   -1.2763    0.0000 C   0  0  0  0  0  0  0  0  0
   10.0190   -1.6888    0.0000 F   0  0  0  0  0  0  0  0  0
    8.5900   -1.6888    0.0000 C   0  0  0  0  0  0  0  0  0
    7.8755   -1.2763    0.0000 C   0  0  0  0  0  0  0  0  0
    2.3300    0.7237    0.0000 C   0  0  0  0  0  0  0  0  0
    2.4163    1.5442    0.0000 O   0  0  0  0  0  0  0  0  0
  1  2  1  0  0  0  0
  2  3  4  0  0  0  0
  2  7  4  0  0  0  0
  3  4  4  0  0  0  0
  4  5  4  0  0  0  0
  5  6  4  0  0  0  0
  5  8  1  0  0  0  0
  6  7  4  0  0  0  0
  8  9  1  0  0  0  0
  8 12  1  0  0  0  0
  8 25  1  0  0  0  0
  9 10  1  0  0  0  0
 10 11  1  0  0  0  0
 11 12  1  0  0  0  0
 11 13  1  0  0  0  0
 13 14  1  0  0  0  0
 14 15  1  0  0  0  0
 15 16  1  0  0  0  0
 16 17  2  0  0  0  0
 16 18  1  0  0  0  0
 18 19  4  0  0  0  0
 18 24  4  0  0  0  0
 19 20  4  0  0  0  0
 20 21  4  0  0  0  0
 21 22  1  0  0  0  0
 21 23  4  0  0  0  0
 23 24  4  0  0  0  0
 25 26  1  0  0  0  0
M  END
>  <Name_Molregno>
245759

>  <DOPAMINE D2>
7.36

>  <DOPAMINE D3>
6.78

>  <DOPAMINE D4>
7.62

$$$$
245760
  Marvin  02231216192D 0   1.00000     0.00000     0

 27 29  0  0  1  0  0  0  0  0999 V2000
   -0.1326   -0.8622    0.0000 Cl  0  0  0  0  0  0  0  0  0
    0.5819   -0.4497    0.0000 C   0  0  0  0  0  0  0  0  0
    0.5819    0.3753    0.0000 C   0  0  0  0  0  0  0  0  0
    1.2964    0.7878    0.0000 C   0  0  0  0  0  0  0  0  0
    2.0108    0.3753    0.0000 C   0  0  0  0  0  0  0  0  0
    2.0108   -0.4497    0.0000 C   0  0  0  0  0  0  0  0  0
    1.2964   -0.8622    0.0000 C   0  0  0  0  0  0  0  0  0
    2.7253    0.7878    0.0000 C   0  0  0  0  0  0  0  0  0
    2.7253    1.6128    0.0000 O   0  0  0  0  0  0  0  0  0
    3.4398    0.3753    0.0000 C   0  0  0  0  0  0  0  0  0
    4.1543    0.7878    0.0000 C   0  0  0  0  0  0  0  0  0
    4.8687    0.3753    0.0000 C   0  0  0  0  0  0  0  0  0
    4.8687   -0.4497    0.0000 N   0  0  0  0  0  0  0  0  0
    4.1543   -0.8622    0.0000 C   0  0  0  0  0  0  0  0  0
    3.4398   -0.4497    0.0000 C   0  0  0  0  0  0  0  0  0
    5.5832   -0.8622    0.0000 C   0  0  0  0  0  0  0  0  0
    6.2977   -0.4497    0.0000 C   0  0  0  0  0  0  0  0  0
    7.0121   -0.8622    0.0000 C   0  0  0  0  0  0  0  0  0
    7.7266   -0.4497    0.0000 C   0  0  0  0  0  0  0  0  0
    7.7266    0.3753    0.0000 O   0  0  0  0  0  0  0  0  0
    8.4411   -0.8622    0.0000 C   0  0  0  0  0  0  0  0  0
    9.1556   -0.4497    0.0000 C   0  0  0  0  0  0  0  0  0
    9.8700   -0.8622    0.0000 C   0  0  0  0  0  0  0  0  0
    9.8700   -1.6872    0.0000 C   0  0  0  0  0  0  0  0  0
   10.5845   -2.0997    0.0000 F   0  0  0  0  0  0  0  0  0
    9.1556   -2.0997    0.0000 C   0  0  0  0  0  0  0  0  0
    8.4411   -1.6872    0.0000 C   0  0  0  0  0  0  0  0  0
  1  2  1  0  0  0  0
  2  3  4  0  0  0  0
  2  7  4  0  0  0  0
  3  4  4  0  0  0  0
  4  5  4  0  0  0  0
  5  6  4  0  0  0  0
  5  8  1  0  0  0  0
  6  7  4  0  0  0  0
  8  9  1  0  0  0  0
  8 10  1  0  0  0  0
 10 11  1  0  0  0  0
 10 15  1  0  0  0  0
 11 12  1  0  0  0  0
 12 13  1  0  0  0  0
 13 14  1  0  0  0  0
 13 16  1  0  0  0  0
 14 15  1  0  0  0  0
 16 17  1  0  0  0  0
 17 18  1  0  0  0  0
 18 19  1  0  0  0  0
 19 20  2  0  0  0  0
 19 21  1  0  0  0  0
 21 22  4  0  0  0  0
 21 27  4  0  0  0  0
 22 23  4  0  0  0  0
 23 24  4  0  0  0  0
 24 25  1  0  0  0  0
 24 26  4  0  0  0  0
 26 27  4  0  0  0  0
M  END
>  <Name_Molregno>
245760

>  <DOPAMINE D2>
7.62

>  <DOPAMINE D3>
7.11

>  <DOPAMINE D4>
6.91

$$$$
245762
  Marvin  02231216192D 0   1.00000     0.00000     0

 27 29  0  0  0  0  0  0  0  0999 V2000
   -0.1099   -0.5169    0.0000 Cl  0  0  0  0  0  0  0  0  0
    0.7026   -0.3736    0.0000 C   0  0  0  0  0  0  0  0  0
    0.9848    0.4017    0.0000 C   0  0  0  0  0  0  0  0  0
    1.7972    0.5449    0.0000 C   0  0  0  0  0  0  0  0  0
    2.3275   -0.0871    0.0000 C   0  0  0  0  0  0  0  0  0
    2.0454   -0.8623    0.0000 C   0  0  0  0  0  0  0  0  0
    1.2329   -1.0056    0.0000 C   0  0  0  0  0  0  0  0  0
    3.1400    0.0562    0.0000 C   0  0  0  0  0  0  0  0  0
    3.8545    0.4687    0.0000 C   0  0  0  0  0  0  0  0  0
    4.5689    0.0562    0.0000 C   0  0  0  0  0  0  0  0  0
    4.5689   -0.7688    0.0000 N   0  0  0  0  0  0  0  0  0
    3.8545   -1.1813    0.0000 C   0  0  0  0  0  0  0  0  0
    3.1400   -0.7688    0.0000 C   0  0  0  0  0  0  0  0  0
    5.2834   -1.1813    0.0000 C   0  0  0  0  0  0  0  0  0
    5.9979   -0.7688    0.0000 C   0  0  0  0  0  0  0  0  0
    6.7123   -1.1813    0.0000 C   0  0  0  0  0  0  0  0  0
    7.4268   -0.7688    0.0000 C   0  0  0  0  0  0  0  0  0
    7.4268    0.0562    0.0000 O   0  0  0  0  0  0  0  0  0
    8.1413   -1.1813    0.0000 C   0  0  0  0  0  0  0  0  0
    8.8558   -0.7688    0.0000 C   0  0  0  0  0  0  0  0  0
    9.5702   -1.1813    0.0000 C   0  0  0  0  0  0  0  0  0
    9.5702   -2.0063    0.0000 C   0  0  0  0  0  0  0  0  0
   10.2847   -2.4188    0.0000 F   0  0  0  0  0  0  0  0  0
    8.8558   -2.4188    0.0000 C   0  0  0  0  0  0  0  0  0
    8.1413   -2.0063    0.0000 C   0  0  0  0  0  0  0  0  0
    2.8578    0.8314    0.0000 C   0  0  0  0  0  0  0  0  0
    3.3881    1.4634    0.0000 O   0  0  0  0  0  0  0  0  0
  1  2  1  0  0  0  0
  2  3  4  0  0  0  0
  2  7  4  0  0  0  0
  3  4  4  0  0  0  0
  4  5  4  0  0  0  0
  5  6  4  0  0  0  0
  5  8  1  0  0  0  0
  6  7  4  0  0  0  0
  8  9  1  0  0  0  0
  8 13  1  0  0  0  0
  8 26  1  0  0  0  0
  9 10  1  0  0  0  0
 10 11  1  0  0  0  0
 11 12  1  0  0  0  0
 11 14  1  0  0  0  0
 12 13  1  0  0  0  0
 14 15  1  0  0  0  0
 15 16  1  0  0  0  0
 16 17  1  0  0  0  0
 17 18  2  0  0  0  0
 17 19  1  0  0  0  0
 19 20  4  0  0  0  0
 19 25  4  0  0  0  0
 20 21  4  0  0  0  0
 21 22  4  0  0  0  0
 22 23  1  0  0  0  0
 22 24  4  0  0  0  0
 24 25  4  0  0  0  0
 26 27  1  0  0  0  0
M  END
>  <Name_Molregno>
245762

>  <DOPAMINE D2>
7.81

>  <DOPAMINE D3>
6.96

>  <DOPAMINE D4>
7.11

$$$$
245784
  Marvin  02231216192D 0   1.00000     0.00000     0

 25 27  0  0  0  0  0  0  0  0999 V2000
    0.2794    2.6940    0.0000 Cl  0  0  0  0  0  0  0  0  0
    0.9939    2.2815    0.0000 C   0  0  0  0  0  0  0  0  0
    1.7084    2.6940    0.0000 C   0  0  0  0  0  0  0  0  0
    2.4228    2.2815    0.0000 C   0  0  0  0  0  0  0  0  0
    2.4228    1.4565    0.0000 C   0  0  0  0  0  0  0  0  0
    1.7084    1.0440    0.0000 C   0  0  0  0  0  0  0  0  0
    0.9939    1.4565    0.0000 C   0  0  0  0  0  0  0  0  0
    3.1373    1.0440    0.0000 C   0  0  0  0  0  0  0  0  0
    3.8518    1.4565    0.0000 C   0  0  0  0  0  0  0  0  0
    4.5663    1.0440    0.0000 C   0  0  0  0  0  0  0  0  0
    4.5663    0.2190    0.0000 N   0  3  0  0  0  0  0  0  0
    3.8518   -0.1935    0.0000 C   0  0  0  0  0  0  0  0  0
    3.1373    0.2190    0.0000 C   0  0  0  0  0  0  0  0  0
    5.2807   -0.1935    0.0000 C   0  0  0  0  0  0  0  0  0
    5.9952    0.2190    0.0000 C   0  0  0  0  0  0  0  0  0
    6.7097   -0.1935    0.0000 C   0  0  0  0  0  0  0  0  0
    7.4241    0.2190    0.0000 C   0  0  0  0  0  0  0  0  0
    7.4241    1.0440    0.0000 O   0  0  0  0  0  0  0  0  0
    8.1386   -0.1935    0.0000 C   0  0  0  0  0  0  0  0  0
    8.8531    0.2190    0.0000 C   0  0  0  0  0  0  0  0  0
    9.5676   -0.1935    0.0000 C   0  0  0  0  0  0  0  0  0
    9.5676   -1.0185    0.0000 C   0  0  0  0  0  0  0  0  0
   10.2820   -1.4310    0.0000 F   0  0  0  0  0  0  0  0  0
    8.8531   -1.4310    0.0000 C   0  0  0  0  0  0  0  0  0
    8.1386   -1.0185    0.0000 C   0  0  0  0  0  0  0  0  0
  1  2  1  0  0  0  0
  2  3  4  0  0  0  0
  2  7  4  0  0  0  0
  3  4  4  0  0  0  0
  4  5  4  0  0  0  0
  5  6  4  0  0  0  0
  5  8  1  0  0  0  0
  6  7  4  0  0  0  0
  8  9  4  0  0  0  0
  8 13  4  0  0  0  0
  9 10  4  0  0  0  0
 10 11  4  0  0  0  0
 11 12  4  0  0  0  0
 11 14  1  0  0  0  0
 12 13  4  0  0  0  0
 14 15  1  0  0  0  0
 15 16  1  0  0  0  0
 16 17  1  0  0  0  0
 17 18  2  0  0  0  0
 17 19  1  0  0  0  0
 19 20  4  0  0  0  0
 19 25  4  0  0  0  0
 20 21  4  0  0  0  0
 21 22  4  0  0  0  0
 22 23  1  0  0  0  0
 22 24  4  0  0  0  0
 24 25  4  0  0  0  0
M  CHG  1  11   1
M  END
>  <Name_Molregno>
245784

>  <DOPAMINE D2>
6

>  <DOPAMINE D3>
6

>  <DOPAMINE D4>
6

$$$$
245895
  Marvin  02231216192D 0   1.00000     0.00000     0

 27 29  0  0  0  0  0  0  0  0999 V2000
   -9.4397   -0.0038    0.0000 Cl  0  0  0  0  0  0  0  0  0
   -8.6273   -0.1471    0.0000 C   0  0  0  0  0  0  0  0  0
   -8.0970    0.4849    0.0000 C   0  0  0  0  0  0  0  0  0
   -7.2845    0.3416    0.0000 C   0  0  0  0  0  0  0  0  0
   -7.0023   -0.4336    0.0000 C   0  0  0  0  0  0  0  0  0
   -7.5326   -1.0656    0.0000 C   0  0  0  0  0  0  0  0  0
   -8.3451   -0.9223    0.0000 C   0  0  0  0  0  0  0  0  0
   -6.1899   -0.5769    0.0000 C   0  0  0  0  0  0  0  0  0
   -5.9077   -1.3521    0.0000 C   0  0  0  0  0  0  0  0  0
   -6.7202   -1.4954    0.0000 O   0  0  0  0  0  0  0  0  0
   -5.1932   -0.9396    0.0000 C   0  0  0  0  0  0  0  0  0
   -4.4788   -1.3521    0.0000 C   0  0  0  0  0  0  0  0  0
   -4.4788   -2.1771    0.0000 N   0  0  0  0  0  0  0  0  0
   -5.1932   -2.5896    0.0000 C   0  0  0  0  0  0  0  0  0
   -5.9077   -2.1771    0.0000 C   0  0  0  0  0  0  0  0  0
   -3.7643   -2.5896    0.0000 C   0  0  0  0  0  0  0  0  0
   -3.0498   -2.1771    0.0000 C   0  0  0  0  0  0  0  0  0
   -2.3353   -2.5896    0.0000 C   0  0  0  0  0  0  0  0  0
   -1.6209   -2.1771    0.0000 C   0  0  0  0  0  0  0  0  0
   -1.6209   -1.3521    0.0000 O   0  0  0  0  0  0  0  0  0
   -0.9064   -2.5896    0.0000 C   0  0  0  0  0  0  0  0  0
   -0.1919   -2.1771    0.0000 C   0  0  0  0  0  0  0  0  0
    0.5225   -2.5896    0.0000 C   0  0  0  0  0  0  0  0  0
    0.5225   -3.4146    0.0000 C   0  0  0  0  0  0  0  0  0
    1.2370   -3.8271    0.0000 F   0  0  0  0  0  0  0  0  0
   -0.1919   -3.8271    0.0000 C   0  0  0  0  0  0  0  0  0
   -0.9064   -3.4146    0.0000 C   0  0  0  0  0  0  0  0  0
  1  2  1  0  0  0  0
  2  3  4  0  0  0  0
  2  7  4  0  0  0  0
  3  4  4  0  0  0  0
  4  5  4  0  0  0  0
  5  6  4  0  0  0  0
  5  8  1  0  0  0  0
  6  7  4  0  0  0  0
  8  9  1  0  0  0  0
  9 10  1  0  0  0  0
  9 11  1  0  0  0  0
  9 15  1  0  0  0  0
 11 12  1  0  0  0  0
 12 13  1  0  0  0  0
 13 14  1  0  0  0  0
 13 16  1  0  0  0  0
 14 15  1  0  0  0  0
 16 17  1  0  0  0  0
 17 18  1  0  0  0  0
 18 19  1  0  0  0  0
 19 20  2  0  0  0  0
 19 21  1  0  0  0  0
 21 22  4  0  0  0  0
 21 27  4  0  0  0  0
 22 23  4  0  0  0  0
 23 24  4  0  0  0  0
 24 25  1  0  0  0  0
 24 26  4  0  0  0  0
 26 27  4  0  0  0  0
M  END
>  <Name_Molregno>
245895

>  <DOPAMINE D2>
8.1

>  <DOPAMINE D3>
8.05

>  <DOPAMINE D4>
7.23

$$$$
245896
  Marvin  02231216192D 0   1.00000     0.00000     0

 25 27  0  0  0  0  0  0  0  0999 V2000
    0.2794    2.6940    0.0000 Cl  0  0  0  0  0  0  0  0  0
    0.9939    2.2815    0.0000 C   0  0  0  0  0  0  0  0  0
    1.7084    2.6940    0.0000 C   0  0  0  0  0  0  0  0  0
    2.4228    2.2815    0.0000 C   0  0  0  0  0  0  0  0  0
    2.4228    1.4565    0.0000 C   0  0  0  0  0  0  0  0  0
    1.7084    1.0440    0.0000 C   0  0  0  0  0  0  0  0  0
    0.9939    1.4565    0.0000 C   0  0  0  0  0  0  0  0  0
    3.1373    1.0440    0.0000 C   0  0  0  0  0  0  0  0  0
    3.8518    1.4565    0.0000 C   0  0  0  0  0  0  0  0  0
    4.5663    1.0440    0.0000 C   0  0  0  0  0  0  0  0  0
    4.5663    0.2190    0.0000 N   0  0  0  0  0  0  0  0  0
    3.8518   -0.1935    0.0000 C   0  0  0  0  0  0  0  0  0
    3.1373    0.2190    0.0000 C   0  0  0  0  0  0  0  0  0
    5.2807   -0.1935    0.0000 C   0  0  0  0  0  0  0  0  0
    5.9952    0.2190    0.0000 C   0  0  0  0  0  0  0  0  0
    6.7097   -0.1935    0.0000 C   0  0  0  0  0  0  0  0  0
    7.4241    0.2190    0.0000 C   0  0  0  0  0  0  0  0  0
    7.4241    1.0440    0.0000 O   0  0  0  0  0  0  0  0  0
    8.1386   -0.1935    0.0000 C   0  0  0  0  0  0  0  0  0
    8.8531    0.2190    0.0000 C   0  0  0  0  0  0  0  0  0
    9.5676   -0.1935    0.0000 C   0  0  0  0  0  0  0  0  0
    9.5676   -1.0185    0.0000 C   0  0  0  0  0  0  0  0  0
   10.2820   -1.4310    0.0000 F   0  0  0  0  0  0  0  0  0
    8.8531   -1.4310    0.0000 C   0  0  0  0  0  0  0  0  0
    8.1386   -1.0185    0.0000 C   0  0  0  0  0  0  0  0  0
  1  2  1  0  0  0  0
  2  3  4  0  0  0  0
  2  7  4  0  0  0  0
  3  4  4  0  0  0  0
  4  5  4  0  0  0  0
  5  6  4  0  0  0  0
  5  8  1  0  0  0  0
  6  7  4  0  0  0  0
  8  9  1  0  0  0  0
  8 13  1  0  0  0  0
  9 10  1  0  0  0  0
 10 11  1  0  0  0  0
 11 12  1  0  0  0  0
 11 14  1  0  0  0  0
 12 13  1  0  0  0  0
 14 15  1  0  0  0  0
 15 16  1  0  0  0  0
 16 17  1  0  0  0  0
 17 18  2  0  0  0  0
 17 19  1  0  0  0  0
 19 20  4  0  0  0  0
 19 25  4  0  0  0  0
 20 21  4  0  0  0  0
 21 22  4  0  0  0  0
 22 23  1  0  0  0  0
 22 24  4  0  0  0  0
 24 25  4  0  0  0  0
M  END
>  <Name_Molregno>
245896

>  <DOPAMINE D2>
7.81

>  <DOPAMINE D3>
7.34

>  <DOPAMINE D4>
7.59

$$$$
256399
  Marvin  02231216192D 0   1.00000     0.00000     0

 33 36  0  0  0  0  0  0  0  0999 V2000
    0.0893   -0.3724    0.0000 Cl  0  0  0  0  0  0  0  0  0
    0.0893   -1.1974    0.0000 C   0  0  0  0  0  0  0  0  0
    0.8038   -1.6099    0.0000 C   0  0  0  0  0  0  0  0  0
    1.5183   -1.1974    0.0000 N   0  0  0  0  0  0  0  0  0
    1.5183   -0.3724    0.0000 C   0  0  0  0  0  0  0  0  0
    2.2327    0.0401    0.0000 C   0  0  0  0  0  0  0  0  0
    2.9472   -0.3724    0.0000 N   0  0  0  0  0  0  0  0  0
    2.9472   -1.1974    0.0000 C   0  0  0  0  0  0  0  0  0
    2.2327   -1.6099    0.0000 C   0  0  0  0  0  0  0  0  0
    3.6617    0.0401    0.0000 C   0  0  0  0  0  0  0  0  0
    4.3761   -0.3724    0.0000 C   0  0  0  0  0  0  0  0  0
    5.0906    0.0401    0.0000 C   0  0  0  0  0  0  0  0  0
    5.8051   -0.3724    0.0000 C   0  0  0  0  0  0  0  0  0
    6.5196    0.0401    0.0000 N   0  0  0  0  0  0  0  0  0
    7.2340   -0.3724    0.0000 C   0  0  0  0  0  0  0  0  0
    7.2340   -1.1974    0.0000 O   0  0  0  0  0  0  0  0  0
    7.9485    0.0401    0.0000 C   0  0  0  0  0  0  0  0  0
    8.6630   -0.3724    0.0000 C   0  0  0  0  0  0  0  0  0
    9.3774    0.0401    0.0000 C   0  0  0  0  0  0  0  0  0
    9.3774    0.8651    0.0000 C   0  0  0  0  0  0  0  0  0
    8.6630    1.2776    0.0000 C   0  0  0  0  0  0  0  0  0
    8.6630    2.1026    0.0000 C   0  0  0  0  0  0  0  0  0
    9.3774    2.5151    0.0000 C   0  0  0  0  0  0  0  0  0
   10.0919    2.1026    0.0000 C   0  0  0  0  0  0  0  0  0
   10.0919    1.2776    0.0000 C   0  0  0  0  0  0  0  0  0
    7.9485    0.8651    0.0000 C   0  0  0  0  0  0  0  0  0
    7.2340    1.2776    0.0000 O   0  0  0  0  0  0  0  0  0
    7.2340    2.1026    0.0000 C   0  0  0  0  0  0  0  0  0
    0.8038   -2.4349    0.0000 C   0  0  0  0  0  0  0  0  0
    0.0893   -2.8474    0.0000 C   0  0  0  0  0  0  0  0  0
   -0.6251   -2.4349    0.0000 C   0  0  0  0  0  0  0  0  0
   -0.6251   -1.6099    0.0000 C   0  0  0  0  0  0  0  0  0
   -1.3396   -1.1974    0.0000 Cl  0  0  0  0  0  0  0  0  0
  1  2  1  0  0  0  0
  2  3  4  0  0  0  0
  2 32  4  0  0  0  0
  3  4  1  0  0  0  0
  3 29  4  0  0  0  0
  4  5  1  0  0  0  0
  4  9  1  0  0  0  0
  5  6  1  0  0  0  0
  6  7  1  0  0  0  0
  7  8  1  0  0  0  0
  7 10  1  0  0  0  0
  8  9  1  0  0  0  0
 10 11  1  0  0  0  0
 11 12  1  0  0  0  0
 12 13  1  0  0  0  0
 13 14  1  0  0  0  0
 14 15  1  0  0  0  0
 15 16  2  0  0  0  0
 15 17  1  0  0  0  0
 17 18  4  0  0  0  0
 17 26  4  0  0  0  0
 18 19  4  0  0  0  0
 19 20  4  0  0  0  0
 20 21  4  0  0  0  0
 20 25  4  0  0  0  0
 21 22  4  0  0  0  0
 21 26  4  0  0  0  0
 22 23  4  0  0  0  0
 23 24  4  0  0  0  0
 24 25  4  0  0  0  0
 26 27  1  0  0  0  0
 27 28  1  0  0  0  0
 29 30  4  0  0  0  0
 30 31  4  0  0  0  0
 31 32  4  0  0  0  0
 32 33  1  0  0  0  0
M  END
>  <Name_Molregno>
256399

>  <DOPAMINE D3>
9.22

$$$$
256556
  Marvin  02231216192D 0   1.00000     0.00000     0

 30 33  0  0  0  0  0  0  0  0999 V2000
   -0.1145    0.0206    0.0000 Cl  0  0  0  0  0  0  0  0  0
   -0.1145   -0.8044    0.0000 C   0  0  0  0  0  0  0  0  0
    0.6000   -1.2169    0.0000 C   0  0  0  0  0  0  0  0  0
    1.3144   -0.8044    0.0000 N   0  0  0  0  0  0  0  0  0
    1.3144    0.0206    0.0000 C   0  0  0  0  0  0  0  0  0
    2.0289    0.4331    0.0000 C   0  0  0  0  0  0  0  0  0
    2.7434    0.0206    0.0000 N   0  0  0  0  0  0  0  0  0
    2.7434   -0.8044    0.0000 C   0  0  0  0  0  0  0  0  0
    2.0289   -1.2169    0.0000 C   0  0  0  0  0  0  0  0  0
    3.4579    0.4331    0.0000 C   0  0  0  0  0  0  0  0  0
    4.1723    0.0206    0.0000 C   0  0  0  0  0  0  0  0  0
    4.8868    0.4331    0.0000 C   0  0  0  0  0  0  0  0  0
    5.6013    0.0206    0.0000 C   0  0  0  0  0  0  0  0  0
    6.3157    0.4331    0.0000 N   0  0  0  0  0  0  0  0  0
    7.0302    0.0206    0.0000 C   0  0  0  0  0  0  0  0  0
    7.0302   -0.8044    0.0000 O   0  0  0  0  0  0  0  0  0
    7.7447    0.4331    0.0000 C   0  0  0  0  0  0  0  0  0
    8.4984    0.0976    0.0000 N   0  0  0  0  0  0  0  0  0
    9.0504    0.7107    0.0000 C   0  0  0  0  0  0  0  0  0
    8.6379    1.4251    0.0000 C   0  0  0  0  0  0  0  0  0
    7.8309    1.2536    0.0000 C   0  0  0  0  0  0  0  0  0
    9.0504    2.1396    0.0000 C   0  0  0  0  0  0  0  0  0
    9.8754    2.1396    0.0000 C   0  0  0  0  0  0  0  0  0
   10.2879    1.4251    0.0000 C   0  0  0  0  0  0  0  0  0
    9.8754    0.7107    0.0000 C   0  0  0  0  0  0  0  0  0
    0.6000   -2.0419    0.0000 C   0  0  0  0  0  0  0  0  0
   -0.1145   -2.4544    0.0000 C   0  0  0  0  0  0  0  0  0
   -0.8290   -2.0419    0.0000 C   0  0  0  0  0  0  0  0  0
   -0.8290   -1.2169    0.0000 C   0  0  0  0  0  0  0  0  0
   -1.5434   -0.8044    0.0000 Cl  0  0  0  0  0  0  0  0  0
  1  2  1  0  0  0  0
  2  3  4  0  0  0  0
  2 29  4  0  0  0  0
  3  4  1  0  0  0  0
  3 26  4  0  0  0  0
  4  5  1  0  0  0  0
  4  9  1  0  0  0  0
  5  6  1  0  0  0  0
  6  7  1  0  0  0  0
  7  8  1  0  0  0  0
  7 10  1  0  0  0  0
  8  9  1  0  0  0  0
 10 11  1  0  0  0  0
 11 12  1  0  0  0  0
 12 13  1  0  0  0  0
 13 14  1  0  0  0  0
 14 15  1  0  0  0  0
 15 16  2  0  0  0  0
 15 17  1  0  0  0  0
 17 18  4  0  0  0  0
 17 21  4  0  0  0  0
 18 19  4  0  0  0  0
 19 20  4  0  0  0  0
 19 25  4  0  0  0  0
 20 21  4  0  0  0  0
 20 22  4  0  0  0  0
 22 23  4  0  0  0  0
 23 24  4  0  0  0  0
 24 25  4  0  0  0  0
 26 27  4  0  0  0  0
 27 28  4  0  0  0  0
 28 29  4  0  0  0  0
 29 30  1  0  0  0  0
M  STY  1   1 DAT
M  SAL   1  1  18
M  SDT   1 MRV_IMPLICIT_H                                        
M  SDD   1     0.0000    0.0000    DR    ALL  0       0  
M  SED   1 IMPL_H1
M  END
>  <Name_Molregno>
256556

>  <DOPAMINE D2>
5.51

>  <DOPAMINE D3>
9.18

>  <DOPAMINE D4>
5.77

$$$$
256582
  Marvin  02231216192D 0   1.00000     0.00000     0

 31 34  0  0  0  0  0  0  0  0999 V2000
   -0.1193    0.0402    0.0000 Cl  0  0  0  0  0  0  0  0  0
   -0.1193   -0.7848    0.0000 C   0  0  0  0  0  0  0  0  0
    0.5952   -1.1973    0.0000 C   0  0  0  0  0  0  0  0  0
    1.3096   -0.7848    0.0000 N   0  0  0  0  0  0  0  0  0
    1.3096    0.0402    0.0000 C   0  0  0  0  0  0  0  0  0
    2.0241    0.4527    0.0000 C   0  0  0  0  0  0  0  0  0
    2.7386    0.0402    0.0000 N   0  0  0  0  0  0  0  0  0
    2.7386   -0.7848    0.0000 C   0  0  0  0  0  0  0  0  0
    2.0241   -1.1973    0.0000 C   0  0  0  0  0  0  0  0  0
    3.4530    0.4527    0.0000 C   0  0  0  0  0  0  0  0  0
    4.1675    0.0402    0.0000 C   0  0  0  0  0  0  0  0  0
    4.8820    0.4527    0.0000 C   0  0  0  0  0  0  0  0  0
    5.5965    0.0402    0.0000 C   0  0  0  0  0  0  0  0  0
    6.3109    0.4527    0.0000 N   0  0  0  0  0  0  0  0  0
    7.0254    0.0402    0.0000 C   0  0  0  0  0  0  0  0  0
    7.0254   -0.7848    0.0000 O   0  0  0  0  0  0  0  0  0
    7.7399    0.4527    0.0000 C   0  0  0  0  0  0  0  0  0
    8.4543    0.0402    0.0000 C   0  0  0  0  0  0  0  0  0
    9.1688    0.4527    0.0000 C   0  0  0  0  0  0  0  0  0
    9.1688    1.2777    0.0000 C   0  0  0  0  0  0  0  0  0
    8.4543    1.6902    0.0000 C   0  0  0  0  0  0  0  0  0
    7.7399    1.2777    0.0000 C   0  0  0  0  0  0  0  0  0
    9.8833    1.6902    0.0000 C   0  0  0  0  0  0  0  0  0
   10.5977    1.2777    0.0000 C   0  0  0  0  0  0  0  0  0
   10.5977    0.4527    0.0000 C   0  0  0  0  0  0  0  0  0
    9.8833    0.0402    0.0000 C   0  0  0  0  0  0  0  0  0
    0.5952   -2.0223    0.0000 C   0  0  0  0  0  0  0  0  0
   -0.1193   -2.4348    0.0000 C   0  0  0  0  0  0  0  0  0
   -0.8338   -2.0223    0.0000 C   0  0  0  0  0  0  0  0  0
   -0.8338   -1.1973    0.0000 C   0  0  0  0  0  0  0  0  0
   -1.5483   -0.7848    0.0000 Cl  0  0  0  0  0  0  0  0  0
  1  2  1  0  0  0  0
  2  3  4  0  0  0  0
  2 30  4  0  0  0  0
  3  4  1  0  0  0  0
  3 27  4  0  0  0  0
  4  5  1  0  0  0  0
  4  9  1  0  0  0  0
  5  6  1  0  0  0  0
  6  7  1  0  0  0  0
  7  8  1  0  0  0  0
  7 10  1  0  0  0  0
  8  9  1  0  0  0  0
 10 11  1  0  0  0  0
 11 12  1  0  0  0  0
 12 13  1  0  0  0  0
 13 14  1  0  0  0  0
 14 15  1  0  0  0  0
 15 16  2  0  0  0  0
 15 17  1  0  0  0  0
 17 18  4  0  0  0  0
 17 22  4  0  0  0  0
 18 19  4  0  0  0  0
 19 20  4  0  0  0  0
 19 26  4  0  0  0  0
 20 21  4  0  0  0  0
 20 23  4  0  0  0  0
 21 22  4  0  0  0  0
 23 24  4  0  0  0  0
 24 25  4  0  0  0  0
 25 26  4  0  0  0  0
 27 28  4  0  0  0  0
 28 29  4  0  0  0  0
 29 30  4  0  0  0  0
 30 31  1  0  0  0  0
M  END
>  <Name_Molregno>
256582

>  <DOPAMINE D3>
8.1

$$$$
258036
  Marvin  02231216192D 0   1.00000     0.00000     0

 20 23  0  0  0  0  0  0  0  0999 V2000
   -0.7413    1.1633    0.0000 N   0  0  0  0  0  0  0  0  0
   -0.1893    1.7764    0.0000 C   0  0  0  0  0  0  0  0  0
    0.5644    1.4408    0.0000 C   0  0  0  0  0  0  0  0  0
    0.4782    0.6203    0.0000 C   0  0  0  0  0  0  0  0  0
    1.0302    0.0073    0.0000 C   0  0  0  0  0  0  0  0  0
    0.7752   -0.7774    0.0000 C   0  0  0  0  0  0  0  0  0
   -0.0317   -0.9489    0.0000 C   0  0  0  0  0  0  0  0  0
   -0.5838   -0.3358    0.0000 N   0  0  0  0  0  0  0  0  0
   -0.3288    0.4488    0.0000 C   0  0  0  0  0  0  0  0  0
    1.2789    1.8533    0.0000 C   0  0  0  0  0  0  0  0  0
    1.9933    1.4408    0.0000 N   0  0  0  0  0  0  0  0  0
    1.9933    0.6158    0.0000 C   0  0  0  0  0  0  0  0  0
    2.7078    0.2033    0.0000 C   0  0  0  0  0  0  0  0  0
    3.4223    0.6158    0.0000 C   0  0  0  0  0  0  0  0  0
    3.4223    1.4408    0.0000 C   0  0  0  0  0  0  0  0  0
    2.7078    1.8533    0.0000 C   0  0  0  0  0  0  0  0  0
    4.1367    1.8533    0.0000 C   0  0  0  0  0  0  0  0  0
    4.8512    1.4408    0.0000 C   0  0  0  0  0  0  0  0  0
    4.8512    0.6158    0.0000 C   0  0  0  0  0  0  0  0  0
    4.1367    0.2033    0.0000 C   0  0  0  0  0  0  0  0  0
  1  2  4  0  0  0  0
  1  9  4  0  0  0  0
  2  3  4  0  0  0  0
  3  4  4  0  0  0  0
  3 10  1  0  0  0  0
  4  5  4  0  0  0  0
  4  9  4  0  0  0  0
  5  6  4  0  0  0  0
  6  7  4  0  0  0  0
  7  8  4  0  0  0  0
  8  9  4  0  0  0  0
 10 11  1  0  0  0  0
 11 12  1  0  0  0  0
 11 16  1  0  0  0  0
 12 13  1  0  0  0  0
 13 14  1  0  0  0  0
 14 15  4  0  0  0  0
 14 20  4  0  0  0  0
 15 16  1  0  0  0  0
 15 17  4  0  0  0  0
 17 18  4  0  0  0  0
 18 19  4  0  0  0  0
 19 20  4  0  0  0  0
M  STY  1   1 DAT
M  SAL   1  1   1
M  SDT   1 MRV_IMPLICIT_H                                        
M  SDD   1     0.0000    0.0000    DR    ALL  0       0  
M  SED   1 IMPL_H1
M  END
>  <Name_Molregno>
258036

>  <DOPAMINE D2>
6.19

>  <DOPAMINE D3>
6.77

>  <DOPAMINE D4>
8.15

$$$$
258050
  Marvin  02231216192D 0   1.00000     0.00000     0

 24 27  0  0  0  0  0  0  0  0999 V2000
    1.2127   -2.4092    0.0000 N   0  0  0  0  0  0  0  0  0
    0.7278   -1.7417    0.0000 C   0  0  0  0  0  0  0  0  0
    1.2127   -1.0743    0.0000 C   0  0  0  0  0  0  0  0  0
    1.9974   -1.3292    0.0000 C   0  0  0  0  0  0  0  0  0
    2.7118   -0.9167    0.0000 C   0  0  0  0  0  0  0  0  0
    3.4263   -1.3292    0.0000 C   0  0  0  0  0  0  0  0  0
    3.4263   -2.1542    0.0000 C   0  0  0  0  0  0  0  0  0
    2.7118   -2.5667    0.0000 N   0  0  0  0  0  0  0  0  0
    1.9974   -2.1542    0.0000 C   0  0  0  0  0  0  0  0  0
    0.9578   -0.2897    0.0000 C   0  0  0  0  0  0  0  0  0
    1.5098    0.3234    0.0000 N   0  0  0  0  0  0  0  0  0
    1.2549    1.1081    0.0000 C   0  0  0  0  0  0  0  0  0
    1.8069    1.7212    0.0000 C   0  0  0  0  0  0  0  0  0
    2.6139    1.5496    0.0000 C   0  0  0  0  0  0  0  0  0
    2.8688    0.7650    0.0000 C   0  0  0  0  0  0  0  0  0
    2.3168    0.1519    0.0000 C   0  0  0  0  0  0  0  0  0
    3.1659    2.1627    0.0000 C   0  0  0  0  0  0  0  0  0
    2.9110    2.9473    0.0000 C   0  0  0  0  0  0  0  0  0
    3.4630    3.5604    0.0000 C   0  0  0  0  0  0  0  0  0
    3.2081    4.3451    0.0000 C   0  0  0  0  0  0  0  0  0
    3.7601    4.9582    0.0000 C   0  0  0  0  0  0  0  0  0
    4.5671    4.7866    0.0000 C   0  0  0  0  0  0  0  0  0
    4.8220    4.0020    0.0000 C   0  0  0  0  0  0  0  0  0
    4.2700    3.3889    0.0000 C   0  0  0  0  0  0  0  0  0
  1  2  4  0  0  0  0
  1  9  4  0  0  0  0
  2  3  4  0  0  0  0
  3  4  4  0  0  0  0
  3 10  1  0  0  0  0
  4  5  4  0  0  0  0
  4  9  4  0  0  0  0
  5  6  4  0  0  0  0
  6  7  4  0  0  0  0
  7  8  4  0  0  0  0
  8  9  4  0  0  0  0
 10 11  1  0  0  0  0
 11 12  1  0  0  0  0
 11 16  1  0  0  0  0
 12 13  1  0  0  0  0
 13 14  1  0  0  0  0
 14 15  1  0  0  0  0
 14 17  1  0  0  0  0
 15 16  1  0  0  0  0
 17 18  1  0  0  0  0
 18 19  1  0  0  0  0
 19 20  4  0  0  0  0
 19 24  4  0  0  0  0
 20 21  4  0  0  0  0
 21 22  4  0  0  0  0
 22 23  4  0  0  0  0
 23 24  4  0  0  0  0
M  STY  1   1 DAT
M  SAL   1  1   1
M  SDT   1 MRV_IMPLICIT_H                                        
M  SDD   1     0.0000    0.0000    DR    ALL  0       0  
M  SED   1 IMPL_H1
M  END
>  <Name_Molregno>
258050

>  <DOPAMINE D2>
5.96

>  <DOPAMINE D3>
5.89

>  <DOPAMINE D4>
8.74

$$$$
258089
  Marvin  02231216192D 0   1.00000     0.00000     0

 24 27  0  0  0  0  0  0  0  0999 V2000
    0.0803   -3.3053    0.0000 N   0  0  0  0  0  0  0  0  0
   -0.6341   -2.8928    0.0000 C   0  0  0  0  0  0  0  0  0
   -1.4188   -3.1478    0.0000 N   0  0  0  0  0  0  0  0  0
   -1.9037   -2.4803    0.0000 C   0  0  0  0  0  0  0  0  0
   -1.4188   -1.8129    0.0000 C   0  0  0  0  0  0  0  0  0
   -0.6341   -2.0678    0.0000 C   0  0  0  0  0  0  0  0  0
    0.0803   -1.6553    0.0000 C   0  0  0  0  0  0  0  0  0
    0.7948   -2.0678    0.0000 C   0  0  0  0  0  0  0  0  0
    0.7948   -2.8928    0.0000 C   0  0  0  0  0  0  0  0  0
   -2.7287   -2.4803    0.0000 C   0  0  0  0  0  0  0  0  0
   -3.1412   -1.7659    0.0000 N   0  0  0  0  0  0  0  0  0
   -3.9662   -1.7659    0.0000 C   0  0  0  0  0  0  0  0  0
   -4.3787   -1.0514    0.0000 C   0  0  0  0  0  0  0  0  0
   -3.9662   -0.3369    0.0000 C   0  0  0  0  0  0  0  0  0
   -3.1412   -0.3369    0.0000 C   0  0  0  0  0  0  0  0  0
   -2.7287   -1.0514    0.0000 C   0  0  0  0  0  0  0  0  0
   -4.3787    0.3775    0.0000 C   0  0  0  0  0  0  0  0  0
   -5.2037    0.3775    0.0000 C   0  0  0  0  0  0  0  0  0
   -5.6162    1.0920    0.0000 C   0  0  0  0  0  0  0  0  0
   -6.4412    1.0920    0.0000 C   0  0  0  0  0  0  0  0  0
   -6.8537    1.8065    0.0000 C   0  0  0  0  0  0  0  0  0
   -6.4412    2.5210    0.0000 C   0  0  0  0  0  0  0  0  0
   -5.6162    2.5210    0.0000 C   0  0  0  0  0  0  0  0  0
   -5.2037    1.8065    0.0000 C   0  0  0  0  0  0  0  0  0
  1  2  4  0  0  0  0
  1  9  4  0  0  0  0
  2  3  4  0  0  0  0
  2  6  4  0  0  0  0
  3  4  4  0  0  0  0
  4  5  4  0  0  0  0
  4 10  1  0  0  0  0
  5  6  4  0  0  0  0
  6  7  4  0  0  0  0
  7  8  4  0  0  0  0
  8  9  4  0  0  0  0
 10 11  1  0  0  0  0
 11 12  1  0  0  0  0
 11 16  1  0  0  0  0
 12 13  1  0  0  0  0
 13 14  1  0  0  0  0
 14 15  1  0  0  0  0
 14 17  1  0  0  0  0
 15 16  1  0  0  0  0
 17 18  1  0  0  0  0
 18 19  1  0  0  0  0
 19 20  4  0  0  0  0
 19 24  4  0  0  0  0
 20 21  4  0  0  0  0
 21 22  4  0  0  0  0
 22 23  4  0  0  0  0
 23 24  4  0  0  0  0
M  STY  1   1 DAT
M  SAL   1  1   1
M  SDT   1 MRV_IMPLICIT_H                                        
M  SDD   1     0.0000    0.0000    DR    ALL  0       0  
M  SED   1 IMPL_H1
M  END
>  <Name_Molregno>
258089

>  <DOPAMINE D2>
6.7

>  <DOPAMINE D3>
6.6

>  <DOPAMINE D4>
8.7

$$$$
258090
  Marvin  02231216192D 0   1.00000     0.00000     0

 23 26  0  0  1  0  0  0  0  0999 V2000
    3.7240   -2.4669    0.0000 N   0  0  0  0  0  0  0  0  0
    3.2391   -1.7995    0.0000 C   0  0  0  0  0  0  0  0  0
    3.7240   -1.1321    0.0000 C   0  0  0  0  0  0  0  0  0
    4.5086   -1.3870    0.0000 C   0  0  0  0  0  0  0  0  0
    5.2231   -0.9745    0.0000 C   0  0  0  0  0  0  0  0  0
    5.9376   -1.3870    0.0000 C   0  0  0  0  0  0  0  0  0
    5.9376   -2.2120    0.0000 C   0  0  0  0  0  0  0  0  0
    5.2231   -2.6245    0.0000 N   0  0  0  0  0  0  0  0  0
    4.5086   -2.2120    0.0000 C   0  0  0  0  0  0  0  0  0
    3.4691   -0.3474    0.0000 C   0  0  0  0  0  0  0  0  0
    2.6621   -0.1759    0.0000 C   0  0  0  0  0  0  0  0  0
    2.4071    0.6087    0.0000 N   0  0  0  0  0  0  0  0  0
    1.6002    0.7802    0.0000 C   0  0  0  0  0  0  0  0  0
    1.3452    1.5648    0.0000 C   0  0  0  0  0  0  0  0  0
    1.8973    2.1779    0.0000 C   0  0  0  0  0  0  0  0  0
    2.7042    2.0064    0.0000 C   0  0  0  0  0  0  0  0  0
    2.9592    1.2218    0.0000 C   0  0  0  0  0  0  0  0  0
    1.6423    2.9626    0.0000 C   0  0  0  0  0  0  0  0  0
    0.8354    3.1341    0.0000 C   0  0  0  0  0  0  0  0  0
    0.5804    3.9187    0.0000 C   0  0  0  0  0  0  0  0  0
    1.1324    4.5318    0.0000 C   0  0  0  0  0  0  0  0  0
    1.9394    4.3603    0.0000 C   0  0  0  0  0  0  0  0  0
    2.1944    3.5757    0.0000 C   0  0  0  0  0  0  0  0  0
  1  2  4  0  0  0  0
  1  9  4  0  0  0  0
  2  3  4  0  0  0  0
  3  4  4  0  0  0  0
  3 10  1  0  0  0  0
  4  5  4  0  0  0  0
  4  9  4  0  0  0  0
  5  6  4  0  0  0  0
  6  7  4  0  0  0  0
  7  8  4  0  0  0  0
  8  9  4  0  0  0  0
 10 11  1  0  0  0  0
 11 12  1  0  0  0  0
 12 13  1  0  0  0  0
 12 17  1  0  0  0  0
 13 14  1  0  0  0  0
 14 15  1  0  0  0  0
 15 16  1  0  0  0  0
 15 18  1  0  0  0  0
 16 17  2  0  0  0  0
 18 19  4  0  0  0  0
 18 23  4  0  0  0  0
 19 20  4  0  0  0  0
 20 21  4  0  0  0  0
 21 22  4  0  0  0  0
 22 23  4  0  0  0  0
M  STY  1   1 DAT
M  SAL   1  1   1
M  SDT   1 MRV_IMPLICIT_H                                        
M  SDD   1     0.0000    0.0000    DR    ALL  0       0  
M  SED   1 IMPL_H1
M  END
>  <Name_Molregno>
258090

>  <DOPAMINE D2>
7.68

>  <DOPAMINE D3>
8

>  <DOPAMINE D4>
7.47

$$$$
258123
  Marvin  02231216192D 0   1.00000     0.00000     0

 20 23  0  0  0  0  0  0  0  0999 V2000
   -0.0791    0.0033    0.0000 N   0  0  0  0  0  0  0  0  0
    0.7459    0.0033    0.0000 C   0  0  0  0  0  0  0  0  0
    1.2979    0.6164    0.0000 N   0  0  0  0  0  0  0  0  0
    2.0516    0.2808    0.0000 C   0  0  0  0  0  0  0  0  0
    1.9654   -0.5396    0.0000 C   0  0  0  0  0  0  0  0  0
    1.1584   -0.7112    0.0000 C   0  0  0  0  0  0  0  0  0
    0.7459   -1.4256    0.0000 C   0  0  0  0  0  0  0  0  0
   -0.0791   -1.4256    0.0000 C   0  0  0  0  0  0  0  0  0
   -0.4916   -0.7112    0.0000 C   0  0  0  0  0  0  0  0  0
    2.7661    0.6933    0.0000 C   0  0  0  0  0  0  0  0  0
    3.4806    0.2808    0.0000 N   0  0  0  0  0  0  0  0  0
    3.4806   -0.5442    0.0000 C   0  0  0  0  0  0  0  0  0
    4.1950   -0.9567    0.0000 C   0  0  0  0  0  0  0  0  0
    4.9095   -0.5442    0.0000 C   0  0  0  0  0  0  0  0  0
    4.9095    0.2808    0.0000 C   0  0  0  0  0  0  0  0  0
    4.1950    0.6933    0.0000 C   0  0  0  0  0  0  0  0  0
    5.6240    0.6933    0.0000 C   0  0  0  0  0  0  0  0  0
    6.3384    0.2808    0.0000 C   0  0  0  0  0  0  0  0  0
    6.3384   -0.5442    0.0000 C   0  0  0  0  0  0  0  0  0
    5.6240   -0.9567    0.0000 C   0  0  0  0  0  0  0  0  0
  1  2  4  0  0  0  0
  1  9  4  0  0  0  0
  2  3  4  0  0  0  0
  2  6  4  0  0  0  0
  3  4  4  0  0  0  0
  4  5  4  0  0  0  0
  4 10  1  0  0  0  0
  5  6  4  0  0  0  0
  6  7  4  0  0  0  0
  7  8  4  0  0  0  0
  8  9  4  0  0  0  0
 10 11  1  0  0  0  0
 11 12  1  0  0  0  0
 11 16  1  0  0  0  0
 12 13  1  0  0  0  0
 13 14  1  0  0  0  0
 14 15  4  0  0  0  0
 14 20  4  0  0  0  0
 15 16  1  0  0  0  0
 15 17  4  0  0  0  0
 17 18  4  0  0  0  0
 18 19  4  0  0  0  0
 19 20  4  0  0  0  0
M  STY  1   1 DAT
M  SAL   1  1   1
M  SDT   1 MRV_IMPLICIT_H                                        
M  SDD   1     0.0000    0.0000    DR    ALL  0       0  
M  SED   1 IMPL_H1
M  END
>  <Name_Molregno>
258123

>  <DOPAMINE D2>
6.22

>  <DOPAMINE D3>
5.96

>  <DOPAMINE D4>
7.23

$$$$
258126
  Marvin  02231216192D 0   1.00000     0.00000     0

 25 28  0  0  1  0  0  0  0  0999 V2000
    4.6567   -3.0681    0.0000 N   0  0  0  0  0  0  0  0  0
    4.1718   -2.4006    0.0000 C   0  0  0  0  0  0  0  0  0
    4.6567   -1.7332    0.0000 C   0  0  0  0  0  0  0  0  0
    5.4413   -1.9881    0.0000 C   0  0  0  0  0  0  0  0  0
    6.1558   -1.5756    0.0000 C   0  0  0  0  0  0  0  0  0
    6.8703   -1.9881    0.0000 C   0  0  0  0  0  0  0  0  0
    6.8703   -2.8131    0.0000 C   0  0  0  0  0  0  0  0  0
    6.1558   -3.2256    0.0000 N   0  0  0  0  0  0  0  0  0
    5.4413   -2.8131    0.0000 C   0  0  0  0  0  0  0  0  0
    4.4018   -0.9486    0.0000 C   0  0  0  0  0  0  0  0  0
    3.5948   -0.7770    0.0000 C   0  0  0  0  0  0  0  0  0
    3.3399    0.0076    0.0000 N   0  0  0  0  0  0  0  0  0
    2.5329    0.1791    0.0000 C   0  0  0  0  0  0  0  0  0
    2.2780    0.9637    0.0000 C   0  0  0  0  0  0  0  0  0
    2.8300    1.5768    0.0000 C   0  0  0  0  0  0  0  0  0
    3.6370    1.4053    0.0000 C   0  0  0  0  0  0  0  0  0
    3.8919    0.6207    0.0000 C   0  0  0  0  0  0  0  0  0
    2.5751    2.3614    0.0000 C   0  0  0  0  0  0  0  0  0
    1.7681    2.5330    0.0000 C   0  0  0  0  0  0  0  0  0
    1.5131    3.3176    0.0000 C   0  0  0  0  0  0  0  0  0
    0.7062    3.4891    0.0000 C   0  0  0  0  0  0  0  0  0
    0.4512    4.2737    0.0000 C   0  0  0  0  0  0  0  0  0
    1.0033    4.8868    0.0000 C   0  0  0  0  0  0  0  0  0
    1.8102    4.7153    0.0000 C   0  0  0  0  0  0  0  0  0
    2.0652    3.9307    0.0000 C   0  0  0  0  0  0  0  0  0
  1  2  4  0  0  0  0
  1  9  4  0  0  0  0
  2  3  4  0  0  0  0
  3  4  4  0  0  0  0
  3 10  1  0  0  0  0
  4  5  4  0  0  0  0
  4  9  4  0  0  0  0
  5  6  4  0  0  0  0
  6  7  4  0  0  0  0
  7  8  4  0  0  0  0
  8  9  4  0  0  0  0
 10 11  1  0  0  0  0
 11 12  1  0  0  0  0
 12 13  1  0  0  0  0
 12 17  1  0  0  0  0
 13 14  1  0  0  0  0
 14 15  1  0  0  0  0
 15 16  1  0  0  0  0
 15 18  1  0  0  0  0
 16 17  2  0  0  0  0
 18 19  2  0  0  0  0
 19 20  1  0  0  0  0
 20 21  4  0  0  0  0
 20 25  4  0  0  0  0
 21 22  4  0  0  0  0
 22 23  4  0  0  0  0
 23 24  4  0  0  0  0
 24 25  4  0  0  0  0
M  STY  1   1 DAT
M  SAL   1  1   1
M  SDT   1 MRV_IMPLICIT_H                                        
M  SDD   1     0.0000    0.0000    DR    ALL  0       0  
M  SED   1 IMPL_H1
M  END
>  <Name_Molregno>
258126

>  <DOPAMINE D2>
6.55

>  <DOPAMINE D3>
6.74

>  <DOPAMINE D4>
8.19

$$$$
258171
  Marvin  02231216192D 0   1.00000     0.00000     0

 25 28  0  0  0  0  0  0  0  0999 V2000
    0.1065   -0.3123    0.0000 N   0  0  0  0  0  0  0  0  0
   -0.6080    0.1002    0.0000 C   0  0  0  0  0  0  0  0  0
   -1.3926   -0.1548    0.0000 N   0  0  0  0  0  0  0  0  0
   -1.8775    0.5127    0.0000 C   0  0  0  0  0  0  0  0  0
   -1.3926    1.1801    0.0000 C   0  0  0  0  0  0  0  0  0
   -0.6080    0.9252    0.0000 C   0  0  0  0  0  0  0  0  0
    0.1065    1.3377    0.0000 C   0  0  0  0  0  0  0  0  0
    0.8210    0.9252    0.0000 C   0  0  0  0  0  0  0  0  0
    0.8210    0.1002    0.0000 C   0  0  0  0  0  0  0  0  0
   -2.7025    0.5127    0.0000 C   0  0  0  0  0  0  0  0  0
   -3.1150   -0.2018    0.0000 C   0  0  0  0  0  0  0  0  0
   -3.9400   -0.2018    0.0000 N   0  0  0  0  0  0  0  0  0
   -4.3525   -0.9163    0.0000 C   0  0  0  0  0  0  0  0  0
   -5.1775   -0.9163    0.0000 C   0  0  0  0  0  0  0  0  0
   -5.5900   -0.2018    0.0000 C   0  0  0  0  0  0  0  0  0
   -5.1775    0.5127    0.0000 C   0  0  0  0  0  0  0  0  0
   -4.3525    0.5127    0.0000 C   0  0  0  0  0  0  0  0  0
   -6.4150   -0.2018    0.0000 C   0  0  0  0  0  0  0  0  0
   -6.8275   -0.9163    0.0000 C   0  0  0  0  0  0  0  0  0
   -7.6525   -0.9163    0.0000 C   0  0  0  0  0  0  0  0  0
   -8.0650   -1.6308    0.0000 C   0  0  0  0  0  0  0  0  0
   -8.8900   -1.6308    0.0000 C   0  0  0  0  0  0  0  0  0
   -9.3025   -0.9163    0.0000 C   0  0  0  0  0  0  0  0  0
   -8.8900   -0.2018    0.0000 C   0  0  0  0  0  0  0  0  0
   -8.0650   -0.2018    0.0000 C   0  0  0  0  0  0  0  0  0
  1  2  4  0  0  0  0
  1  9  4  0  0  0  0
  2  3  4  0  0  0  0
  2  6  4  0  0  0  0
  3  4  4  0  0  0  0
  4  5  4  0  0  0  0
  4 10  1  0  0  0  0
  5  6  4  0  0  0  0
  6  7  4  0  0  0  0
  7  8  4  0  0  0  0
  8  9  4  0  0  0  0
 10 11  1  0  0  0  0
 11 12  1  0  0  0  0
 12 13  1  0  0  0  0
 12 17  1  0  0  0  0
 13 14  1  0  0  0  0
 14 15  1  0  0  0  0
 15 16  2  0  0  0  0
 15 18  1  0  0  0  0
 16 17  1  0  0  0  0
 18 19  2  0  0  0  0
 19 20  1  0  0  0  0
 20 21  4  0  0  0  0
 20 25  4  0  0  0  0
 21 22  4  0  0  0  0
 22 23  4  0  0  0  0
 23 24  4  0  0  0  0
 24 25  4  0  0  0  0
M  STY  1   1 DAT
M  SAL   1  1   1
M  SDT   1 MRV_IMPLICIT_H                                        
M  SDD   1     0.0000    0.0000    DR    ALL  0       0  
M  SED   1 IMPL_H1
M  END
>  <Name_Molregno>
258171

>  <DOPAMINE D2>
5.89

>  <DOPAMINE D3>
7.6

>  <DOPAMINE D4>
7.52

$$$$
258205
  Marvin  02231216192D 0   1.00000     0.00000     0

 24 27  0  0  0  0  0  0  0  0999 V2000
   -0.1324   -0.5831    0.0000 Cl  0  0  0  0  0  0  0  0  0
    0.6926   -0.5831    0.0000 C   0  0  0  0  0  0  0  0  0
    1.1051    0.1314    0.0000 C   0  0  0  0  0  0  0  0  0
    1.9301    0.1314    0.0000 C   0  0  0  0  0  0  0  0  0
    2.3426   -0.5831    0.0000 C   0  0  0  0  0  0  0  0  0
    3.1676   -0.5831    0.0000 N   0  0  0  0  0  0  0  0  0
    3.5801    0.1314    0.0000 C   0  0  0  0  0  0  0  0  0
    4.4051    0.1314    0.0000 C   0  0  0  0  0  0  0  0  0
    4.8176   -0.5831    0.0000 N   0  0  0  0  0  0  0  0  0
    4.4051   -1.2976    0.0000 C   0  0  0  0  0  0  0  0  0
    3.5801   -1.2976    0.0000 C   0  0  0  0  0  0  0  0  0
    5.6426   -0.5831    0.0000 C   0  0  0  0  0  0  0  0  0
    6.0551    0.1314    0.0000 C   0  0  0  0  0  0  0  0  0
    6.8801    0.1314    0.0000 C   0  0  0  0  0  0  0  0  0
    7.3650    0.7988    0.0000 N   0  0  0  0  0  0  0  0  0
    8.1496    0.5439    0.0000 C   0  0  0  0  0  0  0  0  0
    8.8641    0.9564    0.0000 N   0  0  0  0  0  0  0  0  0
    9.5786    0.5439    0.0000 C   0  0  0  0  0  0  0  0  0
    9.5786   -0.2811    0.0000 C   0  0  0  0  0  0  0  0  0
    8.8641   -0.6936    0.0000 C   0  0  0  0  0  0  0  0  0
    8.1496   -0.2811    0.0000 C   0  0  0  0  0  0  0  0  0
    7.3650   -0.5361    0.0000 C   0  0  0  0  0  0  0  0  0
    1.9301   -1.2976    0.0000 C   0  0  0  0  0  0  0  0  0
    1.1051   -1.2976    0.0000 C   0  0  0  0  0  0  0  0  0
  1  2  1  0  0  0  0
  2  3  4  0  0  0  0
  2 24  4  0  0  0  0
  3  4  4  0  0  0  0
  4  5  4  0  0  0  0
  5  6  1  0  0  0  0
  5 23  4  0  0  0  0
  6  7  1  0  0  0  0
  6 11  1  0  0  0  0
  7  8  1  0  0  0  0
  8  9  1  0  0  0  0
  9 10  1  0  0  0  0
  9 12  1  0  0  0  0
 10 11  1  0  0  0  0
 12 13  1  0  0  0  0
 13 14  1  0  0  0  0
 14 15  4  0  0  0  0
 14 22  4  0  0  0  0
 15 16  4  0  0  0  0
 16 17  4  0  0  0  0
 16 21  4  0  0  0  0
 17 18  4  0  0  0  0
 18 19  4  0  0  0  0
 19 20  4  0  0  0  0
 20 21  4  0  0  0  0
 21 22  4  0  0  0  0
 23 24  4  0  0  0  0
M  STY  1   1 DAT
M  SAL   1  1  17
M  SDT   1 MRV_IMPLICIT_H                                        
M  SDD   1     0.0000    0.0000    DR    ALL  0       0  
M  SED   1 IMPL_H1
M  END
>  <Name_Molregno>
258205

>  <DOPAMINE D2>
6.1

>  <DOPAMINE D3>
7.3

>  <DOPAMINE D4>
7.93

$$$$
258217
  Marvin  02231216192D 0   1.00000     0.00000     0

 25 28  0  0  0  0  0  0  0  0999 V2000
    2.6505    4.7864    0.0000 O   0  0  0  0  0  0  0  0  0
    1.8435    4.9579    0.0000 C   0  0  0  0  0  0  0  0  0
    2.9054    4.0018    0.0000 C   0  0  0  0  0  0  0  0  0
    3.7124    3.8303    0.0000 C   0  0  0  0  0  0  0  0  0
    3.9673    3.0456    0.0000 C   0  0  0  0  0  0  0  0  0
    3.4153    2.4325    0.0000 C   0  0  0  0  0  0  0  0  0
    3.6702    1.6479    0.0000 N   0  0  0  0  0  0  0  0  0
    4.4772    1.4764    0.0000 C   0  0  0  0  0  0  0  0  0
    4.7321    0.6918    0.0000 C   0  0  0  0  0  0  0  0  0
    4.1801    0.0787    0.0000 N   0  0  0  0  0  0  0  0  0
    3.3731    0.2502    0.0000 C   0  0  0  0  0  0  0  0  0
    3.1182    1.0348    0.0000 C   0  0  0  0  0  0  0  0  0
    4.4350   -0.7059    0.0000 C   0  0  0  0  0  0  0  0  0
    5.2420   -0.8775    0.0000 C   0  0  0  0  0  0  0  0  0
    5.4970   -1.6621    0.0000 C   0  0  0  0  0  0  0  0  0
    6.2816   -1.9170    0.0000 C   0  0  0  0  0  0  0  0  0
    6.9961   -1.5045    0.0000 C   0  0  0  0  0  0  0  0  0
    7.7105   -1.9170    0.0000 C   0  0  0  0  0  0  0  0  0
    7.7105   -2.7420    0.0000 C   0  0  0  0  0  0  0  0  0
    6.9961   -3.1545    0.0000 N   0  0  0  0  0  0  0  0  0
    6.2816   -2.7420    0.0000 C   0  0  0  0  0  0  0  0  0
    5.4970   -2.9970    0.0000 N   0  0  0  0  0  0  0  0  0
    5.0120   -2.3295    0.0000 C   0  0  0  0  0  0  0  0  0
    2.6083    2.6041    0.0000 C   0  0  0  0  0  0  0  0  0
    2.3534    3.3887    0.0000 C   0  0  0  0  0  0  0  0  0
  1  2  1  0  0  0  0
  1  3  1  0  0  0  0
  3  4  4  0  0  0  0
  3 25  4  0  0  0  0
  4  5  4  0  0  0  0
  5  6  4  0  0  0  0
  6  7  1  0  0  0  0
  6 24  4  0  0  0  0
  7  8  1  0  0  0  0
  7 12  1  0  0  0  0
  8  9  1  0  0  0  0
  9 10  1  0  0  0  0
 10 11  1  0  0  0  0
 10 13  1  0  0  0  0
 11 12  1  0  0  0  0
 13 14  1  0  0  0  0
 14 15  1  0  0  0  0
 15 16  4  0  0  0  0
 15 23  4  0  0  0  0
 16 17  4  0  0  0  0
 16 21  4  0  0  0  0
 17 18  4  0  0  0  0
 18 19  4  0  0  0  0
 19 20  4  0  0  0  0
 20 21  4  0  0  0  0
 21 22  4  0  0  0  0
 22 23  4  0  0  0  0
 24 25  4  0  0  0  0
M  STY  1   1 DAT
M  SAL   1  1  22
M  SDT   1 MRV_IMPLICIT_H                                        
M  SDD   1     0.0000    0.0000    DR    ALL  0       0  
M  SED   1 IMPL_H1
M  END
>  <Name_Molregno>
258217

>  <DOPAMINE D2>
6.05

>  <DOPAMINE D3>
6.28

>  <DOPAMINE D4>
7.59

$$$$
259724
  Marvin  02231216192D 0   1.00000     0.00000     0

 18 20  0  0  1  0  0  0  0  0999 V2000
    0.3094   -0.9505    0.0000 N   0  0  0  0  0  0  0  0  0
    1.0239   -0.5380    0.0000 C   0  0  0  0  0  0  0  0  0
    1.7384   -0.9505    0.0000 C   0  0  0  0  0  0  0  0  0
    2.4528   -0.5380    0.0000 C   0  0  0  0  0  0  0  0  0
    2.4528    0.2870    0.0000 C   0  0  0  0  0  0  0  0  0
    3.1673    0.6995    0.0000 N   0  0  0  0  0  0  0  0  0
    3.8818    0.2870    0.0000 C   0  0  0  0  0  0  0  0  0
    3.8818   -0.5380    0.0000 C   0  0  0  0  0  0  0  0  0
    3.1673   -0.9505    0.0000 C   0  0  0  0  0  0  0  0  0
    3.1673    1.5245    0.0000 C   0  0  0  0  0  0  0  0  0
    3.8818    1.9370    0.0000 C   0  0  0  0  0  0  0  0  0
    3.8818    2.7620    0.0000 C   0  0  0  0  0  0  0  0  0
    1.7384    0.6995    0.0000 C   0  0  0  0  0  0  0  0  0
    1.0239    0.2870    0.0000 C   0  0  0  0  0  0  0  0  0
    0.3094    0.6995    0.0000 C   0  0  0  0  0  0  0  0  0
   -0.4050    0.2870    0.0000 N   0  0  0  0  0  0  0  0  0
   -0.4050   -0.5380    0.0000 C   0  0  0  0  0  0  0  0  0
   -1.1195   -0.9505    0.0000 N   0  0  0  0  0  0  0  0  0
  1  2  4  0  0  0  0
  1 17  4  0  0  0  0
  2  3  1  0  0  0  0
  2 14  4  0  0  0  0
  3  4  1  0  0  0  0
  4  5  1  0  0  0  0
  4  9  1  0  0  0  0
  5  6  1  0  0  0  0
  5 13  1  0  0  0  0
  6  7  1  0  0  0  0
  6 10  1  0  0  0  0
  7  8  1  0  0  0  0
  8  9  1  0  0  0  0
 10 11  1  0  0  0  0
 11 12  1  0  0  0  0
 13 14  1  0  0  0  0
 14 15  4  0  0  0  0
 15 16  4  0  0  0  0
 16 17  4  0  0  0  0
 17 18  1  0  0  0  0
M  END
>  <Name_Molregno>
259724

>  <5-HT1A>
5

>  <5-HT1B>
5

>  <5-HT1D>
5

>  <5-HT2A>
5

>  <5-HT2C>
5.58

>  <Alpha-1A>
5

>  <Alpha-1B>
5

>  <Alpha-2A>
5

>  <Alpha-2B>
5

>  <Alpha-2C>
5

>  <Beta-1>
5

>  <Beta-2>
5

>  <DOPAMINE D1>
5

>  <DOPAMINE D2>
6.33

>  <DOPAMINE D3>
8.65

>  <DOPAMINE D4>
7.72

>  <DOPAMINE D5>
5

$$$$
260495
  Marvin  02231216192D 0   1.00000     0.00000     0

 32 35  0  0  1  0  0  0  0  0999 V2000
    4.6144    3.3332    0.0000 O   0  0  0  0  0  0  0  0  0
    4.0743    2.7096    0.0000 C   0  0  0  0  0  0  0  0  0
    4.3444    1.9300    0.0000 C   0  0  0  0  0  0  0  0  0
    3.8043    1.3064    0.0000 C   0  0  0  0  0  0  0  0  0
    4.0743    0.5269    0.0000 C   0  0  0  0  0  0  0  0  0
    3.5343   -0.0968    0.0000 C   0  0  0  0  0  0  0  0  0
    3.8043   -0.8763    0.0000 N   0  0  0  0  0  0  0  0  0
    3.2642   -1.5000    0.0000 C   0  0  0  0  0  0  0  0  0
    2.4541   -1.3441    0.0000 C   0  0  0  0  0  0  0  0  0
    1.9140   -1.9677    0.0000 C   0  0  0  0  0  0  0  0  0
    1.1039   -1.8118    0.0000 C   0  0  0  0  0  0  0  0  0
    0.2937   -1.6559    0.0000 N   0  0  0  0  0  0  0  0  0
    4.6144   -1.0323    0.0000 C   0  0  0  0  0  0  0  0  0
    4.8845   -1.8118    0.0000 C   0  0  0  0  0  0  0  0  0
    5.6946   -1.9677    0.0000 C   0  0  0  0  0  0  0  0  0
    5.9647   -2.7473    0.0000 N   0  0  0  0  0  0  0  0  0
    6.7748   -2.9032    0.0000 C   0  0  0  0  0  0  0  0  0
    7.0448   -3.6827    0.0000 C   0  0  0  0  0  0  0  0  0
    6.5047   -4.3064    0.0000 N   0  0  0  0  0  0  0  0  0
    5.6946   -4.1505    0.0000 C   0  0  0  0  0  0  0  0  0
    5.4246   -3.3709    0.0000 C   0  0  0  0  0  0  0  0  0
    6.7748   -5.0859    0.0000 C   0  0  0  0  0  0  0  0  0
    7.5849   -5.2418    0.0000 C   0  0  0  0  0  0  0  0  0
    7.8550   -6.0214    0.0000 C   0  0  0  0  0  0  0  0  0
    7.3149   -6.6450    0.0000 C   0  0  0  0  0  0  0  0  0
    6.5047   -6.4891    0.0000 C   0  0  0  0  0  0  0  0  0
    6.2347   -5.7096    0.0000 C   0  0  0  0  0  0  0  0  0
    2.7241    0.0591    0.0000 C   0  0  0  0  0  0  0  0  0
    2.4541    0.8387    0.0000 C   0  0  0  0  0  0  0  0  0
    2.9942    1.4623    0.0000 C   0  0  0  0  0  0  0  0  0
    2.7241    2.2419    0.0000 C   0  0  0  0  0  0  0  0  0
    3.2642    2.8655    0.0000 C   0  0  0  0  0  0  0  0  0
  1  2  1  0  0  0  0
  2  3  4  0  0  0  0
  2 32  4  0  0  0  0
  3  4  4  0  0  0  0
  4  5  1  0  0  0  0
  4 30  4  0  0  0  0
  5  6  1  0  0  0  0
  6  7  1  0  0  0  0
  6 28  1  0  0  0  0
  7  8  1  0  0  0  0
  7 13  1  0  0  0  0
  8  9  1  0  0  0  0
  9 10  1  0  0  0  0
 10 11  1  0  0  0  0
 11 12  3  0  0  0  0
 13 14  1  0  0  0  0
 14 15  1  0  0  0  0
 15 16  1  0  0  0  0
 16 17  1  0  0  0  0
 16 21  1  0  0  0  0
 17 18  1  0  0  0  0
 18 19  1  0  0  0  0
 19 20  1  0  0  0  0
 19 22  1  0  0  0  0
 20 21  1  0  0  0  0
 22 23  4  0  0  0  0
 22 27  4  0  0  0  0
 23 24  4  0  0  0  0
 24 25  4  0  0  0  0
 25 26  4  0  0  0  0
 26 27  4  0  0  0  0
 28 29  1  0  0  0  0
 29 30  1  0  0  0  0
 30 31  4  0  0  0  0
 31 32  4  0  0  0  0
M  END
>  <Name_Molregno>
260495

>  <DOPAMINE D2>
6.21

>  <DOPAMINE D3>
7.3

$$$$
261036
  Marvin  02231216192D 0   1.00000     0.00000     0

 31 34  0  0  1  0  0  0  0  0999 V2000
    2.2023    3.1414    0.0000 Cl  0  0  0  0  0  0  0  0  0
    1.4878    2.7289    0.0000 C   0  0  0  0  0  0  0  0  0
    1.4878    1.9039    0.0000 C   0  0  0  0  0  0  0  0  0
    2.2023    1.4914    0.0000 N   0  0  0  0  0  0  0  0  0
    2.9167    1.9039    0.0000 C   0  0  0  0  0  0  0  0  0
    3.6312    1.4914    0.0000 C   0  0  0  0  0  0  0  0  0
    3.6312    0.6664    0.0000 N   0  0  0  0  0  0  0  0  0
    2.9167    0.2539    0.0000 C   0  0  0  0  0  0  0  0  0
    2.2023    0.6664    0.0000 C   0  0  0  0  0  0  0  0  0
    4.3457    0.2539    0.0000 C   0  0  0  0  0  0  0  0  0
    4.3457   -0.5711    0.0000 C   0  0  0  0  0  0  0  0  0
    5.0601   -0.9836    0.0000 N   0  0  0  0  0  0  0  0  0
    5.7746   -0.5711    0.0000 C   0  0  0  0  0  0  0  0  0
    5.7746    0.2539    0.0000 C   0  0  0  0  0  0  0  0  0
    6.4891    0.6664    0.0000 C   0  0  0  0  0  0  0  0  0
    5.0601   -1.8086    0.0000 C   0  0  0  0  0  0  0  0  0
    4.3457   -2.2211    0.0000 C   0  0  0  0  0  0  0  0  0
    4.3457   -3.0461    0.0000 C   0  0  0  0  0  0  0  0  0
    5.0601   -3.4586    0.0000 C   0  0  0  0  0  0  0  0  0
    5.7746   -3.0461    0.0000 C   0  0  0  0  0  0  0  0  0
    5.7746   -2.2211    0.0000 C   0  0  0  0  0  0  0  0  0
    6.4891   -3.4586    0.0000 C   0  0  0  0  0  0  0  0  0
    6.4891   -4.2836    0.0000 C   0  0  0  0  0  0  0  0  0
    7.2036   -4.6961    0.0000 O   0  0  0  0  0  0  0  0  0
    5.7746   -4.6961    0.0000 C   0  0  0  0  0  0  0  0  0
    5.0601   -4.2836    0.0000 C   0  0  0  0  0  0  0  0  0
    0.7733    1.4914    0.0000 C   0  0  0  0  0  0  0  0  0
    0.0588    1.9039    0.0000 C   0  0  0  0  0  0  0  0  0
    0.0588    2.7289    0.0000 C   0  0  0  0  0  0  0  0  0
    0.7733    3.1414    0.0000 C   0  0  0  0  0  0  0  0  0
    0.7733    3.9664    0.0000 Cl  0  0  0  0  0  0  0  0  0
  1  2  1  0  0  0  0
  2  3  4  0  0  0  0
  2 30  4  0  0  0  0
  3  4  1  0  0  0  0
  3 27  4  0  0  0  0
  4  5  1  0  0  0  0
  4  9  1  0  0  0  0
  5  6  1  0  0  0  0
  6  7  1  0  0  0  0
  7  8  1  0  0  0  0
  7 10  1  0  0  0  0
  8  9  1  0  0  0  0
 10 11  1  0  0  0  0
 11 12  1  0  0  0  0
 12 13  1  0  0  0  0
 12 16  1  0  0  0  0
 13 14  1  0  0  0  0
 14 15  1  0  0  0  0
 16 17  1  0  0  0  0
 16 21  1  0  0  0  0
 17 18  1  0  0  0  0
 18 19  1  0  0  0  0
 19 20  4  0  0  0  0
 19 26  4  0  0  0  0
 20 21  1  0  0  0  0
 20 22  4  0  0  0  0
 22 23  4  0  0  0  0
 23 24  1  0  0  0  0
 23 25  4  0  0  0  0
 25 26  4  0  0  0  0
 27 28  4  0  0  0  0
 28 29  4  0  0  0  0
 29 30  4  0  0  0  0
 30 31  1  0  0  0  0
M  END
>  <Name_Molregno>
261036

>  <DOPAMINE D2>
7.56

>  <DOPAMINE D3>
8.95

$$$$
261075
  Marvin  02231216192D 0   1.00000     0.00000     0

 31 34  0  0  1  0  0  0  0  0999 V2000
   11.2901    0.4674    0.0000 O   0  0  0  0  0  0  0  0  0
   10.4799    0.6233    0.0000 C   0  0  0  0  0  0  0  0  0
    9.9399   -0.0004    0.0000 C   0  0  0  0  0  0  0  0  0
    9.1297    0.1556    0.0000 C   0  0  0  0  0  0  0  0  0
    8.5896   -0.4681    0.0000 C   0  0  0  0  0  0  0  0  0
    7.7795   -0.3122    0.0000 C   0  0  0  0  0  0  0  0  0
    7.2394   -0.9358    0.0000 N   0  0  0  0  0  0  0  0  0
    6.4293   -0.7799    0.0000 C   0  0  0  0  0  0  0  0  0
    5.8892   -1.4035    0.0000 C   0  0  0  0  0  0  0  0  0
    5.0790   -1.2476    0.0000 C   0  0  0  0  0  0  0  0  0
    4.5390   -1.8713    0.0000 C   0  0  0  0  0  0  0  0  0
    3.7288   -1.7154    0.0000 N   0  0  0  0  0  0  0  0  0
    3.1887   -2.3390    0.0000 C   0  0  0  0  0  0  0  0  0
    2.3786   -2.1831    0.0000 C   0  0  0  0  0  0  0  0  0
    2.1086   -1.4035    0.0000 N   0  0  0  0  0  0  0  0  0
    2.6486   -0.7799    0.0000 C   0  0  0  0  0  0  0  0  0
    3.4588   -0.9358    0.0000 C   0  0  0  0  0  0  0  0  0
    1.2984   -1.2476    0.0000 C   0  0  0  0  0  0  0  0  0
    0.7583   -1.8713    0.0000 C   0  0  0  0  0  0  0  0  0
   -0.0518   -1.7154    0.0000 C   0  0  0  0  0  0  0  0  0
   -0.3218   -0.9358    0.0000 C   0  0  0  0  0  0  0  0  0
    0.2182   -0.3122    0.0000 C   0  0  0  0  0  0  0  0  0
    1.0284   -0.4681    0.0000 C   0  0  0  0  0  0  0  0  0
    7.5094   -1.7154    0.0000 C   0  0  0  0  0  0  0  0  0
    8.3196   -1.8713    0.0000 C   0  0  0  0  0  0  0  0  0
    8.5896   -2.6508    0.0000 C   0  0  0  0  0  0  0  0  0
    7.5094    0.4674    0.0000 C   0  0  0  0  0  0  0  0  0
    8.0495    1.0910    0.0000 C   0  0  0  0  0  0  0  0  0
    8.8597    0.9351    0.0000 C   0  0  0  0  0  0  0  0  0
    9.3998    1.5588    0.0000 C   0  0  0  0  0  0  0  0  0
   10.2099    1.4028    0.0000 C   0  0  0  0  0  0  0  0  0
  1  2  1  0  0  0  0
  2  3  4  0  0  0  0
  2 31  4  0  0  0  0
  3  4  4  0  0  0  0
  4  5  1  0  0  0  0
  4 29  4  0  0  0  0
  5  6  1  0  0  0  0
  6  7  1  0  0  0  0
  6 27  1  0  0  0  0
  7  8  1  0  0  0  0
  7 24  1  0  0  0  0
  8  9  1  0  0  0  0
  9 10  1  0  0  0  0
 10 11  1  0  0  0  0
 11 12  1  0  0  0  0
 12 13  1  0  0  0  0
 12 17  1  0  0  0  0
 13 14  1  0  0  0  0
 14 15  1  0  0  0  0
 15 16  1  0  0  0  0
 15 18  1  0  0  0  0
 16 17  1  0  0  0  0
 18 19  4  0  0  0  0
 18 23  4  0  0  0  0
 19 20  4  0  0  0  0
 20 21  4  0  0  0  0
 21 22  4  0  0  0  0
 22 23  4  0  0  0  0
 24 25  1  0  0  0  0
 25 26  1  0  0  0  0
 27 28  1  0  0  0  0
 28 29  1  0  0  0  0
 29 30  4  0  0  0  0
 30 31  4  0  0  0  0
M  END
>  <Name_Molregno>
261075

>  <DOPAMINE D2>
7.45

>  <DOPAMINE D3>
8.82

$$$$
261076
  Marvin  02231216192D 0   1.00000     0.00000     0

 33 36  0  0  1  0  0  0  0  0999 V2000
    0.0692    1.1961    0.0000 Cl  0  0  0  0  0  0  0  0  0
   -0.2009    0.4165    0.0000 C   0  0  0  0  0  0  0  0  0
    0.3392   -0.2071    0.0000 C   0  0  0  0  0  0  0  0  0
    1.1494   -0.0512    0.0000 N   0  0  0  0  0  0  0  0  0
    1.4194    0.7283    0.0000 C   0  0  0  0  0  0  0  0  0
    2.2295    0.8842    0.0000 C   0  0  0  0  0  0  0  0  0
    2.7696    0.2606    0.0000 N   0  0  0  0  0  0  0  0  0
    2.4996   -0.5190    0.0000 C   0  0  0  0  0  0  0  0  0
    1.6895   -0.6749    0.0000 C   0  0  0  0  0  0  0  0  0
    3.5798    0.4165    0.0000 C   0  0  0  0  0  0  0  0  0
    4.1199   -0.2071    0.0000 C   0  0  0  0  0  0  0  0  0
    4.9300   -0.0512    0.0000 C   0  0  0  0  0  0  0  0  0
    5.4701   -0.6749    0.0000 C   0  0  0  0  0  0  0  0  0
    6.2802   -0.5190    0.0000 N   0  0  0  0  0  0  0  0  0
    6.5503    0.2606    0.0000 C   0  0  0  0  0  0  0  0  0
    7.3604    0.4165    0.0000 C   0  0  0  0  0  0  0  0  0
    8.1705    0.5724    0.0000 C   0  0  0  0  0  0  0  0  0
    6.8203   -1.1426    0.0000 C   0  0  0  0  0  0  0  0  0
    6.5503   -1.9222    0.0000 C   0  0  0  0  0  0  0  0  0
    7.0904   -2.5458    0.0000 C   0  0  0  0  0  0  0  0  0
    7.9005   -2.3899    0.0000 C   0  0  0  0  0  0  0  0  0
    8.1705   -1.6103    0.0000 C   0  0  0  0  0  0  0  0  0
    7.6304   -0.9867    0.0000 C   0  0  0  0  0  0  0  0  0
    8.9807   -1.4544    0.0000 C   0  0  0  0  0  0  0  0  0
    9.5208   -2.0781    0.0000 C   0  0  0  0  0  0  0  0  0
   10.3309   -1.9222    0.0000 O   0  0  0  0  0  0  0  0  0
    9.2507   -2.8576    0.0000 C   0  0  0  0  0  0  0  0  0
    8.4406   -3.0135    0.0000 C   0  0  0  0  0  0  0  0  0
    0.0692   -0.9867    0.0000 C   0  0  0  0  0  0  0  0  0
   -0.7409   -1.1426    0.0000 C   0  0  0  0  0  0  0  0  0
   -1.2810   -0.5190    0.0000 C   0  0  0  0  0  0  0  0  0
   -1.0110    0.2606    0.0000 C   0  0  0  0  0  0  0  0  0
   -1.5511    0.8842    0.0000 Cl  0  0  0  0  0  0  0  0  0
  1  2  1  0  0  0  0
  2  3  4  0  0  0  0
  2 32  4  0  0  0  0
  3  4  1  0  0  0  0
  3 29  4  0  0  0  0
  4  5  1  0  0  0  0
  4  9  1  0  0  0  0
  5  6  1  0  0  0  0
  6  7  1  0  0  0  0
  7  8  1  0  0  0  0
  7 10  1  0  0  0  0
  8  9  1  0  0  0  0
 10 11  1  0  0  0  0
 11 12  1  0  0  0  0
 12 13  1  0  0  0  0
 13 14  1  0  0  0  0
 14 15  1  0  0  0  0
 14 18  1  0  0  0  0
 15 16  1  0  0  0  0
 16 17  3  0  0  0  0
 18 19  1  0  0  0  0
 18 23  1  0  0  0  0
 19 20  1  0  0  0  0
 20 21  1  0  0  0  0
 21 22  4  0  0  0  0
 21 28  4  0  0  0  0
 22 23  1  0  0  0  0
 22 24  4  0  0  0  0
 24 25  4  0  0  0  0
 25 26  1  0  0  0  0
 25 27  4  0  0  0  0
 27 28  4  0  0  0  0
 29 30  4  0  0  0  0
 30 31  4  0  0  0  0
 31 32  4  0  0  0  0
 32 33  1  0  0  0  0
M  END
>  <Name_Molregno>
261076

>  <DOPAMINE D2>
8.13

>  <DOPAMINE D3>
8.44

$$$$
261078
  Marvin  02231216192D 0   1.00000     0.00000     0

 33 36  0  0  1  0  0  0  0  0999 V2000
    0.6503    2.2599    0.0000 Cl  0  0  0  0  0  0  0  0  0
    0.2378    1.5455    0.0000 C   0  0  0  0  0  0  0  0  0
    0.6503    0.8310    0.0000 C   0  0  0  0  0  0  0  0  0
    1.4753    0.8310    0.0000 N   0  0  0  0  0  0  0  0  0
    1.8878    1.5455    0.0000 C   0  0  0  0  0  0  0  0  0
    2.7128    1.5455    0.0000 C   0  0  0  0  0  0  0  0  0
    3.1253    0.8310    0.0000 N   0  0  0  0  0  0  0  0  0
    2.7128    0.1165    0.0000 C   0  0  0  0  0  0  0  0  0
    1.8878    0.1165    0.0000 C   0  0  0  0  0  0  0  0  0
    3.9503    0.8310    0.0000 C   0  0  0  0  0  0  0  0  0
    4.3628    0.1165    0.0000 C   0  0  0  0  0  0  0  0  0
    5.1878    0.1165    0.0000 C   0  0  0  0  0  0  0  0  0
    5.6003   -0.5980    0.0000 C   0  0  0  0  0  0  0  0  0
    6.4253   -0.5980    0.0000 N   0  0  0  0  0  0  0  0  0
    6.8378    0.1165    0.0000 C   0  0  0  0  0  0  0  0  0
    6.4253    0.8310    0.0000 C   0  0  0  0  0  0  0  0  0
    6.8378    1.5455    0.0000 C   0  0  0  0  0  0  0  0  0
    6.8378   -1.3124    0.0000 C   0  0  0  0  0  0  0  0  0
    6.4253   -2.0269    0.0000 C   0  0  0  0  0  0  0  0  0
    6.8378   -2.7414    0.0000 C   0  0  0  0  0  0  0  0  0
    7.6628   -2.7414    0.0000 C   0  0  0  0  0  0  0  0  0
    8.0753   -2.0269    0.0000 C   0  0  0  0  0  0  0  0  0
    7.6628   -1.3124    0.0000 C   0  0  0  0  0  0  0  0  0
    8.9003   -2.0269    0.0000 C   0  0  0  0  0  0  0  0  0
    9.3128   -2.7414    0.0000 C   0  0  0  0  0  0  0  0  0
   10.1378   -2.7414    0.0000 O   0  0  0  0  0  0  0  0  0
    8.9003   -3.4558    0.0000 C   0  0  0  0  0  0  0  0  0
    8.0753   -3.4558    0.0000 C   0  0  0  0  0  0  0  0  0
    0.2378    0.1165    0.0000 C   0  0  0  0  0  0  0  0  0
   -0.5872    0.1165    0.0000 C   0  0  0  0  0  0  0  0  0
   -0.9997    0.8310    0.0000 C   0  0  0  0  0  0  0  0  0
   -0.5872    1.5455    0.0000 C   0  0  0  0  0  0  0  0  0
   -0.9997    2.2599    0.0000 Cl  0  0  0  0  0  0  0  0  0
  1  2  1  0  0  0  0
  2  3  4  0  0  0  0
  2 32  4  0  0  0  0
  3  4  1  0  0  0  0
  3 29  4  0  0  0  0
  4  5  1  0  0  0  0
  4  9  1  0  0  0  0
  5  6  1  0  0  0  0
  6  7  1  0  0  0  0
  7  8  1  0  0  0  0
  7 10  1  0  0  0  0
  8  9  1  0  0  0  0
 10 11  1  0  0  0  0
 11 12  1  0  0  0  0
 12 13  1  0  0  0  0
 13 14  1  0  0  0  0
 14 15  1  0  0  0  0
 14 18  1  0  0  0  0
 15 16  1  0  0  0  0
 16 17  1  0  0  0  0
 18 19  1  0  0  0  0
 18 23  1  0  0  0  0
 19 20  1  0  0  0  0
 20 21  1  0  0  0  0
 21 22  4  0  0  0  0
 21 28  4  0  0  0  0
 22 23  1  0  0  0  0
 22 24  4  0  0  0  0
 24 25  4  0  0  0  0
 25 26  1  0  0  0  0
 25 27  4  0  0  0  0
 27 28  4  0  0  0  0
 29 30  4  0  0  0  0
 30 31  4  0  0  0  0
 31 32  4  0  0  0  0
 32 33  1  0  0  0  0
M  END
>  <Name_Molregno>
261078

>  <DOPAMINE D2>
8.06

>  <DOPAMINE D3>
8.65

$$$$
261089
  Marvin  02231216192D 0   1.00000     0.00000     0

 29 32  0  0  1  0  0  0  0  0999 V2000
    0.2670   -2.5899    0.0000 O   0  0  0  0  0  0  0  0  0
    1.0920   -2.5899    0.0000 C   0  0  0  0  0  0  0  0  0
    1.5045   -1.8755    0.0000 C   0  0  0  0  0  0  0  0  0
    2.3295   -1.8755    0.0000 C   0  0  0  0  0  0  0  0  0
    2.7420   -1.1610    0.0000 C   0  0  0  0  0  0  0  0  0
    3.5670   -1.1610    0.0000 C   0  0  0  0  0  0  0  0  0
    3.9795   -0.4465    0.0000 N   0  0  0  0  0  0  0  0  0
    3.5670    0.2679    0.0000 C   0  0  0  0  0  0  0  0  0
    2.7420    0.2679    0.0000 C   0  0  0  0  0  0  0  0  0
    2.3295    0.9824    0.0000 C   0  0  0  0  0  0  0  0  0
    4.8045   -0.4465    0.0000 C   0  0  0  0  0  0  0  0  0
    5.2170    0.2679    0.0000 C   0  0  0  0  0  0  0  0  0
    6.0420    0.2679    0.0000 N   0  0  0  0  0  0  0  0  0
    6.4545    0.9824    0.0000 C   0  0  0  0  0  0  0  0  0
    7.2795    0.9824    0.0000 C   0  0  0  0  0  0  0  0  0
    7.6920    0.2679    0.0000 N   0  0  0  0  0  0  0  0  0
    7.2795   -0.4465    0.0000 C   0  0  0  0  0  0  0  0  0
    6.4545   -0.4465    0.0000 C   0  0  0  0  0  0  0  0  0
    8.5170    0.2679    0.0000 C   0  0  0  0  0  0  0  0  0
    8.9295    0.9824    0.0000 C   0  0  0  0  0  0  0  0  0
    9.7545    0.9824    0.0000 C   0  0  0  0  0  0  0  0  0
   10.1670    0.2679    0.0000 C   0  0  0  0  0  0  0  0  0
    9.7545   -0.4465    0.0000 C   0  0  0  0  0  0  0  0  0
    8.9295   -0.4465    0.0000 C   0  0  0  0  0  0  0  0  0
    3.9795   -1.8755    0.0000 C   0  0  0  0  0  0  0  0  0
    3.5670   -2.5899    0.0000 C   0  0  0  0  0  0  0  0  0
    2.7420   -2.5899    0.0000 C   0  0  0  0  0  0  0  0  0
    2.3295   -3.3044    0.0000 C   0  0  0  0  0  0  0  0  0
    1.5045   -3.3044    0.0000 C   0  0  0  0  0  0  0  0  0
  1  2  1  0  0  0  0
  2  3  4  0  0  0  0
  2 29  4  0  0  0  0
  3  4  4  0  0  0  0
  4  5  1  0  0  0  0
  4 27  4  0  0  0  0
  5  6  1  0  0  0  0
  6  7  1  0  0  0  0
  6 25  1  0  0  0  0
  7  8  1  0  0  0  0
  7 11  1  0  0  0  0
  8  9  1  0  0  0  0
  9 10  1  0  0  0  0
 11 12  1  0  0  0  0
 12 13  1  0  0  0  0
 13 14  1  0  0  0  0
 13 18  1  0  0  0  0
 14 15  1  0  0  0  0
 15 16  1  0  0  0  0
 16 17  1  0  0  0  0
 16 19  1  0  0  0  0
 17 18  1  0  0  0  0
 19 20  4  0  0  0  0
 19 24  4  0  0  0  0
 20 21  4  0  0  0  0
 21 22  4  0  0  0  0
 22 23  4  0  0  0  0
 23 24  4  0  0  0  0
 25 26  1  0  0  0  0
 26 27  1  0  0  0  0
 27 28  4  0  0  0  0
 28 29  4  0  0  0  0
M  END
>  <Name_Molregno>
261089

>  <DOPAMINE D2>
6.97

>  <DOPAMINE D3>
8.77

$$$$
261095
  Marvin  02231216192D 0   1.00000     0.00000     0

 29 32  0  0  1  0  0  0  0  0999 V2000
    1.7832   -4.8719    0.0000 O   0  0  0  0  0  0  0  0  0
    2.4976   -4.4594    0.0000 C   0  0  0  0  0  0  0  0  0
    2.4976   -3.6344    0.0000 C   0  0  0  0  0  0  0  0  0
    3.2121   -3.2219    0.0000 C   0  0  0  0  0  0  0  0  0
    3.2121   -2.3969    0.0000 C   0  0  0  0  0  0  0  0  0
    3.9266   -1.9844    0.0000 C   0  0  0  0  0  0  0  0  0
    3.9266   -1.1594    0.0000 N   0  0  0  0  0  0  0  0  0
    3.2121   -0.7469    0.0000 C   0  0  0  0  0  0  0  0  0
    3.2121    0.0781    0.0000 C   0  0  0  0  0  0  0  0  0
    3.2121    0.9031    0.0000 C   0  0  0  0  0  0  0  0  0
    4.6410   -0.7469    0.0000 C   0  0  0  0  0  0  0  0  0
    4.6410    0.0781    0.0000 C   0  0  0  0  0  0  0  0  0
    5.3555    0.4906    0.0000 N   0  0  0  0  0  0  0  0  0
    5.3555    1.3156    0.0000 C   0  0  0  0  0  0  0  0  0
    6.0700    1.7281    0.0000 C   0  0  0  0  0  0  0  0  0
    6.7845    1.3156    0.0000 N   0  0  0  0  0  0  0  0  0
    6.7845    0.4906    0.0000 C   0  0  0  0  0  0  0  0  0
    6.0700    0.0781    0.0000 C   0  0  0  0  0  0  0  0  0
    7.4989    1.7281    0.0000 C   0  0  0  0  0  0  0  0  0
    7.4989    2.5531    0.0000 C   0  0  0  0  0  0  0  0  0
    8.2134    2.9656    0.0000 C   0  0  0  0  0  0  0  0  0
    8.9279    2.5531    0.0000 C   0  0  0  0  0  0  0  0  0
    8.9279    1.7281    0.0000 C   0  0  0  0  0  0  0  0  0
    8.2134    1.3156    0.0000 C   0  0  0  0  0  0  0  0  0
    4.6410   -2.3969    0.0000 C   0  0  0  0  0  0  0  0  0
    4.6410   -3.2219    0.0000 C   0  0  0  0  0  0  0  0  0
    3.9266   -3.6344    0.0000 C   0  0  0  0  0  0  0  0  0
    3.9266   -4.4594    0.0000 C   0  0  0  0  0  0  0  0  0
    3.2121   -4.8719    0.0000 C   0  0  0  0  0  0  0  0  0
  1  2  1  0  0  0  0
  2  3  4  0  0  0  0
  2 29  4  0  0  0  0
  3  4  4  0  0  0  0
  4  5  1  0  0  0  0
  4 27  4  0  0  0  0
  5  6  1  0  0  0  0
  6  7  1  0  0  0  0
  6 25  1  0  0  0  0
  7  8  1  0  0  0  0
  7 11  1  0  0  0  0
  8  9  1  0  0  0  0
  9 10  3  0  0  0  0
 11 12  1  0  0  0  0
 12 13  1  0  0  0  0
 13 14  1  0  0  0  0
 13 18  1  0  0  0  0
 14 15  1  0  0  0  0
 15 16  1  0  0  0  0
 16 17  1  0  0  0  0
 16 19  1  0  0  0  0
 17 18  1  0  0  0  0
 19 20  4  0  0  0  0
 19 24  4  0  0  0  0
 20 21  4  0  0  0  0
 21 22  4  0  0  0  0
 22 23  4  0  0  0  0
 23 24  4  0  0  0  0
 25 26  1  0  0  0  0
 26 27  1  0  0  0  0
 27 28  4  0  0  0  0
 28 29  4  0  0  0  0
M  END
>  <Name_Molregno>
261095

>  <DOPAMINE D2>
6.61

>  <DOPAMINE D3>
7.85

$$$$
261133
  Marvin  02231216192D 0   1.00000     0.00000     0

 38 42  0  0  1  0  0  0  0  0999 V2000
   -1.9186    0.5083    0.0000 O   0  0  0  0  0  0  0  0  0
   -2.6330    0.0958    0.0000 C   0  0  0  0  0  0  0  0  0
   -2.6330   -0.7292    0.0000 C   0  0  0  0  0  0  0  0  0
   -3.3475   -1.1417    0.0000 C   0  0  0  0  0  0  0  0  0
   -3.3475   -1.9667    0.0000 C   0  0  0  0  0  0  0  0  0
   -4.0620   -2.3792    0.0000 C   0  0  0  0  0  0  0  0  0
   -4.0620   -3.2042    0.0000 N   0  0  0  0  0  0  0  0  0
   -4.7764   -3.6167    0.0000 C   0  0  0  0  0  0  0  0  0
   -5.4909   -3.2042    0.0000 C   0  0  0  0  0  0  0  0  0
   -6.2054   -3.6167    0.0000 C   0  0  0  0  0  0  0  0  0
   -6.9199   -3.2042    0.0000 N   0  0  0  0  0  0  0  0  0
   -7.6343   -3.6167    0.0000 C   0  0  0  0  0  0  0  0  0
   -8.3488   -3.2042    0.0000 C   0  0  0  0  0  0  0  0  0
   -8.3488   -2.3792    0.0000 N   0  0  0  0  0  0  0  0  0
   -7.6343   -1.9667    0.0000 C   0  0  0  0  0  0  0  0  0
   -6.9199   -2.3792    0.0000 C   0  0  0  0  0  0  0  0  0
   -9.0633   -1.9667    0.0000 C   0  0  0  0  0  0  0  0  0
   -9.7777   -2.3792    0.0000 C   0  0  0  0  0  0  0  0  0
  -10.4922   -1.9667    0.0000 C   0  0  0  0  0  0  0  0  0
  -10.4922   -1.1417    0.0000 C   0  0  0  0  0  0  0  0  0
   -9.7777   -0.7292    0.0000 C   0  0  0  0  0  0  0  0  0
   -9.0633   -1.1417    0.0000 C   0  0  0  0  0  0  0  0  0
   -3.3475   -3.6167    0.0000 C   0  0  0  0  0  0  0  0  0
   -2.6330   -3.2042    0.0000 C   0  0  0  0  0  0  0  0  0
   -1.9186   -3.6167    0.0000 N   0  0  0  0  0  0  0  0  0
   -1.2041   -3.2042    0.0000 C   0  0  0  0  0  0  0  0  0
   -1.2041   -2.3792    0.0000 O   0  0  0  0  0  0  0  0  0
   -0.4896   -3.6167    0.0000 C   0  0  0  0  0  0  0  0  0
    0.2249   -3.2042    0.0000 C   0  0  0  0  0  0  0  0  0
    0.9393   -3.6167    0.0000 C   0  0  0  0  0  0  0  0  0
    0.9393   -4.4417    0.0000 C   0  0  0  0  0  0  0  0  0
    0.2249   -4.8542    0.0000 C   0  0  0  0  0  0  0  0  0
   -0.4896   -4.4417    0.0000 C   0  0  0  0  0  0  0  0  0
   -4.7764   -1.9667    0.0000 C   0  0  0  0  0  0  0  0  0
   -4.7764   -1.1417    0.0000 C   0  0  0  0  0  0  0  0  0
   -4.0620   -0.7292    0.0000 C   0  0  0  0  0  0  0  0  0
   -4.0620    0.0958    0.0000 C   0  0  0  0  0  0  0  0  0
   -3.3475    0.5083    0.0000 C   0  0  0  0  0  0  0  0  0
  1  2  1  0  0  0  0
  2  3  4  0  0  0  0
  2 38  4  0  0  0  0
  3  4  4  0  0  0  0
  4  5  1  0  0  0  0
  4 36  4  0  0  0  0
  5  6  1  0  0  0  0
  6  7  1  0  0  0  0
  6 34  1  0  0  0  0
  7  8  1  0  0  0  0
  7 23  1  0  0  0  0
  8  9  1  0  0  0  0
  9 10  1  0  0  0  0
 10 11  1  0  0  0  0
 11 12  1  0  0  0  0
 11 16  1  0  0  0  0
 12 13  1  0  0  0  0
 13 14  1  0  0  0  0
 14 15  1  0  0  0  0
 14 17  1  0  0  0  0
 15 16  1  0  0  0  0
 17 18  4  0  0  0  0
 17 22  4  0  0  0  0
 18 19  4  0  0  0  0
 19 20  4  0  0  0  0
 20 21  4  0  0  0  0
 21 22  4  0  0  0  0
 23 24  1  0  0  0  0
 24 25  1  0  0  0  0
 25 26  1  0  0  0  0
 26 27  2  0  0  0  0
 26 28  1  0  0  0  0
 28 29  4  0  0  0  0
 28 33  4  0  0  0  0
 29 30  4  0  0  0  0
 30 31  4  0  0  0  0
 31 32  4  0  0  0  0
 32 33  4  0  0  0  0
 34 35  1  0  0  0  0
 35 36  1  0  0  0  0
 36 37  4  0  0  0  0
 37 38  4  0  0  0  0
M  END
>  <Name_Molregno>
261133

>  <DOPAMINE D2>
6.45

>  <DOPAMINE D3>
7.25

$$$$
261137
  Marvin  02231216192D 0   1.00000     0.00000     0

 31 34  0  0  1  0  0  0  0  0999 V2000
    7.2514   -1.7895    0.0000 O   0  0  0  0  0  0  0  0  0
    6.4264   -1.7895    0.0000 C   0  0  0  0  0  0  0  0  0
    6.0139   -2.5040    0.0000 C   0  0  0  0  0  0  0  0  0
    5.1889   -2.5040    0.0000 C   0  0  0  0  0  0  0  0  0
    4.7764   -3.2185    0.0000 C   0  0  0  0  0  0  0  0  0
    3.9514   -3.2185    0.0000 C   0  0  0  0  0  0  0  0  0
    3.5389   -3.9330    0.0000 N   0  0  0  0  0  0  0  0  0
    2.7139   -3.9330    0.0000 C   0  0  0  0  0  0  0  0  0
    2.3014   -4.6474    0.0000 C   0  0  0  0  0  0  0  0  0
    1.4764   -4.6474    0.0000 C   0  0  0  0  0  0  0  0  0
    1.0639   -5.3619    0.0000 C   0  0  0  0  0  0  0  0  0
    0.2389   -5.3619    0.0000 N   0  0  0  0  0  0  0  0  0
   -0.1736   -6.0764    0.0000 C   0  0  0  0  0  0  0  0  0
   -0.9986   -6.0764    0.0000 C   0  0  0  0  0  0  0  0  0
   -1.4111   -5.3619    0.0000 N   0  0  0  0  0  0  0  0  0
   -0.9986   -4.6474    0.0000 C   0  0  0  0  0  0  0  0  0
   -0.1736   -4.6474    0.0000 C   0  0  0  0  0  0  0  0  0
   -2.2361   -5.3619    0.0000 C   0  0  0  0  0  0  0  0  0
   -2.6486   -6.0764    0.0000 C   0  0  0  0  0  0  0  0  0
   -3.4736   -6.0764    0.0000 C   0  0  0  0  0  0  0  0  0
   -3.8861   -5.3619    0.0000 C   0  0  0  0  0  0  0  0  0
   -3.4736   -4.6474    0.0000 C   0  0  0  0  0  0  0  0  0
   -2.6486   -4.6474    0.0000 C   0  0  0  0  0  0  0  0  0
    3.9514   -4.6474    0.0000 C   0  0  0  0  0  0  0  0  0
    3.5389   -5.3619    0.0000 C   0  0  0  0  0  0  0  0  0
    3.1264   -6.0764    0.0000 C   0  0  0  0  0  0  0  0  0
    3.5389   -2.5040    0.0000 C   0  0  0  0  0  0  0  0  0
    3.9514   -1.7895    0.0000 C   0  0  0  0  0  0  0  0  0
    4.7764   -1.7895    0.0000 C   0  0  0  0  0  0  0  0  0
    5.1889   -1.0751    0.0000 C   0  0  0  0  0  0  0  0  0
    6.0139   -1.0751    0.0000 C   0  0  0  0  0  0  0  0  0
  1  2  1  0  0  0  0
  2  3  4  0  0  0  0
  2 31  4  0  0  0  0
  3  4  4  0  0  0  0
  4  5  1  0  0  0  0
  4 29  4  0  0  0  0
  5  6  1  0  0  0  0
  6  7  1  0  0  0  0
  6 27  1  0  0  0  0
  7  8  1  0  0  0  0
  7 24  1  0  0  0  0
  8  9  1  0  0  0  0
  9 10  1  0  0  0  0
 10 11  1  0  0  0  0
 11 12  1  0  0  0  0
 12 13  1  0  0  0  0
 12 17  1  0  0  0  0
 13 14  1  0  0  0  0
 14 15  1  0  0  0  0
 15 16  1  0  0  0  0
 15 18  1  0  0  0  0
 16 17  1  0  0  0  0
 18 19  4  0  0  0  0
 18 23  4  0  0  0  0
 19 20  4  0  0  0  0
 20 21  4  0  0  0  0
 21 22  4  0  0  0  0
 22 23  4  0  0  0  0
 24 25  1  0  0  0  0
 25 26  3  0  0  0  0
 27 28  1  0  0  0  0
 28 29  1  0  0  0  0
 29 30  4  0  0  0  0
 30 31  4  0  0  0  0
M  END
>  <Name_Molregno>
261137

>  <DOPAMINE D2>
7.41

>  <DOPAMINE D3>
9.14

$$$$
261496
  Marvin  02231216192D 0   1.00000     0.00000     0

 40 44  0  0  1  0  0  0  0  0999 V2000
   -2.0263   -8.1869    0.0000 O   0  0  0  0  0  0  0  0  0
   -1.3118   -7.7744    0.0000 C   0  0  0  0  0  0  0  0  0
   -1.3118   -6.9494    0.0000 C   0  0  0  0  0  0  0  0  0
   -0.5974   -6.5369    0.0000 C   0  0  0  0  0  0  0  0  0
   -0.5974   -5.7119    0.0000 C   0  0  0  0  0  0  0  0  0
    0.1171   -5.2994    0.0000 C   0  0  0  0  0  0  0  0  0
    0.1171   -4.4744    0.0000 N   0  0  0  0  0  0  0  0  0
   -0.5974   -4.0619    0.0000 C   0  0  0  0  0  0  0  0  0
   -1.3118   -4.4744    0.0000 C   0  0  0  0  0  0  0  0  0
   -2.0263   -4.0619    0.0000 C   0  0  0  0  0  0  0  0  0
   -2.7408   -4.4744    0.0000 C   0  0  0  0  0  0  0  0  0
   -3.4553   -4.0619    0.0000 N   0  0  0  0  0  0  0  0  0
   -4.1697   -4.4744    0.0000 C   0  0  0  0  0  0  0  0  0
   -4.1697   -5.2994    0.0000 O   0  0  0  0  0  0  0  0  0
   -4.8842   -4.0619    0.0000 C   0  0  0  0  0  0  0  0  0
   -5.5987   -4.4744    0.0000 C   0  0  0  0  0  0  0  0  0
   -6.3131   -4.0619    0.0000 C   0  0  0  0  0  0  0  0  0
   -6.3131   -3.2369    0.0000 C   0  0  0  0  0  0  0  0  0
   -5.5987   -2.8244    0.0000 C   0  0  0  0  0  0  0  0  0
   -4.8842   -3.2369    0.0000 C   0  0  0  0  0  0  0  0  0
    0.8316   -4.0619    0.0000 C   0  0  0  0  0  0  0  0  0
    1.5460   -4.4744    0.0000 C   0  0  0  0  0  0  0  0  0
    2.2605   -4.0619    0.0000 C   0  0  0  0  0  0  0  0  0
    2.9750   -4.4744    0.0000 N   0  0  0  0  0  0  0  0  0
    3.6895   -4.0619    0.0000 C   0  0  0  0  0  0  0  0  0
    4.4039   -4.4744    0.0000 C   0  0  0  0  0  0  0  0  0
    4.4039   -5.2994    0.0000 N   0  0  0  0  0  0  0  0  0
    3.6895   -5.7119    0.0000 C   0  0  0  0  0  0  0  0  0
    2.9750   -5.2994    0.0000 C   0  0  0  0  0  0  0  0  0
    5.1184   -5.7119    0.0000 C   0  0  0  0  0  0  0  0  0
    5.8329   -5.2994    0.0000 C   0  0  0  0  0  0  0  0  0
    6.5473   -5.7119    0.0000 C   0  0  0  0  0  0  0  0  0
    6.5473   -6.5369    0.0000 C   0  0  0  0  0  0  0  0  0
    5.8329   -6.9494    0.0000 C   0  0  0  0  0  0  0  0  0
    5.1184   -6.5369    0.0000 C   0  0  0  0  0  0  0  0  0
    0.8316   -5.7119    0.0000 C   0  0  0  0  0  0  0  0  0
    0.8316   -6.5369    0.0000 C   0  0  0  0  0  0  0  0  0
    0.1171   -6.9494    0.0000 C   0  0  0  0  0  0  0  0  0
    0.1171   -7.7744    0.0000 C   0  0  0  0  0  0  0  0  0
   -0.5974   -8.1869    0.0000 C   0  0  0  0  0  0  0  0  0
  1  2  1  0  0  0  0
  2  3  4  0  0  0  0
  2 40  4  0  0  0  0
  3  4  4  0  0  0  0
  4  5  1  0  0  0  0
  4 38  4  0  0  0  0
  5  6  1  0  0  0  0
  6  7  1  0  0  0  0
  6 36  1  0  0  0  0
  7  8  1  0  0  0  0
  7 21  1  0  0  0  0
  8  9  1  0  0  0  0
  9 10  1  0  0  0  0
 10 11  1  0  0  0  0
 11 12  1  0  0  0  0
 12 13  1  0  0  0  0
 13 14  2  0  0  0  0
 13 15  1  0  0  0  0
 15 16  4  0  0  0  0
 15 20  4  0  0  0  0
 16 17  4  0  0  0  0
 17 18  4  0  0  0  0
 18 19  4  0  0  0  0
 19 20  4  0  0  0  0
 21 22  1  0  0  0  0
 22 23  1  0  0  0  0
 23 24  1  0  0  0  0
 24 25  1  0  0  0  0
 24 29  1  0  0  0  0
 25 26  1  0  0  0  0
 26 27  1  0  0  0  0
 27 28  1  0  0  0  0
 27 30  1  0  0  0  0
 28 29  1  0  0  0  0
 30 31  4  0  0  0  0
 30 35  4  0  0  0  0
 31 32  4  0  0  0  0
 32 33  4  0  0  0  0
 33 34  4  0  0  0  0
 34 35  4  0  0  0  0
 36 37  1  0  0  0  0
 37 38  1  0  0  0  0
 38 39  4  0  0  0  0
 39 40  4  0  0  0  0
M  END
>  <Name_Molregno>
261496

>  <DOPAMINE D2>
6.11

>  <DOPAMINE D3>
6.12

$$$$
262304
  Marvin  02231216192D 0   1.00000     0.00000     0

 24 27  0  0  0  0  0  0  0  0999 V2000
    0.0933   -0.9755    0.0000 Cl  0  0  0  0  0  0  0  0  0
    0.9003   -0.8040    0.0000 C   0  0  0  0  0  0  0  0  0
    1.1553   -0.0194    0.0000 C   0  0  0  0  0  0  0  0  0
    1.9622    0.1522    0.0000 C   0  0  0  0  0  0  0  0  0
    2.5143   -0.4609    0.0000 C   0  0  0  0  0  0  0  0  0
    3.3212   -0.2894    0.0000 N   0  0  0  0  0  0  0  0  0
    3.5762    0.4952    0.0000 C   0  0  0  0  0  0  0  0  0
    4.3831    0.6667    0.0000 C   0  0  0  0  0  0  0  0  0
    4.9352    0.0536    0.0000 N   0  0  0  0  0  0  0  0  0
    4.6802   -0.7310    0.0000 C   0  0  0  0  0  0  0  0  0
    3.8733   -0.9025    0.0000 C   0  0  0  0  0  0  0  0  0
    5.7421    0.2252    0.0000 C   0  0  0  0  0  0  0  0  0
    5.9971    1.0098    0.0000 C   0  0  0  0  0  0  0  0  0
    6.7817    1.2647    0.0000 C   0  0  0  0  0  0  0  0  0
    6.7817    2.0897    0.0000 N   0  0  0  0  0  0  0  0  0
    5.9971    2.3447    0.0000 N   0  0  0  0  0  0  0  0  0
    5.5122    1.6772    0.0000 C   0  0  0  0  0  0  0  0  0
    7.4962    2.5022    0.0000 C   0  0  0  0  0  0  0  0  0
    8.2106    2.0897    0.0000 C   0  0  0  0  0  0  0  0  0
    8.2106    1.2647    0.0000 C   0  0  0  0  0  0  0  0  0
    7.4962    0.8522    0.0000 C   0  0  0  0  0  0  0  0  0
    7.4962    3.3272    0.0000 C   0  0  0  0  0  0  0  0  0
    2.2593   -1.2456    0.0000 C   0  0  0  0  0  0  0  0  0
    1.4523   -1.4171    0.0000 C   0  0  0  0  0  0  0  0  0
  1  2  1  0  0  0  0
  2  3  4  0  0  0  0
  2 24  4  0  0  0  0
  3  4  4  0  0  0  0
  4  5  4  0  0  0  0
  5  6  1  0  0  0  0
  5 23  4  0  0  0  0
  6  7  1  0  0  0  0
  6 11  1  0  0  0  0
  7  8  1  0  0  0  0
  8  9  1  0  0  0  0
  9 10  1  0  0  0  0
  9 12  1  0  0  0  0
 10 11  1  0  0  0  0
 12 13  1  0  0  0  0
 13 14  4  0  0  0  0
 13 17  4  0  0  0  0
 14 15  4  0  0  0  0
 14 21  4  0  0  0  0
 15 16  4  0  0  0  0
 15 18  4  0  0  0  0
 16 17  4  0  0  0  0
 18 19  4  0  0  0  0
 18 22  1  0  0  0  0
 19 20  4  0  0  0  0
 20 21  4  0  0  0  0
 23 24  4  0  0  0  0
M  END
>  <Name_Molregno>
262304

>  <DOPAMINE D2>
5.31

>  <DOPAMINE D3>
5.43

>  <DOPAMINE D4>
8.57

$$$$
262893
  Marvin  02231216192D 0   1.00000     0.00000     0

 25 28  0  0  0  0  0  0  0  0999 V2000
    0.1135   -0.9819    0.0000 Cl  0  0  0  0  0  0  0  0  0
    0.9205   -0.8103    0.0000 C   0  0  0  0  0  0  0  0  0
    1.1754   -0.0257    0.0000 C   0  0  0  0  0  0  0  0  0
    1.9824    0.1458    0.0000 C   0  0  0  0  0  0  0  0  0
    2.5344   -0.4673    0.0000 C   0  0  0  0  0  0  0  0  0
    3.3414   -0.2958    0.0000 N   0  0  0  0  0  0  0  0  0
    3.5964    0.4889    0.0000 C   0  0  0  0  0  0  0  0  0
    4.4033    0.6604    0.0000 C   0  0  0  0  0  0  0  0  0
    4.9554    0.0473    0.0000 N   0  0  0  0  0  0  0  0  0
    4.7004   -0.7373    0.0000 C   0  0  0  0  0  0  0  0  0
    3.8935   -0.9089    0.0000 C   0  0  0  0  0  0  0  0  0
    5.7623    0.2188    0.0000 C   0  0  0  0  0  0  0  0  0
    6.0173    1.0034    0.0000 C   0  0  0  0  0  0  0  0  0
    6.8019    1.2584    0.0000 C   0  0  0  0  0  0  0  0  0
    6.8019    2.0834    0.0000 N   0  0  0  0  0  0  0  0  0
    6.0173    2.3383    0.0000 N   0  0  0  0  0  0  0  0  0
    5.5324    1.6709    0.0000 C   0  0  0  0  0  0  0  0  0
    7.5164    2.4959    0.0000 C   0  0  0  0  0  0  0  0  0
    8.2308    2.0834    0.0000 C   0  0  0  0  0  0  0  0  0
    8.2308    1.2584    0.0000 C   0  0  0  0  0  0  0  0  0
    7.5164    0.8459    0.0000 C   0  0  0  0  0  0  0  0  0
    7.5164    3.3209    0.0000 C   0  0  0  0  0  0  0  0  0
    7.5164    4.1459    0.0000 C   0  0  0  0  0  0  0  0  0
    2.2795   -1.2519    0.0000 C   0  0  0  0  0  0  0  0  0
    1.4725   -1.4234    0.0000 C   0  0  0  0  0  0  0  0  0
  1  2  1  0  0  0  0
  2  3  4  0  0  0  0
  2 25  4  0  0  0  0
  3  4  4  0  0  0  0
  4  5  4  0  0  0  0
  5  6  1  0  0  0  0
  5 24  4  0  0  0  0
  6  7  1  0  0  0  0
  6 11  1  0  0  0  0
  7  8  1  0  0  0  0
  8  9  1  0  0  0  0
  9 10  1  0  0  0  0
  9 12  1  0  0  0  0
 10 11  1  0  0  0  0
 12 13  1  0  0  0  0
 13 14  4  0  0  0  0
 13 17  4  0  0  0  0
 14 15  4  0  0  0  0
 14 21  4  0  0  0  0
 15 16  4  0  0  0  0
 15 18  4  0  0  0  0
 16 17  4  0  0  0  0
 18 19  4  0  0  0  0
 18 22  1  0  0  0  0
 19 20  4  0  0  0  0
 20 21  4  0  0  0  0
 22 23  3  0  0  0  0
 24 25  4  0  0  0  0
M  END
>  <Name_Molregno>
262893

>  <DOPAMINE D2>
5.43

>  <DOPAMINE D3>
5.34

>  <DOPAMINE D4>
8.91

$$$$
262985
  Marvin  02231216192D 0   1.00000     0.00000     0

 25 28  0  0  0  0  0  0  0  0999 V2000
    0.1204   -2.0800    0.0000 Cl  0  0  0  0  0  0  0  0  0
    0.9274   -1.9085    0.0000 C   0  0  0  0  0  0  0  0  0
    1.1824   -1.1239    0.0000 C   0  0  0  0  0  0  0  0  0
    1.9893   -0.9523    0.0000 C   0  0  0  0  0  0  0  0  0
    2.5414   -1.5654    0.0000 C   0  0  0  0  0  0  0  0  0
    3.3483   -1.3939    0.0000 N   0  0  0  0  0  0  0  0  0
    3.6033   -0.6093    0.0000 C   0  0  0  0  0  0  0  0  0
    4.4102   -0.4378    0.0000 C   0  0  0  0  0  0  0  0  0
    4.9623   -1.0509    0.0000 N   0  0  0  0  0  0  0  0  0
    4.7073   -1.8355    0.0000 C   0  0  0  0  0  0  0  0  0
    3.9004   -2.0070    0.0000 C   0  0  0  0  0  0  0  0  0
    5.7692   -0.8793    0.0000 C   0  0  0  0  0  0  0  0  0
    6.0242   -0.0947    0.0000 C   0  0  0  0  0  0  0  0  0
    6.8088    0.1602    0.0000 C   0  0  0  0  0  0  0  0  0
    6.8088    0.9852    0.0000 N   0  0  0  0  0  0  0  0  0
    6.0242    1.2402    0.0000 N   0  0  0  0  0  0  0  0  0
    5.5393    0.5727    0.0000 C   0  0  0  0  0  0  0  0  0
    7.5233    1.3977    0.0000 C   0  0  0  0  0  0  0  0  0
    8.2377    0.9852    0.0000 C   0  0  0  0  0  0  0  0  0
    8.2377    0.1602    0.0000 C   0  0  0  0  0  0  0  0  0
    7.5233   -0.2523    0.0000 C   0  0  0  0  0  0  0  0  0
    8.9522    1.3977    0.0000 C   0  0  0  0  0  0  0  0  0
    8.9522    2.2227    0.0000 O   0  0  0  0  0  0  0  0  0
    2.2864   -2.3501    0.0000 C   0  0  0  0  0  0  0  0  0
    1.4794   -2.5216    0.0000 C   0  0  0  0  0  0  0  0  0
  1  2  1  0  0  0  0
  2  3  4  0  0  0  0
  2 25  4  0  0  0  0
  3  4  4  0  0  0  0
  4  5  4  0  0  0  0
  5  6  1  0  0  0  0
  5 24  4  0  0  0  0
  6  7  1  0  0  0  0
  6 11  1  0  0  0  0
  7  8  1  0  0  0  0
  8  9  1  0  0  0  0
  9 10  1  0  0  0  0
  9 12  1  0  0  0  0
 10 11  1  0  0  0  0
 12 13  1  0  0  0  0
 13 14  4  0  0  0  0
 13 17  4  0  0  0  0
 14 15  4  0  0  0  0
 14 21  4  0  0  0  0
 15 16  4  0  0  0  0
 15 18  4  0  0  0  0
 16 17  4  0  0  0  0
 18 19  4  0  0  0  0
 19 20  4  0  0  0  0
 19 22  1  0  0  0  0
 20 21  4  0  0  0  0
 22 23  1  0  0  0  0
 24 25  4  0  0  0  0
M  END
>  <Name_Molregno>
262985

>  <DOPAMINE D2>
4.56

>  <DOPAMINE D3>
5.59

>  <DOPAMINE D4>
7.71

$$$$
263562
  Marvin  02231216192D 0   1.00000     0.00000     0

 14 16  0  0  1  0  0  0  0  0999 V2000
   -0.4358    0.0336    0.0000 N   0  0  0  0  0  0  0  0  0
   -1.1483   -0.3789    0.0000 C   0  0  0  0  0  0  0  0  0
   -1.1483   -1.2039    0.0000 C   0  0  0  0  0  0  0  0  0
   -1.8630   -1.6160    0.0000 N   0  0  0  0  0  0  0  0  0
   -1.8635   -2.4410    0.0000 C   0  0  0  0  0  0  0  0  0
   -0.4358   -1.6164    0.0000 C   0  0  0  0  0  0  0  0  0
    0.2767   -1.2039    0.0000 C   0  0  0  0  0  0  0  0  0
    0.2767   -0.3789    0.0000 C   0  0  0  0  0  0  0  0  0
    0.9946    0.0336    0.0000 C   0  0  0  0  0  0  0  0  0
    0.6892    0.8907    0.0000 N   0  0  0  0  0  0  0  0  0
   -0.1358    0.8907    0.0000 C   0  0  0  0  0  0  0  0  0
    1.7071   -0.3789    0.0000 C   0  0  0  0  0  0  0  0  0
    1.7071   -1.2039    0.0000 C   0  0  0  0  0  0  0  0  0
    0.9946   -1.6164    0.0000 C   0  0  0  0  0  0  0  0  0
  1  2  1  0  0  0  0
  1  8  4  0  0  0  0
  1 11  4  0  0  0  0
  2  3  1  0  0  0  0
  3  4  1  0  0  0  0
  3  6  1  0  0  0  0
  4  5  1  0  0  0  0
  6  7  1  0  0  0  0
  7  8  4  0  0  0  0
  7 14  4  0  0  0  0
  8  9  4  0  0  0  0
  9 10  4  0  0  0  0
  9 12  4  0  0  0  0
 10 11  4  0  0  0  0
 12 13  4  0  0  0  0
 13 14  4  0  0  0  0
M  END
>  <Name_Molregno>
263562

>  <5-HT1A>
5.49

>  <DOPAMINE D2>
6.45

>  <DOPAMINE D3>
5.61

$$$$
263586
  Marvin  02231216192D 0   1.00000     0.00000     0

 17 19  0  0  1  0  0  0  0  0999 V2000
   -2.3056    1.3337    0.0000 O   0  0  0  0  0  0  0  0  0
   -1.8282    0.6609    0.0000 C   0  0  0  0  0  0  0  0  0
   -2.1282   -0.1963    0.0000 N   0  0  0  0  0  0  0  0  0
   -2.8407   -0.6088    0.0000 C   0  0  0  0  0  0  0  0  0
   -2.8407   -1.4338    0.0000 C   0  0  0  0  0  0  0  0  0
   -3.5554   -1.8459    0.0000 N   0  0  0  0  0  0  0  0  0
   -3.5559   -2.6709    0.0000 C   0  0  0  0  0  0  0  0  0
   -4.2706   -3.0829    0.0000 C   0  0  0  0  0  0  0  0  0
   -4.2711   -3.9079    0.0000 C   0  0  0  0  0  0  0  0  0
   -2.1282   -1.8463    0.0000 C   0  0  0  0  0  0  0  0  0
   -1.4157   -1.4338    0.0000 C   0  0  0  0  0  0  0  0  0
   -1.4157   -0.6088    0.0000 C   0  0  0  0  0  0  0  0  0
   -0.6978   -0.1963    0.0000 C   0  0  0  0  0  0  0  0  0
   -1.0032    0.6609    0.0000 N   0  0  0  0  0  0  0  0  0
    0.0147   -0.6088    0.0000 C   0  0  0  0  0  0  0  0  0
    0.0147   -1.4338    0.0000 C   0  0  0  0  0  0  0  0  0
   -0.6978   -1.8463    0.0000 C   0  0  0  0  0  0  0  0  0
  1  2  1  0  0  0  0
  2  3  4  0  0  0  0
  2 14  4  0  0  0  0
  3  4  1  0  0  0  0
  3 12  4  0  0  0  0
  4  5  1  0  0  0  0
  5  6  1  0  0  0  0
  5 10  1  0  0  0  0
  6  7  1  0  0  0  0
  7  8  1  0  0  0  0
  8  9  1  0  0  0  0
 10 11  1  0  0  0  0
 11 12  4  0  0  0  0
 11 17  4  0  0  0  0
 12 13  4  0  0  0  0
 13 14  4  0  0  0  0
 13 15  4  0  0  0  0
 15 16  4  0  0  0  0
 16 17  4  0  0  0  0
M  END
>  <Name_Molregno>
263586

>  <5-HT1A>
7.24

>  <DOPAMINE D2>
8.6

>  <DOPAMINE D3>
7.44

$$$$
263587
  Marvin  02231216192D 0   1.00000     0.00000     0

 16 18  0  0  1  0  0  0  0  0999 V2000
   -0.6772    0.0915    0.0000 O   0  0  0  0  0  0  0  0  0
   -0.1998   -0.5814    0.0000 C   0  0  0  0  0  0  0  0  0
   -0.4998   -1.4385    0.0000 N   0  0  0  0  0  0  0  0  0
   -1.2123   -1.8510    0.0000 C   0  0  0  0  0  0  0  0  0
   -1.2123   -2.6760    0.0000 C   0  0  0  0  0  0  0  0  0
   -1.9271   -3.0881    0.0000 N   0  0  0  0  0  0  0  0  0
   -1.9275   -3.9131    0.0000 C   0  0  0  0  0  0  0  0  0
   -2.6413   -2.6752    0.0000 C   0  0  0  0  0  0  0  0  0
   -0.4998   -3.0885    0.0000 C   0  0  0  0  0  0  0  0  0
    0.2127   -2.6760    0.0000 C   0  0  0  0  0  0  0  0  0
    0.2127   -1.8510    0.0000 C   0  0  0  0  0  0  0  0  0
    0.9305   -1.4385    0.0000 C   0  0  0  0  0  0  0  0  0
    0.6252   -0.5814    0.0000 N   0  0  0  0  0  0  0  0  0
    1.6430   -1.8510    0.0000 C   0  0  0  0  0  0  0  0  0
    1.6430   -2.6760    0.0000 C   0  0  0  0  0  0  0  0  0
    0.9305   -3.0885    0.0000 C   0  0  0  0  0  0  0  0  0
  1  2  1  0  0  0  0
  2  3  4  0  0  0  0
  2 13  4  0  0  0  0
  3  4  1  0  0  0  0
  3 11  4  0  0  0  0
  4  5  1  0  0  0  0
  5  6  1  0  0  0  0
  5  9  1  0  0  0  0
  6  7  1  0  0  0  0
  6  8  1  0  0  0  0
  9 10  1  0  0  0  0
 10 11  4  0  0  0  0
 10 16  4  0  0  0  0
 11 12  4  0  0  0  0
 12 13  4  0  0  0  0
 12 14  4  0  0  0  0
 14 15  4  0  0  0  0
 15 16  4  0  0  0  0
M  END
>  <Name_Molregno>
263587

>  <5-HT1A>
7.04

>  <DOPAMINE D2>
7.92

>  <DOPAMINE D3>
5.71

$$$$
263590
  Marvin  02231216192D 0   1.00000     0.00000     0

 15 17  0  0  1  0  0  0  0  0999 V2000
   -0.4292    0.0221    0.0000 N   0  0  0  0  0  0  0  0  0
   -1.1417   -0.3904    0.0000 C   0  0  0  0  0  0  0  0  0
   -1.1417   -1.2154    0.0000 C   0  0  0  0  0  0  0  0  0
   -1.8564   -1.6275    0.0000 N   0  0  0  0  0  0  0  0  0
   -1.8569   -2.4525    0.0000 C   0  0  0  0  0  0  0  0  0
   -2.5707   -1.2145    0.0000 C   0  0  0  0  0  0  0  0  0
   -0.4292   -1.6279    0.0000 C   0  0  0  0  0  0  0  0  0
    0.2833   -1.2154    0.0000 C   0  0  0  0  0  0  0  0  0
    0.2833   -0.3904    0.0000 C   0  0  0  0  0  0  0  0  0
    1.0011    0.0221    0.0000 C   0  0  0  0  0  0  0  0  0
    0.6958    0.8792    0.0000 N   0  0  0  0  0  0  0  0  0
   -0.1292    0.8792    0.0000 C   0  0  0  0  0  0  0  0  0
    1.7136   -0.3904    0.0000 C   0  0  0  0  0  0  0  0  0
    1.7136   -1.2154    0.0000 C   0  0  0  0  0  0  0  0  0
    1.0011   -1.6279    0.0000 C   0  0  0  0  0  0  0  0  0
  1  2  1  0  0  0  0
  1  9  4  0  0  0  0
  1 12  4  0  0  0  0
  2  3  1  0  0  0  0
  3  4  1  0  0  0  0
  3  7  1  0  0  0  0
  4  5  1  0  0  0  0
  4  6  1  0  0  0  0
  7  8  1  0  0  0  0
  8  9  4  0  0  0  0
  8 15  4  0  0  0  0
  9 10  4  0  0  0  0
 10 11  4  0  0  0  0
 10 13  4  0  0  0  0
 11 12  4  0  0  0  0
 13 14  4  0  0  0  0
 14 15  4  0  0  0  0
M  END
>  <Name_Molregno>
263590

>  <5-HT1A>
5.45

>  <DOPAMINE D2>
5.89

>  <DOPAMINE D3>
5.53

$$$$
266639
  Marvin  02231216192D 0   1.00000     0.00000     0

 31 35  0  0  0  0  0  0  0  0999 V2000
   -0.4096    0.6528    0.0000 O   0  0  0  0  0  0  0  0  0
    0.0029   -0.0617    0.0000 C   0  0  0  0  0  0  0  0  0
   -0.4096   -0.7761    0.0000 N   0  0  0  0  0  0  0  0  0
   -1.2346   -0.7761    0.0000 C   0  0  0  0  0  0  0  0  0
   -1.6471   -1.4906    0.0000 C   0  0  0  0  0  0  0  0  0
   -2.4721   -1.4906    0.0000 C   0  0  0  0  0  0  0  0  0
   -2.8846   -0.7761    0.0000 C   0  0  0  0  0  0  0  0  0
   -2.4721   -0.0617    0.0000 C   0  0  0  0  0  0  0  0  0
   -1.6471   -0.0617    0.0000 C   0  0  0  0  0  0  0  0  0
   -3.7096   -0.7761    0.0000 C   0  0  0  0  0  0  0  0  0
   -4.1221   -0.0617    0.0000 C   0  0  0  0  0  0  0  0  0
   -4.9471   -0.0617    0.0000 N   0  0  0  0  0  0  0  0  0
   -5.4320   -0.7291    0.0000 C   0  0  0  0  0  0  0  0  0
   -6.2166   -0.4742    0.0000 C   0  0  0  0  0  0  0  0  0
   -6.9311   -0.8867    0.0000 C   0  0  0  0  0  0  0  0  0
   -7.6456   -0.4742    0.0000 C   0  0  0  0  0  0  0  0  0
   -7.6456    0.3508    0.0000 C   0  0  0  0  0  0  0  0  0
   -6.9311    0.7633    0.0000 C   0  0  0  0  0  0  0  0  0
   -6.2166    0.3508    0.0000 C   0  0  0  0  0  0  0  0  0
   -5.4320    0.6058    0.0000 C   0  0  0  0  0  0  0  0  0
   -8.3600   -0.8867    0.0000 C   0  0  0  0  0  0  0  0  0
   -9.0745   -1.2992    0.0000 N   0  0  0  0  0  0  0  0  0
    0.8279   -0.0617    0.0000 C   0  0  0  0  0  0  0  0  0
    1.3129   -0.7291    0.0000 N   0  0  0  0  0  0  0  0  0
    2.0975   -0.4742    0.0000 C   0  0  0  0  0  0  0  0  0
    2.0975    0.3508    0.0000 C   0  0  0  0  0  0  0  0  0
    1.3129    0.6058    0.0000 C   0  0  0  0  0  0  0  0  0
    2.8119    0.7633    0.0000 C   0  0  0  0  0  0  0  0  0
    3.5264    0.3508    0.0000 C   0  0  0  0  0  0  0  0  0
    3.5264   -0.4742    0.0000 C   0  0  0  0  0  0  0  0  0
    2.8119   -0.8867    0.0000 C   0  0  0  0  0  0  0  0  0
  1  2  2  0  0  0  0
  2  3  1  0  0  0  0
  2 23  1  0  0  0  0
  3  4  1  0  0  0  0
  4  5  1  0  0  0  0
  4  9  1  0  0  0  0
  5  6  1  0  0  0  0
  6  7  1  0  0  0  0
  7  8  1  0  0  0  0
  7 10  1  0  0  0  0
  8  9  1  0  0  0  0
 10 11  1  0  0  0  0
 11 12  1  0  0  0  0
 12 13  1  0  0  0  0
 12 20  1  0  0  0  0
 13 14  1  0  0  0  0
 14 15  4  0  0  0  0
 14 19  4  0  0  0  0
 15 16  4  0  0  0  0
 16 17  4  0  0  0  0
 16 21  1  0  0  0  0
 17 18  4  0  0  0  0
 18 19  4  0  0  0  0
 19 20  1  0  0  0  0
 21 22  3  0  0  0  0
 23 24  4  0  0  0  0
 23 27  4  0  0  0  0
 24 25  4  0  0  0  0
 25 26  4  0  0  0  0
 25 31  4  0  0  0  0
 26 27  4  0  0  0  0
 26 28  4  0  0  0  0
 28 29  4  0  0  0  0
 29 30  4  0  0  0  0
 30 31  4  0  0  0  0
M  STY  1   1 DAT
M  SAL   1  1  24
M  SDT   1 MRV_IMPLICIT_H                                        
M  SDD   1     0.0000    0.0000    DR    ALL  0       0  
M  SED   1 IMPL_H1
M  END
>  <Name_Molregno>
266639

>  <DOPAMINE D2>
5.6

>  <DOPAMINE D3>
7.6

$$$$
266930
  Marvin  02231216192D 0   1.00000     0.00000     0

 31 34  0  0  0  0  0  0  0  0999 V2000
   -0.0646    0.0668    0.0000 F   0  0  0  0  0  0  0  0  0
    0.7604    0.0668    0.0000 C   0  0  0  0  0  0  0  0  0
    1.1729    0.7813    0.0000 C   0  0  0  0  0  0  0  0  0
    1.9979    0.7813    0.0000 C   0  0  0  0  0  0  0  0  0
    2.4104    0.0668    0.0000 C   0  0  0  0  0  0  0  0  0
    1.9979   -0.6477    0.0000 C   0  0  0  0  0  0  0  0  0
    1.1729   -0.6477    0.0000 C   0  0  0  0  0  0  0  0  0
    3.2354    0.0668    0.0000 C   0  0  0  0  0  0  0  0  0
    3.6479   -0.6477    0.0000 C   0  0  0  0  0  0  0  0  0
    4.4729   -0.6477    0.0000 C   0  0  0  0  0  0  0  0  0
    4.8854   -1.3622    0.0000 O   0  0  0  0  0  0  0  0  0
    4.8854    0.0668    0.0000 N   0  0  0  0  0  0  0  0  0
    5.7104    0.0668    0.0000 C   0  0  0  0  0  0  0  0  0
    6.1229    0.7813    0.0000 C   0  0  0  0  0  0  0  0  0
    6.9479    0.7813    0.0000 C   0  0  0  0  0  0  0  0  0
    7.3604    0.0668    0.0000 C   0  0  0  0  0  0  0  0  0
    6.9479   -0.6477    0.0000 C   0  0  0  0  0  0  0  0  0
    6.1229   -0.6477    0.0000 C   0  0  0  0  0  0  0  0  0
    8.1854    0.0668    0.0000 C   0  0  0  0  0  0  0  0  0
    8.5979    0.7813    0.0000 C   0  0  0  0  0  0  0  0  0
    9.4229    0.7813    0.0000 N   0  0  0  0  0  0  0  0  0
    9.9078    1.4487    0.0000 C   0  0  0  0  0  0  0  0  0
   10.6924    1.1938    0.0000 C   0  0  0  0  0  0  0  0  0
   11.4069    1.6063    0.0000 C   0  0  0  0  0  0  0  0  0
   12.1214    1.1938    0.0000 C   0  0  0  0  0  0  0  0  0
   12.1214    0.3688    0.0000 C   0  0  0  0  0  0  0  0  0
   11.4069   -0.0437    0.0000 C   0  0  0  0  0  0  0  0  0
   10.6924    0.3688    0.0000 C   0  0  0  0  0  0  0  0  0
    9.9078    0.1138    0.0000 C   0  0  0  0  0  0  0  0  0
   12.8358    1.6063    0.0000 C   0  0  0  0  0  0  0  0  0
   13.5503    2.0188    0.0000 N   0  0  0  0  0  0  0  0  0
  1  2  1  0  0  0  0
  2  3  4  0  0  0  0
  2  7  4  0  0  0  0
  3  4  4  0  0  0  0
  4  5  4  0  0  0  0
  5  6  4  0  0  0  0
  5  8  1  0  0  0  0
  6  7  4  0  0  0  0
  8  9  2  0  0  0  0
  9 10  1  0  0  0  0
 10 11  2  0  0  0  0
 10 12  1  0  0  0  0
 12 13  1  0  0  0  0
 13 14  1  0  0  0  0
 13 18  1  0  0  0  0
 14 15  1  0  0  0  0
 15 16  1  0  0  0  0
 16 17  1  0  0  0  0
 16 19  1  0  0  0  0
 17 18  1  0  0  0  0
 19 20  1  0  0  0  0
 20 21  1  0  0  0  0
 21 22  1  0  0  0  0
 21 29  1  0  0  0  0
 22 23  1  0  0  0  0
 23 24  4  0  0  0  0
 23 28  4  0  0  0  0
 24 25  4  0  0  0  0
 25 26  4  0  0  0  0
 25 30  1  0  0  0  0
 26 27  4  0  0  0  0
 27 28  4  0  0  0  0
 28 29  1  0  0  0  0
 30 31  3  0  0  0  0
M  END
>  <Name_Molregno>
266930

>  <DOPAMINE D2>
6.2

>  <DOPAMINE D3>
7.9

$$$$
267144
  Marvin  02231216192D 0   1.00000     0.00000     0

 32 36  0  0  0  0  0  0  0  0999 V2000
   -1.2335    2.0059    0.0000 O   0  0  0  0  0  0  0  0  0
   -1.9480    2.4184    0.0000 C   0  0  0  0  0  0  0  0  0
   -2.6624    2.0059    0.0000 N   0  0  0  0  0  0  0  0  0
   -2.6624    1.1809    0.0000 C   0  0  0  0  0  0  0  0  0
   -1.9480    0.7684    0.0000 C   0  0  0  0  0  0  0  0  0
   -1.9480   -0.0566    0.0000 C   0  0  0  0  0  0  0  0  0
   -2.6624   -0.4691    0.0000 C   0  0  0  0  0  0  0  0  0
   -3.3769   -0.0566    0.0000 C   0  0  0  0  0  0  0  0  0
   -3.3769    0.7684    0.0000 C   0  0  0  0  0  0  0  0  0
   -2.6624   -1.2941    0.0000 C   0  0  0  0  0  0  0  0  0
   -3.3769   -1.7066    0.0000 C   0  0  0  0  0  0  0  0  0
   -3.3769   -2.5316    0.0000 N   0  0  0  0  0  0  0  0  0
   -2.7095   -3.0165    0.0000 C   0  0  0  0  0  0  0  0  0
   -2.9644   -3.8011    0.0000 C   0  0  0  0  0  0  0  0  0
   -2.5519   -4.5156    0.0000 C   0  0  0  0  0  0  0  0  0
   -2.9644   -5.2301    0.0000 C   0  0  0  0  0  0  0  0  0
   -3.7894   -5.2301    0.0000 C   0  0  0  0  0  0  0  0  0
   -4.2019   -4.5156    0.0000 C   0  0  0  0  0  0  0  0  0
   -3.7894   -3.8011    0.0000 C   0  0  0  0  0  0  0  0  0
   -4.0444   -3.0165    0.0000 C   0  0  0  0  0  0  0  0  0
   -2.5519   -5.9445    0.0000 C   0  0  0  0  0  0  0  0  0
   -2.1394   -6.6590    0.0000 N   0  0  0  0  0  0  0  0  0
   -1.9480    3.2434    0.0000 C   0  0  0  0  0  0  0  0  0
   -1.2335    3.6559    0.0000 C   0  0  0  0  0  0  0  0  0
   -1.2335    4.4809    0.0000 C   0  0  0  0  0  0  0  0  0
   -1.9480    4.8934    0.0000 N   0  0  0  0  0  0  0  0  0
   -2.6624    4.4809    0.0000 C   0  0  0  0  0  0  0  0  0
   -2.6624    3.6559    0.0000 C   0  0  0  0  0  0  0  0  0
   -0.5190    4.8934    0.0000 C   0  0  0  0  0  0  0  0  0
    0.1954    4.4809    0.0000 C   0  0  0  0  0  0  0  0  0
    0.1954    3.6559    0.0000 C   0  0  0  0  0  0  0  0  0
   -0.5190    3.2434    0.0000 C   0  0  0  0  0  0  0  0  0
  1  2  2  0  0  0  0
  2  3  1  0  0  0  0
  2 23  1  0  0  0  0
  3  4  1  0  0  0  0
  4  5  1  0  0  0  0
  4  9  1  0  0  0  0
  5  6  1  0  0  0  0
  6  7  1  0  0  0  0
  7  8  1  0  0  0  0
  7 10  1  0  0  0  0
  8  9  1  0  0  0  0
 10 11  1  0  0  0  0
 11 12  1  0  0  0  0
 12 13  1  0  0  0  0
 12 20  1  0  0  0  0
 13 14  1  0  0  0  0
 14 15  4  0  0  0  0
 14 19  4  0  0  0  0
 15 16  4  0  0  0  0
 16 17  4  0  0  0  0
 16 21  1  0  0  0  0
 17 18  4  0  0  0  0
 18 19  4  0  0  0  0
 19 20  1  0  0  0  0
 21 22  3  0  0  0  0
 23 24  4  0  0  0  0
 23 28  4  0  0  0  0
 24 25  4  0  0  0  0
 24 32  4  0  0  0  0
 25 26  4  0  0  0  0
 25 29  4  0  0  0  0
 26 27  4  0  0  0  0
 27 28  4  0  0  0  0
 29 30  4  0  0  0  0
 30 31  4  0  0  0  0
 31 32  4  0  0  0  0
M  END
>  <Name_Molregno>
267144

>  <DOPAMINE D2>
5.6

>  <DOPAMINE D3>
7.2

$$$$
267145
  Marvin  02231216192D 0   1.00000     0.00000     0

 33 36  0  0  0  0  0  0  0  0999 V2000
   -0.0623    0.0013    0.0000 F   0  0  0  0  0  0  0  0  0
    0.7627    0.0013    0.0000 C   0  0  0  0  0  0  0  0  0
    1.1752    0.7158    0.0000 C   0  0  0  0  0  0  0  0  0
    2.0002    0.7158    0.0000 C   0  0  0  0  0  0  0  0  0
    2.4127    0.0013    0.0000 C   0  0  0  0  0  0  0  0  0
    2.0002   -0.7131    0.0000 C   0  0  0  0  0  0  0  0  0
    1.1752   -0.7131    0.0000 C   0  0  0  0  0  0  0  0  0
    3.2377    0.0013    0.0000 C   0  0  0  0  0  0  0  0  0
    3.6502   -0.7131    0.0000 C   0  0  0  0  0  0  0  0  0
    4.4752   -0.7131    0.0000 C   0  0  0  0  0  0  0  0  0
    4.8877   -1.4276    0.0000 O   0  0  0  0  0  0  0  0  0
    4.8877    0.0013    0.0000 N   0  0  0  0  0  0  0  0  0
    5.7127    0.0013    0.0000 C   0  0  0  0  0  0  0  0  0
    6.1252    0.7158    0.0000 C   0  0  0  0  0  0  0  0  0
    6.9502    0.7158    0.0000 C   0  0  0  0  0  0  0  0  0
    7.3627    0.0013    0.0000 C   0  0  0  0  0  0  0  0  0
    6.9502   -0.7131    0.0000 C   0  0  0  0  0  0  0  0  0
    6.1252   -0.7131    0.0000 C   0  0  0  0  0  0  0  0  0
    8.1877    0.0013    0.0000 C   0  0  0  0  0  0  0  0  0
    8.6002    0.7158    0.0000 C   0  0  0  0  0  0  0  0  0
    9.4252    0.7158    0.0000 N   0  0  0  0  0  0  0  0  0
    9.9102    1.3832    0.0000 C   0  0  0  0  0  0  0  0  0
   10.6948    1.1283    0.0000 C   0  0  0  0  0  0  0  0  0
   11.4093    1.5408    0.0000 C   0  0  0  0  0  0  0  0  0
   12.1237    1.1283    0.0000 C   0  0  0  0  0  0  0  0  0
   12.1237    0.3033    0.0000 C   0  0  0  0  0  0  0  0  0
   11.4093   -0.1092    0.0000 C   0  0  0  0  0  0  0  0  0
   10.6948    0.3033    0.0000 C   0  0  0  0  0  0  0  0  0
    9.9102    0.0484    0.0000 C   0  0  0  0  0  0  0  0  0
   12.8382    1.5408    0.0000 C   0  0  0  0  0  0  0  0  0
   13.5527    1.9533    0.0000 F   0  0  0  0  0  0  0  0  0
   13.2507    0.8263    0.0000 F   0  0  0  0  0  0  0  0  0
   12.4257    2.2553    0.0000 F   0  0  0  0  0  0  0  0  0
  1  2  1  0  0  0  0
  2  3  4  0  0  0  0
  2  7  4  0  0  0  0
  3  4  4  0  0  0  0
  4  5  4  0  0  0  0
  5  6  4  0  0  0  0
  5  8  1  0  0  0  0
  6  7  4  0  0  0  0
  8  9  2  0  0  0  0
  9 10  1  0  0  0  0
 10 11  2  0  0  0  0
 10 12  1  0  0  0  0
 12 13  1  0  0  0  0
 13 14  1  0  0  0  0
 13 18  1  0  0  0  0
 14 15  1  0  0  0  0
 15 16  1  0  0  0  0
 16 17  1  0  0  0  0
 16 19  1  0  0  0  0
 17 18  1  0  0  0  0
 19 20  1  0  0  0  0
 20 21  1  0  0  0  0
 21 22  1  0  0  0  0
 21 29  1  0  0  0  0
 22 23  1  0  0  0  0
 23 24  4  0  0  0  0
 23 28  4  0  0  0  0
 24 25  4  0  0  0  0
 25 26  4  0  0  0  0
 25 30  1  0  0  0  0
 26 27  4  0  0  0  0
 27 28  4  0  0  0  0
 28 29  1  0  0  0  0
 30 31  1  0  0  0  0
 30 32  1  0  0  0  0
 30 33  1  0  0  0  0
M  END
>  <Name_Molregno>
267145

>  <DOPAMINE D2>
6.4

>  <DOPAMINE D3>
8

$$$$
267147
  Marvin  02231216192D 0   1.00000     0.00000     0

 31 34  0  0  0  0  0  0  0  0999 V2000
   -0.0443    0.0041    0.0000 F   0  0  0  0  0  0  0  0  0
    0.7807    0.0041    0.0000 C   0  0  0  0  0  0  0  0  0
    1.1932    0.7186    0.0000 C   0  0  0  0  0  0  0  0  0
    2.0182    0.7186    0.0000 C   0  0  0  0  0  0  0  0  0
    2.4307    0.0041    0.0000 C   0  0  0  0  0  0  0  0  0
    2.0182   -0.7104    0.0000 C   0  0  0  0  0  0  0  0  0
    1.1932   -0.7104    0.0000 C   0  0  0  0  0  0  0  0  0
    3.2557    0.0041    0.0000 C   0  0  0  0  0  0  0  0  0
    3.6682   -0.7104    0.0000 C   0  0  0  0  0  0  0  0  0
    4.4932   -0.7104    0.0000 C   0  0  0  0  0  0  0  0  0
    4.9057   -1.4248    0.0000 O   0  0  0  0  0  0  0  0  0
    4.9057    0.0041    0.0000 N   0  0  0  0  0  0  0  0  0
    5.7307    0.0041    0.0000 C   0  0  0  0  0  0  0  0  0
    6.1432    0.7186    0.0000 C   0  0  0  0  0  0  0  0  0
    6.9682    0.7186    0.0000 C   0  0  0  0  0  0  0  0  0
    7.3807    0.0041    0.0000 C   0  0  0  0  0  0  0  0  0
    6.9682   -0.7104    0.0000 C   0  0  0  0  0  0  0  0  0
    6.1432   -0.7104    0.0000 C   0  0  0  0  0  0  0  0  0
    8.2057    0.0041    0.0000 C   0  0  0  0  0  0  0  0  0
    8.6182    0.7186    0.0000 C   0  0  0  0  0  0  0  0  0
    9.4432    0.7186    0.0000 N   0  0  0  0  0  0  0  0  0
    9.9281    1.3860    0.0000 C   0  0  0  0  0  0  0  0  0
   10.7128    1.1311    0.0000 C   0  0  0  0  0  0  0  0  0
   11.4272    1.5436    0.0000 C   0  0  0  0  0  0  0  0  0
   12.1417    1.1311    0.0000 C   0  0  0  0  0  0  0  0  0
   12.8562    1.5436    0.0000 O   0  0  0  0  0  0  0  0  0
   12.8562    2.3686    0.0000 C   0  0  0  0  0  0  0  0  0
   12.1417    0.3061    0.0000 C   0  0  0  0  0  0  0  0  0
   11.4272   -0.1064    0.0000 C   0  0  0  0  0  0  0  0  0
   10.7128    0.3061    0.0000 C   0  0  0  0  0  0  0  0  0
    9.9281    0.0511    0.0000 C   0  0  0  0  0  0  0  0  0
  1  2  1  0  0  0  0
  2  3  4  0  0  0  0
  2  7  4  0  0  0  0
  3  4  4  0  0  0  0
  4  5  4  0  0  0  0
  5  6  4  0  0  0  0
  5  8  1  0  0  0  0
  6  7  4  0  0  0  0
  8  9  2  0  0  0  0
  9 10  1  0  0  0  0
 10 11  2  0  0  0  0
 10 12  1  0  0  0  0
 12 13  1  0  0  0  0
 13 14  1  0  0  0  0
 13 18  1  0  0  0  0
 14 15  1  0  0  0  0
 15 16  1  0  0  0  0
 16 17  1  0  0  0  0
 16 19  1  0  0  0  0
 17 18  1  0  0  0  0
 19 20  1  0  0  0  0
 20 21  1  0  0  0  0
 21 22  1  0  0  0  0
 21 31  1  0  0  0  0
 22 23  1  0  0  0  0
 23 24  4  0  0  0  0
 23 30  4  0  0  0  0
 24 25  4  0  0  0  0
 25 26  1  0  0  0  0
 25 28  4  0  0  0  0
 26 27  1  0  0  0  0
 28 29  4  0  0  0  0
 29 30  4  0  0  0  0
 30 31  1  0  0  0  0
M  END
>  <Name_Molregno>
267147

>  <DOPAMINE D2>
6.7

>  <DOPAMINE D3>
8.1

$$$$
267153
  Marvin  02231216192D 0   1.00000     0.00000     0

 34 37  0  0  0  0  0  0  0  0999 V2000
    0.0779   -0.2699    0.0000 S   0  0  0  0  0  0  0  0  0
   -0.6366   -0.6824    0.0000 O   0  0  0  0  0  0  0  0  0
   -1.3511   -0.2699    0.0000 C   0  0  0  0  0  0  0  0  0
   -2.0656   -0.6824    0.0000 C   0  0  0  0  0  0  0  0  0
   -2.7800   -0.2699    0.0000 C   0  0  0  0  0  0  0  0  0
   -2.7800    0.5551    0.0000 C   0  0  0  0  0  0  0  0  0
   -3.5647    0.8101    0.0000 C   0  0  0  0  0  0  0  0  0
   -4.0496    0.1426    0.0000 N   0  0  0  0  0  0  0  0  0
   -3.5647   -0.5248    0.0000 C   0  0  0  0  0  0  0  0  0
   -4.8746    0.1426    0.0000 C   0  0  0  0  0  0  0  0  0
   -5.2871    0.8571    0.0000 C   0  0  0  0  0  0  0  0  0
   -6.1121    0.8571    0.0000 C   0  0  0  0  0  0  0  0  0
   -6.5246    0.1426    0.0000 C   0  0  0  0  0  0  0  0  0
   -7.3496    0.1426    0.0000 C   0  0  0  0  0  0  0  0  0
   -7.7621    0.8571    0.0000 C   0  0  0  0  0  0  0  0  0
   -8.5871    0.8571    0.0000 N   0  0  0  0  0  0  0  0  0
   -8.9996    1.5716    0.0000 C   0  0  0  0  0  0  0  0  0
   -8.5871    2.2860    0.0000 O   0  0  0  0  0  0  0  0  0
   -9.8246    1.5716    0.0000 C   0  0  0  0  0  0  0  0  0
  -10.2371    0.8571    0.0000 C   0  0  0  0  0  0  0  0  0
  -11.0621    0.8571    0.0000 C   0  0  0  0  0  0  0  0  0
  -11.4746    0.1426    0.0000 C   0  0  0  0  0  0  0  0  0
  -12.2996    0.1426    0.0000 C   0  0  0  0  0  0  0  0  0
  -12.7121    0.8571    0.0000 C   0  0  0  0  0  0  0  0  0
  -13.5371    0.8571    0.0000 F   0  0  0  0  0  0  0  0  0
  -12.2996    1.5716    0.0000 C   0  0  0  0  0  0  0  0  0
  -11.4746    1.5716    0.0000 C   0  0  0  0  0  0  0  0  0
   -7.3496    1.5716    0.0000 C   0  0  0  0  0  0  0  0  0
   -6.5246    1.5716    0.0000 C   0  0  0  0  0  0  0  0  0
   -2.0656    0.9676    0.0000 C   0  0  0  0  0  0  0  0  0
   -1.3511    0.5551    0.0000 C   0  0  0  0  0  0  0  0  0
    0.7923    0.1426    0.0000 O   0  0  0  0  0  0  0  0  0
    0.4904   -0.9844    0.0000 O   0  0  0  0  0  0  0  0  0
   -0.3346    0.4446    0.0000 C   0  0  0  0  0  0  0  0  0
  1  2  1  0  0  0  0
  1 32  2  0  0  0  0
  1 33  2  0  0  0  0
  1 34  1  0  0  0  0
  2  3  1  0  0  0  0
  3  4  4  0  0  0  0
  3 31  4  0  0  0  0
  4  5  4  0  0  0  0
  5  6  4  0  0  0  0
  5  9  1  0  0  0  0
  6  7  1  0  0  0  0
  6 30  4  0  0  0  0
  7  8  1  0  0  0  0
  8  9  1  0  0  0  0
  8 10  1  0  0  0  0
 10 11  1  0  0  0  0
 11 12  1  0  0  0  0
 12 13  1  0  0  0  0
 12 29  1  0  0  0  0
 13 14  1  0  0  0  0
 14 15  1  0  0  0  0
 15 16  1  0  0  0  0
 15 28  1  0  0  0  0
 16 17  1  0  0  0  0
 17 18  2  0  0  0  0
 17 19  1  0  0  0  0
 19 20  2  0  0  0  0
 20 21  1  0  0  0  0
 21 22  4  0  0  0  0
 21 27  4  0  0  0  0
 22 23  4  0  0  0  0
 23 24  4  0  0  0  0
 24 25  1  0  0  0  0
 24 26  4  0  0  0  0
 26 27  4  0  0  0  0
 28 29  1  0  0  0  0
 30 31  4  0  0  0  0
M  END
>  <Name_Molregno>
267153

>  <DOPAMINE D2>
6.3

>  <DOPAMINE D3>
8.3

$$$$
267154
  Marvin  02231216192D 0   1.00000     0.00000     0

 30 33  0  0  0  0  0  0  0  0999 V2000
   12.5794   -0.3433    0.0000 Br  0  0  0  0  0  0  0  0  0
   11.8650    0.0692    0.0000 C   0  0  0  0  0  0  0  0  0
   11.1505   -0.3433    0.0000 C   0  0  0  0  0  0  0  0  0
   10.4360    0.0692    0.0000 C   0  0  0  0  0  0  0  0  0
   10.4360    0.8942    0.0000 C   0  0  0  0  0  0  0  0  0
    9.6514    1.1491    0.0000 C   0  0  0  0  0  0  0  0  0
    9.1665    0.4817    0.0000 N   0  0  0  0  0  0  0  0  0
    9.6514   -0.1858    0.0000 C   0  0  0  0  0  0  0  0  0
    8.3415    0.4817    0.0000 C   0  0  0  0  0  0  0  0  0
    7.9290   -0.2328    0.0000 C   0  0  0  0  0  0  0  0  0
    7.1040   -0.2328    0.0000 C   0  0  0  0  0  0  0  0  0
    6.6915   -0.9473    0.0000 C   0  0  0  0  0  0  0  0  0
    5.8665   -0.9473    0.0000 C   0  0  0  0  0  0  0  0  0
    5.4540   -0.2328    0.0000 C   0  0  0  0  0  0  0  0  0
    4.6290   -0.2328    0.0000 N   0  0  0  0  0  0  0  0  0
    4.2165   -0.9473    0.0000 C   0  0  0  0  0  0  0  0  0
    4.6290   -1.6617    0.0000 O   0  0  0  0  0  0  0  0  0
    3.3915   -0.9473    0.0000 C   0  0  0  0  0  0  0  0  0
    2.9790   -1.6617    0.0000 C   0  0  0  0  0  0  0  0  0
    2.1540   -1.6617    0.0000 C   0  0  0  0  0  0  0  0  0
    1.7415   -2.3762    0.0000 C   0  0  0  0  0  0  0  0  0
    0.9165   -2.3762    0.0000 C   0  0  0  0  0  0  0  0  0
    0.5040   -1.6617    0.0000 C   0  0  0  0  0  0  0  0  0
   -0.3210   -1.6617    0.0000 F   0  0  0  0  0  0  0  0  0
    0.9165   -0.9473    0.0000 C   0  0  0  0  0  0  0  0  0
    1.7415   -0.9473    0.0000 C   0  0  0  0  0  0  0  0  0
    5.8665    0.4817    0.0000 C   0  0  0  0  0  0  0  0  0
    6.6915    0.4817    0.0000 C   0  0  0  0  0  0  0  0  0
   11.1505    1.3067    0.0000 C   0  0  0  0  0  0  0  0  0
   11.8650    0.8942    0.0000 C   0  0  0  0  0  0  0  0  0
  1  2  1  0  0  0  0
  2  3  4  0  0  0  0
  2 30  4  0  0  0  0
  3  4  4  0  0  0  0
  4  5  4  0  0  0  0
  4  8  1  0  0  0  0
  5  6  1  0  0  0  0
  5 29  4  0  0  0  0
  6  7  1  0  0  0  0
  7  8  1  0  0  0  0
  7  9  1  0  0  0  0
  9 10  1  0  0  0  0
 10 11  1  0  0  0  0
 11 12  1  0  0  0  0
 11 28  1  0  0  0  0
 12 13  1  0  0  0  0
 13 14  1  0  0  0  0
 14 15  1  0  0  0  0
 14 27  1  0  0  0  0
 15 16  1  0  0  0  0
 16 17  2  0  0  0  0
 16 18  1  0  0  0  0
 18 19  2  0  0  0  0
 19 20  1  0  0  0  0
 20 21  4  0  0  0  0
 20 26  4  0  0  0  0
 21 22  4  0  0  0  0
 22 23  4  0  0  0  0
 23 24  1  0  0  0  0
 23 25  4  0  0  0  0
 25 26  4  0  0  0  0
 27 28  1  0  0  0  0
 29 30  4  0  0  0  0
M  END
>  <Name_Molregno>
267154

>  <DOPAMINE D2>
7

>  <DOPAMINE D3>
8.5

$$$$
267155
  Marvin  02231216192D 0   1.00000     0.00000     0

 32 35  0  0  0  0  0  0  0  0999 V2000
  -12.0442    0.4165    0.0000 O   0  0  0  0  0  0  0  0  0
  -12.8692    0.4165    0.0000 C   0  0  0  0  0  0  0  0  0
  -11.6317   -0.2980    0.0000 C   0  0  0  0  0  0  0  0  0
  -10.8067   -0.2980    0.0000 C   0  0  0  0  0  0  0  0  0
  -10.3942   -1.0125    0.0000 C   0  0  0  0  0  0  0  0  0
  -10.8067   -1.7270    0.0000 C   0  0  0  0  0  0  0  0  0
  -11.6317   -1.7270    0.0000 C   0  0  0  0  0  0  0  0  0
  -12.0442   -1.0125    0.0000 C   0  0  0  0  0  0  0  0  0
   -9.5692   -1.0125    0.0000 C   0  0  0  0  0  0  0  0  0
   -9.1567   -1.7270    0.0000 C   0  0  0  0  0  0  0  0  0
   -8.3317   -1.7270    0.0000 C   0  0  0  0  0  0  0  0  0
   -7.9192   -2.4414    0.0000 O   0  0  0  0  0  0  0  0  0
   -7.9192   -1.0125    0.0000 N   0  0  0  0  0  0  0  0  0
   -7.0942   -1.0125    0.0000 C   0  0  0  0  0  0  0  0  0
   -6.6817   -0.2980    0.0000 C   0  0  0  0  0  0  0  0  0
   -5.8567   -0.2980    0.0000 C   0  0  0  0  0  0  0  0  0
   -5.4442   -1.0125    0.0000 C   0  0  0  0  0  0  0  0  0
   -5.8567   -1.7270    0.0000 C   0  0  0  0  0  0  0  0  0
   -6.6817   -1.7270    0.0000 C   0  0  0  0  0  0  0  0  0
   -4.6192   -1.0125    0.0000 C   0  0  0  0  0  0  0  0  0
   -4.2067   -0.2980    0.0000 C   0  0  0  0  0  0  0  0  0
   -3.3817   -0.2980    0.0000 N   0  0  0  0  0  0  0  0  0
   -2.8967    0.3694    0.0000 C   0  0  0  0  0  0  0  0  0
   -2.1121    0.1145    0.0000 C   0  0  0  0  0  0  0  0  0
   -1.3976    0.5270    0.0000 C   0  0  0  0  0  0  0  0  0
   -0.6832    0.1145    0.0000 C   0  0  0  0  0  0  0  0  0
   -0.6832   -0.7105    0.0000 C   0  0  0  0  0  0  0  0  0
   -1.3976   -1.1230    0.0000 C   0  0  0  0  0  0  0  0  0
   -2.1121   -0.7105    0.0000 C   0  0  0  0  0  0  0  0  0
   -2.8967   -0.9655    0.0000 C   0  0  0  0  0  0  0  0  0
    0.0313    0.5270    0.0000 C   0  0  0  0  0  0  0  0  0
    0.7458    0.9395    0.0000 N   0  0  0  0  0  0  0  0  0
  1  2  1  0  0  0  0
  1  3  1  0  0  0  0
  3  4  4  0  0  0  0
  3  8  4  0  0  0  0
  4  5  4  0  0  0  0
  5  6  4  0  0  0  0
  5  9  1  0  0  0  0
  6  7  4  0  0  0  0
  7  8  4  0  0  0  0
  9 10  2  0  0  0  0
 10 11  1  0  0  0  0
 11 12  2  0  0  0  0
 11 13  1  0  0  0  0
 13 14  1  0  0  0  0
 14 15  1  0  0  0  0
 14 19  1  0  0  0  0
 15 16  1  0  0  0  0
 16 17  1  0  0  0  0
 17 18  1  0  0  0  0
 17 20  1  0  0  0  0
 18 19  1  0  0  0  0
 20 21  1  0  0  0  0
 21 22  1  0  0  0  0
 22 23  1  0  0  0  0
 22 30  1  0  0  0  0
 23 24  1  0  0  0  0
 24 25  4  0  0  0  0
 24 29  4  0  0  0  0
 25 26  4  0  0  0  0
 26 27  4  0  0  0  0
 26 31  1  0  0  0  0
 27 28  4  0  0  0  0
 28 29  4  0  0  0  0
 29 30  1  0  0  0  0
 31 32  3  0  0  0  0
M  END
>  <Name_Molregno>
267155

>  <DOPAMINE D2>
6

>  <DOPAMINE D3>
8

$$$$
273468
  Marvin  02231216192D 0   1.00000     0.00000     0

 15 15  0  0  1  0  0  0  0  0999 V2000
   -0.6964    0.7150    0.0000 N   0  0  0  0  0  0  0  0  0
   -1.4109    1.1275    0.0000 C   0  0  0  0  0  0  0  0  0
   -1.4109    1.9525    0.0000 C   0  0  0  0  0  0  0  0  0
   -2.1254    2.3650    0.0000 C   0  0  0  0  0  0  0  0  0
    0.0180    1.1275    0.0000 C   0  0  0  0  0  0  0  0  0
    0.0180    1.9525    0.0000 C   0  0  0  0  0  0  0  0  0
    0.7325    2.3650    0.0000 C   0  0  0  0  0  0  0  0  0
   -0.6964   -0.1100    0.0000 C   0  0  0  0  0  0  0  0  0
    0.0180   -0.5225    0.0000 C   0  0  0  0  0  0  0  0  0
    0.0180   -1.3475    0.0000 C   0  0  0  0  0  0  0  0  0
   -0.6964   -1.7600    0.0000 C   0  0  0  0  0  0  0  0  0
   -1.4109   -1.3475    0.0000 C   0  0  0  0  0  0  0  0  0
   -1.4109   -0.5225    0.0000 C   0  0  0  0  0  0  0  0  0
   -0.6964   -2.5850    0.0000 C   0  0  0  0  0  0  0  0  0
   -0.6964   -3.4100    0.0000 C   0  0  0  0  0  0  0  0  0
  1  2  1  0  0  0  0
  1  5  1  0  0  0  0
  1  8  1  0  0  0  0
  2  3  1  0  0  0  0
  3  4  1  0  0  0  0
  5  6  1  0  0  0  0
  6  7  1  0  0  0  0
  8  9  1  0  0  0  0
  8 13  1  0  0  0  0
  9 10  1  0  0  0  0
 10 11  1  0  0  0  0
 11 12  2  0  0  0  0
 11 14  1  0  0  0  0
 12 13  1  0  0  0  0
 14 15  3  0  0  0  0
M  END
>  <Name_Molregno>
273468

>  <DOPAMINE D2>
6.59

>  <DOPAMINE D3>
7.24

>  <DOPAMINE D4>
7.66

$$$$
273862
  Marvin  02231216192D 0   1.00000     0.00000     0

 15 15  0  0  1  0  0  0  0  0999 V2000
   -0.6964    0.7150    0.0000 N   0  0  0  0  0  0  0  0  0
   -1.4109    1.1275    0.0000 C   0  0  0  0  0  0  0  0  0
   -1.4109    1.9525    0.0000 C   0  0  0  0  0  0  0  0  0
   -2.1254    2.3650    0.0000 C   0  0  0  0  0  0  0  0  0
    0.0180    1.1275    0.0000 C   0  0  0  0  0  0  0  0  0
    0.0180    1.9525    0.0000 C   0  0  0  0  0  0  0  0  0
    0.7325    2.3650    0.0000 C   0  0  0  0  0  0  0  0  0
   -0.6964   -0.1100    0.0000 C   0  0  0  0  0  0  0  0  0
    0.0180   -0.5225    0.0000 C   0  0  0  0  0  0  0  0  0
    0.0180   -1.3475    0.0000 C   0  0  0  0  0  0  0  0  0
   -0.6964   -1.7600    0.0000 C   0  0  0  0  0  0  0  0  0
   -1.4109   -1.3475    0.0000 C   0  0  0  0  0  0  0  0  0
   -1.4109   -0.5225    0.0000 C   0  0  0  0  0  0  0  0  0
   -0.6964   -2.5850    0.0000 C   0  0  0  0  0  0  0  0  0
   -0.6964   -3.4100    0.0000 N   0  0  0  0  0  0  0  0  0
  1  2  1  0  0  0  0
  1  5  1  0  0  0  0
  1  8  1  0  0  0  0
  2  3  1  0  0  0  0
  3  4  1  0  0  0  0
  5  6  1  0  0  0  0
  6  7  1  0  0  0  0
  8  9  1  0  0  0  0
  8 13  1  0  0  0  0
  9 10  1  0  0  0  0
 10 11  1  0  0  0  0
 11 12  2  0  0  0  0
 11 14  1  0  0  0  0
 12 13  1  0  0  0  0
 14 15  3  0  0  0  0
M  END
>  <Name_Molregno>
273862

>  <DOPAMINE D2>
4.7

>  <DOPAMINE D3>
4.89

>  <DOPAMINE D4>
4.7

$$$$
273894
  Marvin  02231216192D 0   1.00000     0.00000     0

 16 16  0  0  0  0  0  0  0  0999 V2000
    0.7452    1.0311    0.0000 N   0  0  0  0  0  0  0  0  0
    0.0307    1.4436    0.0000 C   0  0  0  0  0  0  0  0  0
    0.0307    2.2686    0.0000 C   0  0  0  0  0  0  0  0  0
   -0.6837    2.6811    0.0000 C   0  0  0  0  0  0  0  0  0
    1.4597    1.4436    0.0000 C   0  0  0  0  0  0  0  0  0
    1.4597    2.2686    0.0000 C   0  0  0  0  0  0  0  0  0
    2.1742    2.6811    0.0000 C   0  0  0  0  0  0  0  0  0
    0.7452    0.2061    0.0000 C   0  0  0  0  0  0  0  0  0
    1.4597   -0.2064    0.0000 C   0  0  0  0  0  0  0  0  0
    1.4597   -1.0314    0.0000 C   0  0  0  0  0  0  0  0  0
    0.7452   -1.4439    0.0000 C   0  0  0  0  0  0  0  0  0
    0.0307   -1.0314    0.0000 C   0  0  0  0  0  0  0  0  0
    0.0307   -0.2064    0.0000 C   0  0  0  0  0  0  0  0  0
    0.7452   -2.2689    0.0000 C   0  0  0  0  0  0  0  0  0
    1.4597   -2.6814    0.0000 C   0  0  0  0  0  0  0  0  0
    2.1742   -3.0939    0.0000 N   0  0  0  0  0  0  0  0  0
  1  2  1  0  0  0  0
  1  5  1  0  0  0  0
  1  8  1  0  0  0  0
  2  3  1  0  0  0  0
  3  4  1  0  0  0  0
  5  6  1  0  0  0  0
  6  7  1  0  0  0  0
  8  9  1  0  0  0  0
  8 13  1  0  0  0  0
  9 10  1  0  0  0  0
 10 11  1  0  0  0  0
 11 12  1  0  0  0  0
 11 14  2  0  0  0  0
 12 13  1  0  0  0  0
 14 15  1  0  0  0  0
 15 16  3  0  0  0  0
M  END
>  <Name_Molregno>
273894

>  <DOPAMINE D2>
4.7

>  <DOPAMINE D3>
4.89

>  <DOPAMINE D4>
4.7

$$$$
273895
  Marvin  02231216192D 0   1.00000     0.00000     0

 18 18  0  0  0  0  0  0  0  0999 V2000
    1.2054    1.2375    0.0000 N   0  0  0  0  0  0  0  0  0
    0.4909    1.6500    0.0000 C   0  0  0  0  0  0  0  0  0
    0.4909    2.4750    0.0000 C   0  0  0  0  0  0  0  0  0
   -0.2236    2.8875    0.0000 C   0  0  0  0  0  0  0  0  0
    1.9198    1.6500    0.0000 C   0  0  0  0  0  0  0  0  0
    1.9198    2.4750    0.0000 C   0  0  0  0  0  0  0  0  0
    2.6343    2.8875    0.0000 C   0  0  0  0  0  0  0  0  0
    1.2054    0.4125    0.0000 C   0  0  0  0  0  0  0  0  0
    1.9198    0.0000    0.0000 C   0  0  0  0  0  0  0  0  0
    1.9198   -0.8250    0.0000 C   0  0  0  0  0  0  0  0  0
    1.2054   -1.2375    0.0000 C   0  0  0  0  0  0  0  0  0
    0.4909   -0.8250    0.0000 C   0  0  0  0  0  0  0  0  0
    0.4909    0.0000    0.0000 C   0  0  0  0  0  0  0  0  0
    1.2054   -2.0625    0.0000 C   0  0  0  0  0  0  0  0  0
    0.4909   -2.4750    0.0000 C   0  0  0  0  0  0  0  0  0
   -0.2236   -2.8875    0.0000 N   0  0  0  0  0  0  0  0  0
    1.9198   -2.4750    0.0000 C   0  0  0  0  0  0  0  0  0
    2.6343   -2.8875    0.0000 N   0  0  0  0  0  0  0  0  0
  1  2  1  0  0  0  0
  1  5  1  0  0  0  0
  1  8  1  0  0  0  0
  2  3  1  0  0  0  0
  3  4  1  0  0  0  0
  5  6  1  0  0  0  0
  6  7  1  0  0  0  0
  8  9  1  0  0  0  0
  8 13  1  0  0  0  0
  9 10  1  0  0  0  0
 10 11  1  0  0  0  0
 11 12  1  0  0  0  0
 11 14  2  0  0  0  0
 12 13  1  0  0  0  0
 14 15  1  0  0  0  0
 14 17  1  0  0  0  0
 15 16  3  0  0  0  0
 17 18  3  0  0  0  0
M  END
>  <Name_Molregno>
273895

>  <DOPAMINE D2>
4.76

>  <DOPAMINE D3>
5.8

>  <DOPAMINE D4>
4.7

$$$$
274428
  Marvin  02231216192D 0   1.00000     0.00000     0

 30 32  0  0  0  0  0  0  0  0999 V2000
    2.6518    2.7225    0.0000 N   0  0  0  0  0  0  0  0  0
    1.9373    3.1350    0.0000 C   0  0  0  0  0  0  0  0  0
    1.9373    3.9600    0.0000 C   0  0  0  0  0  0  0  0  0
    1.2228    4.3725    0.0000 C   0  0  0  0  0  0  0  0  0
    3.3663    3.1350    0.0000 C   0  0  0  0  0  0  0  0  0
    3.3663    3.9600    0.0000 C   0  0  0  0  0  0  0  0  0
    4.0807    4.3725    0.0000 C   0  0  0  0  0  0  0  0  0
    2.6518    1.8975    0.0000 C   0  0  0  0  0  0  0  0  0
    3.3663    1.4850    0.0000 C   0  0  0  0  0  0  0  0  0
    3.3663    0.6600    0.0000 C   0  0  0  0  0  0  0  0  0
    2.6518    0.2475    0.0000 C   0  0  0  0  0  0  0  0  0
    1.9373    0.6600    0.0000 C   0  0  0  0  0  0  0  0  0
    1.9373    1.4850    0.0000 C   0  0  0  0  0  0  0  0  0
    2.6518   -0.5775    0.0000 C   0  0  0  0  0  0  0  0  0
    1.9373   -0.9900    0.0000 C   0  0  0  0  0  0  0  0  0
    1.2228   -1.4025    0.0000 C   0  0  0  0  0  0  0  0  0
    0.5084   -1.8150    0.0000 C   0  0  0  0  0  0  0  0  0
    0.5084   -2.6400    0.0000 C   0  0  0  0  0  0  0  0  0
   -0.2061   -3.0525    0.0000 C   0  0  0  0  0  0  0  0  0
   -0.9206   -2.6400    0.0000 C   0  0  0  0  0  0  0  0  0
   -0.9206   -1.8150    0.0000 C   0  0  0  0  0  0  0  0  0
   -0.2061   -1.4025    0.0000 C   0  0  0  0  0  0  0  0  0
    3.3663   -0.9900    0.0000 C   0  0  0  0  0  0  0  0  0
    4.0807   -1.4025    0.0000 C   0  0  0  0  0  0  0  0  0
    4.7952   -1.8150    0.0000 C   0  0  0  0  0  0  0  0  0
    5.5097   -1.4025    0.0000 C   0  0  0  0  0  0  0  0  0
    6.2241   -1.8150    0.0000 C   0  0  0  0  0  0  0  0  0
    6.2241   -2.6400    0.0000 C   0  0  0  0  0  0  0  0  0
    5.5097   -3.0525    0.0000 C   0  0  0  0  0  0  0  0  0
    4.7952   -2.6400    0.0000 C   0  0  0  0  0  0  0  0  0
  1  2  1  0  0  0  0
  1  5  1  0  0  0  0
  1  8  1  0  0  0  0
  2  3  1  0  0  0  0
  3  4  1  0  0  0  0
  5  6  1  0  0  0  0
  6  7  1  0  0  0  0
  8  9  1  0  0  0  0
  8 13  1  0  0  0  0
  9 10  1  0  0  0  0
 10 11  1  0  0  0  0
 11 12  1  0  0  0  0
 11 14  2  0  0  0  0
 12 13  1  0  0  0  0
 14 15  1  0  0  0  0
 14 23  1  0  0  0  0
 15 16  3  0  0  0  0
 16 17  1  0  0  0  0
 17 18  4  0  0  0  0
 17 22  4  0  0  0  0
 18 19  4  0  0  0  0
 19 20  4  0  0  0  0
 20 21  4  0  0  0  0
 21 22  4  0  0  0  0
 23 24  3  0  0  0  0
 24 25  1  0  0  0  0
 25 26  4  0  0  0  0
 25 30  4  0  0  0  0
 26 27  4  0  0  0  0
 27 28  4  0  0  0  0
 28 29  4  0  0  0  0
 29 30  4  0  0  0  0
M  END
>  <Name_Molregno>
274428

>  <DOPAMINE D2>
5.21

>  <DOPAMINE D3>
5.74

>  <DOPAMINE D4>
5.85

$$$$
274457
  Marvin  02231216192D 0   1.00000     0.00000     0

 18 18  0  0  0  0  0  0  0  0999 V2000
    1.2054    1.2375    0.0000 N   0  0  0  0  0  0  0  0  0
    0.4909    1.6500    0.0000 C   0  0  0  0  0  0  0  0  0
    0.4909    2.4750    0.0000 C   0  0  0  0  0  0  0  0  0
   -0.2236    2.8875    0.0000 C   0  0  0  0  0  0  0  0  0
    1.9198    1.6500    0.0000 C   0  0  0  0  0  0  0  0  0
    1.9198    2.4750    0.0000 C   0  0  0  0  0  0  0  0  0
    2.6343    2.8875    0.0000 C   0  0  0  0  0  0  0  0  0
    1.2054    0.4125    0.0000 C   0  0  0  0  0  0  0  0  0
    1.9198    0.0000    0.0000 C   0  0  0  0  0  0  0  0  0
    1.9198   -0.8250    0.0000 C   0  0  0  0  0  0  0  0  0
    1.2054   -1.2375    0.0000 C   0  0  0  0  0  0  0  0  0
    0.4909   -0.8250    0.0000 C   0  0  0  0  0  0  0  0  0
    0.4909    0.0000    0.0000 C   0  0  0  0  0  0  0  0  0
    1.2054   -2.0625    0.0000 C   0  0  0  0  0  0  0  0  0
    0.4909   -2.4750    0.0000 C   0  0  0  0  0  0  0  0  0
   -0.2236   -2.8875    0.0000 C   0  0  0  0  0  0  0  0  0
    1.9198   -2.4750    0.0000 C   0  0  0  0  0  0  0  0  0
    2.6343   -2.8875    0.0000 C   0  0  0  0  0  0  0  0  0
  1  2  1  0  0  0  0
  1  5  1  0  0  0  0
  1  8  1  0  0  0  0
  2  3  1  0  0  0  0
  3  4  1  0  0  0  0
  5  6  1  0  0  0  0
  6  7  1  0  0  0  0
  8  9  1  0  0  0  0
  8 13  1  0  0  0  0
  9 10  1  0  0  0  0
 10 11  1  0  0  0  0
 11 12  1  0  0  0  0
 11 14  2  0  0  0  0
 12 13  1  0  0  0  0
 14 15  1  0  0  0  0
 14 17  1  0  0  0  0
 15 16  3  0  0  0  0
 17 18  3  0  0  0  0
M  END
>  <Name_Molregno>
274457

>  <DOPAMINE D2>
4.81

>  <DOPAMINE D3>
5.36

>  <DOPAMINE D4>
5.41

$$$$
274460
  Marvin  02231216192D 0   1.00000     0.00000     0

 21 22  0  0  1  0  0  0  0  0999 V2000
    2.1046    2.1607    0.0000 N   0  0  0  0  0  0  0  0  0
    1.3901    2.5732    0.0000 C   0  0  0  0  0  0  0  0  0
    1.3901    3.3982    0.0000 C   0  0  0  0  0  0  0  0  0
    0.6756    3.8107    0.0000 C   0  0  0  0  0  0  0  0  0
    2.8191    2.5732    0.0000 C   0  0  0  0  0  0  0  0  0
    2.8191    3.3982    0.0000 C   0  0  0  0  0  0  0  0  0
    3.5335    3.8107    0.0000 C   0  0  0  0  0  0  0  0  0
    2.1046    1.3357    0.0000 C   0  0  0  0  0  0  0  0  0
    2.8191    0.9232    0.0000 C   0  0  0  0  0  0  0  0  0
    2.8191    0.0982    0.0000 C   0  0  0  0  0  0  0  0  0
    2.1046   -0.3143    0.0000 C   0  0  0  0  0  0  0  0  0
    1.3901    0.0982    0.0000 C   0  0  0  0  0  0  0  0  0
    1.3901    0.9232    0.0000 C   0  0  0  0  0  0  0  0  0
    2.1046   -1.1393    0.0000 C   0  0  0  0  0  0  0  0  0
    2.1046   -1.9643    0.0000 C   0  0  0  0  0  0  0  0  0
    2.1046   -2.7893    0.0000 C   0  0  0  0  0  0  0  0  0
    2.8191   -3.2018    0.0000 C   0  0  0  0  0  0  0  0  0
    2.8191   -4.0268    0.0000 C   0  0  0  0  0  0  0  0  0
    2.1046   -4.4393    0.0000 C   0  0  0  0  0  0  0  0  0
    1.3901   -4.0268    0.0000 C   0  0  0  0  0  0  0  0  0
    1.3901   -3.2018    0.0000 C   0  0  0  0  0  0  0  0  0
  1  2  1  0  0  0  0
  1  5  1  0  0  0  0
  1  8  1  0  0  0  0
  2  3  1  0  0  0  0
  3  4  1  0  0  0  0
  5  6  1  0  0  0  0
  6  7  1  0  0  0  0
  8  9  1  0  0  0  0
  8 13  1  0  0  0  0
  9 10  1  0  0  0  0
 10 11  1  0  0  0  0
 11 12  2  0  0  0  0
 11 14  1  0  0  0  0
 12 13  1  0  0  0  0
 14 15  3  0  0  0  0
 15 16  1  0  0  0  0
 16 17  4  0  0  0  0
 16 21  4  0  0  0  0
 17 18  4  0  0  0  0
 18 19  4  0  0  0  0
 19 20  4  0  0  0  0
 20 21  4  0  0  0  0
M  END
>  <Name_Molregno>
274460

>  <DOPAMINE D3>
5.46

>  <DOPAMINE D4>
4.8

$$$$
283865
  Marvin  02231216192D 0   1.00000     0.00000     0

 20 23  0  0  1  0  0  0  0  0999 V2000
    1.4267   -2.0633    0.0000 O   0  0  0  0  0  0  0  0  0
    1.1464   -1.2874    0.0000 C   0  0  0  0  0  0  0  0  0
    1.6783   -0.6567    0.0000 C   0  0  0  0  0  0  0  0  0
    2.4904   -0.8019    0.0000 N   0  0  0  0  0  0  0  0  0
    2.7707   -1.5778    0.0000 C   0  0  0  0  0  0  0  0  0
    2.2389   -2.2086    0.0000 C   0  0  0  0  0  0  0  0  0
    3.0222   -0.1712    0.0000 C   0  0  0  0  0  0  0  0  0
    3.8343   -0.3164    0.0000 C   0  0  0  0  0  0  0  0  0
    4.3661    0.3143    0.0000 C   0  0  0  0  0  0  0  0  0
    1.3980    0.1192    0.0000 C   0  0  0  0  0  0  0  0  0
    0.5858    0.2644    0.0000 O   0  0  0  0  0  0  0  0  0
    0.0540   -0.3663    0.0000 C   0  0  0  0  0  0  0  0  0
    0.3343   -1.1422    0.0000 C   0  0  0  0  0  0  0  0  0
   -0.1975   -1.7729    0.0000 C   0  0  0  0  0  0  0  0  0
   -1.0096   -1.6277    0.0000 C   0  0  0  0  0  0  0  0  0
   -1.6609   -2.1340    0.0000 O   0  0  0  0  0  0  0  0  0
   -2.3438   -1.6711    0.0000 C   0  0  0  0  0  0  0  0  0
   -2.1145   -0.8786    0.0000 C   0  0  0  0  0  0  0  0  0
   -1.2899   -0.8518    0.0000 C   0  0  0  0  0  0  0  0  0
   -0.7581   -0.2211    0.0000 C   0  0  0  0  0  0  0  0  0
  1  2  1  0  0  0  0
  1  6  1  0  0  0  0
  2  3  1  0  0  0  0
  2 13  1  0  0  0  0
  3  4  1  0  0  0  0
  3 10  1  0  0  0  0
  4  5  1  0  0  0  0
  4  7  1  0  0  0  0
  5  6  1  0  0  0  0
  7  8  1  0  0  0  0
  8  9  1  0  0  0  0
 10 11  1  0  0  0  0
 11 12  1  0  0  0  0
 12 13  4  0  0  0  0
 12 20  4  0  0  0  0
 13 14  4  0  0  0  0
 14 15  4  0  0  0  0
 15 16  1  0  0  0  0
 15 19  4  0  0  0  0
 16 17  1  0  0  0  0
 17 18  1  0  0  0  0
 18 19  1  0  0  0  0
 19 20  4  0  0  0  0
M  END
>  <Name_Molregno>
283865

>  <DOPAMINE D2>
4.45

>  <DOPAMINE D3>
5.65

$$$$
283888
  Marvin  02231216192D 0   1.00000     0.00000     0

 21 24  0  0  1  0  0  0  0  0999 V2000
   -0.1697   -2.0823    0.0000 O   0  0  0  0  0  0  0  0  0
   -0.4500   -1.3064    0.0000 C   0  0  0  0  0  0  0  0  0
    0.0818   -0.6757    0.0000 C   0  0  0  0  0  0  0  0  0
    0.8940   -0.8209    0.0000 N   0  0  0  0  0  0  0  0  0
    1.1743   -1.5968    0.0000 C   0  0  0  0  0  0  0  0  0
    0.6424   -2.2276    0.0000 C   0  0  0  0  0  0  0  0  0
    1.4258   -0.1902    0.0000 C   0  0  0  0  0  0  0  0  0
    2.2379   -0.3354    0.0000 C   0  0  0  0  0  0  0  0  0
    2.7697    0.2953    0.0000 C   0  0  0  0  0  0  0  0  0
    2.5182   -1.1114    0.0000 C   0  0  0  0  0  0  0  0  0
   -0.1985    0.1002    0.0000 C   0  0  0  0  0  0  0  0  0
   -1.0106    0.2454    0.0000 C   0  0  0  0  0  0  0  0  0
   -1.5424   -0.3853    0.0000 C   0  0  0  0  0  0  0  0  0
   -1.2621   -1.1612    0.0000 C   0  0  0  0  0  0  0  0  0
   -1.7939   -1.7919    0.0000 C   0  0  0  0  0  0  0  0  0
   -2.6060   -1.6467    0.0000 C   0  0  0  0  0  0  0  0  0
   -3.2574   -2.1530    0.0000 O   0  0  0  0  0  0  0  0  0
   -3.9402   -1.6901    0.0000 C   0  0  0  0  0  0  0  0  0
   -3.7109   -0.8976    0.0000 C   0  0  0  0  0  0  0  0  0
   -2.8863   -0.8708    0.0000 C   0  0  0  0  0  0  0  0  0
   -2.3545   -0.2401    0.0000 C   0  0  0  0  0  0  0  0  0
  1  2  1  0  0  0  0
  1  6  1  0  0  0  0
  2  3  1  0  0  0  0
  2 14  1  0  0  0  0
  3  4  1  0  0  0  0
  3 11  1  0  0  0  0
  4  5  1  0  0  0  0
  4  7  1  0  0  0  0
  5  6  1  0  0  0  0
  7  8  1  0  0  0  0
  8  9  1  0  0  0  0
  8 10  1  0  0  0  0
 11 12  1  0  0  0  0
 12 13  1  0  0  0  0
 13 14  4  0  0  0  0
 13 21  4  0  0  0  0
 14 15  4  0  0  0  0
 15 16  4  0  0  0  0
 16 17  1  0  0  0  0
 16 20  4  0  0  0  0
 17 18  1  0  0  0  0
 18 19  1  0  0  0  0
 19 20  1  0  0  0  0
 20 21  4  0  0  0  0
M  END
>  <Name_Molregno>
283888

>  <DOPAMINE D2>
5.3

>  <DOPAMINE D3>
6.9

$$$$
283889
  Marvin  02231216192D 0   1.00000     0.00000     0

 20 23  0  0  1  0  0  0  0  0999 V2000
    1.4267   -2.0633    0.0000 O   0  0  0  0  0  0  0  0  0
    1.1464   -1.2874    0.0000 C   0  0  0  0  0  0  0  0  0
    1.6783   -0.6567    0.0000 C   0  0  0  0  0  0  0  0  0
    2.4904   -0.8019    0.0000 N   0  0  0  0  0  0  0  0  0
    2.7707   -1.5778    0.0000 C   0  0  0  0  0  0  0  0  0
    2.2389   -2.2086    0.0000 C   0  0  0  0  0  0  0  0  0
    3.0222   -0.1712    0.0000 C   0  0  0  0  0  0  0  0  0
    3.8343   -0.3164    0.0000 C   0  0  0  0  0  0  0  0  0
    4.3661    0.3143    0.0000 C   0  0  0  0  0  0  0  0  0
    1.3980    0.1192    0.0000 C   0  0  0  0  0  0  0  0  0
    0.5858    0.2644    0.0000 C   0  0  0  0  0  0  0  0  0
    0.0540   -0.3663    0.0000 C   0  0  0  0  0  0  0  0  0
    0.3343   -1.1422    0.0000 C   0  0  0  0  0  0  0  0  0
   -0.1975   -1.7729    0.0000 C   0  0  0  0  0  0  0  0  0
   -1.0096   -1.6277    0.0000 C   0  0  0  0  0  0  0  0  0
   -1.6609   -2.1340    0.0000 O   0  0  0  0  0  0  0  0  0
   -2.3438   -1.6711    0.0000 C   0  0  0  0  0  0  0  0  0
   -2.1145   -0.8786    0.0000 C   0  0  0  0  0  0  0  0  0
   -1.2899   -0.8518    0.0000 C   0  0  0  0  0  0  0  0  0
   -0.7581   -0.2211    0.0000 C   0  0  0  0  0  0  0  0  0
  1  2  1  0  0  0  0
  1  6  1  0  0  0  0
  2  3  1  0  0  0  0
  2 13  1  0  0  0  0
  3  4  1  0  0  0  0
  3 10  1  0  0  0  0
  4  5  1  0  0  0  0
  4  7  1  0  0  0  0
  5  6  1  0  0  0  0
  7  8  1  0  0  0  0
  8  9  1  0  0  0  0
 10 11  1  0  0  0  0
 11 12  1  0  0  0  0
 12 13  4  0  0  0  0
 12 20  4  0  0  0  0
 13 14  4  0  0  0  0
 14 15  4  0  0  0  0
 15 16  1  0  0  0  0
 15 19  4  0  0  0  0
 16 17  1  0  0  0  0
 17 18  1  0  0  0  0
 18 19  1  0  0  0  0
 19 20  4  0  0  0  0
M  END
>  <Name_Molregno>
283889

>  <DOPAMINE D2>
5.7

>  <DOPAMINE D3>
6.5

$$$$
283995
  Marvin  02231216192D 0   1.00000     0.00000     0

 17 20  0  0  1  0  0  0  0  0999 V2000
    2.4136   -1.6651    0.0000 O   0  0  0  0  0  0  0  0  0
    2.1333   -0.8892    0.0000 C   0  0  0  0  0  0  0  0  0
    2.6651   -0.2585    0.0000 C   0  0  0  0  0  0  0  0  0
    3.4773   -0.4037    0.0000 N   0  0  0  0  0  0  0  0  0
    3.7576   -1.1796    0.0000 C   0  0  0  0  0  0  0  0  0
    3.2257   -1.8103    0.0000 C   0  0  0  0  0  0  0  0  0
    2.3848    0.5175    0.0000 C   0  0  0  0  0  0  0  0  0
    1.5727    0.6627    0.0000 C   0  0  0  0  0  0  0  0  0
    1.0409    0.0320    0.0000 C   0  0  0  0  0  0  0  0  0
    1.3212   -0.7440    0.0000 C   0  0  0  0  0  0  0  0  0
    0.7894   -1.3747    0.0000 C   0  0  0  0  0  0  0  0  0
   -0.0227   -1.2295    0.0000 C   0  0  0  0  0  0  0  0  0
   -0.6741   -1.7358    0.0000 O   0  0  0  0  0  0  0  0  0
   -1.3569   -1.2728    0.0000 C   0  0  0  0  0  0  0  0  0
   -1.1276   -0.4803    0.0000 C   0  0  0  0  0  0  0  0  0
   -0.3030   -0.4535    0.0000 C   0  0  0  0  0  0  0  0  0
    0.2288    0.1772    0.0000 C   0  0  0  0  0  0  0  0  0
  1  2  1  0  0  0  0
  1  6  1  0  0  0  0
  2  3  1  0  0  0  0
  2 10  1  0  0  0  0
  3  4  1  0  0  0  0
  3  7  1  0  0  0  0
  4  5  1  0  0  0  0
  5  6  1  0  0  0  0
  7  8  1  0  0  0  0
  8  9  1  0  0  0  0
  9 10  4  0  0  0  0
  9 17  4  0  0  0  0
 10 11  4  0  0  0  0
 11 12  4  0  0  0  0
 12 13  1  0  0  0  0
 12 16  4  0  0  0  0
 13 14  1  0  0  0  0
 14 15  1  0  0  0  0
 15 16  1  0  0  0  0
 16 17  4  0  0  0  0
M  END
>  <Name_Molregno>
283995

>  <DOPAMINE D2>
6

>  <DOPAMINE D3>
6.7

$$$$
283996
  Marvin  02231216192D 0   1.00000     0.00000     0

 18 21  0  0  1  0  0  0  0  0999 V2000
    2.1205   -1.7993    0.0000 O   0  0  0  0  0  0  0  0  0
    1.8402   -1.0234    0.0000 C   0  0  0  0  0  0  0  0  0
    2.3721   -0.3927    0.0000 C   0  0  0  0  0  0  0  0  0
    3.1842   -0.5379    0.0000 N   0  0  0  0  0  0  0  0  0
    3.4645   -1.3139    0.0000 C   0  0  0  0  0  0  0  0  0
    2.9327   -1.9446    0.0000 C   0  0  0  0  0  0  0  0  0
    3.7160    0.0928    0.0000 C   0  0  0  0  0  0  0  0  0
    2.0918    0.3832    0.0000 C   0  0  0  0  0  0  0  0  0
    1.2796    0.5284    0.0000 C   0  0  0  0  0  0  0  0  0
    0.7478   -0.1023    0.0000 C   0  0  0  0  0  0  0  0  0
    1.0281   -0.8782    0.0000 C   0  0  0  0  0  0  0  0  0
    0.4963   -1.5089    0.0000 C   0  0  0  0  0  0  0  0  0
   -0.3158   -1.3637    0.0000 C   0  0  0  0  0  0  0  0  0
   -0.9672   -1.8701    0.0000 O   0  0  0  0  0  0  0  0  0
   -1.6500   -1.4071    0.0000 C   0  0  0  0  0  0  0  0  0
   -1.4207   -0.6146    0.0000 C   0  0  0  0  0  0  0  0  0
   -0.5961   -0.5878    0.0000 C   0  0  0  0  0  0  0  0  0
   -0.0643    0.0429    0.0000 C   0  0  0  0  0  0  0  0  0
  1  2  1  0  0  0  0
  1  6  1  0  0  0  0
  2  3  1  0  0  0  0
  2 11  1  0  0  0  0
  3  4  1  0  0  0  0
  3  8  1  0  0  0  0
  4  5  1  0  0  0  0
  4  7  1  0  0  0  0
  5  6  1  0  0  0  0
  8  9  1  0  0  0  0
  9 10  1  0  0  0  0
 10 11  4  0  0  0  0
 10 18  4  0  0  0  0
 11 12  4  0  0  0  0
 12 13  4  0  0  0  0
 13 14  1  0  0  0  0
 13 17  4  0  0  0  0
 14 15  1  0  0  0  0
 15 16  1  0  0  0  0
 16 17  1  0  0  0  0
 17 18  4  0  0  0  0
M  END
>  <Name_Molregno>
283996

>  <DOPAMINE D2>
6.4

>  <DOPAMINE D3>
7.1

$$$$
283997
  Marvin  02231216192D 0   1.00000     0.00000     0

 21 25  0  0  1  0  0  0  0  0999 V2000
   -0.1629   -2.0817    0.0000 O   0  0  0  0  0  0  0  0  0
   -0.4432   -1.3058    0.0000 C   0  0  0  0  0  0  0  0  0
    0.0886   -0.6751    0.0000 C   0  0  0  0  0  0  0  0  0
    0.9008   -0.8203    0.0000 N   0  0  0  0  0  0  0  0  0
    1.1811   -1.5963    0.0000 C   0  0  0  0  0  0  0  0  0
    0.6492   -2.2270    0.0000 C   0  0  0  0  0  0  0  0  0
    1.4326   -0.1896    0.0000 C   0  0  0  0  0  0  0  0  0
    2.2447   -0.3348    0.0000 C   0  0  0  0  0  0  0  0  0
    3.0206   -0.0545    0.0000 C   0  0  0  0  0  0  0  0  0
    2.8754   -0.8667    0.0000 C   0  0  0  0  0  0  0  0  0
   -0.1917    0.1008    0.0000 C   0  0  0  0  0  0  0  0  0
   -1.0038    0.2460    0.0000 C   0  0  0  0  0  0  0  0  0
   -1.5356   -0.3847    0.0000 C   0  0  0  0  0  0  0  0  0
   -1.2553   -1.1606    0.0000 C   0  0  0  0  0  0  0  0  0
   -1.7871   -1.7913    0.0000 C   0  0  0  0  0  0  0  0  0
   -2.5992   -1.6461    0.0000 C   0  0  0  0  0  0  0  0  0
   -3.2506   -2.1525    0.0000 O   0  0  0  0  0  0  0  0  0
   -3.9334   -1.6895    0.0000 C   0  0  0  0  0  0  0  0  0
   -3.7041   -0.8970    0.0000 C   0  0  0  0  0  0  0  0  0
   -2.8795   -0.8702    0.0000 C   0  0  0  0  0  0  0  0  0
   -2.3477   -0.2395    0.0000 C   0  0  0  0  0  0  0  0  0
  1  2  1  0  0  0  0
  1  6  1  0  0  0  0
  2  3  1  0  0  0  0
  2 14  1  0  0  0  0
  3  4  1  0  0  0  0
  3 11  1  0  0  0  0
  4  5  1  0  0  0  0
  4  7  1  0  0  0  0
  5  6  1  0  0  0  0
  7  8  1  0  0  0  0
  8  9  1  0  0  0  0
  8 10  1  0  0  0  0
  9 10  1  0  0  0  0
 11 12  1  0  0  0  0
 12 13  1  0  0  0  0
 13 14  4  0  0  0  0
 13 21  4  0  0  0  0
 14 15  4  0  0  0  0
 15 16  4  0  0  0  0
 16 17  1  0  0  0  0
 16 20  4  0  0  0  0
 17 18  1  0  0  0  0
 18 19  1  0  0  0  0
 19 20  1  0  0  0  0
 20 21  4  0  0  0  0
M  END
>  <Name_Molregno>
283997

>  <DOPAMINE D2>
5.6

>  <DOPAMINE D3>
7.2

$$$$
285677
  Marvin  02231216192D 0   1.00000     0.00000     0

 25 29  0  0  1  0  0  0  0  0999 V2000
   -0.2728   -3.0050    0.0000 O   0  0  0  0  0  0  0  0  0
   -0.5531   -2.2291    0.0000 C   0  0  0  0  0  0  0  0  0
   -0.0213   -1.5984    0.0000 C   0  0  0  0  0  0  0  0  0
    0.7909   -1.7436    0.0000 N   0  0  0  0  0  0  0  0  0
    1.0712   -2.5195    0.0000 C   0  0  0  0  0  0  0  0  0
    0.5393   -3.1502    0.0000 C   0  0  0  0  0  0  0  0  0
    1.3227   -1.1129    0.0000 C   0  0  0  0  0  0  0  0  0
    2.1348   -1.2581    0.0000 C   0  0  0  0  0  0  0  0  0
    2.6666   -0.6274    0.0000 C   0  0  0  0  0  0  0  0  0
    2.3863    0.1485    0.0000 C   0  0  0  0  0  0  0  0  0
    2.9181    0.7792    0.0000 C   0  0  0  0  0  0  0  0  0
    3.7303    0.6340    0.0000 C   0  0  0  0  0  0  0  0  0
    4.0106   -0.1419    0.0000 C   0  0  0  0  0  0  0  0  0
    3.4787   -0.7726    0.0000 C   0  0  0  0  0  0  0  0  0
   -0.3016   -0.8224    0.0000 C   0  0  0  0  0  0  0  0  0
   -1.1137   -0.6772    0.0000 C   0  0  0  0  0  0  0  0  0
   -1.6455   -1.3079    0.0000 C   0  0  0  0  0  0  0  0  0
   -1.3652   -2.0839    0.0000 C   0  0  0  0  0  0  0  0  0
   -1.8970   -2.7146    0.0000 C   0  0  0  0  0  0  0  0  0
   -2.7091   -2.5694    0.0000 C   0  0  0  0  0  0  0  0  0
   -3.3605   -3.0757    0.0000 O   0  0  0  0  0  0  0  0  0
   -4.0433   -2.6127    0.0000 C   0  0  0  0  0  0  0  0  0
   -3.8140   -1.8202    0.0000 C   0  0  0  0  0  0  0  0  0
   -2.9894   -1.7934    0.0000 C   0  0  0  0  0  0  0  0  0
   -2.4576   -1.1627    0.0000 C   0  0  0  0  0  0  0  0  0
  1  2  1  0  0  0  0
  1  6  1  0  0  0  0
  2  3  1  0  0  0  0
  2 18  1  0  0  0  0
  3  4  1  0  0  0  0
  3 15  1  0  0  0  0
  4  5  1  0  0  0  0
  4  7  1  0  0  0  0
  5  6  1  0  0  0  0
  7  8  1  0  0  0  0
  8  9  1  0  0  0  0
  9 10  4  0  0  0  0
  9 14  4  0  0  0  0
 10 11  4  0  0  0  0
 11 12  4  0  0  0  0
 12 13  4  0  0  0  0
 13 14  4  0  0  0  0
 15 16  1  0  0  0  0
 16 17  1  0  0  0  0
 17 18  4  0  0  0  0
 17 25  4  0  0  0  0
 18 19  4  0  0  0  0
 19 20  4  0  0  0  0
 20 21  1  0  0  0  0
 20 24  4  0  0  0  0
 21 22  1  0  0  0  0
 22 23  1  0  0  0  0
 23 24  1  0  0  0  0
 24 25  4  0  0  0  0
M  END
>  <Name_Molregno>
285677

>  <DOPAMINE D2>
5

>  <DOPAMINE D3>
5

$$$$
285678
  Marvin  02231216192D 0   1.00000     0.00000     0

 24 28  0  0  1  0  0  0  0  0999 V2000
    0.0795   -2.2714    0.0000 O   0  0  0  0  0  0  0  0  0
   -0.2008   -1.4954    0.0000 C   0  0  0  0  0  0  0  0  0
    0.3310   -0.8647    0.0000 C   0  0  0  0  0  0  0  0  0
    1.1432   -1.0099    0.0000 N   0  0  0  0  0  0  0  0  0
    1.4235   -1.7859    0.0000 C   0  0  0  0  0  0  0  0  0
    0.8916   -2.4166    0.0000 C   0  0  0  0  0  0  0  0  0
    1.6750   -0.3792    0.0000 C   0  0  0  0  0  0  0  0  0
    2.4871   -0.5245    0.0000 C   0  0  0  0  0  0  0  0  0
    3.0189    0.1063    0.0000 C   0  0  0  0  0  0  0  0  0
    3.8310   -0.0390    0.0000 C   0  0  0  0  0  0  0  0  0
    4.1113   -0.8149    0.0000 C   0  0  0  0  0  0  0  0  0
    3.5795   -1.4456    0.0000 C   0  0  0  0  0  0  0  0  0
    2.7674   -1.3004    0.0000 C   0  0  0  0  0  0  0  0  0
    0.0507   -0.0888    0.0000 C   0  0  0  0  0  0  0  0  0
   -0.7614    0.0564    0.0000 C   0  0  0  0  0  0  0  0  0
   -1.2932   -0.5743    0.0000 C   0  0  0  0  0  0  0  0  0
   -1.0129   -1.3502    0.0000 C   0  0  0  0  0  0  0  0  0
   -1.5447   -1.9809    0.0000 C   0  0  0  0  0  0  0  0  0
   -2.3568   -1.8357    0.0000 C   0  0  0  0  0  0  0  0  0
   -3.0082   -2.3421    0.0000 O   0  0  0  0  0  0  0  0  0
   -3.6910   -1.8791    0.0000 C   0  0  0  0  0  0  0  0  0
   -3.4617   -1.0866    0.0000 C   0  0  0  0  0  0  0  0  0
   -2.6371   -1.0598    0.0000 C   0  0  0  0  0  0  0  0  0
   -2.1053   -0.4291    0.0000 C   0  0  0  0  0  0  0  0  0
  1  2  1  0  0  0  0
  1  6  1  0  0  0  0
  2  3  1  0  0  0  0
  2 17  1  0  0  0  0
  3  4  1  0  0  0  0
  3 14  1  0  0  0  0
  4  5  1  0  0  0  0
  4  7  1  0  0  0  0
  5  6  1  0  0  0  0
  7  8  1  0  0  0  0
  8  9  4  0  0  0  0
  8 13  4  0  0  0  0
  9 10  4  0  0  0  0
 10 11  4  0  0  0  0
 11 12  4  0  0  0  0
 12 13  4  0  0  0  0
 14 15  1  0  0  0  0
 15 16  1  0  0  0  0
 16 17  4  0  0  0  0
 16 24  4  0  0  0  0
 17 18  4  0  0  0  0
 18 19  4  0  0  0  0
 19 20  1  0  0  0  0
 19 23  4  0  0  0  0
 20 21  1  0  0  0  0
 21 22  1  0  0  0  0
 22 23  1  0  0  0  0
 23 24  4  0  0  0  0
M  END
>  <Name_Molregno>
285678

>  <DOPAMINE D2>
5

>  <DOPAMINE D3>
5

$$$$
285679
  Marvin  02231216192D 0   1.00000     0.00000     0

 20 23  0  0  1  0  0  0  0  0999 V2000
   -5.0579   -0.6224    0.0000 O   0  0  0  0  0  0  0  0  0
   -5.7407   -0.1595    0.0000 C   0  0  0  0  0  0  0  0  0
   -5.5114    0.6330    0.0000 C   0  0  0  0  0  0  0  0  0
   -4.6869    0.6598    0.0000 C   0  0  0  0  0  0  0  0  0
   -4.4066   -0.1161    0.0000 C   0  0  0  0  0  0  0  0  0
   -3.5944   -0.2613    0.0000 C   0  0  0  0  0  0  0  0  0
   -3.0626    0.3694    0.0000 C   0  0  0  0  0  0  0  0  0
   -2.2505    0.2242    0.0000 C   0  0  0  0  0  0  0  0  0
   -1.7187    0.8549    0.0000 C   0  0  0  0  0  0  0  0  0
   -0.9066    0.7097    0.0000 N   0  0  0  0  0  0  0  0  0
   -0.6263   -0.0662    0.0000 C   0  0  0  0  0  0  0  0  0
   -1.1581   -0.6970    0.0000 C   0  0  0  0  0  0  0  0  0
   -1.9702   -0.5517    0.0000 C   0  0  0  0  0  0  0  0  0
   -0.3747    1.3404    0.0000 C   0  0  0  0  0  0  0  0  0
    0.4374    1.1952    0.0000 C   0  0  0  0  0  0  0  0  0
    0.9692    1.8259    0.0000 C   0  0  0  0  0  0  0  0  0
   -1.9990    1.6308    0.0000 C   0  0  0  0  0  0  0  0  0
   -2.8111    1.7760    0.0000 C   0  0  0  0  0  0  0  0  0
   -3.3429    1.1453    0.0000 C   0  0  0  0  0  0  0  0  0
   -4.1550    1.2905    0.0000 C   0  0  0  0  0  0  0  0  0
  1  2  1  0  0  0  0
  1  5  1  0  0  0  0
  2  3  1  0  0  0  0
  3  4  1  0  0  0  0
  4  5  4  0  0  0  0
  4 20  4  0  0  0  0
  5  6  4  0  0  0  0
  6  7  4  0  0  0  0
  7  8  1  0  0  0  0
  7 19  4  0  0  0  0
  8  9  1  0  0  0  0
  8 13  1  0  0  0  0
  9 10  1  0  0  0  0
  9 17  1  0  0  0  0
 10 11  1  0  0  0  0
 10 14  1  0  0  0  0
 11 12  1  0  0  0  0
 12 13  1  0  0  0  0
 14 15  1  0  0  0  0
 15 16  1  0  0  0  0
 17 18  1  0  0  0  0
 18 19  1  0  0  0  0
 19 20  4  0  0  0  0
M  END
>  <Name_Molregno>
285679

>  <DOPAMINE D2>
6.3

>  <DOPAMINE D3>
7.6

$$$$
292963
  Marvin  02231216192D 0   1.00000     0.00000     0

 21 24  0  0  0  0  0  0  0  0999 V2000
    1.0851    1.0587    0.0000 S   0  0  0  0  0  0  0  0  0
    1.8243    0.6925    0.0000 C   0  0  0  0  0  0  0  0  0
    1.9989   -0.1138    0.0000 C   0  0  0  0  0  0  0  0  0
    2.7845   -0.3658    0.0000 C   0  0  0  0  0  0  0  0  0
    3.3955    0.1885    0.0000 C   0  0  0  0  0  0  0  0  0
    3.2209    0.9948    0.0000 C   0  0  0  0  0  0  0  0  0
    2.4353    1.2468    0.0000 C   0  0  0  0  0  0  0  0  0
    1.4774   -0.7531    0.0000 C   0  0  0  0  0  0  0  0  0
    1.8270   -1.5003    0.0000 N   0  0  0  0  0  0  0  0  0
    2.6489   -1.5712    0.0000 C   0  0  0  0  0  0  0  0  0
    2.9986   -2.3184    0.0000 C   0  0  0  0  0  0  0  0  0
    2.5262   -2.9948    0.0000 N   0  0  0  0  0  0  0  0  0
    1.7043   -2.9240    0.0000 C   0  0  0  0  0  0  0  0  0
    1.3546   -2.1767    0.0000 C   0  0  0  0  0  0  0  0  0
    2.8758   -3.7421    0.0000 C   0  0  0  0  0  0  0  0  0
    0.6524   -0.7438    0.0000 C   0  0  0  0  0  0  0  0  0
    0.1453   -0.0931    0.0000 N   0  0  0  0  0  0  0  0  0
    0.3378    0.7091    0.0000 C   0  0  0  0  0  0  0  0  0
   -0.3656    1.1401    0.0000 C   0  0  0  0  0  0  0  0  0
   -0.9929    0.6043    0.0000 C   0  0  0  0  0  0  0  0  0
   -0.6772   -0.1579    0.0000 C   0  0  0  0  0  0  0  0  0
  1  2  1  0  0  0  0
  1 18  1  0  0  0  0
  2  3  4  0  0  0  0
  2  7  4  0  0  0  0
  3  4  4  0  0  0  0
  3  8  1  0  0  0  0
  4  5  4  0  0  0  0
  5  6  4  0  0  0  0
  6  7  4  0  0  0  0
  8  9  1  0  0  0  0
  8 16  2  0  0  0  0
  9 10  1  0  0  0  0
  9 14  1  0  0  0  0
 10 11  1  0  0  0  0
 11 12  1  0  0  0  0
 12 13  1  0  0  0  0
 12 15  1  0  0  0  0
 13 14  1  0  0  0  0
 16 17  1  0  0  0  0
 17 18  4  0  0  0  0
 17 21  4  0  0  0  0
 18 19  4  0  0  0  0
 19 20  4  0  0  0  0
 20 21  4  0  0  0  0
M  END
>  <Name_Molregno>
292963

>  <DOPAMINE D1>
7.71

>  <DOPAMINE D2>
7.76

>  <DOPAMINE D3>
8.08

$$$$
293106
  Marvin  02231216192D 0   1.00000     0.00000     0

 22 25  0  0  0  0  0  0  0  0999 V2000
    1.0170    1.1356    0.0000 S   0  0  0  0  0  0  0  0  0
    1.7563    0.7694    0.0000 C   0  0  0  0  0  0  0  0  0
    1.9309   -0.0369    0.0000 C   0  0  0  0  0  0  0  0  0
    2.7164   -0.2889    0.0000 C   0  0  0  0  0  0  0  0  0
    3.3274    0.2655    0.0000 C   0  0  0  0  0  0  0  0  0
    4.1130    0.0135    0.0000 F   0  0  0  0  0  0  0  0  0
    3.1529    1.0718    0.0000 C   0  0  0  0  0  0  0  0  0
    2.3673    1.3238    0.0000 C   0  0  0  0  0  0  0  0  0
    1.4093   -0.6761    0.0000 C   0  0  0  0  0  0  0  0  0
    1.7589   -1.4234    0.0000 N   0  0  0  0  0  0  0  0  0
    2.5809   -1.4942    0.0000 C   0  0  0  0  0  0  0  0  0
    2.9305   -2.2415    0.0000 C   0  0  0  0  0  0  0  0  0
    2.4582   -2.9179    0.0000 N   0  0  0  0  0  0  0  0  0
    1.6362   -2.8470    0.0000 C   0  0  0  0  0  0  0  0  0
    1.2866   -2.0998    0.0000 C   0  0  0  0  0  0  0  0  0
    2.8078   -3.6651    0.0000 C   0  0  0  0  0  0  0  0  0
    0.5844   -0.6669    0.0000 C   0  0  0  0  0  0  0  0  0
    0.0772   -0.0162    0.0000 N   0  0  0  0  0  0  0  0  0
    0.2698    0.7860    0.0000 C   0  0  0  0  0  0  0  0  0
   -0.4337    1.2171    0.0000 C   0  0  0  0  0  0  0  0  0
   -1.0610    0.6812    0.0000 C   0  0  0  0  0  0  0  0  0
   -0.7452   -0.0809    0.0000 C   0  0  0  0  0  0  0  0  0
  1  2  1  0  0  0  0
  1 19  1  0  0  0  0
  2  3  4  0  0  0  0
  2  8  4  0  0  0  0
  3  4  4  0  0  0  0
  3  9  1  0  0  0  0
  4  5  4  0  0  0  0
  5  6  1  0  0  0  0
  5  7  4  0  0  0  0
  7  8  4  0  0  0  0
  9 10  1  0  0  0  0
  9 17  2  0  0  0  0
 10 11  1  0  0  0  0
 10 15  1  0  0  0  0
 11 12  1  0  0  0  0
 12 13  1  0  0  0  0
 13 14  1  0  0  0  0
 13 16  1  0  0  0  0
 14 15  1  0  0  0  0
 17 18  1  0  0  0  0
 18 19  4  0  0  0  0
 18 22  4  0  0  0  0
 19 20  4  0  0  0  0
 20 21  4  0  0  0  0
 21 22  4  0  0  0  0
M  END
>  <Name_Molregno>
293106

>  <DOPAMINE D1>
8.11

>  <DOPAMINE D2>
8.07

>  <DOPAMINE D3>
8.57

$$$$
293107
  Marvin  02231216192D 0   1.00000     0.00000     0

 22 25  0  0  0  0  0  0  0  0999 V2000
    3.2813    1.8112    0.0000 Cl  0  0  0  0  0  0  0  0  0
    2.4957    1.5592    0.0000 C   0  0  0  0  0  0  0  0  0
    1.8847    2.1135    0.0000 C   0  0  0  0  0  0  0  0  0
    1.0991    1.8616    0.0000 C   0  0  0  0  0  0  0  0  0
    0.9245    1.0553    0.0000 C   0  0  0  0  0  0  0  0  0
    0.1853    0.6890    0.0000 S   0  0  0  0  0  0  0  0  0
   -0.5620    1.0386    0.0000 C   0  0  0  0  0  0  0  0  0
   -0.7546    1.8409    0.0000 N   0  0  0  0  0  0  0  0  0
   -0.2474    2.4916    0.0000 C   0  0  0  0  0  0  0  0  0
    0.5775    2.5008    0.0000 C   0  0  0  0  0  0  0  0  0
    0.9272    3.2481    0.0000 N   0  0  0  0  0  0  0  0  0
    0.4548    3.9245    0.0000 C   0  0  0  0  0  0  0  0  0
    0.8044    4.6717    0.0000 C   0  0  0  0  0  0  0  0  0
    1.6264    4.7426    0.0000 N   0  0  0  0  0  0  0  0  0
    2.0987    4.0662    0.0000 C   0  0  0  0  0  0  0  0  0
    1.7491    3.3189    0.0000 C   0  0  0  0  0  0  0  0  0
    1.9760    5.4898    0.0000 C   0  0  0  0  0  0  0  0  0
   -1.5770    1.9056    0.0000 C   0  0  0  0  0  0  0  0  0
   -1.8928    1.1434    0.0000 C   0  0  0  0  0  0  0  0  0
   -1.2654    0.6076    0.0000 C   0  0  0  0  0  0  0  0  0
    1.5355    0.5009    0.0000 C   0  0  0  0  0  0  0  0  0
    2.3211    0.7529    0.0000 C   0  0  0  0  0  0  0  0  0
  1  2  1  0  0  0  0
  2  3  4  0  0  0  0
  2 22  4  0  0  0  0
  3  4  4  0  0  0  0
  4  5  4  0  0  0  0
  4 10  1  0  0  0  0
  5  6  1  0  0  0  0
  5 21  4  0  0  0  0
  6  7  1  0  0  0  0
  7  8  4  0  0  0  0
  7 20  4  0  0  0  0
  8  9  1  0  0  0  0
  8 18  4  0  0  0  0
  9 10  2  0  0  0  0
 10 11  1  0  0  0  0
 11 12  1  0  0  0  0
 11 16  1  0  0  0  0
 12 13  1  0  0  0  0
 13 14  1  0  0  0  0
 14 15  1  0  0  0  0
 14 17  1  0  0  0  0
 15 16  1  0  0  0  0
 18 19  4  0  0  0  0
 19 20  4  0  0  0  0
 21 22  4  0  0  0  0
M  END
>  <Name_Molregno>
293107

>  <DOPAMINE D1>
8.72

>  <DOPAMINE D2>
9.37

>  <DOPAMINE D3>
8.7

$$$$
294514
  Marvin  02231216192D 0   1.00000     0.00000     0

 22 25  0  0  0  0  0  0  0  0999 V2000
    1.1411    0.9642    0.0000 S   0  0  0  0  0  0  0  0  0
    1.8804    0.5980    0.0000 C   0  0  0  0  0  0  0  0  0
    2.0550   -0.2083    0.0000 C   0  0  0  0  0  0  0  0  0
    2.8405   -0.4603    0.0000 C   0  0  0  0  0  0  0  0  0
    3.4515    0.0940    0.0000 C   0  0  0  0  0  0  0  0  0
    3.2770    0.9004    0.0000 C   0  0  0  0  0  0  0  0  0
    2.4914    1.1523    0.0000 C   0  0  0  0  0  0  0  0  0
    1.5334   -0.8475    0.0000 C   0  0  0  0  0  0  0  0  0
    1.8830   -1.5948    0.0000 N   0  0  0  0  0  0  0  0  0
    2.7050   -1.6656    0.0000 C   0  0  0  0  0  0  0  0  0
    3.0546   -2.4129    0.0000 C   0  0  0  0  0  0  0  0  0
    2.5823   -3.0893    0.0000 N   0  0  0  0  0  0  0  0  0
    1.7603   -3.0185    0.0000 C   0  0  0  0  0  0  0  0  0
    1.4107   -2.2712    0.0000 C   0  0  0  0  0  0  0  0  0
    2.9319   -3.8366    0.0000 C   0  0  0  0  0  0  0  0  0
    0.7085   -0.8383    0.0000 C   0  0  0  0  0  0  0  0  0
    0.2013   -0.1876    0.0000 N   0  0  0  0  0  0  0  0  0
    0.3939    0.6146    0.0000 C   0  0  0  0  0  0  0  0  0
   -0.3096    1.0456    0.0000 C   0  0  0  0  0  0  0  0  0
   -0.9369    0.5098    0.0000 C   0  0  0  0  0  0  0  0  0
   -0.6211   -0.2524    0.0000 C   0  0  0  0  0  0  0  0  0
   -1.0522   -0.9558    0.0000 C   0  0  0  0  0  0  0  0  0
  1  2  1  0  0  0  0
  1 18  1  0  0  0  0
  2  3  4  0  0  0  0
  2  7  4  0  0  0  0
  3  4  4  0  0  0  0
  3  8  1  0  0  0  0
  4  5  4  0  0  0  0
  5  6  4  0  0  0  0
  6  7  4  0  0  0  0
  8  9  1  0  0  0  0
  8 16  2  0  0  0  0
  9 10  1  0  0  0  0
  9 14  1  0  0  0  0
 10 11  1  0  0  0  0
 11 12  1  0  0  0  0
 12 13  1  0  0  0  0
 12 15  1  0  0  0  0
 13 14  1  0  0  0  0
 16 17  1  0  0  0  0
 17 18  4  0  0  0  0
 17 21  4  0  0  0  0
 18 19  4  0  0  0  0
 19 20  4  0  0  0  0
 20 21  4  0  0  0  0
 21 22  1  0  0  0  0
M  END
>  <Name_Molregno>
294514

>  <DOPAMINE D1>
7.15

>  <DOPAMINE D2>
6.9

>  <DOPAMINE D3>
7.74

$$$$
294635
  Marvin  02231216192D 0   1.00000     0.00000     0

 23 26  0  0  0  0  0  0  0  0999 V2000
    3.0939    1.7742    0.0000 Cl  0  0  0  0  0  0  0  0  0
    2.3083    1.5222    0.0000 C   0  0  0  0  0  0  0  0  0
    1.6973    2.0766    0.0000 C   0  0  0  0  0  0  0  0  0
    0.9118    1.8246    0.0000 C   0  0  0  0  0  0  0  0  0
    0.7372    1.0183    0.0000 C   0  0  0  0  0  0  0  0  0
   -0.0021    0.6520    0.0000 S   0  0  0  0  0  0  0  0  0
   -0.7493    1.0017    0.0000 C   0  0  0  0  0  0  0  0  0
   -0.9419    1.8039    0.0000 N   0  0  0  0  0  0  0  0  0
   -0.4348    2.4546    0.0000 C   0  0  0  0  0  0  0  0  0
    0.3902    2.4638    0.0000 C   0  0  0  0  0  0  0  0  0
    0.7398    3.2111    0.0000 N   0  0  0  0  0  0  0  0  0
    0.2183    3.8503    0.0000 C   0  0  0  0  0  0  0  0  0
    0.3928    4.6566    0.0000 C   0  0  0  0  0  0  0  0  0
    1.1321    5.0228    0.0000 C   0  0  0  0  0  0  0  0  0
    1.8793    4.6732    0.0000 N   0  0  0  0  0  0  0  0  0
    2.0719    3.8710    0.0000 C   0  0  0  0  0  0  0  0  0
    1.5648    3.2203    0.0000 C   0  0  0  0  0  0  0  0  0
    2.5186    5.1948    0.0000 C   0  0  0  0  0  0  0  0  0
   -1.7643    1.8686    0.0000 C   0  0  0  0  0  0  0  0  0
   -2.0801    1.1064    0.0000 C   0  0  0  0  0  0  0  0  0
   -1.4528    0.5706    0.0000 C   0  0  0  0  0  0  0  0  0
    1.3482    0.4639    0.0000 C   0  0  0  0  0  0  0  0  0
    2.1338    0.7159    0.0000 C   0  0  0  0  0  0  0  0  0
  1  2  1  0  0  0  0
  2  3  4  0  0  0  0
  2 23  4  0  0  0  0
  3  4  4  0  0  0  0
  4  5  4  0  0  0  0
  4 10  1  0  0  0  0
  5  6  1  0  0  0  0
  5 22  4  0  0  0  0
  6  7  1  0  0  0  0
  7  8  4  0  0  0  0
  7 21  4  0  0  0  0
  8  9  1  0  0  0  0
  8 19  4  0  0  0  0
  9 10  2  0  0  0  0
 10 11  1  0  0  0  0
 11 12  1  0  0  0  0
 11 17  1  0  0  0  0
 12 13  1  0  0  0  0
 13 14  1  0  0  0  0
 14 15  1  0  0  0  0
 15 16  1  0  0  0  0
 15 18  1  0  0  0  0
 16 17  1  0  0  0  0
 19 20  4  0  0  0  0
 20 21  4  0  0  0  0
 22 23  4  0  0  0  0
M  END
>  <Name_Molregno>
294635

>  <DOPAMINE D1>
8.23

>  <DOPAMINE D2>
8.46

>  <DOPAMINE D3>
8.37

$$$$
295617
  Marvin  02231216192D 0   1.00000     0.00000     0

 23 26  0  0  0  0  0  0  0  0999 V2000
    0.6213    0.3276    0.0000 S   0  0  0  0  0  0  0  0  0
    1.3606   -0.0386    0.0000 C   0  0  0  0  0  0  0  0  0
    1.5352   -0.8450    0.0000 C   0  0  0  0  0  0  0  0  0
    2.3207   -1.0969    0.0000 C   0  0  0  0  0  0  0  0  0
    2.9317   -0.5426    0.0000 C   0  0  0  0  0  0  0  0  0
    2.7572    0.2637    0.0000 C   0  0  0  0  0  0  0  0  0
    1.9716    0.5157    0.0000 C   0  0  0  0  0  0  0  0  0
    1.0136   -1.4842    0.0000 C   0  0  0  0  0  0  0  0  0
    1.3632   -2.2314    0.0000 N   0  0  0  0  0  0  0  0  0
    2.1852   -2.3023    0.0000 C   0  0  0  0  0  0  0  0  0
    2.5348   -3.0495    0.0000 C   0  0  0  0  0  0  0  0  0
    2.0625   -3.7259    0.0000 N   0  0  0  0  0  0  0  0  0
    1.2405   -3.6551    0.0000 C   0  0  0  0  0  0  0  0  0
    0.8909   -2.9078    0.0000 C   0  0  0  0  0  0  0  0  0
    2.4121   -4.4732    0.0000 C   0  0  0  0  0  0  0  0  0
    0.1887   -1.4750    0.0000 C   0  0  0  0  0  0  0  0  0
   -0.3185   -0.8242    0.0000 N   0  0  0  0  0  0  0  0  0
   -0.1259   -0.0220    0.0000 C   0  0  0  0  0  0  0  0  0
   -0.8294    0.4090    0.0000 C   0  0  0  0  0  0  0  0  0
   -1.4567   -0.1268    0.0000 C   0  0  0  0  0  0  0  0  0
   -1.1409   -0.8890    0.0000 C   0  0  0  0  0  0  0  0  0
   -1.5720   -1.5924    0.0000 C   0  0  0  0  0  0  0  0  0
   -1.1783   -2.3174    0.0000 O   0  0  0  0  0  0  0  0  0
  1  2  1  0  0  0  0
  1 18  1  0  0  0  0
  2  3  4  0  0  0  0
  2  7  4  0  0  0  0
  3  4  4  0  0  0  0
  3  8  1  0  0  0  0
  4  5  4  0  0  0  0
  5  6  4  0  0  0  0
  6  7  4  0  0  0  0
  8  9  1  0  0  0  0
  8 16  2  0  0  0  0
  9 10  1  0  0  0  0
  9 14  1  0  0  0  0
 10 11  1  0  0  0  0
 11 12  1  0  0  0  0
 12 13  1  0  0  0  0
 12 15  1  0  0  0  0
 13 14  1  0  0  0  0
 16 17  1  0  0  0  0
 17 18  4  0  0  0  0
 17 21  4  0  0  0  0
 18 19  4  0  0  0  0
 19 20  4  0  0  0  0
 20 21  4  0  0  0  0
 21 22  1  0  0  0  0
 22 23  1  0  0  0  0
M  END
>  <Name_Molregno>
295617

>  <DOPAMINE D1>
5.76

>  <DOPAMINE D2>
6.07

>  <DOPAMINE D3>
6.95

$$$$
295621
  Marvin  02231216192D 0   1.00000     0.00000     0

 26 29  0  0  0  0  0  0  0  0999 V2000
   -0.1188    0.1555    0.0000 S   0  0  0  0  0  0  0  0  0
    0.6205   -0.2107    0.0000 C   0  0  0  0  0  0  0  0  0
    0.7951   -1.0171    0.0000 C   0  0  0  0  0  0  0  0  0
    1.5806   -1.2690    0.0000 C   0  0  0  0  0  0  0  0  0
    2.1916   -0.7147    0.0000 C   0  0  0  0  0  0  0  0  0
    2.0171    0.0916    0.0000 C   0  0  0  0  0  0  0  0  0
    1.2315    0.3436    0.0000 C   0  0  0  0  0  0  0  0  0
    0.2735   -1.6563    0.0000 C   0  0  0  0  0  0  0  0  0
    0.6231   -2.4035    0.0000 N   0  0  0  0  0  0  0  0  0
    1.4451   -2.4744    0.0000 C   0  0  0  0  0  0  0  0  0
    1.7947   -3.2216    0.0000 C   0  0  0  0  0  0  0  0  0
    1.3224   -3.8980    0.0000 N   0  0  0  0  0  0  0  0  0
    0.5004   -3.8272    0.0000 C   0  0  0  0  0  0  0  0  0
    0.1508   -3.0799    0.0000 C   0  0  0  0  0  0  0  0  0
    1.6720   -4.6453    0.0000 C   0  0  0  0  0  0  0  0  0
   -0.5514   -1.6471    0.0000 C   0  0  0  0  0  0  0  0  0
   -1.0586   -0.9963    0.0000 N   0  0  0  0  0  0  0  0  0
   -0.8660   -0.1941    0.0000 C   0  0  0  0  0  0  0  0  0
   -1.5695    0.2369    0.0000 C   0  0  0  0  0  0  0  0  0
   -2.1968   -0.2989    0.0000 C   0  0  0  0  0  0  0  0  0
   -1.8810   -1.0611    0.0000 C   0  0  0  0  0  0  0  0  0
   -2.3121   -1.7645    0.0000 C   0  0  0  0  0  0  0  0  0
   -1.9184   -2.4896    0.0000 O   0  0  0  0  0  0  0  0  0
   -2.3494   -3.1930    0.0000 C   0  0  0  0  0  0  0  0  0
   -1.9557   -3.9180    0.0000 C   0  0  0  0  0  0  0  0  0
   -3.1741   -3.1714    0.0000 C   0  0  0  0  0  0  0  0  0
  1  2  1  0  0  0  0
  1 18  1  0  0  0  0
  2  3  4  0  0  0  0
  2  7  4  0  0  0  0
  3  4  4  0  0  0  0
  3  8  1  0  0  0  0
  4  5  4  0  0  0  0
  5  6  4  0  0  0  0
  6  7  4  0  0  0  0
  8  9  1  0  0  0  0
  8 16  2  0  0  0  0
  9 10  1  0  0  0  0
  9 14  1  0  0  0  0
 10 11  1  0  0  0  0
 11 12  1  0  0  0  0
 12 13  1  0  0  0  0
 12 15  1  0  0  0  0
 13 14  1  0  0  0  0
 16 17  1  0  0  0  0
 17 18  4  0  0  0  0
 17 21  4  0  0  0  0
 18 19  4  0  0  0  0
 19 20  4  0  0  0  0
 20 21  4  0  0  0  0
 21 22  1  0  0  0  0
 22 23  1  0  0  0  0
 23 24  1  0  0  0  0
 24 25  1  0  0  0  0
 24 26  1  0  0  0  0
M  END
>  <Name_Molregno>
295621

>  <DOPAMINE D1>
5.12

>  <DOPAMINE D2>
5.42

>  <DOPAMINE D3>
6.56

$$$$
295622
  Marvin  02231216192D 0   1.00000     0.00000     0

 24 27  0  0  0  0  0  0  0  0999 V2000
    0.6507    0.2073    0.0000 S   0  0  0  0  0  0  0  0  0
    1.3900   -0.1589    0.0000 C   0  0  0  0  0  0  0  0  0
    1.5646   -0.9652    0.0000 C   0  0  0  0  0  0  0  0  0
    2.3502   -1.2172    0.0000 C   0  0  0  0  0  0  0  0  0
    2.9612   -0.6629    0.0000 C   0  0  0  0  0  0  0  0  0
    2.7866    0.1434    0.0000 C   0  0  0  0  0  0  0  0  0
    2.0010    0.3954    0.0000 C   0  0  0  0  0  0  0  0  0
    1.0430   -1.6045    0.0000 C   0  0  0  0  0  0  0  0  0
    1.3926   -2.3517    0.0000 N   0  0  0  0  0  0  0  0  0
    2.2146   -2.4226    0.0000 C   0  0  0  0  0  0  0  0  0
    2.5642   -3.1698    0.0000 C   0  0  0  0  0  0  0  0  0
    2.0919   -3.8462    0.0000 N   0  0  0  0  0  0  0  0  0
    1.2699   -3.7754    0.0000 C   0  0  0  0  0  0  0  0  0
    0.9203   -3.0281    0.0000 C   0  0  0  0  0  0  0  0  0
    2.4415   -4.5935    0.0000 C   0  0  0  0  0  0  0  0  0
    0.2181   -1.5952    0.0000 C   0  0  0  0  0  0  0  0  0
   -0.2891   -0.9445    0.0000 N   0  0  0  0  0  0  0  0  0
   -0.0965   -0.1423    0.0000 C   0  0  0  0  0  0  0  0  0
   -0.8000    0.2887    0.0000 C   0  0  0  0  0  0  0  0  0
   -1.4273   -0.2471    0.0000 C   0  0  0  0  0  0  0  0  0
   -1.1115   -1.0093    0.0000 C   0  0  0  0  0  0  0  0  0
   -1.5426   -1.7127    0.0000 C   0  0  0  0  0  0  0  0  0
   -2.3673   -1.6912    0.0000 N   0  0  0  0  0  0  0  0  0
   -2.7983   -2.3946    0.0000 O   0  0  0  0  0  0  0  0  0
  1  2  1  0  0  0  0
  1 18  1  0  0  0  0
  2  3  4  0  0  0  0
  2  7  4  0  0  0  0
  3  4  4  0  0  0  0
  3  8  1  0  0  0  0
  4  5  4  0  0  0  0
  5  6  4  0  0  0  0
  6  7  4  0  0  0  0
  8  9  1  0  0  0  0
  8 16  2  0  0  0  0
  9 10  1  0  0  0  0
  9 14  1  0  0  0  0
 10 11  1  0  0  0  0
 11 12  1  0  0  0  0
 12 13  1  0  0  0  0
 12 15  1  0  0  0  0
 13 14  1  0  0  0  0
 16 17  1  0  0  0  0
 17 18  4  0  0  0  0
 17 21  4  0  0  0  0
 18 19  4  0  0  0  0
 19 20  4  0  0  0  0
 20 21  4  0  0  0  0
 21 22  1  0  0  0  0
 22 23  2  0  0  0  0
 23 24  1  0  0  0  0
M  END
>  <Name_Molregno>
295622

>  <DOPAMINE D3>
5.37

$$$$
295697
  Marvin  02231216192D 0   1.00000     0.00000     0

 22 25  0  0  0  0  0  0  0  0999 V2000
    3.2813    1.8112    0.0000 Br  0  0  0  0  0  0  0  0  0
    2.4957    1.5592    0.0000 C   0  0  0  0  0  0  0  0  0
    1.8847    2.1135    0.0000 C   0  0  0  0  0  0  0  0  0
    1.0991    1.8616    0.0000 C   0  0  0  0  0  0  0  0  0
    0.9245    1.0553    0.0000 C   0  0  0  0  0  0  0  0  0
    0.1853    0.6890    0.0000 S   0  0  0  0  0  0  0  0  0
   -0.5620    1.0386    0.0000 C   0  0  0  0  0  0  0  0  0
   -0.7546    1.8409    0.0000 N   0  0  0  0  0  0  0  0  0
   -0.2474    2.4916    0.0000 C   0  0  0  0  0  0  0  0  0
    0.5775    2.5008    0.0000 C   0  0  0  0  0  0  0  0  0
    0.9272    3.2481    0.0000 N   0  0  0  0  0  0  0  0  0
    0.4548    3.9245    0.0000 C   0  0  0  0  0  0  0  0  0
    0.8044    4.6717    0.0000 C   0  0  0  0  0  0  0  0  0
    1.6264    4.7426    0.0000 N   0  0  0  0  0  0  0  0  0
    2.0987    4.0662    0.0000 C   0  0  0  0  0  0  0  0  0
    1.7491    3.3189    0.0000 C   0  0  0  0  0  0  0  0  0
    1.9760    5.4898    0.0000 C   0  0  0  0  0  0  0  0  0
   -1.5770    1.9056    0.0000 C   0  0  0  0  0  0  0  0  0
   -1.8928    1.1434    0.0000 C   0  0  0  0  0  0  0  0  0
   -1.2654    0.6076    0.0000 C   0  0  0  0  0  0  0  0  0
    1.5355    0.5009    0.0000 C   0  0  0  0  0  0  0  0  0
    2.3211    0.7529    0.0000 C   0  0  0  0  0  0  0  0  0
  1  2  1  0  0  0  0
  2  3  4  0  0  0  0
  2 22  4  0  0  0  0
  3  4  4  0  0  0  0
  4  5  4  0  0  0  0
  4 10  1  0  0  0  0
  5  6  1  0  0  0  0
  5 21  4  0  0  0  0
  6  7  1  0  0  0  0
  7  8  4  0  0  0  0
  7 20  4  0  0  0  0
  8  9  1  0  0  0  0
  8 18  4  0  0  0  0
  9 10  2  0  0  0  0
 10 11  1  0  0  0  0
 11 12  1  0  0  0  0
 11 16  1  0  0  0  0
 12 13  1  0  0  0  0
 13 14  1  0  0  0  0
 14 15  1  0  0  0  0
 14 17  1  0  0  0  0
 15 16  1  0  0  0  0
 18 19  4  0  0  0  0
 19 20  4  0  0  0  0
 21 22  4  0  0  0  0
M  END
>  <Name_Molregno>
295697

>  <DOPAMINE D1>
8.47

>  <DOPAMINE D2>
9.35

>  <DOPAMINE D3>
9.6

$$$$
295698
  Marvin  02231216192D 0   1.00000     0.00000     0

 23 26  0  0  0  0  0  0  0  0999 V2000
    0.6213    0.3276    0.0000 S   0  0  0  0  0  0  0  0  0
    1.3606   -0.0386    0.0000 C   0  0  0  0  0  0  0  0  0
    1.5352   -0.8450    0.0000 C   0  0  0  0  0  0  0  0  0
    2.3207   -1.0969    0.0000 C   0  0  0  0  0  0  0  0  0
    2.9317   -0.5426    0.0000 C   0  0  0  0  0  0  0  0  0
    2.7572    0.2637    0.0000 C   0  0  0  0  0  0  0  0  0
    1.9716    0.5157    0.0000 C   0  0  0  0  0  0  0  0  0
    1.0136   -1.4842    0.0000 C   0  0  0  0  0  0  0  0  0
    1.3632   -2.2314    0.0000 N   0  0  0  0  0  0  0  0  0
    2.1852   -2.3023    0.0000 C   0  0  0  0  0  0  0  0  0
    2.5348   -3.0495    0.0000 C   0  0  0  0  0  0  0  0  0
    2.0625   -3.7259    0.0000 N   0  0  0  0  0  0  0  0  0
    1.2405   -3.6551    0.0000 C   0  0  0  0  0  0  0  0  0
    0.8909   -2.9078    0.0000 C   0  0  0  0  0  0  0  0  0
    2.4121   -4.4732    0.0000 C   0  0  0  0  0  0  0  0  0
    0.1887   -1.4750    0.0000 C   0  0  0  0  0  0  0  0  0
   -0.3185   -0.8242    0.0000 N   0  0  0  0  0  0  0  0  0
   -0.1259   -0.0220    0.0000 C   0  0  0  0  0  0  0  0  0
   -0.8294    0.4090    0.0000 C   0  0  0  0  0  0  0  0  0
   -1.4567   -0.1268    0.0000 C   0  0  0  0  0  0  0  0  0
   -1.1409   -0.8890    0.0000 C   0  0  0  0  0  0  0  0  0
   -1.5720   -1.5924    0.0000 C   0  0  0  0  0  0  0  0  0
   -1.1783   -2.3174    0.0000 O   0  0  0  0  0  0  0  0  0
  1  2  1  0  0  0  0
  1 18  1  0  0  0  0
  2  3  4  0  0  0  0
  2  7  4  0  0  0  0
  3  4  4  0  0  0  0
  3  8  1  0  0  0  0
  4  5  4  0  0  0  0
  5  6  4  0  0  0  0
  6  7  4  0  0  0  0
  8  9  1  0  0  0  0
  8 16  2  0  0  0  0
  9 10  1  0  0  0  0
  9 14  1  0  0  0  0
 10 11  1  0  0  0  0
 11 12  1  0  0  0  0
 12 13  1  0  0  0  0
 12 15  1  0  0  0  0
 13 14  1  0  0  0  0
 16 17  1  0  0  0  0
 17 18  4  0  0  0  0
 17 21  4  0  0  0  0
 18 19  4  0  0  0  0
 19 20  4  0  0  0  0
 20 21  4  0  0  0  0
 21 22  1  0  0  0  0
 22 23  2  0  0  0  0
M  END
>  <Name_Molregno>
295698

>  <DOPAMINE D1>
5.37

>  <DOPAMINE D2>
5.87

>  <DOPAMINE D3>
6.99

$$$$
296747
  Marvin  02231216192D 0   1.00000     0.00000     0

 36 40  0  0  1  0  0  0  0  0999 V2000
    2.0923    2.6223    0.0000 O   0  0  0  0  0  0  0  0  0
    1.3285    2.9341    0.0000 N   0  0  0  0  0  0  0  0  0
    0.7959    2.3041    0.0000 C   0  0  0  0  0  0  0  0  0
    1.2305    1.6028    0.0000 C   0  0  0  0  0  0  0  0  0
    0.8405    0.8758    0.0000 C   0  0  0  0  0  0  0  0  0
    0.0159    0.8501    0.0000 O   0  0  0  0  0  0  0  0  0
   -0.4187    1.5513    0.0000 C   0  0  0  0  0  0  0  0  0
   -1.2433    1.5255    0.0000 C   0  0  0  0  0  0  0  0  0
   -1.6779    2.2268    0.0000 C   0  0  0  0  0  0  0  0  0
   -2.5025    2.2010    0.0000 O   0  0  0  0  0  0  0  0  0
   -2.9371    2.9023    0.0000 C   0  0  0  0  0  0  0  0  0
   -1.2879    2.9538    0.0000 C   0  0  0  0  0  0  0  0  0
   -1.7225    3.6550    0.0000 O   0  0  0  0  0  0  0  0  0
   -1.3326    4.3820    0.0000 C   0  0  0  0  0  0  0  0  0
   -0.4633    2.9796    0.0000 C   0  0  0  0  0  0  0  0  0
   -0.0287    2.2783    0.0000 C   0  0  0  0  0  0  0  0  0
    2.0317    1.7995    0.0000 C   0  0  0  0  0  0  0  0  0
    2.6617    1.2669    0.0000 C   0  0  0  0  0  0  0  0  0
    2.5155    0.4549    0.0000 N   0  0  0  0  0  0  0  0  0
    3.1455   -0.0777    0.0000 C   0  0  0  0  0  0  0  0  0
    2.9993   -0.8896    0.0000 C   0  0  0  0  0  0  0  0  0
    2.2230   -1.1689    0.0000 N   0  0  0  0  0  0  0  0  0
    1.5930   -0.6363    0.0000 C   0  0  0  0  0  0  0  0  0
    1.7392    0.1756    0.0000 C   0  0  0  0  0  0  0  0  0
    2.0768   -1.9809    0.0000 C   0  0  0  0  0  0  0  0  0
    2.7068   -2.5135    0.0000 C   0  0  0  0  0  0  0  0  0
    2.5606   -3.3254    0.0000 C   0  0  0  0  0  0  0  0  0
    3.1906   -3.8580    0.0000 C   0  0  0  0  0  0  0  0  0
    3.0443   -4.6700    0.0000 C   0  0  0  0  0  0  0  0  0
    2.2681   -4.9493    0.0000 C   0  0  0  0  0  0  0  0  0
    3.6744   -5.2026    0.0000 C   0  0  0  0  0  0  0  0  0
    4.4507   -4.9233    0.0000 C   0  0  0  0  0  0  0  0  0
    5.0807   -5.4559    0.0000 C   0  0  0  0  0  0  0  0  0
    4.9344   -6.2678    0.0000 C   0  0  0  0  0  0  0  0  0
    4.1582   -6.5472    0.0000 C   0  0  0  0  0  0  0  0  0
    3.5281   -6.0145    0.0000 C   0  0  0  0  0  0  0  0  0
  1  2  1  0  0  0  0
  1 17  1  0  0  0  0
  2  3  2  0  0  0  0
  3  4  1  0  0  0  0
  3 16  1  0  0  0  0
  4  5  1  0  0  0  0
  4 17  1  0  0  0  0
  5  6  1  0  0  0  0
  6  7  1  0  0  0  0
  7  8  4  0  0  0  0
  7 16  4  0  0  0  0
  8  9  4  0  0  0  0
  9 10  1  0  0  0  0
  9 12  4  0  0  0  0
 10 11  1  0  0  0  0
 12 13  1  0  0  0  0
 12 15  4  0  0  0  0
 13 14  1  0  0  0  0
 15 16  4  0  0  0  0
 17 18  1  0  0  0  0
 18 19  1  0  0  0  0
 19 20  1  0  0  0  0
 19 24  1  0  0  0  0
 20 21  1  0  0  0  0
 21 22  1  0  0  0  0
 22 23  1  0  0  0  0
 22 25  1  0  0  0  0
 23 24  1  0  0  0  0
 25 26  1  0  0  0  0
 26 27  1  0  0  0  0
 27 28  1  0  0  0  0
 28 29  2  0  0  0  0
 29 30  1  0  0  0  0
 29 31  1  0  0  0  0
 31 32  4  0  0  0  0
 31 36  4  0  0  0  0
 32 33  4  0  0  0  0
 33 34  4  0  0  0  0
 34 35  4  0  0  0  0
 35 36  4  0  0  0  0
M  END
>  <Name_Molregno>
296747

>  <5-HT1A>
6

>  <5-HT2A>
6

>  <5-HT2C>
6

>  <5-HT7>
6

>  <Alpha-2A>
9.19

>  <Alpha-2B>
7.85

>  <Alpha-2C>
9.46

>  <DOPAMINE D3>
6.21

>  <DOPAMINE D4>
6

>  <HISTAMINE H1>
6

>  <Serotonin transporter>
8.18

$$$$
296899
  Marvin  02231216192D 0   1.00000     0.00000     0

 35 39  0  0  1  0  0  0  0  0999 V2000
    2.1989    2.1726    0.0000 O   0  0  0  0  0  0  0  0  0
    1.4352    2.4844    0.0000 N   0  0  0  0  0  0  0  0  0
    0.9025    1.8544    0.0000 C   0  0  0  0  0  0  0  0  0
    1.3371    1.1531    0.0000 C   0  0  0  0  0  0  0  0  0
    0.9472    0.4261    0.0000 C   0  0  0  0  0  0  0  0  0
    0.1226    0.4004    0.0000 O   0  0  0  0  0  0  0  0  0
   -0.3120    1.1016    0.0000 C   0  0  0  0  0  0  0  0  0
   -1.1366    1.0759    0.0000 C   0  0  0  0  0  0  0  0  0
   -1.5713    1.7771    0.0000 C   0  0  0  0  0  0  0  0  0
   -2.3959    1.7513    0.0000 O   0  0  0  0  0  0  0  0  0
   -2.8305    2.4526    0.0000 C   0  0  0  0  0  0  0  0  0
   -1.1813    2.5041    0.0000 C   0  0  0  0  0  0  0  0  0
   -1.6159    3.2053    0.0000 O   0  0  0  0  0  0  0  0  0
   -1.2259    3.9323    0.0000 C   0  0  0  0  0  0  0  0  0
   -0.3567    2.5299    0.0000 C   0  0  0  0  0  0  0  0  0
    0.0779    1.8286    0.0000 C   0  0  0  0  0  0  0  0  0
    2.1384    1.3498    0.0000 C   0  0  0  0  0  0  0  0  0
    2.7684    0.8172    0.0000 C   0  0  0  0  0  0  0  0  0
    2.6222    0.0052    0.0000 N   0  0  0  0  0  0  0  0  0
    3.2522   -0.5274    0.0000 C   0  0  0  0  0  0  0  0  0
    3.1059   -1.3393    0.0000 C   0  0  0  0  0  0  0  0  0
    2.3297   -1.6186    0.0000 N   0  0  0  0  0  0  0  0  0
    1.6996   -1.0860    0.0000 C   0  0  0  0  0  0  0  0  0
    1.8459   -0.2741    0.0000 C   0  0  0  0  0  0  0  0  0
    2.1834   -2.4306    0.0000 C   0  0  0  0  0  0  0  0  0
    1.4071   -2.7099    0.0000 C   0  0  0  0  0  0  0  0  0
    1.2609   -3.5218    0.0000 C   0  0  0  0  0  0  0  0  0
    1.8909   -4.0544    0.0000 C   0  0  0  0  0  0  0  0  0
    2.6672   -3.7751    0.0000 C   0  0  0  0  0  0  0  0  0
    3.2973   -4.3077    0.0000 C   0  0  0  0  0  0  0  0  0
    4.0735   -4.0284    0.0000 C   0  0  0  0  0  0  0  0  0
    4.7036   -4.5610    0.0000 C   0  0  0  0  0  0  0  0  0
    4.5573   -5.3730    0.0000 C   0  0  0  0  0  0  0  0  0
    3.7810   -5.6523    0.0000 C   0  0  0  0  0  0  0  0  0
    3.1510   -5.1197    0.0000 C   0  0  0  0  0  0  0  0  0
  1  2  1  0  0  0  0
  1 17  1  0  0  0  0
  2  3  2  0  0  0  0
  3  4  1  0  0  0  0
  3 16  1  0  0  0  0
  4  5  1  0  0  0  0
  4 17  1  0  0  0  0
  5  6  1  0  0  0  0
  6  7  1  0  0  0  0
  7  8  4  0  0  0  0
  7 16  4  0  0  0  0
  8  9  4  0  0  0  0
  9 10  1  0  0  0  0
  9 12  4  0  0  0  0
 10 11  1  0  0  0  0
 12 13  1  0  0  0  0
 12 15  4  0  0  0  0
 13 14  1  0  0  0  0
 15 16  4  0  0  0  0
 17 18  1  0  0  0  0
 18 19  1  0  0  0  0
 19 20  1  0  0  0  0
 19 24  1  0  0  0  0
 20 21  1  0  0  0  0
 21 22  1  0  0  0  0
 22 23  1  0  0  0  0
 22 25  1  0  0  0  0
 23 24  1  0  0  0  0
 25 26  1  0  0  0  0
 26 27  1  0  0  0  0
 27 28  1  0  0  0  0
 28 29  2  0  0  0  0
 29 30  1  0  0  0  0
 30 31  4  0  0  0  0
 30 35  4  0  0  0  0
 31 32  4  0  0  0  0
 32 33  4  0  0  0  0
 33 34  4  0  0  0  0
 34 35  4  0  0  0  0
M  END
>  <Name_Molregno>
296899

>  <5-HT1A>
6

>  <5-HT2A>
6

>  <5-HT2C>
6

>  <5-HT7>
6

>  <Alpha-2A>
8.59

>  <Alpha-2B>
7.85

>  <Alpha-2C>
8.52

>  <DOPAMINE D3>
6.57

>  <DOPAMINE D4>
6

>  <HISTAMINE H1>
6

>  <Serotonin transporter>
8.5

$$$$
296920
  Marvin  02231216192D 0   1.00000     0.00000     0

 37 42  0  0  1  0  0  0  0  0999 V2000
   -1.2093    0.9861    0.0000 O   0  0  0  0  0  0  0  0  0
   -1.7613    0.3730    0.0000 N   0  0  0  0  0  0  0  0  0
   -1.3488   -0.3415    0.0000 C   0  0  0  0  0  0  0  0  0
   -0.5418   -0.1700    0.0000 C   0  0  0  0  0  0  0  0  0
    0.0102   -0.7830    0.0000 C   0  0  0  0  0  0  0  0  0
   -0.2447   -1.5677    0.0000 O   0  0  0  0  0  0  0  0  0
   -1.0517   -1.7392    0.0000 C   0  0  0  0  0  0  0  0  0
   -1.3066   -2.5238    0.0000 C   0  0  0  0  0  0  0  0  0
   -2.1136   -2.6953    0.0000 C   0  0  0  0  0  0  0  0  0
   -2.3686   -3.4800    0.0000 O   0  0  0  0  0  0  0  0  0
   -3.1755   -3.6515    0.0000 C   0  0  0  0  0  0  0  0  0
   -2.6656   -2.0823    0.0000 C   0  0  0  0  0  0  0  0  0
   -3.4726   -2.2538    0.0000 O   0  0  0  0  0  0  0  0  0
   -4.0247   -1.6407    0.0000 C   0  0  0  0  0  0  0  0  0
   -2.4107   -1.2976    0.0000 C   0  0  0  0  0  0  0  0  0
   -1.6037   -1.1261    0.0000 C   0  0  0  0  0  0  0  0  0
   -0.4556    0.6505    0.0000 C   0  0  0  0  0  0  0  0  0
    0.2589    1.0630    0.0000 C   0  0  0  0  0  0  0  0  0
    0.9734    0.6505    0.0000 N   0  0  0  0  0  0  0  0  0
    1.6878    1.0630    0.0000 C   0  0  0  0  0  0  0  0  0
    2.4023    0.6505    0.0000 C   0  0  0  0  0  0  0  0  0
    2.4023   -0.1745    0.0000 N   0  0  0  0  0  0  0  0  0
    1.6878   -0.5870    0.0000 C   0  0  0  0  0  0  0  0  0
    0.9734   -0.1745    0.0000 C   0  0  0  0  0  0  0  0  0
    3.1168   -0.5870    0.0000 C   0  0  0  0  0  0  0  0  0
    3.8312   -0.1745    0.0000 C   0  0  0  0  0  0  0  0  0
    4.5457   -0.5870    0.0000 C   0  0  0  0  0  0  0  0  0
    5.2602   -0.1745    0.0000 C   0  0  0  0  0  0  0  0  0
    5.9747   -0.5870    0.0000 C   0  0  0  0  0  0  0  0  0
    6.6891   -0.1745    0.0000 C   0  0  0  0  0  0  0  0  0
    6.6891    0.6505    0.0000 C   0  0  0  0  0  0  0  0  0
    5.9747    1.0630    0.0000 C   0  0  0  0  0  0  0  0  0
    5.2602    0.6505    0.0000 C   0  0  0  0  0  0  0  0  0
    7.4036    1.0630    0.0000 C   0  0  0  0  0  0  0  0  0
    8.1181    0.6505    0.0000 C   0  0  0  0  0  0  0  0  0
    8.1181   -0.1745    0.0000 C   0  0  0  0  0  0  0  0  0
    7.4036   -0.5870    0.0000 C   0  0  0  0  0  0  0  0  0
  1  2  1  0  0  0  0
  1 17  1  0  0  0  0
  2  3  2  0  0  0  0
  3  4  1  0  0  0  0
  3 16  1  0  0  0  0
  4  5  1  0  0  0  0
  4 17  1  0  0  0  0
  5  6  1  0  0  0  0
  6  7  1  0  0  0  0
  7  8  4  0  0  0  0
  7 16  4  0  0  0  0
  8  9  4  0  0  0  0
  9 10  1  0  0  0  0
  9 12  4  0  0  0  0
 10 11  1  0  0  0  0
 12 13  1  0  0  0  0
 12 15  4  0  0  0  0
 13 14  1  0  0  0  0
 15 16  4  0  0  0  0
 17 18  1  0  0  0  0
 18 19  1  0  0  0  0
 19 20  1  0  0  0  0
 19 24  1  0  0  0  0
 20 21  1  0  0  0  0
 21 22  1  0  0  0  0
 22 23  1  0  0  0  0
 22 25  1  0  0  0  0
 23 24  1  0  0  0  0
 25 26  1  0  0  0  0
 26 27  1  0  0  0  0
 27 28  1  0  0  0  0
 28 29  4  0  0  0  0
 28 33  4  0  0  0  0
 29 30  4  0  0  0  0
 30 31  4  0  0  0  0
 30 37  4  0  0  0  0
 31 32  4  0  0  0  0
 31 34  4  0  0  0  0
 32 33  4  0  0  0  0
 34 35  4  0  0  0  0
 35 36  4  0  0  0  0
 36 37  4  0  0  0  0
M  END
>  <Name_Molregno>
296920

>  <5-HT1A>
6

>  <5-HT2A>
6

>  <5-HT2C>
6

>  <5-HT7>
6

>  <Alpha-2A>
8.6

>  <Alpha-2B>
7.85

>  <Alpha-2C>
8.81

>  <DOPAMINE D3>
6.97

>  <DOPAMINE D4>
6

>  <HISTAMINE H1>
6.34

>  <Serotonin transporter>
8.77

$$$$
296939
  Marvin  02231216192D 0   1.00000     0.00000     0

 36 40  0  0  1  0  0  0  0  0999 V2000
    1.5477    2.2344    0.0000 O   0  0  0  0  0  0  0  0  0
    0.7839    2.5463    0.0000 N   0  0  0  0  0  0  0  0  0
    0.2513    1.9162    0.0000 C   0  0  0  0  0  0  0  0  0
    0.6859    1.2150    0.0000 C   0  0  0  0  0  0  0  0  0
    0.2959    0.4880    0.0000 C   0  0  0  0  0  0  0  0  0
   -0.5287    0.4622    0.0000 O   0  0  0  0  0  0  0  0  0
   -0.9633    1.1635    0.0000 C   0  0  0  0  0  0  0  0  0
   -1.7879    1.1377    0.0000 C   0  0  0  0  0  0  0  0  0
   -2.2225    1.8389    0.0000 C   0  0  0  0  0  0  0  0  0
   -3.0471    1.8132    0.0000 O   0  0  0  0  0  0  0  0  0
   -3.4817    2.5144    0.0000 C   0  0  0  0  0  0  0  0  0
   -1.8325    2.5659    0.0000 C   0  0  0  0  0  0  0  0  0
   -2.2672    3.2672    0.0000 O   0  0  0  0  0  0  0  0  0
   -1.8772    3.9942    0.0000 C   0  0  0  0  0  0  0  0  0
   -1.0079    2.5917    0.0000 C   0  0  0  0  0  0  0  0  0
   -0.5733    1.8905    0.0000 C   0  0  0  0  0  0  0  0  0
    1.4871    1.4116    0.0000 C   0  0  0  0  0  0  0  0  0
    2.1171    0.8790    0.0000 C   0  0  0  0  0  0  0  0  0
    1.9709    0.0671    0.0000 N   0  0  0  0  0  0  0  0  0
    2.6009   -0.4655    0.0000 C   0  0  0  0  0  0  0  0  0
    2.4547   -1.2775    0.0000 C   0  0  0  0  0  0  0  0  0
    1.6784   -1.5568    0.0000 N   0  0  0  0  0  0  0  0  0
    1.0484   -1.0242    0.0000 C   0  0  0  0  0  0  0  0  0
    1.1946   -0.2122    0.0000 C   0  0  0  0  0  0  0  0  0
    1.5322   -2.3687    0.0000 C   0  0  0  0  0  0  0  0  0
    2.1622   -2.9013    0.0000 C   0  0  0  0  0  0  0  0  0
    2.9385   -2.6220    0.0000 C   0  0  0  0  0  0  0  0  0
    3.5685   -3.1546    0.0000 C   0  0  0  0  0  0  0  0  0
    4.3448   -2.8753    0.0000 C   0  0  0  0  0  0  0  0  0
    4.4910   -2.0634    0.0000 C   0  0  0  0  0  0  0  0  0
    3.8610   -1.5308    0.0000 C   0  0  0  0  0  0  0  0  0
    4.0072   -0.7188    0.0000 C   0  0  0  0  0  0  0  0  0
    4.7835   -0.4395    0.0000 C   0  0  0  0  0  0  0  0  0
    5.4135   -0.9721    0.0000 C   0  0  0  0  0  0  0  0  0
    5.2673   -1.7841    0.0000 C   0  0  0  0  0  0  0  0  0
    3.4223   -3.9666    0.0000 C   0  0  0  0  0  0  0  0  0
  1  2  1  0  0  0  0
  1 17  1  0  0  0  0
  2  3  2  0  0  0  0
  3  4  1  0  0  0  0
  3 16  1  0  0  0  0
  4  5  1  0  0  0  0
  4 17  1  0  0  0  0
  5  6  1  0  0  0  0
  6  7  1  0  0  0  0
  7  8  4  0  0  0  0
  7 16  4  0  0  0  0
  8  9  4  0  0  0  0
  9 10  1  0  0  0  0
  9 12  4  0  0  0  0
 10 11  1  0  0  0  0
 12 13  1  0  0  0  0
 12 15  4  0  0  0  0
 13 14  1  0  0  0  0
 15 16  4  0  0  0  0
 17 18  1  0  0  0  0
 18 19  1  0  0  0  0
 19 20  1  0  0  0  0
 19 24  1  0  0  0  0
 20 21  1  0  0  0  0
 21 22  1  0  0  0  0
 22 23  1  0  0  0  0
 22 25  1  0  0  0  0
 23 24  1  0  0  0  0
 25 26  1  0  0  0  0
 26 27  1  0  0  0  0
 27 28  1  0  0  0  0
 28 29  2  0  0  0  0
 28 36  1  0  0  0  0
 29 30  1  0  0  0  0
 30 31  4  0  0  0  0
 30 35  4  0  0  0  0
 31 32  4  0  0  0  0
 32 33  4  0  0  0  0
 33 34  4  0  0  0  0
 34 35  4  0  0  0  0
M  END
>  <Name_Molregno>
296939

>  <5-HT1A>
6.32

>  <5-HT2A>
6

>  <5-HT2C>
6

>  <5-HT7>
6

>  <Alpha-2A>
9.31

>  <Alpha-2B>
8.52

>  <Alpha-2C>
9.85

>  <DOPAMINE D3>
6.36

>  <DOPAMINE D4>
6

>  <HISTAMINE H1>
6.95

>  <Serotonin transporter>
8.46

$$$$
297486
  Marvin  02231216192D 0   1.00000     0.00000     0

 28 30  0  0  0  0  0  0  0  0999 V2000
   -6.9643    1.6440    0.0000 Cl  0  0  0  0  0  0  0  0  0
   -6.9643    0.8190    0.0000 C   0  0  0  0  0  0  0  0  0
   -6.2498    0.4065    0.0000 C   0  0  0  0  0  0  0  0  0
   -5.5353    0.8190    0.0000 N   0  0  0  0  0  0  0  0  0
   -5.5353    1.6440    0.0000 C   0  0  0  0  0  0  0  0  0
   -4.8209    2.0565    0.0000 C   0  0  0  0  0  0  0  0  0
   -4.1064    1.6440    0.0000 N   0  0  0  0  0  0  0  0  0
   -4.1064    0.8190    0.0000 C   0  0  0  0  0  0  0  0  0
   -4.8209    0.4065    0.0000 C   0  0  0  0  0  0  0  0  0
   -3.3919    2.0565    0.0000 C   0  0  0  0  0  0  0  0  0
   -2.6775    1.6440    0.0000 C   0  0  0  0  0  0  0  0  0
   -2.6775    0.8190    0.0000 C   0  0  0  0  0  0  0  0  0
   -1.9630    0.4065    0.0000 C   0  0  0  0  0  0  0  0  0
   -1.9630   -0.4185    0.0000 N   0  0  0  0  0  0  0  0  0
   -1.2485   -0.8310    0.0000 C   0  0  0  0  0  0  0  0  0
   -0.5340   -0.4185    0.0000 O   0  0  0  0  0  0  0  0  0
   -1.2485   -1.6560    0.0000 C   0  0  0  0  0  0  0  0  0
   -0.5340   -2.0685    0.0000 C   0  0  0  0  0  0  0  0  0
   -0.5340   -2.8935    0.0000 C   0  0  0  0  0  0  0  0  0
   -1.2485   -3.3060    0.0000 C   0  0  0  0  0  0  0  0  0
   -1.2485   -4.1310    0.0000 F   0  0  0  0  0  0  0  0  0
   -1.9630   -2.8935    0.0000 C   0  0  0  0  0  0  0  0  0
   -1.9630   -2.0685    0.0000 C   0  0  0  0  0  0  0  0  0
   -6.2498   -0.4185    0.0000 C   0  0  0  0  0  0  0  0  0
   -6.9643   -0.8310    0.0000 C   0  0  0  0  0  0  0  0  0
   -7.6787   -0.4185    0.0000 C   0  0  0  0  0  0  0  0  0
   -7.6787    0.4065    0.0000 C   0  0  0  0  0  0  0  0  0
   -8.3932    0.8190    0.0000 Cl  0  0  0  0  0  0  0  0  0
  1  2  1  0  0  0  0
  2  3  4  0  0  0  0
  2 27  4  0  0  0  0
  3  4  1  0  0  0  0
  3 24  4  0  0  0  0
  4  5  1  0  0  0  0
  4  9  1  0  0  0  0
  5  6  1  0  0  0  0
  6  7  1  0  0  0  0
  7  8  1  0  0  0  0
  7 10  1  0  0  0  0
  8  9  1  0  0  0  0
 10 11  1  0  0  0  0
 11 12  2  0  0  0  0
 12 13  1  0  0  0  0
 13 14  1  0  0  0  0
 14 15  1  0  0  0  0
 15 16  2  0  0  0  0
 15 17  1  0  0  0  0
 17 18  4  0  0  0  0
 17 23  4  0  0  0  0
 18 19  4  0  0  0  0
 19 20  4  0  0  0  0
 20 21  1  0  0  0  0
 20 22  4  0  0  0  0
 22 23  4  0  0  0  0
 24 25  4  0  0  0  0
 25 26  4  0  0  0  0
 26 27  4  0  0  0  0
 27 28  1  0  0  0  0
M  END
>  <Name_Molregno>
297486

>  <DOPAMINE D2>
8.21

>  <DOPAMINE D3>
9

$$$$
297493
  Marvin  02231216192D 0   1.00000     0.00000     0

 30 33  0  0  0  0  0  0  0  0999 V2000
   -6.4399   -3.3062    0.0000 Cl  0  0  0  0  0  0  0  0  0
   -5.6149   -3.3062    0.0000 C   0  0  0  0  0  0  0  0  0
   -5.2024   -2.5918    0.0000 C   0  0  0  0  0  0  0  0  0
   -5.6149   -1.8773    0.0000 N   0  0  0  0  0  0  0  0  0
   -6.4399   -1.8773    0.0000 C   0  0  0  0  0  0  0  0  0
   -6.8524   -1.1628    0.0000 C   0  0  0  0  0  0  0  0  0
   -6.4399   -0.4484    0.0000 N   0  0  0  0  0  0  0  0  0
   -5.6149   -0.4484    0.0000 C   0  0  0  0  0  0  0  0  0
   -5.2024   -1.1628    0.0000 C   0  0  0  0  0  0  0  0  0
   -6.8524    0.2661    0.0000 C   0  0  0  0  0  0  0  0  0
   -6.4399    0.9806    0.0000 C   0  0  0  0  0  0  0  0  0
   -5.6149    0.9806    0.0000 C   0  0  0  0  0  0  0  0  0
   -5.2024    1.6951    0.0000 C   0  0  0  0  0  0  0  0  0
   -4.3774    1.6951    0.0000 N   0  0  0  0  0  0  0  0  0
   -3.9649    2.4095    0.0000 C   0  0  0  0  0  0  0  0  0
   -4.3774    3.1240    0.0000 O   0  0  0  0  0  0  0  0  0
   -3.1399    2.4095    0.0000 C   0  0  0  0  0  0  0  0  0
   -2.6550    1.7421    0.0000 O   0  0  0  0  0  0  0  0  0
   -1.8704    1.9970    0.0000 C   0  0  0  0  0  0  0  0  0
   -1.8704    2.8220    0.0000 C   0  0  0  0  0  0  0  0  0
   -2.6550    3.0770    0.0000 C   0  0  0  0  0  0  0  0  0
   -1.1559    3.2345    0.0000 C   0  0  0  0  0  0  0  0  0
   -0.4414    2.8220    0.0000 C   0  0  0  0  0  0  0  0  0
   -0.4414    1.9970    0.0000 C   0  0  0  0  0  0  0  0  0
   -1.1559    1.5845    0.0000 C   0  0  0  0  0  0  0  0  0
   -4.3774   -2.5918    0.0000 C   0  0  0  0  0  0  0  0  0
   -3.9649   -3.3062    0.0000 C   0  0  0  0  0  0  0  0  0
   -4.3774   -4.0207    0.0000 C   0  0  0  0  0  0  0  0  0
   -5.2024   -4.0207    0.0000 C   0  0  0  0  0  0  0  0  0
   -5.6149   -4.7352    0.0000 Cl  0  0  0  0  0  0  0  0  0
  1  2  1  0  0  0  0
  2  3  4  0  0  0  0
  2 29  4  0  0  0  0
  3  4  1  0  0  0  0
  3 26  4  0  0  0  0
  4  5  1  0  0  0  0
  4  9  1  0  0  0  0
  5  6  1  0  0  0  0
  6  7  1  0  0  0  0
  7  8  1  0  0  0  0
  7 10  1  0  0  0  0
  8  9  1  0  0  0  0
 10 11  1  0  0  0  0
 11 12  2  0  0  0  0
 12 13  1  0  0  0  0
 13 14  1  0  0  0  0
 14 15  1  0  0  0  0
 15 16  2  0  0  0  0
 15 17  1  0  0  0  0
 17 18  4  0  0  0  0
 17 21  4  0  0  0  0
 18 19  4  0  0  0  0
 19 20  4  0  0  0  0
 19 25  4  0  0  0  0
 20 21  4  0  0  0  0
 20 22  4  0  0  0  0
 22 23  4  0  0  0  0
 23 24  4  0  0  0  0
 24 25  4  0  0  0  0
 26 27  4  0  0  0  0
 27 28  4  0  0  0  0
 28 29  4  0  0  0  0
 29 30  1  0  0  0  0
M  END
>  <Name_Molregno>
297493

>  <DOPAMINE D2>
7.04

>  <DOPAMINE D3>
8.5

>  <DOPAMINE D4>
5.97

$$$$
297494
  Marvin  02231216192D 0   1.00000     0.00000     0

 27 29  0  0  0  0  0  0  0  0999 V2000
   -6.6473    1.4022    0.0000 Cl  0  0  0  0  0  0  0  0  0
   -6.6473    0.5772    0.0000 C   0  0  0  0  0  0  0  0  0
   -5.9328    0.1647    0.0000 C   0  0  0  0  0  0  0  0  0
   -5.2183    0.5772    0.0000 N   0  0  0  0  0  0  0  0  0
   -5.2183    1.4022    0.0000 C   0  0  0  0  0  0  0  0  0
   -4.5039    1.8147    0.0000 C   0  0  0  0  0  0  0  0  0
   -3.7894    1.4022    0.0000 N   0  0  0  0  0  0  0  0  0
   -3.7894    0.5772    0.0000 C   0  0  0  0  0  0  0  0  0
   -4.5039    0.1647    0.0000 C   0  0  0  0  0  0  0  0  0
   -3.0749    1.8147    0.0000 C   0  0  0  0  0  0  0  0  0
   -2.3605    1.4022    0.0000 C   0  0  0  0  0  0  0  0  0
   -2.3605    0.5772    0.0000 C   0  0  0  0  0  0  0  0  0
   -1.6460    0.1647    0.0000 C   0  0  0  0  0  0  0  0  0
   -1.6460   -0.6603    0.0000 N   0  0  0  0  0  0  0  0  0
   -0.9315   -1.0728    0.0000 C   0  0  0  0  0  0  0  0  0
   -0.2170   -0.6603    0.0000 O   0  0  0  0  0  0  0  0  0
   -0.9315   -1.8978    0.0000 C   0  0  0  0  0  0  0  0  0
   -0.2170   -2.3103    0.0000 C   0  0  0  0  0  0  0  0  0
   -0.2170   -3.1353    0.0000 C   0  0  0  0  0  0  0  0  0
   -0.9315   -3.5478    0.0000 C   0  0  0  0  0  0  0  0  0
   -1.6460   -3.1353    0.0000 N   0  0  0  0  0  0  0  0  0
   -1.6460   -2.3103    0.0000 C   0  0  0  0  0  0  0  0  0
   -5.9328   -0.6603    0.0000 C   0  0  0  0  0  0  0  0  0
   -6.6473   -1.0728    0.0000 C   0  0  0  0  0  0  0  0  0
   -7.3618   -0.6603    0.0000 C   0  0  0  0  0  0  0  0  0
   -7.3618    0.1647    0.0000 C   0  0  0  0  0  0  0  0  0
   -8.0762    0.5772    0.0000 Cl  0  0  0  0  0  0  0  0  0
  1  2  1  0  0  0  0
  2  3  4  0  0  0  0
  2 26  4  0  0  0  0
  3  4  1  0  0  0  0
  3 23  4  0  0  0  0
  4  5  1  0  0  0  0
  4  9  1  0  0  0  0
  5  6  1  0  0  0  0
  6  7  1  0  0  0  0
  7  8  1  0  0  0  0
  7 10  1  0  0  0  0
  8  9  1  0  0  0  0
 10 11  1  0  0  0  0
 11 12  2  0  0  0  0
 12 13  1  0  0  0  0
 13 14  1  0  0  0  0
 14 15  1  0  0  0  0
 15 16  2  0  0  0  0
 15 17  1  0  0  0  0
 17 18  4  0  0  0  0
 17 22  4  0  0  0  0
 18 19  4  0  0  0  0
 19 20  4  0  0  0  0
 20 21  4  0  0  0  0
 21 22  4  0  0  0  0
 23 24  4  0  0  0  0
 24 25  4  0  0  0  0
 25 26  4  0  0  0  0
 26 27  1  0  0  0  0
M  END
>  <Name_Molregno>
297494

>  <DOPAMINE D2>
7.71

>  <DOPAMINE D3>
8.6

$$$$
297496
  Marvin  02231216192D 0   1.00000     0.00000     0

 32 35  0  0  0  0  0  0  0  0999 V2000
   -8.1183    2.5319    0.0000 Cl  0  0  0  0  0  0  0  0  0
   -8.1183    1.7069    0.0000 C   0  0  0  0  0  0  0  0  0
   -7.4038    1.2944    0.0000 C   0  0  0  0  0  0  0  0  0
   -6.6893    1.7069    0.0000 N   0  0  0  0  0  0  0  0  0
   -6.6893    2.5319    0.0000 C   0  0  0  0  0  0  0  0  0
   -5.9749    2.9444    0.0000 C   0  0  0  0  0  0  0  0  0
   -5.2604    2.5319    0.0000 N   0  0  0  0  0  0  0  0  0
   -5.2604    1.7069    0.0000 C   0  0  0  0  0  0  0  0  0
   -5.9749    1.2944    0.0000 C   0  0  0  0  0  0  0  0  0
   -4.5459    2.9444    0.0000 C   0  0  0  0  0  0  0  0  0
   -3.8314    2.5319    0.0000 C   0  0  0  0  0  0  0  0  0
   -3.8314    1.7069    0.0000 C   0  0  0  0  0  0  0  0  0
   -3.1170    1.2944    0.0000 C   0  0  0  0  0  0  0  0  0
   -3.1170    0.4694    0.0000 N   0  0  0  0  0  0  0  0  0
   -2.4025    0.0569    0.0000 C   0  0  0  0  0  0  0  0  0
   -1.6880    0.4694    0.0000 O   0  0  0  0  0  0  0  0  0
   -2.4025   -0.7681    0.0000 C   0  0  0  0  0  0  0  0  0
   -1.6880   -1.1806    0.0000 C   0  0  0  0  0  0  0  0  0
   -1.6880   -2.0056    0.0000 C   0  0  0  0  0  0  0  0  0
   -2.4025   -2.4181    0.0000 C   0  0  0  0  0  0  0  0  0
   -3.1170   -2.0056    0.0000 C   0  0  0  0  0  0  0  0  0
   -3.1170   -1.1806    0.0000 C   0  0  0  0  0  0  0  0  0
   -2.4025   -3.2431    0.0000 C   0  0  0  0  0  0  0  0  0
   -1.7351   -3.7281    0.0000 N   0  0  0  0  0  0  0  0  0
   -1.9900   -4.5127    0.0000 C   0  0  0  0  0  0  0  0  0
   -2.8150   -4.5127    0.0000 C   0  0  0  0  0  0  0  0  0
   -3.0699   -3.7281    0.0000 N   0  0  0  0  0  0  0  0  0
   -7.4038    0.4694    0.0000 C   0  0  0  0  0  0  0  0  0
   -8.1183    0.0569    0.0000 C   0  0  0  0  0  0  0  0  0
   -8.8327    0.4694    0.0000 C   0  0  0  0  0  0  0  0  0
   -8.8327    1.2944    0.0000 C   0  0  0  0  0  0  0  0  0
   -9.5472    1.7069    0.0000 Cl  0  0  0  0  0  0  0  0  0
  1  2  1  0  0  0  0
  2  3  4  0  0  0  0
  2 31  4  0  0  0  0
  3  4  1  0  0  0  0
  3 28  4  0  0  0  0
  4  5  1  0  0  0  0
  4  9  1  0  0  0  0
  5  6  1  0  0  0  0
  6  7  1  0  0  0  0
  7  8  1  0  0  0  0
  7 10  1  0  0  0  0
  8  9  1  0  0  0  0
 10 11  1  0  0  0  0
 11 12  2  0  0  0  0
 12 13  1  0  0  0  0
 13 14  1  0  0  0  0
 14 15  1  0  0  0  0
 15 16  2  0  0  0  0
 15 17  1  0  0  0  0
 17 18  4  0  0  0  0
 17 22  4  0  0  0  0
 18 19  4  0  0  0  0
 19 20  4  0  0  0  0
 20 21  4  0  0  0  0
 20 23  1  0  0  0  0
 21 22  4  0  0  0  0
 23 24  4  0  0  0  0
 23 27  4  0  0  0  0
 24 25  4  0  0  0  0
 25 26  4  0  0  0  0
 26 27  4  0  0  0  0
 28 29  4  0  0  0  0
 29 30  4  0  0  0  0
 30 31  4  0  0  0  0
 31 32  1  0  0  0  0
M  STY  1   1 DAT
M  SAL   1  1  24
M  SDT   1 MRV_IMPLICIT_H                                        
M  SDD   1     0.0000    0.0000    DR    ALL  0       0  
M  SED   1 IMPL_H1
M  END
>  <Name_Molregno>
297496

>  <DOPAMINE D2>
8.1

>  <DOPAMINE D3>
9.52

$$$$
297499
  Marvin  02231216192D 0   1.00000     0.00000     0

 28 30  0  0  0  0  0  0  0  0999 V2000
    0.8399    1.4485    0.0000 Cl  0  0  0  0  0  0  0  0  0
    0.8399    0.6235    0.0000 C   0  0  0  0  0  0  0  0  0
    1.5544    0.2110    0.0000 C   0  0  0  0  0  0  0  0  0
    2.2689    0.6235    0.0000 N   0  0  0  0  0  0  0  0  0
    2.2689    1.4485    0.0000 C   0  0  0  0  0  0  0  0  0
    2.9833    1.8610    0.0000 C   0  0  0  0  0  0  0  0  0
    3.6978    1.4485    0.0000 N   0  0  0  0  0  0  0  0  0
    3.6978    0.6235    0.0000 C   0  0  0  0  0  0  0  0  0
    2.9833    0.2110    0.0000 C   0  0  0  0  0  0  0  0  0
    4.4123    1.8610    0.0000 C   0  0  0  0  0  0  0  0  0
    5.1267    1.4485    0.0000 C   0  0  0  0  0  0  0  0  0
    5.1267    0.6235    0.0000 C   0  0  0  0  0  0  0  0  0
    5.8412    0.2110    0.0000 C   0  0  0  0  0  0  0  0  0
    5.8412   -0.6140    0.0000 N   0  0  0  0  0  0  0  0  0
    6.5557   -1.0265    0.0000 C   0  0  0  0  0  0  0  0  0
    7.2702   -0.6140    0.0000 O   0  0  0  0  0  0  0  0  0
    6.5557   -1.8515    0.0000 C   0  0  0  0  0  0  0  0  0
    7.2702   -2.2640    0.0000 C   0  0  0  0  0  0  0  0  0
    7.2702   -3.0890    0.0000 C   0  0  0  0  0  0  0  0  0
    6.5557   -3.5015    0.0000 C   0  0  0  0  0  0  0  0  0
    5.8412   -3.0890    0.0000 C   0  0  0  0  0  0  0  0  0
    5.8412   -2.2640    0.0000 C   0  0  0  0  0  0  0  0  0
    5.1267   -1.8515    0.0000 Cl  0  0  0  0  0  0  0  0  0
    1.5544   -0.6140    0.0000 C   0  0  0  0  0  0  0  0  0
    0.8399   -1.0265    0.0000 C   0  0  0  0  0  0  0  0  0
    0.1254   -0.6140    0.0000 C   0  0  0  0  0  0  0  0  0
    0.1254    0.2110    0.0000 C   0  0  0  0  0  0  0  0  0
   -0.5890    0.6235    0.0000 Cl  0  0  0  0  0  0  0  0  0
  1  2  1  0  0  0  0
  2  3  4  0  0  0  0
  2 27  4  0  0  0  0
  3  4  1  0  0  0  0
  3 24  4  0  0  0  0
  4  5  1  0  0  0  0
  4  9  1  0  0  0  0
  5  6  1  0  0  0  0
  6  7  1  0  0  0  0
  7  8  1  0  0  0  0
  7 10  1  0  0  0  0
  8  9  1  0  0  0  0
 10 11  1  0  0  0  0
 11 12  2  0  0  0  0
 12 13  1  0  0  0  0
 13 14  1  0  0  0  0
 14 15  1  0  0  0  0
 15 16  2  0  0  0  0
 15 17  1  0  0  0  0
 17 18  4  0  0  0  0
 17 22  4  0  0  0  0
 18 19  4  0  0  0  0
 19 20  4  0  0  0  0
 20 21  4  0  0  0  0
 21 22  4  0  0  0  0
 22 23  1  0  0  0  0
 24 25  4  0  0  0  0
 25 26  4  0  0  0  0
 26 27  4  0  0  0  0
 27 28  1  0  0  0  0
M  END
>  <Name_Molregno>
297499

>  <DOPAMINE D2>
7.99

>  <DOPAMINE D3>
8.89

$$$$
297503
  Marvin  02231216192D 0   1.00000     0.00000     0

 28 30  0  0  0  0  0  0  0  0999 V2000
   -7.0131    1.5257    0.0000 Cl  0  0  0  0  0  0  0  0  0
   -7.0131    0.7007    0.0000 C   0  0  0  0  0  0  0  0  0
   -6.2986    0.2882    0.0000 C   0  0  0  0  0  0  0  0  0
   -5.5841    0.7007    0.0000 N   0  0  0  0  0  0  0  0  0
   -5.5841    1.5257    0.0000 C   0  0  0  0  0  0  0  0  0
   -4.8697    1.9382    0.0000 C   0  0  0  0  0  0  0  0  0
   -4.1552    1.5257    0.0000 N   0  0  0  0  0  0  0  0  0
   -4.1552    0.7007    0.0000 C   0  0  0  0  0  0  0  0  0
   -4.8697    0.2882    0.0000 C   0  0  0  0  0  0  0  0  0
   -3.4407    1.9382    0.0000 C   0  0  0  0  0  0  0  0  0
   -2.7262    1.5257    0.0000 C   0  0  0  0  0  0  0  0  0
   -2.7262    0.7007    0.0000 C   0  0  0  0  0  0  0  0  0
   -2.0118    0.2882    0.0000 C   0  0  0  0  0  0  0  0  0
   -2.0118   -0.5368    0.0000 N   0  0  0  0  0  0  0  0  0
   -1.2973   -0.9493    0.0000 C   0  0  0  0  0  0  0  0  0
   -0.5828   -0.5368    0.0000 O   0  0  0  0  0  0  0  0  0
   -1.2973   -1.7743    0.0000 C   0  0  0  0  0  0  0  0  0
   -0.5828   -2.1868    0.0000 C   0  0  0  0  0  0  0  0  0
   -0.5828   -3.0118    0.0000 C   0  0  0  0  0  0  0  0  0
    0.1316   -3.4243    0.0000 Cl  0  0  0  0  0  0  0  0  0
   -1.2973   -3.4243    0.0000 C   0  0  0  0  0  0  0  0  0
   -2.0118   -3.0118    0.0000 C   0  0  0  0  0  0  0  0  0
   -2.0118   -2.1868    0.0000 C   0  0  0  0  0  0  0  0  0
   -6.2986   -0.5368    0.0000 C   0  0  0  0  0  0  0  0  0
   -7.0131   -0.9493    0.0000 C   0  0  0  0  0  0  0  0  0
   -7.7275   -0.5368    0.0000 C   0  0  0  0  0  0  0  0  0
   -7.7275    0.2882    0.0000 C   0  0  0  0  0  0  0  0  0
   -8.4420    0.7007    0.0000 Cl  0  0  0  0  0  0  0  0  0
  1  2  1  0  0  0  0
  2  3  4  0  0  0  0
  2 27  4  0  0  0  0
  3  4  1  0  0  0  0
  3 24  4  0  0  0  0
  4  5  1  0  0  0  0
  4  9  1  0  0  0  0
  5  6  1  0  0  0  0
  6  7  1  0  0  0  0
  7  8  1  0  0  0  0
  7 10  1  0  0  0  0
  8  9  1  0  0  0  0
 10 11  1  0  0  0  0
 11 12  2  0  0  0  0
 12 13  1  0  0  0  0
 13 14  1  0  0  0  0
 14 15  1  0  0  0  0
 15 16  2  0  0  0  0
 15 17  1  0  0  0  0
 17 18  4  0  0  0  0
 17 23  4  0  0  0  0
 18 19  4  0  0  0  0
 19 20  1  0  0  0  0
 19 21  4  0  0  0  0
 21 22  4  0  0  0  0
 22 23  4  0  0  0  0
 24 25  4  0  0  0  0
 25 26  4  0  0  0  0
 26 27  4  0  0  0  0
 27 28  1  0  0  0  0
M  END
>  <Name_Molregno>
297503

>  <DOPAMINE D2>
7.82

>  <DOPAMINE D3>
8.57

$$$$
297507
  Marvin  02231216192D 0   1.00000     0.00000     0

 27 29  0  0  0  0  0  0  0  0999 V2000
   -6.6473    1.4022    0.0000 Cl  0  0  0  0  0  0  0  0  0
   -6.6473    0.5772    0.0000 C   0  0  0  0  0  0  0  0  0
   -5.9328    0.1647    0.0000 C   0  0  0  0  0  0  0  0  0
   -5.2183    0.5772    0.0000 N   0  0  0  0  0  0  0  0  0
   -5.2183    1.4022    0.0000 C   0  0  0  0  0  0  0  0  0
   -4.5039    1.8147    0.0000 C   0  0  0  0  0  0  0  0  0
   -3.7894    1.4022    0.0000 N   0  0  0  0  0  0  0  0  0
   -3.7894    0.5772    0.0000 C   0  0  0  0  0  0  0  0  0
   -4.5039    0.1647    0.0000 C   0  0  0  0  0  0  0  0  0
   -3.0749    1.8147    0.0000 C   0  0  0  0  0  0  0  0  0
   -2.3605    1.4022    0.0000 C   0  0  0  0  0  0  0  0  0
   -2.3605    0.5772    0.0000 C   0  0  0  0  0  0  0  0  0
   -1.6460    0.1647    0.0000 C   0  0  0  0  0  0  0  0  0
   -1.6460   -0.6603    0.0000 N   0  0  0  0  0  0  0  0  0
   -0.9315   -1.0728    0.0000 C   0  0  0  0  0  0  0  0  0
   -0.2170   -0.6603    0.0000 O   0  0  0  0  0  0  0  0  0
   -0.9315   -1.8978    0.0000 C   0  0  0  0  0  0  0  0  0
   -0.2170   -2.3103    0.0000 C   0  0  0  0  0  0  0  0  0
   -0.2170   -3.1353    0.0000 C   0  0  0  0  0  0  0  0  0
   -0.9315   -3.5478    0.0000 N   0  0  0  0  0  0  0  0  0
   -1.6460   -3.1353    0.0000 C   0  0  0  0  0  0  0  0  0
   -1.6460   -2.3103    0.0000 C   0  0  0  0  0  0  0  0  0
   -5.9328   -0.6603    0.0000 C   0  0  0  0  0  0  0  0  0
   -6.6473   -1.0728    0.0000 C   0  0  0  0  0  0  0  0  0
   -7.3618   -0.6603    0.0000 C   0  0  0  0  0  0  0  0  0
   -7.3618    0.1647    0.0000 C   0  0  0  0  0  0  0  0  0
   -8.0762    0.5772    0.0000 Cl  0  0  0  0  0  0  0  0  0
  1  2  1  0  0  0  0
  2  3  4  0  0  0  0
  2 26  4  0  0  0  0
  3  4  1  0  0  0  0
  3 23  4  0  0  0  0
  4  5  1  0  0  0  0
  4  9  1  0  0  0  0
  5  6  1  0  0  0  0
  6  7  1  0  0  0  0
  7  8  1  0  0  0  0
  7 10  1  0  0  0  0
  8  9  1  0  0  0  0
 10 11  1  0  0  0  0
 11 12  2  0  0  0  0
 12 13  1  0  0  0  0
 13 14  1  0  0  0  0
 14 15  1  0  0  0  0
 15 16  2  0  0  0  0
 15 17  1  0  0  0  0
 17 18  4  0  0  0  0
 17 22  4  0  0  0  0
 18 19  4  0  0  0  0
 19 20  4  0  0  0  0
 20 21  4  0  0  0  0
 21 22  4  0  0  0  0
 23 24  4  0  0  0  0
 24 25  4  0  0  0  0
 25 26  4  0  0  0  0
 26 27  1  0  0  0  0
M  END
>  <Name_Molregno>
297507

>  <DOPAMINE D2>
7.51

>  <DOPAMINE D3>
8.7

$$$$
297518
  Marvin  02231216192D 0   1.00000     0.00000     0

 31 34  0  0  0  0  0  0  0  0999 V2000
    4.1906   -3.9917    0.0000 Cl  0  0  0  0  0  0  0  0  0
    4.9050   -3.5792    0.0000 C   0  0  0  0  0  0  0  0  0
    4.9050   -2.7542    0.0000 C   0  0  0  0  0  0  0  0  0
    4.1906   -2.3417    0.0000 N   0  0  0  0  0  0  0  0  0
    3.4761   -2.7542    0.0000 C   0  0  0  0  0  0  0  0  0
    2.7616   -2.3417    0.0000 C   0  0  0  0  0  0  0  0  0
    2.7616   -1.5167    0.0000 N   0  0  0  0  0  0  0  0  0
    3.4761   -1.1042    0.0000 C   0  0  0  0  0  0  0  0  0
    4.1906   -1.5167    0.0000 C   0  0  0  0  0  0  0  0  0
    2.0471   -1.1042    0.0000 C   0  0  0  0  0  0  0  0  0
    2.0471   -0.2792    0.0000 C   0  0  0  0  0  0  0  0  0
    2.7616    0.1333    0.0000 C   0  0  0  0  0  0  0  0  0
    2.7616    0.9583    0.0000 C   0  0  0  0  0  0  0  0  0
    3.4761    1.3708    0.0000 N   0  0  0  0  0  0  0  0  0
    3.4761    2.1958    0.0000 C   0  0  0  0  0  0  0  0  0
    2.7616    2.6083    0.0000 O   0  0  0  0  0  0  0  0  0
    4.1906    2.6083    0.0000 C   0  0  0  0  0  0  0  0  0
    4.9050    2.1958    0.0000 N   0  0  0  0  0  0  0  0  0
    5.6195    2.6083    0.0000 C   0  0  0  0  0  0  0  0  0
    5.6195    3.4333    0.0000 C   0  0  0  0  0  0  0  0  0
    4.9050    3.8458    0.0000 N   0  0  0  0  0  0  0  0  0
    4.1906    3.4333    0.0000 C   0  0  0  0  0  0  0  0  0
    6.3340    3.8458    0.0000 C   0  0  0  0  0  0  0  0  0
    7.0484    3.4333    0.0000 C   0  0  0  0  0  0  0  0  0
    7.0484    2.6083    0.0000 C   0  0  0  0  0  0  0  0  0
    6.3340    2.1958    0.0000 C   0  0  0  0  0  0  0  0  0
    5.6195   -2.3417    0.0000 C   0  0  0  0  0  0  0  0  0
    6.3340   -2.7542    0.0000 C   0  0  0  0  0  0  0  0  0
    6.3340   -3.5792    0.0000 C   0  0  0  0  0  0  0  0  0
    5.6195   -3.9917    0.0000 C   0  0  0  0  0  0  0  0  0
    5.6195   -4.8167    0.0000 Cl  0  0  0  0  0  0  0  0  0
  1  2  1  0  0  0  0
  2  3  4  0  0  0  0
  2 30  4  0  0  0  0
  3  4  1  0  0  0  0
  3 27  4  0  0  0  0
  4  5  1  0  0  0  0
  4  9  1  0  0  0  0
  5  6  1  0  0  0  0
  6  7  1  0  0  0  0
  7  8  1  0  0  0  0
  7 10  1  0  0  0  0
  8  9  1  0  0  0  0
 10 11  1  0  0  0  0
 11 12  2  0  0  0  0
 12 13  1  0  0  0  0
 13 14  1  0  0  0  0
 14 15  1  0  0  0  0
 15 16  2  0  0  0  0
 15 17  1  0  0  0  0
 17 18  4  0  0  0  0
 17 22  4  0  0  0  0
 18 19  4  0  0  0  0
 19 20  4  0  0  0  0
 19 26  4  0  0  0  0
 20 21  4  0  0  0  0
 20 23  4  0  0  0  0
 21 22  4  0  0  0  0
 23 24  4  0  0  0  0
 24 25  4  0  0  0  0
 25 26  4  0  0  0  0
 27 28  4  0  0  0  0
 28 29  4  0  0  0  0
 29 30  4  0  0  0  0
 30 31  1  0  0  0  0
M  END
>  <Name_Molregno>
297518

>  <DOPAMINE D2>
7.18

>  <DOPAMINE D3>
8.42

$$$$
297525
  Marvin  02231216192D 0   1.00000     0.00000     0

 33 36  0  0  0  0  0  0  0  0999 V2000
   -8.3782    2.7133    0.0000 Cl  0  0  0  0  0  0  0  0  0
   -8.3782    1.8883    0.0000 C   0  0  0  0  0  0  0  0  0
   -7.6637    1.4758    0.0000 C   0  0  0  0  0  0  0  0  0
   -6.9492    1.8883    0.0000 N   0  0  0  0  0  0  0  0  0
   -6.9492    2.7133    0.0000 C   0  0  0  0  0  0  0  0  0
   -6.2347    3.1258    0.0000 C   0  0  0  0  0  0  0  0  0
   -5.5203    2.7133    0.0000 N   0  0  0  0  0  0  0  0  0
   -5.5203    1.8883    0.0000 C   0  0  0  0  0  0  0  0  0
   -6.2347    1.4758    0.0000 C   0  0  0  0  0  0  0  0  0
   -4.8058    3.1258    0.0000 C   0  0  0  0  0  0  0  0  0
   -4.0913    2.7133    0.0000 C   0  0  0  0  0  0  0  0  0
   -4.0913    1.8883    0.0000 C   0  0  0  0  0  0  0  0  0
   -3.3769    1.4758    0.0000 C   0  0  0  0  0  0  0  0  0
   -3.3769    0.6508    0.0000 N   0  0  0  0  0  0  0  0  0
   -2.6624    0.2383    0.0000 C   0  0  0  0  0  0  0  0  0
   -1.9479    0.6508    0.0000 O   0  0  0  0  0  0  0  0  0
   -2.6624   -0.5867    0.0000 C   0  0  0  0  0  0  0  0  0
   -1.9479   -0.9992    0.0000 C   0  0  0  0  0  0  0  0  0
   -1.9479   -1.8242    0.0000 C   0  0  0  0  0  0  0  0  0
   -2.6624   -2.2367    0.0000 C   0  0  0  0  0  0  0  0  0
   -3.3769   -1.8242    0.0000 C   0  0  0  0  0  0  0  0  0
   -3.3769   -0.9992    0.0000 C   0  0  0  0  0  0  0  0  0
   -2.6624   -3.0617    0.0000 C   0  0  0  0  0  0  0  0  0
   -1.9479   -3.4742    0.0000 N   0  0  0  0  0  0  0  0  0
   -1.9479   -4.2992    0.0000 C   0  0  0  0  0  0  0  0  0
   -2.6624   -4.7117    0.0000 C   0  0  0  0  0  0  0  0  0
   -3.3769   -4.2992    0.0000 C   0  0  0  0  0  0  0  0  0
   -3.3769   -3.4742    0.0000 C   0  0  0  0  0  0  0  0  0
   -7.6637    0.6508    0.0000 C   0  0  0  0  0  0  0  0  0
   -8.3782    0.2383    0.0000 C   0  0  0  0  0  0  0  0  0
   -9.0926    0.6508    0.0000 C   0  0  0  0  0  0  0  0  0
   -9.0926    1.4758    0.0000 C   0  0  0  0  0  0  0  0  0
   -9.8071    1.8883    0.0000 Cl  0  0  0  0  0  0  0  0  0
  1  2  1  0  0  0  0
  2  3  4  0  0  0  0
  2 32  4  0  0  0  0
  3  4  1  0  0  0  0
  3 29  4  0  0  0  0
  4  5  1  0  0  0  0
  4  9  1  0  0  0  0
  5  6  1  0  0  0  0
  6  7  1  0  0  0  0
  7  8  1  0  0  0  0
  7 10  1  0  0  0  0
  8  9  1  0  0  0  0
 10 11  1  0  0  0  0
 11 12  2  0  0  0  0
 12 13  1  0  0  0  0
 13 14  1  0  0  0  0
 14 15  1  0  0  0  0
 15 16  2  0  0  0  0
 15 17  1  0  0  0  0
 17 18  4  0  0  0  0
 17 22  4  0  0  0  0
 18 19  4  0  0  0  0
 19 20  4  0  0  0  0
 20 21  4  0  0  0  0
 20 23  1  0  0  0  0
 21 22  4  0  0  0  0
 23 24  4  0  0  0  0
 23 28  4  0  0  0  0
 24 25  4  0  0  0  0
 25 26  4  0  0  0  0
 26 27  4  0  0  0  0
 27 28  4  0  0  0  0
 29 30  4  0  0  0  0
 30 31  4  0  0  0  0
 31 32  4  0  0  0  0
 32 33  1  0  0  0  0
M  END
>  <Name_Molregno>
297525

>  <5-HT1A>
7.07

>  <5-HT2A>
7.2

>  <5-HT2C>
7.33

>  <DOPAMINE D2>
7.02

>  <DOPAMINE D3>
9.03

>  <DOPAMINE D4>
6.43

$$$$
297570
  Marvin  02231216192D 0   1.00000     0.00000     0

 33 36  0  0  0  0  0  0  0  0999 V2000
   -8.3782    2.7133    0.0000 Cl  0  0  0  0  0  0  0  0  0
   -8.3782    1.8883    0.0000 C   0  0  0  0  0  0  0  0  0
   -7.6637    1.4758    0.0000 C   0  0  0  0  0  0  0  0  0
   -6.9492    1.8883    0.0000 N   0  0  0  0  0  0  0  0  0
   -6.9492    2.7133    0.0000 C   0  0  0  0  0  0  0  0  0
   -6.2347    3.1258    0.0000 C   0  0  0  0  0  0  0  0  0
   -5.5203    2.7133    0.0000 N   0  0  0  0  0  0  0  0  0
   -5.5203    1.8883    0.0000 C   0  0  0  0  0  0  0  0  0
   -6.2347    1.4758    0.0000 C   0  0  0  0  0  0  0  0  0
   -4.8058    3.1258    0.0000 C   0  0  0  0  0  0  0  0  0
   -4.0913    2.7133    0.0000 C   0  0  0  0  0  0  0  0  0
   -4.0913    1.8883    0.0000 C   0  0  0  0  0  0  0  0  0
   -3.3769    1.4758    0.0000 C   0  0  0  0  0  0  0  0  0
   -3.3769    0.6508    0.0000 N   0  0  0  0  0  0  0  0  0
   -2.6624    0.2383    0.0000 C   0  0  0  0  0  0  0  0  0
   -1.9479    0.6508    0.0000 O   0  0  0  0  0  0  0  0  0
   -2.6624   -0.5867    0.0000 C   0  0  0  0  0  0  0  0  0
   -1.9479   -0.9992    0.0000 C   0  0  0  0  0  0  0  0  0
   -1.9479   -1.8242    0.0000 C   0  0  0  0  0  0  0  0  0
   -2.6624   -2.2367    0.0000 C   0  0  0  0  0  0  0  0  0
   -3.3769   -1.8242    0.0000 C   0  0  0  0  0  0  0  0  0
   -3.3769   -0.9992    0.0000 C   0  0  0  0  0  0  0  0  0
   -2.6624   -3.0617    0.0000 C   0  0  0  0  0  0  0  0  0
   -1.9479   -3.4742    0.0000 C   0  0  0  0  0  0  0  0  0
   -1.9479   -4.2992    0.0000 C   0  0  0  0  0  0  0  0  0
   -2.6624   -4.7117    0.0000 C   0  0  0  0  0  0  0  0  0
   -3.3769   -4.2992    0.0000 N   0  0  0  0  0  0  0  0  0
   -3.3769   -3.4742    0.0000 C   0  0  0  0  0  0  0  0  0
   -7.6637    0.6508    0.0000 C   0  0  0  0  0  0  0  0  0
   -8.3782    0.2383    0.0000 C   0  0  0  0  0  0  0  0  0
   -9.0926    0.6508    0.0000 C   0  0  0  0  0  0  0  0  0
   -9.0926    1.4758    0.0000 C   0  0  0  0  0  0  0  0  0
   -9.8071    1.8883    0.0000 Cl  0  0  0  0  0  0  0  0  0
  1  2  1  0  0  0  0
  2  3  4  0  0  0  0
  2 32  4  0  0  0  0
  3  4  1  0  0  0  0
  3 29  4  0  0  0  0
  4  5  1  0  0  0  0
  4  9  1  0  0  0  0
  5  6  1  0  0  0  0
  6  7  1  0  0  0  0
  7  8  1  0  0  0  0
  7 10  1  0  0  0  0
  8  9  1  0  0  0  0
 10 11  1  0  0  0  0
 11 12  2  0  0  0  0
 12 13  1  0  0  0  0
 13 14  1  0  0  0  0
 14 15  1  0  0  0  0
 15 16  2  0  0  0  0
 15 17  1  0  0  0  0
 17 18  4  0  0  0  0
 17 22  4  0  0  0  0
 18 19  4  0  0  0  0
 19 20  4  0  0  0  0
 20 21  4  0  0  0  0
 20 23  1  0  0  0  0
 21 22  4  0  0  0  0
 23 24  4  0  0  0  0
 23 28  4  0  0  0  0
 24 25  4  0  0  0  0
 25 26  4  0  0  0  0
 26 27  4  0  0  0  0
 27 28  4  0  0  0  0
 29 30  4  0  0  0  0
 30 31  4  0  0  0  0
 31 32  4  0  0  0  0
 32 33  1  0  0  0  0
M  END
>  <Name_Molregno>
297570

>  <DOPAMINE D2>
7.26

>  <DOPAMINE D3>
9.05

>  <DOPAMINE D4>
6.28

$$$$
297590
  Marvin  02231216192D 0   1.00000     0.00000     0

 33 36  0  0  0  0  0  0  0  0999 V2000
   -8.3782    2.7133    0.0000 Cl  0  0  0  0  0  0  0  0  0
   -8.3782    1.8883    0.0000 C   0  0  0  0  0  0  0  0  0
   -7.6637    1.4758    0.0000 C   0  0  0  0  0  0  0  0  0
   -6.9492    1.8883    0.0000 N   0  0  0  0  0  0  0  0  0
   -6.9492    2.7133    0.0000 C   0  0  0  0  0  0  0  0  0
   -6.2347    3.1258    0.0000 C   0  0  0  0  0  0  0  0  0
   -5.5203    2.7133    0.0000 N   0  0  0  0  0  0  0  0  0
   -5.5203    1.8883    0.0000 C   0  0  0  0  0  0  0  0  0
   -6.2347    1.4758    0.0000 C   0  0  0  0  0  0  0  0  0
   -4.8058    3.1258    0.0000 C   0  0  0  0  0  0  0  0  0
   -4.0913    2.7133    0.0000 C   0  0  0  0  0  0  0  0  0
   -4.0913    1.8883    0.0000 C   0  0  0  0  0  0  0  0  0
   -3.3769    1.4758    0.0000 C   0  0  0  0  0  0  0  0  0
   -3.3769    0.6508    0.0000 N   0  0  0  0  0  0  0  0  0
   -2.6624    0.2383    0.0000 C   0  0  0  0  0  0  0  0  0
   -1.9479    0.6508    0.0000 O   0  0  0  0  0  0  0  0  0
   -2.6624   -0.5867    0.0000 C   0  0  0  0  0  0  0  0  0
   -1.9479   -0.9992    0.0000 C   0  0  0  0  0  0  0  0  0
   -1.9479   -1.8242    0.0000 C   0  0  0  0  0  0  0  0  0
   -2.6624   -2.2367    0.0000 C   0  0  0  0  0  0  0  0  0
   -3.3769   -1.8242    0.0000 C   0  0  0  0  0  0  0  0  0
   -3.3769   -0.9992    0.0000 C   0  0  0  0  0  0  0  0  0
   -2.6624   -3.0617    0.0000 C   0  0  0  0  0  0  0  0  0
   -1.9479   -3.4742    0.0000 C   0  0  0  0  0  0  0  0  0
   -1.9479   -4.2992    0.0000 C   0  0  0  0  0  0  0  0  0
   -2.6624   -4.7117    0.0000 N   0  0  0  0  0  0  0  0  0
   -3.3769   -4.2992    0.0000 C   0  0  0  0  0  0  0  0  0
   -3.3769   -3.4742    0.0000 C   0  0  0  0  0  0  0  0  0
   -7.6637    0.6508    0.0000 C   0  0  0  0  0  0  0  0  0
   -8.3782    0.2383    0.0000 C   0  0  0  0  0  0  0  0  0
   -9.0926    0.6508    0.0000 C   0  0  0  0  0  0  0  0  0
   -9.0926    1.4758    0.0000 C   0  0  0  0  0  0  0  0  0
   -9.8071    1.8883    0.0000 Cl  0  0  0  0  0  0  0  0  0
  1  2  1  0  0  0  0
  2  3  4  0  0  0  0
  2 32  4  0  0  0  0
  3  4  1  0  0  0  0
  3 29  4  0  0  0  0
  4  5  1  0  0  0  0
  4  9  1  0  0  0  0
  5  6  1  0  0  0  0
  6  7  1  0  0  0  0
  7  8  1  0  0  0  0
  7 10  1  0  0  0  0
  8  9  1  0  0  0  0
 10 11  1  0  0  0  0
 11 12  2  0  0  0  0
 12 13  1  0  0  0  0
 13 14  1  0  0  0  0
 14 15  1  0  0  0  0
 15 16  2  0  0  0  0
 15 17  1  0  0  0  0
 17 18  4  0  0  0  0
 17 22  4  0  0  0  0
 18 19  4  0  0  0  0
 19 20  4  0  0  0  0
 20 21  4  0  0  0  0
 20 23  1  0  0  0  0
 21 22  4  0  0  0  0
 23 24  4  0  0  0  0
 23 28  4  0  0  0  0
 24 25  4  0  0  0  0
 25 26  4  0  0  0  0
 26 27  4  0  0  0  0
 27 28  4  0  0  0  0
 29 30  4  0  0  0  0
 30 31  4  0  0  0  0
 31 32  4  0  0  0  0
 32 33  1  0  0  0  0
M  END
>  <Name_Molregno>
297590

>  <DOPAMINE D2>
7.36

>  <DOPAMINE D3>
9.05

$$$$
297601
  Marvin  02231216192D 0   1.00000     0.00000     0

 28 30  0  0  0  0  0  0  0  0999 V2000
    0.8399    1.4485    0.0000 Cl  0  0  0  0  0  0  0  0  0
    0.8399    0.6235    0.0000 C   0  0  0  0  0  0  0  0  0
    1.5544    0.2110    0.0000 C   0  0  0  0  0  0  0  0  0
    2.2689    0.6235    0.0000 N   0  0  0  0  0  0  0  0  0
    2.2689    1.4485    0.0000 C   0  0  0  0  0  0  0  0  0
    2.9833    1.8610    0.0000 C   0  0  0  0  0  0  0  0  0
    3.6978    1.4485    0.0000 N   0  0  0  0  0  0  0  0  0
    3.6978    0.6235    0.0000 C   0  0  0  0  0  0  0  0  0
    2.9833    0.2110    0.0000 C   0  0  0  0  0  0  0  0  0
    4.4123    1.8610    0.0000 C   0  0  0  0  0  0  0  0  0
    5.1267    1.4485    0.0000 C   0  0  0  0  0  0  0  0  0
    5.1267    0.6235    0.0000 C   0  0  0  0  0  0  0  0  0
    5.8412    0.2110    0.0000 C   0  0  0  0  0  0  0  0  0
    5.8412   -0.6140    0.0000 N   0  0  0  0  0  0  0  0  0
    6.5557   -1.0265    0.0000 C   0  0  0  0  0  0  0  0  0
    7.2702   -0.6140    0.0000 O   0  0  0  0  0  0  0  0  0
    6.5557   -1.8515    0.0000 C   0  0  0  0  0  0  0  0  0
    7.2702   -2.2640    0.0000 C   0  0  0  0  0  0  0  0  0
    7.2702   -3.0890    0.0000 C   0  0  0  0  0  0  0  0  0
    6.5557   -3.5015    0.0000 C   0  0  0  0  0  0  0  0  0
    5.8412   -3.0890    0.0000 C   0  0  0  0  0  0  0  0  0
    5.8412   -2.2640    0.0000 C   0  0  0  0  0  0  0  0  0
    5.1267   -1.8515    0.0000 F   0  0  0  0  0  0  0  0  0
    1.5544   -0.6140    0.0000 C   0  0  0  0  0  0  0  0  0
    0.8399   -1.0265    0.0000 C   0  0  0  0  0  0  0  0  0
    0.1254   -0.6140    0.0000 C   0  0  0  0  0  0  0  0  0
    0.1254    0.2110    0.0000 C   0  0  0  0  0  0  0  0  0
   -0.5890    0.6235    0.0000 Cl  0  0  0  0  0  0  0  0  0
  1  2  1  0  0  0  0
  2  3  4  0  0  0  0
  2 27  4  0  0  0  0
  3  4  1  0  0  0  0
  3 24  4  0  0  0  0
  4  5  1  0  0  0  0
  4  9  1  0  0  0  0
  5  6  1  0  0  0  0
  6  7  1  0  0  0  0
  7  8  1  0  0  0  0
  7 10  1  0  0  0  0
  8  9  1  0  0  0  0
 10 11  1  0  0  0  0
 11 12  2  0  0  0  0
 12 13  1  0  0  0  0
 13 14  1  0  0  0  0
 14 15  1  0  0  0  0
 15 16  2  0  0  0  0
 15 17  1  0  0  0  0
 17 18  4  0  0  0  0
 17 22  4  0  0  0  0
 18 19  4  0  0  0  0
 19 20  4  0  0  0  0
 20 21  4  0  0  0  0
 21 22  4  0  0  0  0
 22 23  1  0  0  0  0
 24 25  4  0  0  0  0
 25 26  4  0  0  0  0
 26 27  4  0  0  0  0
 27 28  1  0  0  0  0
M  END
>  <Name_Molregno>
297601

>  <DOPAMINE D2>
8

>  <DOPAMINE D3>
8.92

$$$$
297613
  Marvin  02231216192D 0   1.00000     0.00000     0

 33 36  0  0  0  0  0  0  0  0999 V2000
   -8.3782    2.7133    0.0000 Cl  0  0  0  0  0  0  0  0  0
   -8.3782    1.8883    0.0000 C   0  0  0  0  0  0  0  0  0
   -7.6637    1.4758    0.0000 C   0  0  0  0  0  0  0  0  0
   -6.9492    1.8883    0.0000 N   0  0  0  0  0  0  0  0  0
   -6.9492    2.7133    0.0000 C   0  0  0  0  0  0  0  0  0
   -6.2347    3.1258    0.0000 C   0  0  0  0  0  0  0  0  0
   -5.5203    2.7133    0.0000 N   0  0  0  0  0  0  0  0  0
   -5.5203    1.8883    0.0000 C   0  0  0  0  0  0  0  0  0
   -6.2347    1.4758    0.0000 C   0  0  0  0  0  0  0  0  0
   -4.8058    3.1258    0.0000 C   0  0  0  0  0  0  0  0  0
   -4.0913    2.7133    0.0000 C   0  0  0  0  0  0  0  0  0
   -4.0913    1.8883    0.0000 C   0  0  0  0  0  0  0  0  0
   -3.3769    1.4758    0.0000 C   0  0  0  0  0  0  0  0  0
   -3.3769    0.6508    0.0000 N   0  0  0  0  0  0  0  0  0
   -2.6624    0.2383    0.0000 C   0  0  0  0  0  0  0  0  0
   -1.9479    0.6508    0.0000 O   0  0  0  0  0  0  0  0  0
   -2.6624   -0.5867    0.0000 C   0  0  0  0  0  0  0  0  0
   -1.9479   -0.9992    0.0000 C   0  0  0  0  0  0  0  0  0
   -1.9479   -1.8242    0.0000 C   0  0  0  0  0  0  0  0  0
   -2.6624   -2.2367    0.0000 C   0  0  0  0  0  0  0  0  0
   -3.3769   -1.8242    0.0000 C   0  0  0  0  0  0  0  0  0
   -3.3769   -0.9992    0.0000 C   0  0  0  0  0  0  0  0  0
   -2.6624   -3.0617    0.0000 C   0  0  0  0  0  0  0  0  0
   -1.9479   -3.4742    0.0000 N   0  0  0  0  0  0  0  0  0
   -1.9479   -4.2992    0.0000 C   0  0  0  0  0  0  0  0  0
   -2.6624   -4.7117    0.0000 C   0  0  0  0  0  0  0  0  0
   -3.3769   -4.2992    0.0000 C   0  0  0  0  0  0  0  0  0
   -3.3769   -3.4742    0.0000 N   0  0  0  0  0  0  0  0  0
   -7.6637    0.6508    0.0000 C   0  0  0  0  0  0  0  0  0
   -8.3782    0.2383    0.0000 C   0  0  0  0  0  0  0  0  0
   -9.0926    0.6508    0.0000 C   0  0  0  0  0  0  0  0  0
   -9.0926    1.4758    0.0000 C   0  0  0  0  0  0  0  0  0
   -9.8071    1.8883    0.0000 Cl  0  0  0  0  0  0  0  0  0
  1  2  1  0  0  0  0
  2  3  4  0  0  0  0
  2 32  4  0  0  0  0
  3  4  1  0  0  0  0
  3 29  4  0  0  0  0
  4  5  1  0  0  0  0
  4  9  1  0  0  0  0
  5  6  1  0  0  0  0
  6  7  1  0  0  0  0
  7  8  1  0  0  0  0
  7 10  1  0  0  0  0
  8  9  1  0  0  0  0
 10 11  1  0  0  0  0
 11 12  2  0  0  0  0
 12 13  1  0  0  0  0
 13 14  1  0  0  0  0
 14 15  1  0  0  0  0
 15 16  2  0  0  0  0
 15 17  1  0  0  0  0
 17 18  4  0  0  0  0
 17 22  4  0  0  0  0
 18 19  4  0  0  0  0
 19 20  4  0  0  0  0
 20 21  4  0  0  0  0
 20 23  1  0  0  0  0
 21 22  4  0  0  0  0
 23 24  4  0  0  0  0
 23 28  4  0  0  0  0
 24 25  4  0  0  0  0
 25 26  4  0  0  0  0
 26 27  4  0  0  0  0
 27 28  4  0  0  0  0
 29 30  4  0  0  0  0
 30 31  4  0  0  0  0
 31 32  4  0  0  0  0
 32 33  1  0  0  0  0
M  END
>  <Name_Molregno>
297613

>  <DOPAMINE D2>
7.34

>  <DOPAMINE D3>
8.89

$$$$
297625
  Marvin  02231216192D 0   1.00000     0.00000     0

 28 30  0  0  0  0  0  0  0  0999 V2000
   -7.0131    1.5257    0.0000 Cl  0  0  0  0  0  0  0  0  0
   -7.0131    0.7007    0.0000 C   0  0  0  0  0  0  0  0  0
   -6.2986    0.2882    0.0000 C   0  0  0  0  0  0  0  0  0
   -5.5841    0.7007    0.0000 N   0  0  0  0  0  0  0  0  0
   -5.5841    1.5257    0.0000 C   0  0  0  0  0  0  0  0  0
   -4.8697    1.9382    0.0000 C   0  0  0  0  0  0  0  0  0
   -4.1552    1.5257    0.0000 N   0  0  0  0  0  0  0  0  0
   -4.1552    0.7007    0.0000 C   0  0  0  0  0  0  0  0  0
   -4.8697    0.2882    0.0000 C   0  0  0  0  0  0  0  0  0
   -3.4407    1.9382    0.0000 C   0  0  0  0  0  0  0  0  0
   -2.7262    1.5257    0.0000 C   0  0  0  0  0  0  0  0  0
   -2.7262    0.7007    0.0000 C   0  0  0  0  0  0  0  0  0
   -2.0118    0.2882    0.0000 C   0  0  0  0  0  0  0  0  0
   -2.0118   -0.5368    0.0000 N   0  0  0  0  0  0  0  0  0
   -1.2973   -0.9493    0.0000 C   0  0  0  0  0  0  0  0  0
   -0.5828   -0.5368    0.0000 O   0  0  0  0  0  0  0  0  0
   -1.2973   -1.7743    0.0000 C   0  0  0  0  0  0  0  0  0
   -0.5828   -2.1868    0.0000 C   0  0  0  0  0  0  0  0  0
   -0.5828   -3.0118    0.0000 C   0  0  0  0  0  0  0  0  0
    0.1316   -3.4243    0.0000 F   0  0  0  0  0  0  0  0  0
   -1.2973   -3.4243    0.0000 C   0  0  0  0  0  0  0  0  0
   -2.0118   -3.0118    0.0000 C   0  0  0  0  0  0  0  0  0
   -2.0118   -2.1868    0.0000 C   0  0  0  0  0  0  0  0  0
   -6.2986   -0.5368    0.0000 C   0  0  0  0  0  0  0  0  0
   -7.0131   -0.9493    0.0000 C   0  0  0  0  0  0  0  0  0
   -7.7275   -0.5368    0.0000 C   0  0  0  0  0  0  0  0  0
   -7.7275    0.2882    0.0000 C   0  0  0  0  0  0  0  0  0
   -8.4420    0.7007    0.0000 Cl  0  0  0  0  0  0  0  0  0
  1  2  1  0  0  0  0
  2  3  4  0  0  0  0
  2 27  4  0  0  0  0
  3  4  1  0  0  0  0
  3 24  4  0  0  0  0
  4  5  1  0  0  0  0
  4  9  1  0  0  0  0
  5  6  1  0  0  0  0
  6  7  1  0  0  0  0
  7  8  1  0  0  0  0
  7 10  1  0  0  0  0
  8  9  1  0  0  0  0
 10 11  1  0  0  0  0
 11 12  2  0  0  0  0
 12 13  1  0  0  0  0
 13 14  1  0  0  0  0
 14 15  1  0  0  0  0
 15 16  2  0  0  0  0
 15 17  1  0  0  0  0
 17 18  4  0  0  0  0
 17 23  4  0  0  0  0
 18 19  4  0  0  0  0
 19 20  1  0  0  0  0
 19 21  4  0  0  0  0
 21 22  4  0  0  0  0
 22 23  4  0  0  0  0
 24 25  4  0  0  0  0
 25 26  4  0  0  0  0
 26 27  4  0  0  0  0
 27 28  1  0  0  0  0
M  END
>  <Name_Molregno>
297625

>  <DOPAMINE D2>
8.06

>  <DOPAMINE D3>
8.77

$$$$
297626
  Marvin  02231216192D 0   1.00000     0.00000     0

 30 33  0  0  0  0  0  0  0  0999 V2000
   -6.4399   -3.3062    0.0000 Cl  0  0  0  0  0  0  0  0  0
   -5.6149   -3.3062    0.0000 C   0  0  0  0  0  0  0  0  0
   -5.2024   -2.5918    0.0000 C   0  0  0  0  0  0  0  0  0
   -5.6149   -1.8773    0.0000 N   0  0  0  0  0  0  0  0  0
   -6.4399   -1.8773    0.0000 C   0  0  0  0  0  0  0  0  0
   -6.8524   -1.1628    0.0000 C   0  0  0  0  0  0  0  0  0
   -6.4399   -0.4484    0.0000 N   0  0  0  0  0  0  0  0  0
   -5.6149   -0.4484    0.0000 C   0  0  0  0  0  0  0  0  0
   -5.2024   -1.1628    0.0000 C   0  0  0  0  0  0  0  0  0
   -6.8524    0.2661    0.0000 C   0  0  0  0  0  0  0  0  0
   -6.4399    0.9806    0.0000 C   0  0  0  0  0  0  0  0  0
   -5.6149    0.9806    0.0000 C   0  0  0  0  0  0  0  0  0
   -5.2024    1.6951    0.0000 C   0  0  0  0  0  0  0  0  0
   -4.3774    1.6951    0.0000 N   0  0  0  0  0  0  0  0  0
   -3.9649    2.4095    0.0000 C   0  0  0  0  0  0  0  0  0
   -4.3774    3.1240    0.0000 O   0  0  0  0  0  0  0  0  0
   -3.1399    2.4095    0.0000 C   0  0  0  0  0  0  0  0  0
   -2.6550    1.7421    0.0000 S   0  0  0  0  0  0  0  0  0
   -1.8704    1.9970    0.0000 C   0  0  0  0  0  0  0  0  0
   -1.8704    2.8220    0.0000 C   0  0  0  0  0  0  0  0  0
   -2.6550    3.0770    0.0000 C   0  0  0  0  0  0  0  0  0
   -1.1559    3.2345    0.0000 C   0  0  0  0  0  0  0  0  0
   -0.4414    2.8220    0.0000 C   0  0  0  0  0  0  0  0  0
   -0.4414    1.9970    0.0000 C   0  0  0  0  0  0  0  0  0
   -1.1559    1.5845    0.0000 C   0  0  0  0  0  0  0  0  0
   -4.3774   -2.5918    0.0000 C   0  0  0  0  0  0  0  0  0
   -3.9649   -3.3062    0.0000 C   0  0  0  0  0  0  0  0  0
   -4.3774   -4.0207    0.0000 C   0  0  0  0  0  0  0  0  0
   -5.2024   -4.0207    0.0000 C   0  0  0  0  0  0  0  0  0
   -5.6149   -4.7352    0.0000 Cl  0  0  0  0  0  0  0  0  0
  1  2  1  0  0  0  0
  2  3  4  0  0  0  0
  2 29  4  0  0  0  0
  3  4  1  0  0  0  0
  3 26  4  0  0  0  0
  4  5  1  0  0  0  0
  4  9  1  0  0  0  0
  5  6  1  0  0  0  0
  6  7  1  0  0  0  0
  7  8  1  0  0  0  0
  7 10  1  0  0  0  0
  8  9  1  0  0  0  0
 10 11  1  0  0  0  0
 11 12  2  0  0  0  0
 12 13  1  0  0  0  0
 13 14  1  0  0  0  0
 14 15  1  0  0  0  0
 15 16  2  0  0  0  0
 15 17  1  0  0  0  0
 17 18  4  0  0  0  0
 17 21  4  0  0  0  0
 18 19  4  0  0  0  0
 19 20  4  0  0  0  0
 19 25  4  0  0  0  0
 20 21  4  0  0  0  0
 20 22  4  0  0  0  0
 22 23  4  0  0  0  0
 23 24  4  0  0  0  0
 24 25  4  0  0  0  0
 26 27  4  0  0  0  0
 27 28  4  0  0  0  0
 28 29  4  0  0  0  0
 29 30  1  0  0  0  0
M  END
>  <Name_Molregno>
297626

>  <DOPAMINE D2>
6.76

>  <DOPAMINE D3>
8.04

>  <DOPAMINE D4>
5.75

$$$$
297653
  Marvin  02231216192D 0   1.00000     0.00000     0

 27 29  0  0  0  0  0  0  0  0999 V2000
   -6.6473    1.4022    0.0000 Cl  0  0  0  0  0  0  0  0  0
   -6.6473    0.5772    0.0000 C   0  0  0  0  0  0  0  0  0
   -5.9328    0.1647    0.0000 C   0  0  0  0  0  0  0  0  0
   -5.2183    0.5772    0.0000 N   0  0  0  0  0  0  0  0  0
   -5.2183    1.4022    0.0000 C   0  0  0  0  0  0  0  0  0
   -4.5039    1.8147    0.0000 C   0  0  0  0  0  0  0  0  0
   -3.7894    1.4022    0.0000 N   0  0  0  0  0  0  0  0  0
   -3.7894    0.5772    0.0000 C   0  0  0  0  0  0  0  0  0
   -4.5039    0.1647    0.0000 C   0  0  0  0  0  0  0  0  0
   -3.0749    1.8147    0.0000 C   0  0  0  0  0  0  0  0  0
   -2.3605    1.4022    0.0000 C   0  0  0  0  0  0  0  0  0
   -2.3605    0.5772    0.0000 C   0  0  0  0  0  0  0  0  0
   -1.6460    0.1647    0.0000 C   0  0  0  0  0  0  0  0  0
   -1.6460   -0.6603    0.0000 N   0  0  0  0  0  0  0  0  0
   -0.9315   -1.0728    0.0000 C   0  0  0  0  0  0  0  0  0
   -0.2170   -0.6603    0.0000 O   0  0  0  0  0  0  0  0  0
   -0.9315   -1.8978    0.0000 C   0  0  0  0  0  0  0  0  0
   -0.2170   -2.3103    0.0000 N   0  0  0  0  0  0  0  0  0
   -0.2170   -3.1353    0.0000 C   0  0  0  0  0  0  0  0  0
   -0.9315   -3.5478    0.0000 C   0  0  0  0  0  0  0  0  0
   -1.6460   -3.1353    0.0000 C   0  0  0  0  0  0  0  0  0
   -1.6460   -2.3103    0.0000 C   0  0  0  0  0  0  0  0  0
   -5.9328   -0.6603    0.0000 C   0  0  0  0  0  0  0  0  0
   -6.6473   -1.0728    0.0000 C   0  0  0  0  0  0  0  0  0
   -7.3618   -0.6603    0.0000 C   0  0  0  0  0  0  0  0  0
   -7.3618    0.1647    0.0000 C   0  0  0  0  0  0  0  0  0
   -8.0762    0.5772    0.0000 Cl  0  0  0  0  0  0  0  0  0
  1  2  1  0  0  0  0
  2  3  4  0  0  0  0
  2 26  4  0  0  0  0
  3  4  1  0  0  0  0
  3 23  4  0  0  0  0
  4  5  1  0  0  0  0
  4  9  1  0  0  0  0
  5  6  1  0  0  0  0
  6  7  1  0  0  0  0
  7  8  1  0  0  0  0
  7 10  1  0  0  0  0
  8  9  1  0  0  0  0
 10 11  1  0  0  0  0
 11 12  2  0  0  0  0
 12 13  1  0  0  0  0
 13 14  1  0  0  0  0
 14 15  1  0  0  0  0
 15 16  2  0  0  0  0
 15 17  1  0  0  0  0
 17 18  4  0  0  0  0
 17 22  4  0  0  0  0
 18 19  4  0  0  0  0
 19 20  4  0  0  0  0
 20 21  4  0  0  0  0
 21 22  4  0  0  0  0
 23 24  4  0  0  0  0
 24 25  4  0  0  0  0
 25 26  4  0  0  0  0
 26 27  1  0  0  0  0
M  END
>  <Name_Molregno>
297653

>  <DOPAMINE D2>
7.77

>  <DOPAMINE D3>
8.59

$$$$
297678
  Marvin  02231216192D 0   1.00000     0.00000     0

 28 30  0  0  0  0  0  0  0  0999 V2000
   -6.9643    1.6440    0.0000 Cl  0  0  0  0  0  0  0  0  0
   -6.9643    0.8190    0.0000 C   0  0  0  0  0  0  0  0  0
   -6.2498    0.4065    0.0000 C   0  0  0  0  0  0  0  0  0
   -5.5353    0.8190    0.0000 N   0  0  0  0  0  0  0  0  0
   -5.5353    1.6440    0.0000 C   0  0  0  0  0  0  0  0  0
   -4.8209    2.0565    0.0000 C   0  0  0  0  0  0  0  0  0
   -4.1064    1.6440    0.0000 N   0  0  0  0  0  0  0  0  0
   -4.1064    0.8190    0.0000 C   0  0  0  0  0  0  0  0  0
   -4.8209    0.4065    0.0000 C   0  0  0  0  0  0  0  0  0
   -3.3919    2.0565    0.0000 C   0  0  0  0  0  0  0  0  0
   -2.6775    1.6440    0.0000 C   0  0  0  0  0  0  0  0  0
   -2.6775    0.8190    0.0000 C   0  0  0  0  0  0  0  0  0
   -1.9630    0.4065    0.0000 C   0  0  0  0  0  0  0  0  0
   -1.9630   -0.4185    0.0000 N   0  0  0  0  0  0  0  0  0
   -1.2485   -0.8310    0.0000 C   0  0  0  0  0  0  0  0  0
   -0.5340   -0.4185    0.0000 O   0  0  0  0  0  0  0  0  0
   -1.2485   -1.6560    0.0000 C   0  0  0  0  0  0  0  0  0
   -0.5340   -2.0685    0.0000 C   0  0  0  0  0  0  0  0  0
   -0.5340   -2.8935    0.0000 C   0  0  0  0  0  0  0  0  0
   -1.2485   -3.3060    0.0000 C   0  0  0  0  0  0  0  0  0
   -1.2485   -4.1310    0.0000 Cl  0  0  0  0  0  0  0  0  0
   -1.9630   -2.8935    0.0000 C   0  0  0  0  0  0  0  0  0
   -1.9630   -2.0685    0.0000 C   0  0  0  0  0  0  0  0  0
   -6.2498   -0.4185    0.0000 C   0  0  0  0  0  0  0  0  0
   -6.9643   -0.8310    0.0000 C   0  0  0  0  0  0  0  0  0
   -7.6787   -0.4185    0.0000 C   0  0  0  0  0  0  0  0  0
   -7.6787    0.4065    0.0000 C   0  0  0  0  0  0  0  0  0
   -8.3932    0.8190    0.0000 Cl  0  0  0  0  0  0  0  0  0
  1  2  1  0  0  0  0
  2  3  4  0  0  0  0
  2 27  4  0  0  0  0
  3  4  1  0  0  0  0
  3 24  4  0  0  0  0
  4  5  1  0  0  0  0
  4  9  1  0  0  0  0
  5  6  1  0  0  0  0
  6  7  1  0  0  0  0
  7  8  1  0  0  0  0
  7 10  1  0  0  0  0
  8  9  1  0  0  0  0
 10 11  1  0  0  0  0
 11 12  2  0  0  0  0
 12 13  1  0  0  0  0
 13 14  1  0  0  0  0
 14 15  1  0  0  0  0
 15 16  2  0  0  0  0
 15 17  1  0  0  0  0
 17 18  4  0  0  0  0
 17 23  4  0  0  0  0
 18 19  4  0  0  0  0
 19 20  4  0  0  0  0
 20 21  1  0  0  0  0
 20 22  4  0  0  0  0
 22 23  4  0  0  0  0
 24 25  4  0  0  0  0
 25 26  4  0  0  0  0
 26 27  4  0  0  0  0
 27 28  1  0  0  0  0
M  END
>  <Name_Molregno>
297678

>  <DOPAMINE D2>
7.76

>  <DOPAMINE D3>
8.59

$$$$
297679
  Marvin  02231216192D 0   1.00000     0.00000     0

 28 30  0  0  0  0  0  0  0  0999 V2000
    0.0203   -0.1845    0.0000 I   0  0  0  0  0  0  0  0  0
    0.0203   -1.0095    0.0000 C   0  0  0  0  0  0  0  0  0
    0.7348   -1.4220    0.0000 C   0  0  0  0  0  0  0  0  0
    0.7348   -2.2470    0.0000 C   0  0  0  0  0  0  0  0  0
    0.0203   -2.6595    0.0000 C   0  0  0  0  0  0  0  0  0
   -0.6941   -2.2470    0.0000 C   0  0  0  0  0  0  0  0  0
   -0.6941   -1.4220    0.0000 C   0  0  0  0  0  0  0  0  0
   -1.4086   -1.0095    0.0000 C   0  0  0  0  0  0  0  0  0
   -1.4086   -0.1845    0.0000 O   0  0  0  0  0  0  0  0  0
   -2.1231   -1.4220    0.0000 N   0  0  0  0  0  0  0  0  0
   -2.8376   -1.0095    0.0000 C   0  0  0  0  0  0  0  0  0
   -3.5520   -1.4220    0.0000 C   0  0  0  0  0  0  0  0  0
   -4.2665   -1.0095    0.0000 C   0  0  0  0  0  0  0  0  0
   -4.9810   -1.4220    0.0000 C   0  0  0  0  0  0  0  0  0
   -5.6954   -1.0095    0.0000 N   0  0  0  0  0  0  0  0  0
   -6.4099   -1.4220    0.0000 C   0  0  0  0  0  0  0  0  0
   -7.1244   -1.0095    0.0000 C   0  0  0  0  0  0  0  0  0
   -7.1244   -0.1845    0.0000 N   0  0  0  0  0  0  0  0  0
   -6.4099    0.2280    0.0000 C   0  0  0  0  0  0  0  0  0
   -5.6954   -0.1845    0.0000 C   0  0  0  0  0  0  0  0  0
   -7.8389    0.2280    0.0000 C   0  0  0  0  0  0  0  0  0
   -8.5533   -0.1845    0.0000 C   0  0  0  0  0  0  0  0  0
   -9.2678    0.2280    0.0000 C   0  0  0  0  0  0  0  0  0
   -9.2678    1.0530    0.0000 C   0  0  0  0  0  0  0  0  0
   -8.5533    1.4655    0.0000 C   0  0  0  0  0  0  0  0  0
   -8.5533    2.2905    0.0000 Cl  0  0  0  0  0  0  0  0  0
   -7.8389    1.0530    0.0000 C   0  0  0  0  0  0  0  0  0
   -7.1244    1.4655    0.0000 Cl  0  0  0  0  0  0  0  0  0
  1  2  1  0  0  0  0
  2  3  4  0  0  0  0
  2  7  4  0  0  0  0
  3  4  4  0  0  0  0
  4  5  4  0  0  0  0
  5  6  4  0  0  0  0
  6  7  4  0  0  0  0
  7  8  1  0  0  0  0
  8  9  2  0  0  0  0
  8 10  1  0  0  0  0
 10 11  1  0  0  0  0
 11 12  1  0  0  0  0
 12 13  2  0  0  0  0
 13 14  1  0  0  0  0
 14 15  1  0  0  0  0
 15 16  1  0  0  0  0
 15 20  1  0  0  0  0
 16 17  1  0  0  0  0
 17 18  1  0  0  0  0
 18 19  1  0  0  0  0
 18 21  1  0  0  0  0
 19 20  1  0  0  0  0
 21 22  4  0  0  0  0
 21 27  4  0  0  0  0
 22 23  4  0  0  0  0
 23 24  4  0  0  0  0
 24 25  4  0  0  0  0
 25 26  1  0  0  0  0
 25 27  4  0  0  0  0
 27 28  1  0  0  0  0
M  END
>  <Name_Molregno>
297679

>  <DOPAMINE D2>
7.97

>  <DOPAMINE D3>
8.42

$$$$
297700
  Marvin  02231216192D 0   1.00000     0.00000     0

 28 30  0  0  0  0  0  0  0  0999 V2000
    1.3261    3.0734    0.0000 I   0  0  0  0  0  0  0  0  0
    1.3261    2.2484    0.0000 C   0  0  0  0  0  0  0  0  0
    2.0406    1.8359    0.0000 C   0  0  0  0  0  0  0  0  0
    2.0406    1.0109    0.0000 C   0  0  0  0  0  0  0  0  0
    1.3261    0.5984    0.0000 C   0  0  0  0  0  0  0  0  0
    0.6116    1.0109    0.0000 C   0  0  0  0  0  0  0  0  0
    0.6116    1.8359    0.0000 C   0  0  0  0  0  0  0  0  0
    2.7550    0.5984    0.0000 C   0  0  0  0  0  0  0  0  0
    2.7550   -0.2266    0.0000 O   0  0  0  0  0  0  0  0  0
    3.4695    1.0109    0.0000 N   0  0  0  0  0  0  0  0  0
    4.1840    0.5984    0.0000 C   0  0  0  0  0  0  0  0  0
    4.8984    1.0109    0.0000 C   0  0  0  0  0  0  0  0  0
    5.6129    0.5984    0.0000 C   0  0  0  0  0  0  0  0  0
    6.3274    1.0109    0.0000 C   0  0  0  0  0  0  0  0  0
    7.0418    0.5984    0.0000 N   0  0  0  0  0  0  0  0  0
    7.7563    1.0109    0.0000 C   0  0  0  0  0  0  0  0  0
    8.4708    0.5984    0.0000 C   0  0  0  0  0  0  0  0  0
    8.4708   -0.2266    0.0000 N   0  0  0  0  0  0  0  0  0
    7.7563   -0.6391    0.0000 C   0  0  0  0  0  0  0  0  0
    7.0418   -0.2266    0.0000 C   0  0  0  0  0  0  0  0  0
    9.1853   -0.6391    0.0000 C   0  0  0  0  0  0  0  0  0
    9.8997   -0.2266    0.0000 C   0  0  0  0  0  0  0  0  0
   10.6142   -0.6391    0.0000 C   0  0  0  0  0  0  0  0  0
   10.6142   -1.4641    0.0000 C   0  0  0  0  0  0  0  0  0
    9.8997   -1.8766    0.0000 C   0  0  0  0  0  0  0  0  0
    9.8997   -2.7016    0.0000 Cl  0  0  0  0  0  0  0  0  0
    9.1853   -1.4641    0.0000 C   0  0  0  0  0  0  0  0  0
    8.4708   -1.8766    0.0000 Cl  0  0  0  0  0  0  0  0  0
  1  2  1  0  0  0  0
  2  3  4  0  0  0  0
  2  7  4  0  0  0  0
  3  4  4  0  0  0  0
  4  5  4  0  0  0  0
  4  8  1  0  0  0  0
  5  6  4  0  0  0  0
  6  7  4  0  0  0  0
  8  9  2  0  0  0  0
  8 10  1  0  0  0  0
 10 11  1  0  0  0  0
 11 12  1  0  0  0  0
 12 13  2  0  0  0  0
 13 14  1  0  0  0  0
 14 15  1  0  0  0  0
 15 16  1  0  0  0  0
 15 20  1  0  0  0  0
 16 17  1  0  0  0  0
 17 18  1  0  0  0  0
 18 19  1  0  0  0  0
 18 21  1  0  0  0  0
 19 20  1  0  0  0  0
 21 22  4  0  0  0  0
 21 27  4  0  0  0  0
 22 23  4  0  0  0  0
 23 24  4  0  0  0  0
 24 25  4  0  0  0  0
 25 26  1  0  0  0  0
 25 27  4  0  0  0  0
 27 28  1  0  0  0  0
M  END
>  <Name_Molregno>
297700

>  <DOPAMINE D2>
7.55

>  <DOPAMINE D3>
8.49

$$$$
297701
  Marvin  02231216192D 0   1.00000     0.00000     0

 28 30  0  0  0  0  0  0  0  0999 V2000
    4.9068    6.8077    0.0000 I   0  0  0  0  0  0  0  0  0
    4.9068    5.9827    0.0000 C   0  0  0  0  0  0  0  0  0
    5.6213    5.5702    0.0000 C   0  0  0  0  0  0  0  0  0
    5.6213    4.7452    0.0000 C   0  0  0  0  0  0  0  0  0
    4.9068    4.3327    0.0000 C   0  0  0  0  0  0  0  0  0
    4.1924    4.7452    0.0000 C   0  0  0  0  0  0  0  0  0
    4.1924    5.5702    0.0000 C   0  0  0  0  0  0  0  0  0
    4.9068    3.5077    0.0000 C   0  0  0  0  0  0  0  0  0
    4.1924    3.0952    0.0000 O   0  0  0  0  0  0  0  0  0
    5.6213    3.0952    0.0000 N   0  0  0  0  0  0  0  0  0
    5.6213    2.2702    0.0000 C   0  0  0  0  0  0  0  0  0
    6.3358    1.8577    0.0000 C   0  0  0  0  0  0  0  0  0
    6.3358    1.0327    0.0000 C   0  0  0  0  0  0  0  0  0
    7.0502    0.6202    0.0000 C   0  0  0  0  0  0  0  0  0
    7.0502   -0.2048    0.0000 N   0  0  0  0  0  0  0  0  0
    7.7647   -0.6173    0.0000 C   0  0  0  0  0  0  0  0  0
    7.7647   -1.4423    0.0000 C   0  0  0  0  0  0  0  0  0
    7.0502   -1.8548    0.0000 N   0  0  0  0  0  0  0  0  0
    6.3358   -1.4423    0.0000 C   0  0  0  0  0  0  0  0  0
    6.3358   -0.6173    0.0000 C   0  0  0  0  0  0  0  0  0
    7.0502   -2.6798    0.0000 C   0  0  0  0  0  0  0  0  0
    7.7647   -3.0923    0.0000 C   0  0  0  0  0  0  0  0  0
    7.7647   -3.9173    0.0000 C   0  0  0  0  0  0  0  0  0
    7.0502   -4.3298    0.0000 C   0  0  0  0  0  0  0  0  0
    6.3358   -3.9173    0.0000 C   0  0  0  0  0  0  0  0  0
    5.6213   -4.3298    0.0000 Cl  0  0  0  0  0  0  0  0  0
    6.3358   -3.0923    0.0000 C   0  0  0  0  0  0  0  0  0
    5.6213   -2.6798    0.0000 Cl  0  0  0  0  0  0  0  0  0
  1  2  1  0  0  0  0
  2  3  4  0  0  0  0
  2  7  4  0  0  0  0
  3  4  4  0  0  0  0
  4  5  4  0  0  0  0
  5  6  4  0  0  0  0
  5  8  1  0  0  0  0
  6  7  4  0  0  0  0
  8  9  2  0  0  0  0
  8 10  1  0  0  0  0
 10 11  1  0  0  0  0
 11 12  1  0  0  0  0
 12 13  2  0  0  0  0
 13 14  1  0  0  0  0
 14 15  1  0  0  0  0
 15 16  1  0  0  0  0
 15 20  1  0  0  0  0
 16 17  1  0  0  0  0
 17 18  1  0  0  0  0
 18 19  1  0  0  0  0
 18 21  1  0  0  0  0
 19 20  1  0  0  0  0
 21 22  4  0  0  0  0
 21 27  4  0  0  0  0
 22 23  4  0  0  0  0
 23 24  4  0  0  0  0
 24 25  4  0  0  0  0
 25 26  1  0  0  0  0
 25 27  4  0  0  0  0
 27 28  1  0  0  0  0
M  END
>  <Name_Molregno>
297701

>  <DOPAMINE D2>
7.21

>  <DOPAMINE D3>
8.37

$$$$
297738
  Marvin  02231216192D 0   1.00000     0.00000     0

 33 36  0  0  0  0  0  0  0  0999 V2000
   -9.9587   -0.0242    0.0000 Cl  0  0  0  0  0  0  0  0  0
   -9.9587   -0.8492    0.0000 C   0  0  0  0  0  0  0  0  0
   -9.2442   -1.2617    0.0000 C   0  0  0  0  0  0  0  0  0
   -8.5297   -0.8492    0.0000 N   0  0  0  0  0  0  0  0  0
   -8.5297   -0.0242    0.0000 C   0  0  0  0  0  0  0  0  0
   -7.8152    0.3883    0.0000 C   0  0  0  0  0  0  0  0  0
   -7.1008   -0.0242    0.0000 N   0  0  0  0  0  0  0  0  0
   -7.1008   -0.8492    0.0000 C   0  0  0  0  0  0  0  0  0
   -7.8152   -1.2617    0.0000 C   0  0  0  0  0  0  0  0  0
   -6.3863    0.3883    0.0000 C   0  0  0  0  0  0  0  0  0
   -5.6718   -0.0242    0.0000 C   0  0  0  0  0  0  0  0  0
   -4.9574    0.3883    0.0000 C   0  0  0  0  0  0  0  0  0
   -4.2429   -0.0242    0.0000 C   0  0  0  0  0  0  0  0  0
   -3.5284    0.3883    0.0000 N   0  0  0  0  0  0  0  0  0
   -2.8139   -0.0242    0.0000 C   0  0  0  0  0  0  0  0  0
   -2.8139   -0.8492    0.0000 O   0  0  0  0  0  0  0  0  0
   -2.0995    0.3883    0.0000 C   0  0  0  0  0  0  0  0  0
   -2.0995    1.2133    0.0000 C   0  0  0  0  0  0  0  0  0
   -1.3850    1.6258    0.0000 C   0  0  0  0  0  0  0  0  0
   -0.6705    1.2133    0.0000 C   0  0  0  0  0  0  0  0  0
   -0.6705    0.3883    0.0000 C   0  0  0  0  0  0  0  0  0
   -1.3850   -0.0242    0.0000 C   0  0  0  0  0  0  0  0  0
    0.0439    1.6258    0.0000 C   0  0  0  0  0  0  0  0  0
    0.0439    2.4508    0.0000 C   0  0  0  0  0  0  0  0  0
    0.7584    2.8633    0.0000 C   0  0  0  0  0  0  0  0  0
    1.4729    2.4508    0.0000 C   0  0  0  0  0  0  0  0  0
    1.4729    1.6258    0.0000 N   0  0  0  0  0  0  0  0  0
    0.7584    1.2133    0.0000 C   0  0  0  0  0  0  0  0  0
   -9.2442   -2.0867    0.0000 C   0  0  0  0  0  0  0  0  0
   -9.9587   -2.4992    0.0000 C   0  0  0  0  0  0  0  0  0
  -10.6731   -2.0867    0.0000 C   0  0  0  0  0  0  0  0  0
  -10.6731   -1.2617    0.0000 C   0  0  0  0  0  0  0  0  0
  -11.3876   -0.8492    0.0000 Cl  0  0  0  0  0  0  0  0  0
  1  2  1  0  0  0  0
  2  3  4  0  0  0  0
  2 32  4  0  0  0  0
  3  4  1  0  0  0  0
  3 29  4  0  0  0  0
  4  5  1  0  0  0  0
  4  9  1  0  0  0  0
  5  6  1  0  0  0  0
  6  7  1  0  0  0  0
  7  8  1  0  0  0  0
  7 10  1  0  0  0  0
  8  9  1  0  0  0  0
 10 11  1  0  0  0  0
 11 12  1  0  0  0  0
 12 13  1  0  0  0  0
 13 14  1  0  0  0  0
 14 15  1  0  0  0  0
 15 16  2  0  0  0  0
 15 17  1  0  0  0  0
 17 18  4  0  0  0  0
 17 22  4  0  0  0  0
 18 19  4  0  0  0  0
 19 20  4  0  0  0  0
 20 21  4  0  0  0  0
 20 23  1  0  0  0  0
 21 22  4  0  0  0  0
 23 24  4  0  0  0  0
 23 28  4  0  0  0  0
 24 25  4  0  0  0  0
 25 26  4  0  0  0  0
 26 27  4  0  0  0  0
 27 28  4  0  0  0  0
 29 30  4  0  0  0  0
 30 31  4  0  0  0  0
 31 32  4  0  0  0  0
 32 33  1  0  0  0  0
M  END
>  <Name_Molregno>
297738

>  <DOPAMINE D2>
7.74

>  <DOPAMINE D3>
9.3

$$$$
297742
  Marvin  02231216192D 0   1.00000     0.00000     0

 29 31  0  0  0  0  0  0  0  0999 V2000
   -7.0631    1.5184    0.0000 Cl  0  0  0  0  0  0  0  0  0
   -7.0631    0.6934    0.0000 C   0  0  0  0  0  0  0  0  0
   -6.3486    0.2809    0.0000 C   0  0  0  0  0  0  0  0  0
   -5.6341    0.6934    0.0000 N   0  0  0  0  0  0  0  0  0
   -5.6341    1.5184    0.0000 C   0  0  0  0  0  0  0  0  0
   -4.9196    1.9309    0.0000 C   0  0  0  0  0  0  0  0  0
   -4.2052    1.5184    0.0000 N   0  0  0  0  0  0  0  0  0
   -4.2052    0.6934    0.0000 C   0  0  0  0  0  0  0  0  0
   -4.9196    0.2809    0.0000 C   0  0  0  0  0  0  0  0  0
   -3.4907    1.9309    0.0000 C   0  0  0  0  0  0  0  0  0
   -2.7762    1.5184    0.0000 C   0  0  0  0  0  0  0  0  0
   -2.7762    0.6934    0.0000 C   0  0  0  0  0  0  0  0  0
   -2.0618    0.2809    0.0000 C   0  0  0  0  0  0  0  0  0
   -2.0618   -0.5441    0.0000 N   0  0  0  0  0  0  0  0  0
   -1.3473   -0.9566    0.0000 C   0  0  0  0  0  0  0  0  0
   -0.6328   -0.5441    0.0000 O   0  0  0  0  0  0  0  0  0
   -1.3473   -1.7816    0.0000 C   0  0  0  0  0  0  0  0  0
   -0.6328   -2.1941    0.0000 C   0  0  0  0  0  0  0  0  0
   -0.6328   -3.0191    0.0000 C   0  0  0  0  0  0  0  0  0
   -1.3473   -3.4316    0.0000 C   0  0  0  0  0  0  0  0  0
   -2.0618   -3.0191    0.0000 C   0  0  0  0  0  0  0  0  0
   -2.0618   -2.1941    0.0000 C   0  0  0  0  0  0  0  0  0
   -2.7762   -1.7816    0.0000 O   0  0  0  0  0  0  0  0  0
   -3.4907   -2.1941    0.0000 C   0  0  0  0  0  0  0  0  0
   -6.3486   -0.5441    0.0000 C   0  0  0  0  0  0  0  0  0
   -7.0631   -0.9566    0.0000 C   0  0  0  0  0  0  0  0  0
   -7.7775   -0.5441    0.0000 C   0  0  0  0  0  0  0  0  0
   -7.7775    0.2809    0.0000 C   0  0  0  0  0  0  0  0  0
   -8.4920    0.6934    0.0000 Cl  0  0  0  0  0  0  0  0  0
  1  2  1  0  0  0  0
  2  3  4  0  0  0  0
  2 28  4  0  0  0  0
  3  4  1  0  0  0  0
  3 25  4  0  0  0  0
  4  5  1  0  0  0  0
  4  9  1  0  0  0  0
  5  6  1  0  0  0  0
  6  7  1  0  0  0  0
  7  8  1  0  0  0  0
  7 10  1  0  0  0  0
  8  9  1  0  0  0  0
 10 11  1  0  0  0  0
 11 12  2  0  0  0  0
 12 13  1  0  0  0  0
 13 14  1  0  0  0  0
 14 15  1  0  0  0  0
 15 16  2  0  0  0  0
 15 17  1  0  0  0  0
 17 18  4  0  0  0  0
 17 22  4  0  0  0  0
 18 19  4  0  0  0  0
 19 20  4  0  0  0  0
 20 21  4  0  0  0  0
 21 22  4  0  0  0  0
 22 23  1  0  0  0  0
 23 24  1  0  0  0  0
 25 26  4  0  0  0  0
 26 27  4  0  0  0  0
 27 28  4  0  0  0  0
 28 29  1  0  0  0  0
M  END
>  <Name_Molregno>
297742

>  <DOPAMINE D2>
8.43

>  <DOPAMINE D3>
9.22

$$$$
297762
  Marvin  02231216192D 0   1.00000     0.00000     0

 29 31  0  0  0  0  0  0  0  0999 V2000
    0.9008   -1.7300    0.0000 Cl  0  0  0  0  0  0  0  0  0
    0.9008   -2.5550    0.0000 C   0  0  0  0  0  0  0  0  0
    1.6153   -2.9675    0.0000 C   0  0  0  0  0  0  0  0  0
    2.3297   -2.5550    0.0000 N   0  0  0  0  0  0  0  0  0
    2.3297   -1.7300    0.0000 C   0  0  0  0  0  0  0  0  0
    3.0442   -1.3175    0.0000 C   0  0  0  0  0  0  0  0  0
    3.7587   -1.7300    0.0000 N   0  0  0  0  0  0  0  0  0
    3.7587   -2.5550    0.0000 C   0  0  0  0  0  0  0  0  0
    3.0442   -2.9675    0.0000 C   0  0  0  0  0  0  0  0  0
    4.4731   -1.3175    0.0000 C   0  0  0  0  0  0  0  0  0
    4.4731   -0.4925    0.0000 C   0  0  0  0  0  0  0  0  0
    5.1876   -0.0800    0.0000 C   0  0  0  0  0  0  0  0  0
    5.1876    0.7450    0.0000 C   0  0  0  0  0  0  0  0  0
    5.9021    1.1575    0.0000 N   0  0  0  0  0  0  0  0  0
    5.9021    1.9825    0.0000 C   0  0  0  0  0  0  0  0  0
    5.1876    2.3950    0.0000 O   0  0  0  0  0  0  0  0  0
    6.6166    2.3950    0.0000 C   0  0  0  0  0  0  0  0  0
    6.6166    3.2200    0.0000 C   0  0  0  0  0  0  0  0  0
    7.3310    3.6325    0.0000 C   0  0  0  0  0  0  0  0  0
    7.3310    4.4575    0.0000 O   0  0  0  0  0  0  0  0  0
    8.0455    4.8700    0.0000 C   0  0  0  0  0  0  0  0  0
    8.0455    3.2200    0.0000 C   0  0  0  0  0  0  0  0  0
    8.0455    2.3950    0.0000 C   0  0  0  0  0  0  0  0  0
    7.3310    1.9825    0.0000 C   0  0  0  0  0  0  0  0  0
    1.6153   -3.7925    0.0000 C   0  0  0  0  0  0  0  0  0
    0.9008   -4.2050    0.0000 C   0  0  0  0  0  0  0  0  0
    0.1863   -3.7925    0.0000 C   0  0  0  0  0  0  0  0  0
    0.1863   -2.9675    0.0000 C   0  0  0  0  0  0  0  0  0
   -0.5281   -2.5550    0.0000 Cl  0  0  0  0  0  0  0  0  0
  1  2  1  0  0  0  0
  2  3  4  0  0  0  0
  2 28  4  0  0  0  0
  3  4  1  0  0  0  0
  3 25  4  0  0  0  0
  4  5  1  0  0  0  0
  4  9  1  0  0  0  0
  5  6  1  0  0  0  0
  6  7  1  0  0  0  0
  7  8  1  0  0  0  0
  7 10  1  0  0  0  0
  8  9  1  0  0  0  0
 10 11  1  0  0  0  0
 11 12  2  0  0  0  0
 12 13  1  0  0  0  0
 13 14  1  0  0  0  0
 14 15  1  0  0  0  0
 15 16  2  0  0  0  0
 15 17  1  0  0  0  0
 17 18  4  0  0  0  0
 17 24  4  0  0  0  0
 18 19  4  0  0  0  0
 19 20  1  0  0  0  0
 19 22  4  0  0  0  0
 20 21  1  0  0  0  0
 22 23  4  0  0  0  0
 23 24  4  0  0  0  0
 25 26  4  0  0  0  0
 26 27  4  0  0  0  0
 27 28  4  0  0  0  0
 28 29  1  0  0  0  0
M  END
>  <Name_Molregno>
297762

>  <DOPAMINE D2>
7.41

>  <DOPAMINE D3>
8.52

$$$$
300135
  Marvin  02231216192D 0   1.00000     0.00000     0

 25 28  0  0  0  0  0  0  0  0999 V2000
   -0.0061    0.0907    0.0000 Cl  0  0  0  0  0  0  0  0  0
    0.5459    0.7038    0.0000 C   0  0  0  0  0  0  0  0  0
    0.2910    1.4884    0.0000 C   0  0  0  0  0  0  0  0  0
    0.8430    2.1015    0.0000 C   0  0  0  0  0  0  0  0  0
    1.6500    1.9300    0.0000 C   0  0  0  0  0  0  0  0  0
    1.9049    1.1454    0.0000 C   0  0  0  0  0  0  0  0  0
    1.3529    0.5323    0.0000 C   0  0  0  0  0  0  0  0  0
    1.6079   -0.2524    0.0000 S   0  0  0  0  0  0  0  0  0
    0.8232   -0.5073    0.0000 O   0  0  0  0  0  0  0  0  0
    2.3925    0.0026    0.0000 O   0  0  0  0  0  0  0  0  0
    1.8628   -1.0370    0.0000 N   0  0  0  0  0  0  0  0  0
    1.3779   -1.7044    0.0000 C   0  0  0  0  0  0  0  0  0
    1.8628   -2.3719    0.0000 C   0  0  0  0  0  0  0  0  0
    2.6474   -2.1169    0.0000 C   0  0  0  0  0  0  0  0  0
    2.6474   -1.2919    0.0000 C   0  0  0  0  0  0  0  0  0
    3.3619   -0.8794    0.0000 C   0  0  0  0  0  0  0  0  0
    4.0764   -1.2919    0.0000 C   0  0  0  0  0  0  0  0  0
    4.0764   -2.1169    0.0000 C   0  0  0  0  0  0  0  0  0
    3.3619   -2.5294    0.0000 C   0  0  0  0  0  0  0  0  0
    1.6079   -3.1565    0.0000 C   0  0  0  0  0  0  0  0  0
    2.1599   -3.7696    0.0000 C   0  0  0  0  0  0  0  0  0
    1.9049   -4.5542    0.0000 C   0  0  0  0  0  0  0  0  0
    1.0980   -4.7257    0.0000 N   0  0  0  0  0  0  0  0  0
    0.5459   -4.1126    0.0000 C   0  0  0  0  0  0  0  0  0
    0.8009   -3.3280    0.0000 C   0  0  0  0  0  0  0  0  0
  1  2  1  0  0  0  0
  2  3  4  0  0  0  0
  2  7  4  0  0  0  0
  3  4  4  0  0  0  0
  4  5  4  0  0  0  0
  5  6  4  0  0  0  0
  6  7  4  0  0  0  0
  7  8  1  0  0  0  0
  8  9  2  0  0  0  0
  8 10  2  0  0  0  0
  8 11  1  0  0  0  0
 11 12  4  0  0  0  0
 11 15  4  0  0  0  0
 12 13  4  0  0  0  0
 13 14  4  0  0  0  0
 13 20  1  0  0  0  0
 14 15  4  0  0  0  0
 14 19  4  0  0  0  0
 15 16  4  0  0  0  0
 16 17  4  0  0  0  0
 17 18  4  0  0  0  0
 18 19  4  0  0  0  0
 20 21  1  0  0  0  0
 20 25  2  0  0  0  0
 21 22  1  0  0  0  0
 22 23  1  0  0  0  0
 23 24  1  0  0  0  0
 24 25  1  0  0  0  0
M  END
>  <Name_Molregno>
300135

>  <5-HT1A>
5.7

>  <5-HT2A>
6.22

>  <5-HT2C>
6.42

>  <5-HT6>
9.4

>  <DOPAMINE D2>
5.7

>  <DOPAMINE D3>
6.2

>  <DOPAMINE D4>
5.3

$$$$
300151
  Marvin  02231216192D 0   1.00000     0.00000     0

 25 28  0  0  0  0  0  0  0  0999 V2000
    0.7064    1.1104    0.0000 S   0  0  0  0  0  0  0  0  0
    1.4910    1.3653    0.0000 O   0  0  0  0  0  0  0  0  0
   -0.0782    0.8555    0.0000 O   0  0  0  0  0  0  0  0  0
    0.9613    0.3258    0.0000 N   0  0  0  0  0  0  0  0  0
    0.4764   -0.3417    0.0000 C   0  0  0  0  0  0  0  0  0
    0.9613   -1.0091    0.0000 C   0  0  0  0  0  0  0  0  0
    1.7459   -0.7542    0.0000 C   0  0  0  0  0  0  0  0  0
    1.7459    0.0708    0.0000 C   0  0  0  0  0  0  0  0  0
    2.4604    0.4833    0.0000 C   0  0  0  0  0  0  0  0  0
    3.1749    0.0708    0.0000 C   0  0  0  0  0  0  0  0  0
    3.1749   -0.7542    0.0000 C   0  0  0  0  0  0  0  0  0
    2.4604   -1.1667    0.0000 C   0  0  0  0  0  0  0  0  0
    0.7064   -1.7937    0.0000 C   0  0  0  0  0  0  0  0  0
    1.2584   -2.4068    0.0000 C   0  0  0  0  0  0  0  0  0
    1.0035   -3.1914    0.0000 C   0  0  0  0  0  0  0  0  0
    0.1965   -3.3630    0.0000 N   0  0  0  0  0  0  0  0  0
   -0.3555   -2.7499    0.0000 C   0  0  0  0  0  0  0  0  0
   -0.1006   -1.9652    0.0000 C   0  0  0  0  0  0  0  0  0
    0.4514    1.8950    0.0000 C   0  0  0  0  0  0  0  0  0
   -0.3555    2.0666    0.0000 C   0  0  0  0  0  0  0  0  0
   -0.6105    2.8512    0.0000 C   0  0  0  0  0  0  0  0  0
   -0.0584    3.4643    0.0000 C   0  0  0  0  0  0  0  0  0
    0.7485    3.2927    0.0000 C   0  0  0  0  0  0  0  0  0
    1.0035    2.5081    0.0000 C   0  0  0  0  0  0  0  0  0
    1.8104    2.3366    0.0000 F   0  0  0  0  0  0  0  0  0
  1  2  2  0  0  0  0
  1  3  2  0  0  0  0
  1  4  1  0  0  0  0
  1 19  1  0  0  0  0
  4  5  4  0  0  0  0
  4  8  4  0  0  0  0
  5  6  4  0  0  0  0
  6  7  4  0  0  0  0
  6 13  1  0  0  0  0
  7  8  4  0  0  0  0
  7 12  4  0  0  0  0
  8  9  4  0  0  0  0
  9 10  4  0  0  0  0
 10 11  4  0  0  0  0
 11 12  4  0  0  0  0
 13 14  1  0  0  0  0
 13 18  2  0  0  0  0
 14 15  1  0  0  0  0
 15 16  1  0  0  0  0
 16 17  1  0  0  0  0
 17 18  1  0  0  0  0
 19 20  4  0  0  0  0
 19 24  4  0  0  0  0
 20 21  4  0  0  0  0
 21 22  4  0  0  0  0
 22 23  4  0  0  0  0
 23 24  4  0  0  0  0
 24 25  1  0  0  0  0
M  END
>  <Name_Molregno>
300151

>  <5-HT1A>
6.06

>  <5-HT6>
9

>  <DOPAMINE D2>
5.7

>  <DOPAMINE D3>
6.13

>  <DOPAMINE D4>
5.3

$$$$
303772
  Marvin  02231216192D 0   1.00000     0.00000     0

 32 36  0  0  0  0  0  0  0  0999 V2000
   -6.5979   -4.9561    0.0000 O   0  0  0  0  0  0  0  0  0
   -7.3124   -5.3686    0.0000 C   0  0  0  0  0  0  0  0  0
   -8.0268   -4.9561    0.0000 C   0  0  0  0  0  0  0  0  0
   -8.7413   -5.3686    0.0000 O   0  0  0  0  0  0  0  0  0
   -8.0268   -4.1311    0.0000 N   0  0  0  0  0  0  0  0  0
   -7.3124   -3.7186    0.0000 C   0  0  0  0  0  0  0  0  0
   -7.3124   -2.8936    0.0000 C   0  0  0  0  0  0  0  0  0
   -6.5979   -2.4811    0.0000 C   0  0  0  0  0  0  0  0  0
   -5.8834   -2.8936    0.0000 C   0  0  0  0  0  0  0  0  0
   -5.8834   -3.7186    0.0000 C   0  0  0  0  0  0  0  0  0
   -6.5979   -4.1311    0.0000 C   0  0  0  0  0  0  0  0  0
   -6.5979   -1.6561    0.0000 C   0  0  0  0  0  0  0  0  0
   -5.8834   -1.2436    0.0000 C   0  0  0  0  0  0  0  0  0
   -5.8834   -0.4186    0.0000 C   0  0  0  0  0  0  0  0  0
   -5.1690   -0.0061    0.0000 C   0  0  0  0  0  0  0  0  0
   -4.4545   -0.4186    0.0000 N   0  0  0  0  0  0  0  0  0
   -4.4545   -1.2436    0.0000 C   0  0  0  0  0  0  0  0  0
   -5.1690   -1.6561    0.0000 C   0  0  0  0  0  0  0  0  0
   -3.7400   -0.0061    0.0000 C   0  0  0  0  0  0  0  0  0
   -3.7400    0.8189    0.0000 C   0  0  0  0  0  0  0  0  0
   -3.0255    1.2314    0.0000 O   0  0  0  0  0  0  0  0  0
   -3.0255    2.0564    0.0000 C   0  0  0  0  0  0  0  0  0
   -2.3111    2.4689    0.0000 C   0  0  0  0  0  0  0  0  0
   -2.3111    3.2939    0.0000 C   0  0  0  0  0  0  0  0  0
   -1.5966    3.7064    0.0000 N   0  0  0  0  0  0  0  0  0
   -0.8821    3.2939    0.0000 C   0  0  0  0  0  0  0  0  0
   -0.8821    2.4689    0.0000 C   0  0  0  0  0  0  0  0  0
   -1.5966    2.0564    0.0000 C   0  0  0  0  0  0  0  0  0
   -0.1677    3.7064    0.0000 C   0  0  0  0  0  0  0  0  0
   -3.0255    3.7064    0.0000 C   0  0  0  0  0  0  0  0  0
   -3.7400    3.2939    0.0000 C   0  0  0  0  0  0  0  0  0
   -3.7400    2.4689    0.0000 C   0  0  0  0  0  0  0  0  0
  1  2  1  0  0  0  0
  1 11  1  0  0  0  0
  2  3  1  0  0  0  0
  3  4  2  0  0  0  0
  3  5  1  0  0  0  0
  5  6  1  0  0  0  0
  6  7  4  0  0  0  0
  6 11  4  0  0  0  0
  7  8  4  0  0  0  0
  8  9  4  0  0  0  0
  8 12  1  0  0  0  0
  9 10  4  0  0  0  0
 10 11  4  0  0  0  0
 12 13  1  0  0  0  0
 13 14  1  0  0  0  0
 13 18  1  0  0  0  0
 14 15  1  0  0  0  0
 15 16  1  0  0  0  0
 16 17  1  0  0  0  0
 16 19  1  0  0  0  0
 17 18  1  0  0  0  0
 19 20  1  0  0  0  0
 20 21  1  0  0  0  0
 21 22  1  0  0  0  0
 22 23  4  0  0  0  0
 22 32  4  0  0  0  0
 23 24  4  0  0  0  0
 23 28  4  0  0  0  0
 24 25  4  0  0  0  0
 24 30  4  0  0  0  0
 25 26  4  0  0  0  0
 26 27  4  0  0  0  0
 26 29  1  0  0  0  0
 27 28  4  0  0  0  0
 30 31  4  0  0  0  0
 31 32  4  0  0  0  0
M  END
>  <Name_Molregno>
303772

>  <5-HT1A>
8.92

>  <5-HT1B>
8

>  <5-HT1D>
8.8

>  <5-HT2A>
5.5

>  <5-HT2C>
5.1

>  <5-HT6>
5

>  <5-HT7>
6.7

>  <Beta-2>
6

>  <DOPAMINE D2>
5.9

>  <DOPAMINE D3>
6.2

>  <Serotonin transporter>
7.1

$$$$
307262
  Marvin  02231216192D 0   1.00000     0.00000     0

 31 34  0  0  0  0  0  0  0  0999 V2000
    0.8720    2.5321    0.0000 I   0  0  0  0  0  0  0  0  0
    1.2845    1.8177    0.0000 C   0  0  0  0  0  0  0  0  0
    2.1095    1.8177    0.0000 C   0  0  0  0  0  0  0  0  0
    2.5220    1.1032    0.0000 C   0  0  0  0  0  0  0  0  0
    3.3290    0.9317    0.0000 C   0  0  0  0  0  0  0  0  0
    3.4152    0.1112    0.0000 C   0  0  0  0  0  0  0  0  0
    2.6615   -0.2244    0.0000 S   0  0  0  0  0  0  0  0  0
    2.1095    0.3887    0.0000 C   0  0  0  0  0  0  0  0  0
    1.2845    0.3887    0.0000 C   0  0  0  0  0  0  0  0  0
    0.8720    1.1032    0.0000 C   0  0  0  0  0  0  0  0  0
    4.1297   -0.3013    0.0000 C   0  0  0  0  0  0  0  0  0
    4.1297   -1.1263    0.0000 O   0  0  0  0  0  0  0  0  0
    4.8441    0.1112    0.0000 N   0  0  0  0  0  0  0  0  0
    5.5586   -0.3013    0.0000 C   0  0  0  0  0  0  0  0  0
    6.2731    0.1112    0.0000 C   0  0  0  0  0  0  0  0  0
    6.9875   -0.3013    0.0000 C   0  0  0  0  0  0  0  0  0
    7.7020    0.1112    0.0000 C   0  0  0  0  0  0  0  0  0
    8.4165   -0.3013    0.0000 N   0  0  0  0  0  0  0  0  0
    9.1310    0.1112    0.0000 C   0  0  0  0  0  0  0  0  0
    9.8454   -0.3013    0.0000 C   0  0  0  0  0  0  0  0  0
    9.8454   -1.1263    0.0000 N   0  0  0  0  0  0  0  0  0
    9.1310   -1.5388    0.0000 C   0  0  0  0  0  0  0  0  0
    8.4165   -1.1263    0.0000 C   0  0  0  0  0  0  0  0  0
   10.5599   -1.5388    0.0000 C   0  0  0  0  0  0  0  0  0
   11.2744   -1.1263    0.0000 C   0  0  0  0  0  0  0  0  0
   11.9888   -1.5388    0.0000 C   0  0  0  0  0  0  0  0  0
   11.9888   -2.3638    0.0000 C   0  0  0  0  0  0  0  0  0
   11.2744   -2.7763    0.0000 C   0  0  0  0  0  0  0  0  0
   10.5599   -2.3638    0.0000 C   0  0  0  0  0  0  0  0  0
    9.8454   -2.7763    0.0000 O   0  0  0  0  0  0  0  0  0
    9.8454   -3.6013    0.0000 C   0  0  0  0  0  0  0  0  0
  1  2  1  0  0  0  0
  2  3  4  0  0  0  0
  2 10  4  0  0  0  0
  3  4  4  0  0  0  0
  4  5  4  0  0  0  0
  4  8  4  0  0  0  0
  5  6  4  0  0  0  0
  6  7  4  0  0  0  0
  6 11  1  0  0  0  0
  7  8  4  0  0  0  0
  8  9  4  0  0  0  0
  9 10  4  0  0  0  0
 11 12  2  0  0  0  0
 11 13  1  0  0  0  0
 13 14  1  0  0  0  0
 14 15  1  0  0  0  0
 15 16  1  0  0  0  0
 16 17  1  0  0  0  0
 17 18  1  0  0  0  0
 18 19  1  0  0  0  0
 18 23  1  0  0  0  0
 19 20  1  0  0  0  0
 20 21  1  0  0  0  0
 21 22  1  0  0  0  0
 21 24  1  0  0  0  0
 22 23  1  0  0  0  0
 24 25  4  0  0  0  0
 24 29  4  0  0  0  0
 25 26  4  0  0  0  0
 26 27  4  0  0  0  0
 27 28  4  0  0  0  0
 28 29  4  0  0  0  0
 29 30  1  0  0  0  0
 30 31  1  0  0  0  0
M  END
>  <Name_Molregno>
307262

>  <DOPAMINE D2>
8.16

>  <DOPAMINE D3>
9.07

>  <DOPAMINE D4>
7.38

$$$$
307293
  Marvin  02231216192D 0   1.00000     0.00000     0

 31 34  0  0  0  0  0  0  0  0999 V2000
    0.8327    2.2710    0.0000 I   0  0  0  0  0  0  0  0  0
    1.2452    1.5565    0.0000 C   0  0  0  0  0  0  0  0  0
    2.0702    1.5565    0.0000 C   0  0  0  0  0  0  0  0  0
    2.4827    0.8421    0.0000 C   0  0  0  0  0  0  0  0  0
    3.2897    0.6705    0.0000 C   0  0  0  0  0  0  0  0  0
    3.3760   -0.1499    0.0000 C   0  0  0  0  0  0  0  0  0
    2.6223   -0.4855    0.0000 O   0  0  0  0  0  0  0  0  0
    2.0702    0.1276    0.0000 C   0  0  0  0  0  0  0  0  0
    1.2452    0.1276    0.0000 C   0  0  0  0  0  0  0  0  0
    0.8327    0.8421    0.0000 C   0  0  0  0  0  0  0  0  0
    4.0904   -0.5624    0.0000 C   0  0  0  0  0  0  0  0  0
    4.0904   -1.3874    0.0000 O   0  0  0  0  0  0  0  0  0
    4.8049   -0.1499    0.0000 N   0  0  0  0  0  0  0  0  0
    5.5194   -0.5624    0.0000 C   0  0  0  0  0  0  0  0  0
    6.2338   -0.1499    0.0000 C   0  0  0  0  0  0  0  0  0
    6.9483   -0.5624    0.0000 C   0  0  0  0  0  0  0  0  0
    7.6628   -0.1499    0.0000 C   0  0  0  0  0  0  0  0  0
    8.3772   -0.5624    0.0000 N   0  0  0  0  0  0  0  0  0
    9.0917   -0.1499    0.0000 C   0  0  0  0  0  0  0  0  0
    9.8062   -0.5624    0.0000 C   0  0  0  0  0  0  0  0  0
    9.8062   -1.3874    0.0000 N   0  0  0  0  0  0  0  0  0
    9.0917   -1.7999    0.0000 C   0  0  0  0  0  0  0  0  0
    8.3772   -1.3874    0.0000 C   0  0  0  0  0  0  0  0  0
   10.5207   -1.7999    0.0000 C   0  0  0  0  0  0  0  0  0
   11.2351   -1.3874    0.0000 C   0  0  0  0  0  0  0  0  0
   11.9496   -1.7999    0.0000 C   0  0  0  0  0  0  0  0  0
   11.9496   -2.6249    0.0000 C   0  0  0  0  0  0  0  0  0
   11.2351   -3.0374    0.0000 C   0  0  0  0  0  0  0  0  0
   11.2351   -3.8624    0.0000 Cl  0  0  0  0  0  0  0  0  0
   10.5207   -2.6249    0.0000 C   0  0  0  0  0  0  0  0  0
    9.8062   -3.0374    0.0000 Cl  0  0  0  0  0  0  0  0  0
  1  2  1  0  0  0  0
  2  3  4  0  0  0  0
  2 10  4  0  0  0  0
  3  4  4  0  0  0  0
  4  5  4  0  0  0  0
  4  8  4  0  0  0  0
  5  6  4  0  0  0  0
  6  7  4  0  0  0  0
  6 11  1  0  0  0  0
  7  8  4  0  0  0  0
  8  9  4  0  0  0  0
  9 10  4  0  0  0  0
 11 12  2  0  0  0  0
 11 13  1  0  0  0  0
 13 14  1  0  0  0  0
 14 15  1  0  0  0  0
 15 16  1  0  0  0  0
 16 17  1  0  0  0  0
 17 18  1  0  0  0  0
 18 19  1  0  0  0  0
 18 23  1  0  0  0  0
 19 20  1  0  0  0  0
 20 21  1  0  0  0  0
 21 22  1  0  0  0  0
 21 24  1  0  0  0  0
 22 23  1  0  0  0  0
 24 25  4  0  0  0  0
 24 30  4  0  0  0  0
 25 26  4  0  0  0  0
 26 27  4  0  0  0  0
 27 28  4  0  0  0  0
 28 29  1  0  0  0  0
 28 30  4  0  0  0  0
 30 31  1  0  0  0  0
M  END
>  <Name_Molregno>
307293

>  <DOPAMINE D2>
5.93

>  <DOPAMINE D3>
8.52

>  <DOPAMINE D4>
5.71

$$$$
307304
  Marvin  02231216192D 0   1.00000     0.00000     0

 27 29  0  0  0  0  0  0  0  0999 V2000
    0.8654    2.2458    0.0000 I   0  0  0  0  0  0  0  0  0
    1.2010    1.4921    0.0000 C   0  0  0  0  0  0  0  0  0
    2.0079    1.3206    0.0000 S   0  0  0  0  0  0  0  0  0
    2.0942    0.5001    0.0000 C   0  0  0  0  0  0  0  0  0
    1.3405    0.1646    0.0000 C   0  0  0  0  0  0  0  0  0
    0.7885    0.7777    0.0000 C   0  0  0  0  0  0  0  0  0
    2.8086    0.0876    0.0000 C   0  0  0  0  0  0  0  0  0
    2.8086   -0.7374    0.0000 O   0  0  0  0  0  0  0  0  0
    3.5231    0.5001    0.0000 N   0  0  0  0  0  0  0  0  0
    4.2376    0.0876    0.0000 C   0  0  0  0  0  0  0  0  0
    4.9521    0.5001    0.0000 C   0  0  0  0  0  0  0  0  0
    5.6665    0.0876    0.0000 C   0  0  0  0  0  0  0  0  0
    6.3810    0.5001    0.0000 C   0  0  0  0  0  0  0  0  0
    7.0955    0.0876    0.0000 N   0  0  0  0  0  0  0  0  0
    7.8099    0.5001    0.0000 C   0  0  0  0  0  0  0  0  0
    8.5244    0.0876    0.0000 C   0  0  0  0  0  0  0  0  0
    8.5244   -0.7374    0.0000 N   0  0  0  0  0  0  0  0  0
    7.8099   -1.1499    0.0000 C   0  0  0  0  0  0  0  0  0
    7.0955   -0.7374    0.0000 C   0  0  0  0  0  0  0  0  0
    9.2389   -1.1499    0.0000 C   0  0  0  0  0  0  0  0  0
    9.9534   -0.7374    0.0000 C   0  0  0  0  0  0  0  0  0
   10.6678   -1.1499    0.0000 C   0  0  0  0  0  0  0  0  0
   10.6678   -1.9749    0.0000 C   0  0  0  0  0  0  0  0  0
    9.9534   -2.3874    0.0000 C   0  0  0  0  0  0  0  0  0
    9.9534   -3.2124    0.0000 Cl  0  0  0  0  0  0  0  0  0
    9.2389   -1.9749    0.0000 C   0  0  0  0  0  0  0  0  0
    8.5244   -2.3874    0.0000 Cl  0  0  0  0  0  0  0  0  0
  1  2  1  0  0  0  0
  2  3  4  0  0  0  0
  2  6  4  0  0  0  0
  3  4  4  0  0  0  0
  4  5  4  0  0  0  0
  4  7  1  0  0  0  0
  5  6  4  0  0  0  0
  7  8  2  0  0  0  0
  7  9  1  0  0  0  0
  9 10  1  0  0  0  0
 10 11  1  0  0  0  0
 11 12  1  0  0  0  0
 12 13  1  0  0  0  0
 13 14  1  0  0  0  0
 14 15  1  0  0  0  0
 14 19  1  0  0  0  0
 15 16  1  0  0  0  0
 16 17  1  0  0  0  0
 17 18  1  0  0  0  0
 17 20  1  0  0  0  0
 18 19  1  0  0  0  0
 20 21  4  0  0  0  0
 20 26  4  0  0  0  0
 21 22  4  0  0  0  0
 22 23  4  0  0  0  0
 23 24  4  0  0  0  0
 24 25  1  0  0  0  0
 24 26  4  0  0  0  0
 26 27  1  0  0  0  0
M  END
>  <Name_Molregno>
307304

>  <DOPAMINE D2>
7.27

>  <DOPAMINE D3>
8.85

>  <DOPAMINE D4>
6.89

$$$$
307319
  Marvin  02231216192D 0   1.00000     0.00000     0

 31 34  0  0  0  0  0  0  0  0999 V2000
    0.8720    2.5321    0.0000 I   0  0  0  0  0  0  0  0  0
    1.2845    1.8177    0.0000 C   0  0  0  0  0  0  0  0  0
    2.1095    1.8177    0.0000 C   0  0  0  0  0  0  0  0  0
    2.5220    1.1032    0.0000 C   0  0  0  0  0  0  0  0  0
    3.3290    0.9317    0.0000 C   0  0  0  0  0  0  0  0  0
    3.4152    0.1112    0.0000 C   0  0  0  0  0  0  0  0  0
    2.6615   -0.2244    0.0000 O   0  0  0  0  0  0  0  0  0
    2.1095    0.3887    0.0000 C   0  0  0  0  0  0  0  0  0
    1.2845    0.3887    0.0000 C   0  0  0  0  0  0  0  0  0
    0.8720    1.1032    0.0000 C   0  0  0  0  0  0  0  0  0
    4.1297   -0.3013    0.0000 C   0  0  0  0  0  0  0  0  0
    4.1297   -1.1263    0.0000 O   0  0  0  0  0  0  0  0  0
    4.8441    0.1112    0.0000 N   0  0  0  0  0  0  0  0  0
    5.5586   -0.3013    0.0000 C   0  0  0  0  0  0  0  0  0
    6.2731    0.1112    0.0000 C   0  0  0  0  0  0  0  0  0
    6.9875   -0.3013    0.0000 C   0  0  0  0  0  0  0  0  0
    7.7020    0.1112    0.0000 C   0  0  0  0  0  0  0  0  0
    8.4165   -0.3013    0.0000 N   0  0  0  0  0  0  0  0  0
    9.1310    0.1112    0.0000 C   0  0  0  0  0  0  0  0  0
    9.8454   -0.3013    0.0000 C   0  0  0  0  0  0  0  0  0
    9.8454   -1.1263    0.0000 N   0  0  0  0  0  0  0  0  0
    9.1310   -1.5388    0.0000 C   0  0  0  0  0  0  0  0  0
    8.4165   -1.1263    0.0000 C   0  0  0  0  0  0  0  0  0
   10.5599   -1.5388    0.0000 C   0  0  0  0  0  0  0  0  0
   11.2744   -1.1263    0.0000 C   0  0  0  0  0  0  0  0  0
   11.9888   -1.5388    0.0000 C   0  0  0  0  0  0  0  0  0
   11.9888   -2.3638    0.0000 C   0  0  0  0  0  0  0  0  0
   11.2744   -2.7763    0.0000 C   0  0  0  0  0  0  0  0  0
   10.5599   -2.3638    0.0000 C   0  0  0  0  0  0  0  0  0
    9.8454   -2.7763    0.0000 O   0  0  0  0  0  0  0  0  0
    9.8454   -3.6013    0.0000 C   0  0  0  0  0  0  0  0  0
  1  2  1  0  0  0  0
  2  3  4  0  0  0  0
  2 10  4  0  0  0  0
  3  4  4  0  0  0  0
  4  5  4  0  0  0  0
  4  8  4  0  0  0  0
  5  6  4  0  0  0  0
  6  7  4  0  0  0  0
  6 11  1  0  0  0  0
  7  8  4  0  0  0  0
  8  9  4  0  0  0  0
  9 10  4  0  0  0  0
 11 12  2  0  0  0  0
 11 13  1  0  0  0  0
 13 14  1  0  0  0  0
 14 15  1  0  0  0  0
 15 16  1  0  0  0  0
 16 17  1  0  0  0  0
 17 18  1  0  0  0  0
 18 19  1  0  0  0  0
 18 23  1  0  0  0  0
 19 20  1  0  0  0  0
 20 21  1  0  0  0  0
 21 22  1  0  0  0  0
 21 24  1  0  0  0  0
 22 23  1  0  0  0  0
 24 25  4  0  0  0  0
 24 29  4  0  0  0  0
 25 26  4  0  0  0  0
 26 27  4  0  0  0  0
 27 28  4  0  0  0  0
 28 29  4  0  0  0  0
 29 30  1  0  0  0  0
 30 31  1  0  0  0  0
M  END
>  <Name_Molregno>
307319

>  <DOPAMINE D2>
7.4

>  <DOPAMINE D3>
9

>  <DOPAMINE D4>
6.91

$$$$
307331
  Marvin  02231216192D 0   1.00000     0.00000     0

 31 34  0  0  0  0  0  0  0  0999 V2000
    0.8327    2.2710    0.0000 I   0  0  0  0  0  0  0  0  0
    1.2452    1.5565    0.0000 C   0  0  0  0  0  0  0  0  0
    2.0702    1.5565    0.0000 C   0  0  0  0  0  0  0  0  0
    2.4827    0.8421    0.0000 C   0  0  0  0  0  0  0  0  0
    3.2897    0.6705    0.0000 C   0  0  0  0  0  0  0  0  0
    3.3760   -0.1499    0.0000 C   0  0  0  0  0  0  0  0  0
    2.6223   -0.4855    0.0000 S   0  0  0  0  0  0  0  0  0
    2.0702    0.1276    0.0000 C   0  0  0  0  0  0  0  0  0
    1.2452    0.1276    0.0000 C   0  0  0  0  0  0  0  0  0
    0.8327    0.8421    0.0000 C   0  0  0  0  0  0  0  0  0
    4.0904   -0.5624    0.0000 C   0  0  0  0  0  0  0  0  0
    4.0904   -1.3874    0.0000 O   0  0  0  0  0  0  0  0  0
    4.8049   -0.1499    0.0000 N   0  0  0  0  0  0  0  0  0
    5.5194   -0.5624    0.0000 C   0  0  0  0  0  0  0  0  0
    6.2338   -0.1499    0.0000 C   0  0  0  0  0  0  0  0  0
    6.9483   -0.5624    0.0000 C   0  0  0  0  0  0  0  0  0
    7.6628   -0.1499    0.0000 C   0  0  0  0  0  0  0  0  0
    8.3772   -0.5624    0.0000 N   0  0  0  0  0  0  0  0  0
    9.0917   -0.1499    0.0000 C   0  0  0  0  0  0  0  0  0
    9.8062   -0.5624    0.0000 C   0  0  0  0  0  0  0  0  0
    9.8062   -1.3874    0.0000 N   0  0  0  0  0  0  0  0  0
    9.0917   -1.7999    0.0000 C   0  0  0  0  0  0  0  0  0
    8.3772   -1.3874    0.0000 C   0  0  0  0  0  0  0  0  0
   10.5207   -1.7999    0.0000 C   0  0  0  0  0  0  0  0  0
   11.2351   -1.3874    0.0000 C   0  0  0  0  0  0  0  0  0
   11.9496   -1.7999    0.0000 C   0  0  0  0  0  0  0  0  0
   11.9496   -2.6249    0.0000 C   0  0  0  0  0  0  0  0  0
   11.2351   -3.0374    0.0000 C   0  0  0  0  0  0  0  0  0
   11.2351   -3.8624    0.0000 Cl  0  0  0  0  0  0  0  0  0
   10.5207   -2.6249    0.0000 C   0  0  0  0  0  0  0  0  0
    9.8062   -3.0374    0.0000 Cl  0  0  0  0  0  0  0  0  0
  1  2  1  0  0  0  0
  2  3  4  0  0  0  0
  2 10  4  0  0  0  0
  3  4  4  0  0  0  0
  4  5  4  0  0  0  0
  4  8  4  0  0  0  0
  5  6  4  0  0  0  0
  6  7  4  0  0  0  0
  6 11  1  0  0  0  0
  7  8  4  0  0  0  0
  8  9  4  0  0  0  0
  9 10  4  0  0  0  0
 11 12  2  0  0  0  0
 11 13  1  0  0  0  0
 13 14  1  0  0  0  0
 14 15  1  0  0  0  0
 15 16  1  0  0  0  0
 16 17  1  0  0  0  0
 17 18  1  0  0  0  0
 18 19  1  0  0  0  0
 18 23  1  0  0  0  0
 19 20  1  0  0  0  0
 20 21  1  0  0  0  0
 21 22  1  0  0  0  0
 21 24  1  0  0  0  0
 22 23  1  0  0  0  0
 24 25  4  0  0  0  0
 24 30  4  0  0  0  0
 25 26  4  0  0  0  0
 26 27  4  0  0  0  0
 27 28  4  0  0  0  0
 28 29  1  0  0  0  0
 28 30  4  0  0  0  0
 30 31  1  0  0  0  0
M  END
>  <Name_Molregno>
307331

>  <DOPAMINE D2>
6.6

>  <DOPAMINE D3>
8.35

>  <DOPAMINE D4>
6.26

$$$$
307336
  Marvin  02231216192D 0   1.00000     0.00000     0

 27 29  0  0  0  0  0  0  0  0999 V2000
    0.8884    2.2835    0.0000 I   0  0  0  0  0  0  0  0  0
    1.2240    1.5298    0.0000 C   0  0  0  0  0  0  0  0  0
    2.0309    1.3583    0.0000 S   0  0  0  0  0  0  0  0  0
    2.1172    0.5378    0.0000 C   0  0  0  0  0  0  0  0  0
    1.3635    0.2023    0.0000 C   0  0  0  0  0  0  0  0  0
    0.8115    0.8154    0.0000 C   0  0  0  0  0  0  0  0  0
    2.8316    0.1253    0.0000 C   0  0  0  0  0  0  0  0  0
    2.8316   -0.6997    0.0000 O   0  0  0  0  0  0  0  0  0
    3.5461    0.5378    0.0000 N   0  0  0  0  0  0  0  0  0
    4.2606    0.1253    0.0000 C   0  0  0  0  0  0  0  0  0
    4.9751    0.5378    0.0000 C   0  0  0  0  0  0  0  0  0
    5.6895    0.1253    0.0000 C   0  0  0  0  0  0  0  0  0
    6.4040    0.5378    0.0000 C   0  0  0  0  0  0  0  0  0
    7.1185    0.1253    0.0000 N   0  0  0  0  0  0  0  0  0
    7.8329    0.5378    0.0000 C   0  0  0  0  0  0  0  0  0
    8.5474    0.1253    0.0000 C   0  0  0  0  0  0  0  0  0
    8.5474   -0.6997    0.0000 N   0  0  0  0  0  0  0  0  0
    7.8329   -1.1122    0.0000 C   0  0  0  0  0  0  0  0  0
    7.1185   -0.6997    0.0000 C   0  0  0  0  0  0  0  0  0
    9.2619   -1.1122    0.0000 C   0  0  0  0  0  0  0  0  0
    9.9764   -0.6997    0.0000 C   0  0  0  0  0  0  0  0  0
   10.6908   -1.1122    0.0000 C   0  0  0  0  0  0  0  0  0
   10.6908   -1.9372    0.0000 C   0  0  0  0  0  0  0  0  0
    9.9764   -2.3497    0.0000 C   0  0  0  0  0  0  0  0  0
    9.2619   -1.9372    0.0000 C   0  0  0  0  0  0  0  0  0
    8.5474   -2.3497    0.0000 O   0  0  0  0  0  0  0  0  0
    8.5474   -3.1747    0.0000 C   0  0  0  0  0  0  0  0  0
  1  2  1  0  0  0  0
  2  3  4  0  0  0  0
  2  6  4  0  0  0  0
  3  4  4  0  0  0  0
  4  5  4  0  0  0  0
  4  7  1  0  0  0  0
  5  6  4  0  0  0  0
  7  8  2  0  0  0  0
  7  9  1  0  0  0  0
  9 10  1  0  0  0  0
 10 11  1  0  0  0  0
 11 12  1  0  0  0  0
 12 13  1  0  0  0  0
 13 14  1  0  0  0  0
 14 15  1  0  0  0  0
 14 19  1  0  0  0  0
 15 16  1  0  0  0  0
 16 17  1  0  0  0  0
 17 18  1  0  0  0  0
 17 20  1  0  0  0  0
 18 19  1  0  0  0  0
 20 21  4  0  0  0  0
 20 25  4  0  0  0  0
 21 22  4  0  0  0  0
 22 23  4  0  0  0  0
 23 24  4  0  0  0  0
 24 25  4  0  0  0  0
 25 26  1  0  0  0  0
 26 27  1  0  0  0  0
M  END
>  <Name_Molregno>
307336

>  <DOPAMINE D2>
7.29

>  <DOPAMINE D3>
8.62

>  <DOPAMINE D4>
7.51

$$$$
311687
  Marvin  02231216192D 0   1.00000     0.00000     0

 23 25  0  0  1  0  0  0  0  0999 V2000
    6.3313    2.7251    0.0000 O   0  0  0  0  0  0  0  0  0
    6.3313    1.9001    0.0000 C   0  0  0  0  0  0  0  0  0
    5.6168    1.4876    0.0000 C   0  0  0  0  0  0  0  0  0
    4.9024    1.9001    0.0000 N   0  0  0  0  0  0  0  0  0
    4.9024    2.7251    0.0000 C   0  0  0  0  0  0  0  0  0
    5.6168    3.1376    0.0000 C   0  0  0  0  0  0  0  0  0
    5.6168    3.9626    0.0000 C   0  0  0  0  0  0  0  0  0
    4.1879    1.4876    0.0000 C   0  0  0  0  0  0  0  0  0
    4.1879    0.6626    0.0000 C   0  0  0  0  0  0  0  0  0
    3.4734    0.2501    0.0000 O   0  0  0  0  0  0  0  0  0
    3.4734   -0.5749    0.0000 C   0  0  0  0  0  0  0  0  0
    4.1879   -0.9874    0.0000 C   0  0  0  0  0  0  0  0  0
    4.1879   -1.8124    0.0000 C   0  0  0  0  0  0  0  0  0
    3.4734   -2.2249    0.0000 C   0  0  0  0  0  0  0  0  0
    2.7590   -1.8124    0.0000 C   0  0  0  0  0  0  0  0  0
    2.7590   -0.9874    0.0000 C   0  0  0  0  0  0  0  0  0
    2.0445   -0.5749    0.0000 C   0  0  0  0  0  0  0  0  0
    2.0445    0.2501    0.0000 C   0  0  0  0  0  0  0  0  0
    1.3300    0.6626    0.0000 C   0  0  0  0  0  0  0  0  0
    1.3300    1.4876    0.0000 C   0  0  0  0  0  0  0  0  0
    2.0445    1.9001    0.0000 C   0  0  0  0  0  0  0  0  0
    2.7590    1.4876    0.0000 C   0  0  0  0  0  0  0  0  0
    2.7590    0.6626    0.0000 C   0  0  0  0  0  0  0  0  0
  1  2  1  0  0  0  0
  1  6  1  0  0  0  0
  2  3  1  0  0  0  0
  3  4  1  0  0  0  0
  4  5  1  0  0  0  0
  4  8  1  0  0  0  0
  5  6  1  0  0  0  0
  6  7  1  0  0  0  0
  8  9  1  0  0  0  0
  9 10  1  0  0  0  0
 10 11  1  0  0  0  0
 11 12  4  0  0  0  0
 11 16  4  0  0  0  0
 12 13  4  0  0  0  0
 13 14  4  0  0  0  0
 14 15  4  0  0  0  0
 15 16  4  0  0  0  0
 16 17  1  0  0  0  0
 17 18  1  0  0  0  0
 18 19  4  0  0  0  0
 18 23  4  0  0  0  0
 19 20  4  0  0  0  0
 20 21  4  0  0  0  0
 21 22  4  0  0  0  0
 22 23  4  0  0  0  0
M  END
>  <Name_Molregno>
311687

>  <DOPAMINE D1>
5.78

>  <DOPAMINE D2>
5

>  <DOPAMINE D3>
5

>  <DOPAMINE D4>
5

$$$$
311694
  Marvin  02231216192D 0   1.00000     0.00000     0

 28 31  0  0  0  0  0  0  0  0999 V2000
    0.5437    1.4502    0.0000 O   0  0  0  0  0  0  0  0  0
    0.5437    0.6252    0.0000 C   0  0  0  0  0  0  0  0  0
    1.2582    0.2127    0.0000 C   0  0  0  0  0  0  0  0  0
    1.2582   -0.6123    0.0000 N   0  0  0  0  0  0  0  0  0
    1.9726   -1.0248    0.0000 C   0  0  0  0  0  0  0  0  0
    1.9726   -1.8498    0.0000 C   0  0  0  0  0  0  0  0  0
    1.2582   -2.2623    0.0000 N   0  0  0  0  0  0  0  0  0
    0.5437   -1.8498    0.0000 C   0  0  0  0  0  0  0  0  0
    0.5437   -1.0248    0.0000 C   0  0  0  0  0  0  0  0  0
    1.2582   -3.0873    0.0000 C   0  0  0  0  0  0  0  0  0
    1.9726   -3.4998    0.0000 C   0  0  0  0  0  0  0  0  0
    1.9726   -4.3248    0.0000 C   0  0  0  0  0  0  0  0  0
    1.2582   -4.7373    0.0000 C   0  0  0  0  0  0  0  0  0
    0.5437   -4.3248    0.0000 C   0  0  0  0  0  0  0  0  0
    0.5437   -3.4998    0.0000 C   0  0  0  0  0  0  0  0  0
   -0.1708    1.8627    0.0000 C   0  0  0  0  0  0  0  0  0
   -0.8852    1.4502    0.0000 C   0  0  0  0  0  0  0  0  0
   -1.5997    1.8627    0.0000 C   0  0  0  0  0  0  0  0  0
   -1.5997    2.6877    0.0000 C   0  0  0  0  0  0  0  0  0
   -0.8852    3.1002    0.0000 C   0  0  0  0  0  0  0  0  0
   -0.1708    2.6877    0.0000 C   0  0  0  0  0  0  0  0  0
    0.5437    3.1002    0.0000 C   0  0  0  0  0  0  0  0  0
    1.2582    2.6877    0.0000 C   0  0  0  0  0  0  0  0  0
    1.9726    3.1002    0.0000 C   0  0  0  0  0  0  0  0  0
    2.6871    2.6877    0.0000 C   0  0  0  0  0  0  0  0  0
    2.6871    1.8627    0.0000 C   0  0  0  0  0  0  0  0  0
    1.9726    1.4502    0.0000 C   0  0  0  0  0  0  0  0  0
    1.2582    1.8627    0.0000 C   0  0  0  0  0  0  0  0  0
  1  2  1  0  0  0  0
  1 16  1  0  0  0  0
  2  3  1  0  0  0  0
  3  4  1  0  0  0  0
  4  5  1  0  0  0  0
  4  9  1  0  0  0  0
  5  6  1  0  0  0  0
  6  7  1  0  0  0  0
  7  8  1  0  0  0  0
  7 10  1  0  0  0  0
  8  9  1  0  0  0  0
 10 11  4  0  0  0  0
 10 15  4  0  0  0  0
 11 12  4  0  0  0  0
 12 13  4  0  0  0  0
 13 14  4  0  0  0  0
 14 15  4  0  0  0  0
 16 17  4  0  0  0  0
 16 21  4  0  0  0  0
 17 18  4  0  0  0  0
 18 19  4  0  0  0  0
 19 20  4  0  0  0  0
 20 21  4  0  0  0  0
 21 22  1  0  0  0  0
 22 23  1  0  0  0  0
 23 24  4  0  0  0  0
 23 28  4  0  0  0  0
 24 25  4  0  0  0  0
 25 26  4  0  0  0  0
 26 27  4  0  0  0  0
 27 28  4  0  0  0  0
M  END
>  <Name_Molregno>
311694

>  <DOPAMINE D1>
5.83

>  <DOPAMINE D2>
5.38

>  <DOPAMINE D3>
5.54

>  <DOPAMINE D4>
5

>  <DOPAMINE D5>
6.21

$$$$
311772
  Marvin  02231216192D 0   1.00000     0.00000     0

 22 24  0  0  0  0  0  0  0  0999 V2000
   -0.1092   -0.4388    0.0000 O   0  0  0  0  0  0  0  0  0
    0.6053   -0.8513    0.0000 C   0  0  0  0  0  0  0  0  0
    1.3197   -0.4388    0.0000 C   0  0  0  0  0  0  0  0  0
    2.0342   -0.8513    0.0000 C   0  0  0  0  0  0  0  0  0
    2.7487   -0.4388    0.0000 N   0  0  0  0  0  0  0  0  0
    2.8349    0.3817    0.0000 C   0  0  0  0  0  0  0  0  0
    3.6419    0.5532    0.0000 C   0  0  0  0  0  0  0  0  0
    4.0544   -0.1612    0.0000 C   0  0  0  0  0  0  0  0  0
    3.5023   -0.7743    0.0000 C   0  0  0  0  0  0  0  0  0
   -0.8237   -0.8513    0.0000 C   0  0  0  0  0  0  0  0  0
   -0.8237   -1.6763    0.0000 C   0  0  0  0  0  0  0  0  0
   -1.5382   -2.0888    0.0000 C   0  0  0  0  0  0  0  0  0
   -2.2526   -1.6763    0.0000 C   0  0  0  0  0  0  0  0  0
   -2.2526   -0.8513    0.0000 C   0  0  0  0  0  0  0  0  0
   -1.5382   -0.4388    0.0000 C   0  0  0  0  0  0  0  0  0
   -1.5382    0.3862    0.0000 C   0  0  0  0  0  0  0  0  0
   -2.2526    0.7987    0.0000 C   0  0  0  0  0  0  0  0  0
   -2.9671    0.3862    0.0000 C   0  0  0  0  0  0  0  0  0
   -3.6816    0.7987    0.0000 C   0  0  0  0  0  0  0  0  0
   -3.6816    1.6237    0.0000 C   0  0  0  0  0  0  0  0  0
   -2.9671    2.0362    0.0000 C   0  0  0  0  0  0  0  0  0
   -2.2526    1.6237    0.0000 C   0  0  0  0  0  0  0  0  0
  1  2  1  0  0  0  0
  1 10  1  0  0  0  0
  2  3  1  0  0  0  0
  3  4  1  0  0  0  0
  4  5  1  0  0  0  0
  5  6  1  0  0  0  0
  5  9  1  0  0  0  0
  6  7  1  0  0  0  0
  7  8  1  0  0  0  0
  8  9  1  0  0  0  0
 10 11  4  0  0  0  0
 10 15  4  0  0  0  0
 11 12  4  0  0  0  0
 12 13  4  0  0  0  0
 13 14  4  0  0  0  0
 14 15  4  0  0  0  0
 15 16  1  0  0  0  0
 16 17  1  0  0  0  0
 17 18  4  0  0  0  0
 17 22  4  0  0  0  0
 18 19  4  0  0  0  0
 19 20  4  0  0  0  0
 20 21  4  0  0  0  0
 21 22  4  0  0  0  0
M  END
>  <Name_Molregno>
311772

>  <DOPAMINE D1>
6.95

>  <DOPAMINE D2>
6

>  <DOPAMINE D3>
5.53

>  <DOPAMINE D4>
5.9

>  <DOPAMINE D5>
6.95

$$$$
311773
  Marvin  02231216192D 0   1.00000     0.00000     0

 21 23  0  0  0  0  0  0  0  0999 V2000
   -0.6931    0.4024    0.0000 N   0  0  0  0  0  0  0  0  0
   -0.6931   -0.4226    0.0000 C   0  0  0  0  0  0  0  0  0
    0.0214   -0.8351    0.0000 C   0  0  0  0  0  0  0  0  0
    0.0214   -1.6601    0.0000 N   0  0  0  0  0  0  0  0  0
    0.6888   -2.1451    0.0000 C   0  0  0  0  0  0  0  0  0
    0.4339   -2.9297    0.0000 C   0  0  0  0  0  0  0  0  0
   -0.3911   -2.9297    0.0000 C   0  0  0  0  0  0  0  0  0
   -0.6460   -2.1451    0.0000 C   0  0  0  0  0  0  0  0  0
   -1.4075    0.8149    0.0000 C   0  0  0  0  0  0  0  0  0
   -2.1220    0.4024    0.0000 C   0  0  0  0  0  0  0  0  0
   -2.8365    0.8149    0.0000 C   0  0  0  0  0  0  0  0  0
   -2.8365    1.6399    0.0000 C   0  0  0  0  0  0  0  0  0
   -2.1220    2.0524    0.0000 C   0  0  0  0  0  0  0  0  0
   -1.4075    1.6399    0.0000 C   0  0  0  0  0  0  0  0  0
   -0.6931    2.0524    0.0000 C   0  0  0  0  0  0  0  0  0
    0.0214    1.6399    0.0000 C   0  0  0  0  0  0  0  0  0
    0.7359    2.0524    0.0000 C   0  0  0  0  0  0  0  0  0
    1.4503    1.6399    0.0000 C   0  0  0  0  0  0  0  0  0
    1.4503    0.8149    0.0000 C   0  0  0  0  0  0  0  0  0
    0.7359    0.4024    0.0000 C   0  0  0  0  0  0  0  0  0
    0.0214    0.8149    0.0000 C   0  0  0  0  0  0  0  0  0
  1  2  1  0  0  0  0
  1  9  1  0  0  0  0
  2  3  1  0  0  0  0
  3  4  1  0  0  0  0
  4  5  1  0  0  0  0
  4  8  1  0  0  0  0
  5  6  1  0  0  0  0
  6  7  1  0  0  0  0
  7  8  1  0  0  0  0
  9 10  4  0  0  0  0
  9 14  4  0  0  0  0
 10 11  4  0  0  0  0
 11 12  4  0  0  0  0
 12 13  4  0  0  0  0
 13 14  4  0  0  0  0
 14 15  1  0  0  0  0
 15 16  1  0  0  0  0
 16 17  4  0  0  0  0
 16 21  4  0  0  0  0
 17 18  4  0  0  0  0
 18 19  4  0  0  0  0
 19 20  4  0  0  0  0
 20 21  4  0  0  0  0
M  END
>  <Name_Molregno>
311773

>  <DOPAMINE D1>
5

>  <DOPAMINE D2>
5

>  <DOPAMINE D3>
5.33

>  <DOPAMINE D4>
5

$$$$
311934
  Marvin  02231216192D 0   1.00000     0.00000     0

 19 20  0  0  0  0  0  0  0  0999 V2000
    0.0515   -0.4871    0.0000 O   0  0  0  0  0  0  0  0  0
    0.7660   -0.8996    0.0000 C   0  0  0  0  0  0  0  0  0
    1.4804   -0.4871    0.0000 C   0  0  0  0  0  0  0  0  0
    2.1949   -0.8996    0.0000 N   0  0  0  0  0  0  0  0  0
    2.9094   -0.4871    0.0000 C   0  0  0  0  0  0  0  0  0
    2.1949   -1.7246    0.0000 C   0  0  0  0  0  0  0  0  0
   -0.6630   -0.8996    0.0000 C   0  0  0  0  0  0  0  0  0
   -0.6630   -1.7246    0.0000 C   0  0  0  0  0  0  0  0  0
   -1.3775   -2.1371    0.0000 C   0  0  0  0  0  0  0  0  0
   -2.0919   -1.7246    0.0000 C   0  0  0  0  0  0  0  0  0
   -2.0919   -0.8996    0.0000 C   0  0  0  0  0  0  0  0  0
   -1.3775   -0.4871    0.0000 C   0  0  0  0  0  0  0  0  0
   -1.3775    0.3379    0.0000 C   0  0  0  0  0  0  0  0  0
   -2.0919    0.7504    0.0000 C   0  0  0  0  0  0  0  0  0
   -2.8064    0.3379    0.0000 C   0  0  0  0  0  0  0  0  0
   -3.5209    0.7504    0.0000 C   0  0  0  0  0  0  0  0  0
   -3.5209    1.5754    0.0000 C   0  0  0  0  0  0  0  0  0
   -2.8064    1.9879    0.0000 C   0  0  0  0  0  0  0  0  0
   -2.0919    1.5754    0.0000 C   0  0  0  0  0  0  0  0  0
  1  2  1  0  0  0  0
  1  7  1  0  0  0  0
  2  3  1  0  0  0  0
  3  4  1  0  0  0  0
  4  5  1  0  0  0  0
  4  6  1  0  0  0  0
  7  8  4  0  0  0  0
  7 12  4  0  0  0  0
  8  9  4  0  0  0  0
  9 10  4  0  0  0  0
 10 11  4  0  0  0  0
 11 12  4  0  0  0  0
 12 13  1  0  0  0  0
 13 14  1  0  0  0  0
 14 15  4  0  0  0  0
 14 19  4  0  0  0  0
 15 16  4  0  0  0  0
 16 17  4  0  0  0  0
 17 18  4  0  0  0  0
 18 19  4  0  0  0  0
M  END
>  <Name_Molregno>
311934

>  <DOPAMINE D1>
6.46

>  <DOPAMINE D2>
5.56

>  <DOPAMINE D3>
5

>  <DOPAMINE D4>
5.56

>  <DOPAMINE D5>
6.38

$$$$
311955
  Marvin  02231216192D 0   1.00000     0.00000     0

 22 24  0  0  0  0  0  0  0  0999 V2000
   -0.5375    0.5150    0.0000 O   0  0  0  0  0  0  0  0  0
   -0.5375   -0.3100    0.0000 C   0  0  0  0  0  0  0  0  0
    0.1770   -0.7225    0.0000 C   0  0  0  0  0  0  0  0  0
    0.1770   -1.5475    0.0000 N   0  0  0  0  0  0  0  0  0
    0.8915   -1.9600    0.0000 C   0  0  0  0  0  0  0  0  0
    0.8915   -2.7850    0.0000 C   0  0  0  0  0  0  0  0  0
    0.1770   -3.1975    0.0000 C   0  0  0  0  0  0  0  0  0
   -0.5375   -2.7850    0.0000 C   0  0  0  0  0  0  0  0  0
   -0.5375   -1.9600    0.0000 C   0  0  0  0  0  0  0  0  0
   -1.2520    0.9275    0.0000 C   0  0  0  0  0  0  0  0  0
   -1.9664    0.5150    0.0000 C   0  0  0  0  0  0  0  0  0
   -2.6809    0.9275    0.0000 C   0  0  0  0  0  0  0  0  0
   -2.6809    1.7525    0.0000 C   0  0  0  0  0  0  0  0  0
   -1.9664    2.1650    0.0000 C   0  0  0  0  0  0  0  0  0
   -1.2520    1.7525    0.0000 C   0  0  0  0  0  0  0  0  0
   -0.5375    2.1650    0.0000 C   0  0  0  0  0  0  0  0  0
    0.1770    1.7525    0.0000 C   0  0  0  0  0  0  0  0  0
    0.8915    2.1650    0.0000 C   0  0  0  0  0  0  0  0  0
    1.6059    1.7525    0.0000 C   0  0  0  0  0  0  0  0  0
    1.6059    0.9275    0.0000 C   0  0  0  0  0  0  0  0  0
    0.8915    0.5150    0.0000 C   0  0  0  0  0  0  0  0  0
    0.1770    0.9275    0.0000 C   0  0  0  0  0  0  0  0  0
  1  2  1  0  0  0  0
  1 10  1  0  0  0  0
  2  3  1  0  0  0  0
  3  4  1  0  0  0  0
  4  5  1  0  0  0  0
  4  9  1  0  0  0  0
  5  6  1  0  0  0  0
  6  7  1  0  0  0  0
  7  8  1  0  0  0  0
  8  9  1  0  0  0  0
 10 11  4  0  0  0  0
 10 15  4  0  0  0  0
 11 12  4  0  0  0  0
 12 13  4  0  0  0  0
 13 14  4  0  0  0  0
 14 15  4  0  0  0  0
 15 16  1  0  0  0  0
 16 17  1  0  0  0  0
 17 18  4  0  0  0  0
 17 22  4  0  0  0  0
 18 19  4  0  0  0  0
 19 20  4  0  0  0  0
 20 21  4  0  0  0  0
 21 22  4  0  0  0  0
M  END
>  <Name_Molregno>
311955

>  <DOPAMINE D1>
7.47

>  <DOPAMINE D2>
5.99

>  <DOPAMINE D3>
5.11

>  <DOPAMINE D4>
5.35

>  <DOPAMINE D5>
7.37

$$$$
311956
  Marvin  02231216192D 0   1.00000     0.00000     0

 22 24  0  0  0  0  0  0  0  0999 V2000
    4.4118   -2.4938    0.0000 O   0  0  0  0  0  0  0  0  0
    3.6973   -2.0813    0.0000 C   0  0  0  0  0  0  0  0  0
    3.6973   -1.2563    0.0000 C   0  0  0  0  0  0  0  0  0
    4.4118   -0.8438    0.0000 N   0  0  0  0  0  0  0  0  0
    5.1263   -1.2563    0.0000 C   0  0  0  0  0  0  0  0  0
    5.1263   -2.0813    0.0000 C   0  0  0  0  0  0  0  0  0
    4.4118   -0.0188    0.0000 C   0  0  0  0  0  0  0  0  0
    3.6973    0.3937    0.0000 C   0  0  0  0  0  0  0  0  0
    3.6973    1.2187    0.0000 O   0  0  0  0  0  0  0  0  0
    2.9829    1.6312    0.0000 C   0  0  0  0  0  0  0  0  0
    2.2684    1.2187    0.0000 C   0  0  0  0  0  0  0  0  0
    1.5539    1.6312    0.0000 C   0  0  0  0  0  0  0  0  0
    1.5539    2.4562    0.0000 C   0  0  0  0  0  0  0  0  0
    2.2684    2.8687    0.0000 C   0  0  0  0  0  0  0  0  0
    2.9829    2.4562    0.0000 C   0  0  0  0  0  0  0  0  0
    3.6973    2.8687    0.0000 C   0  0  0  0  0  0  0  0  0
    4.4118    2.4562    0.0000 C   0  0  0  0  0  0  0  0  0
    5.1263    2.8687    0.0000 C   0  0  0  0  0  0  0  0  0
    5.8407    2.4562    0.0000 C   0  0  0  0  0  0  0  0  0
    5.8407    1.6312    0.0000 C   0  0  0  0  0  0  0  0  0
    5.1263    1.2187    0.0000 C   0  0  0  0  0  0  0  0  0
    4.4118    1.6312    0.0000 C   0  0  0  0  0  0  0  0  0
  1  2  1  0  0  0  0
  1  6  1  0  0  0  0
  2  3  1  0  0  0  0
  3  4  1  0  0  0  0
  4  5  1  0  0  0  0
  4  7  1  0  0  0  0
  5  6  1  0  0  0  0
  7  8  1  0  0  0  0
  8  9  1  0  0  0  0
  9 10  1  0  0  0  0
 10 11  4  0  0  0  0
 10 15  4  0  0  0  0
 11 12  4  0  0  0  0
 12 13  4  0  0  0  0
 13 14  4  0  0  0  0
 14 15  4  0  0  0  0
 15 16  1  0  0  0  0
 16 17  1  0  0  0  0
 17 18  4  0  0  0  0
 17 22  4  0  0  0  0
 18 19  4  0  0  0  0
 19 20  4  0  0  0  0
 20 21  4  0  0  0  0
 21 22  4  0  0  0  0
M  END
>  <Name_Molregno>
311956

>  <DOPAMINE D1>
6.7

>  <DOPAMINE D2>
5

>  <DOPAMINE D3>
5

>  <DOPAMINE D4>
5.19

>  <DOPAMINE D5>
6.44

$$$$
311980
  Marvin  02231216192D 0   1.00000     0.00000     0

 22 24  0  0  0  0  0  0  0  0999 V2000
   -0.7152    0.2427    0.0000 O   0  0  0  0  0  0  0  0  0
   -0.7152   -0.5823    0.0000 C   0  0  0  0  0  0  0  0  0
   -0.0008   -0.9948    0.0000 C   0  0  0  0  0  0  0  0  0
   -0.0008   -1.8198    0.0000 N   0  0  0  0  0  0  0  0  0
    0.6667   -2.3048    0.0000 C   0  0  0  0  0  0  0  0  0
    0.4117   -3.0894    0.0000 C   0  0  0  0  0  0  0  0  0
   -0.4133   -3.0894    0.0000 C   0  0  0  0  0  0  0  0  0
   -0.6682   -2.3048    0.0000 C   0  0  0  0  0  0  0  0  0
   -1.4297    0.6552    0.0000 C   0  0  0  0  0  0  0  0  0
   -2.1442    0.2427    0.0000 C   0  0  0  0  0  0  0  0  0
   -2.8586    0.6552    0.0000 C   0  0  0  0  0  0  0  0  0
   -2.8586    1.4802    0.0000 C   0  0  0  0  0  0  0  0  0
   -2.1442    1.8927    0.0000 C   0  0  0  0  0  0  0  0  0
   -1.4297    1.4802    0.0000 C   0  0  0  0  0  0  0  0  0
   -0.7152    1.8927    0.0000 C   0  0  0  0  0  0  0  0  0
   -0.7152    2.7177    0.0000 O   0  0  0  0  0  0  0  0  0
   -0.0008    1.4802    0.0000 C   0  0  0  0  0  0  0  0  0
    0.7137    1.8927    0.0000 C   0  0  0  0  0  0  0  0  0
    1.4282    1.4802    0.0000 C   0  0  0  0  0  0  0  0  0
    1.4282    0.6552    0.0000 C   0  0  0  0  0  0  0  0  0
    0.7137    0.2427    0.0000 C   0  0  0  0  0  0  0  0  0
   -0.0008    0.6552    0.0000 C   0  0  0  0  0  0  0  0  0
  1  2  1  0  0  0  0
  1  9  1  0  0  0  0
  2  3  1  0  0  0  0
  3  4  1  0  0  0  0
  4  5  1  0  0  0  0
  4  8  1  0  0  0  0
  5  6  1  0  0  0  0
  6  7  1  0  0  0  0
  7  8  1  0  0  0  0
  9 10  4  0  0  0  0
  9 14  4  0  0  0  0
 10 11  4  0  0  0  0
 11 12  4  0  0  0  0
 12 13  4  0  0  0  0
 13 14  4  0  0  0  0
 14 15  1  0  0  0  0
 15 16  2  0  0  0  0
 15 17  1  0  0  0  0
 17 18  4  0  0  0  0
 17 22  4  0  0  0  0
 18 19  4  0  0  0  0
 19 20  4  0  0  0  0
 20 21  4  0  0  0  0
 21 22  4  0  0  0  0
M  END
>  <Name_Molregno>
311980

>  <DOPAMINE D1>
5.78

>  <DOPAMINE D2>
5.27

>  <DOPAMINE D3>
5.62

>  <DOPAMINE D4>
5

$$$$
311981
  Marvin  02231216192D 0   1.00000     0.00000     0

 22 24  0  0  1  0  0  0  0  0999 V2000
   -0.7152    0.2427    0.0000 O   0  0  0  0  0  0  0  0  0
   -0.7152   -0.5823    0.0000 C   0  0  0  0  0  0  0  0  0
   -0.0008   -0.9948    0.0000 C   0  0  0  0  0  0  0  0  0
   -0.0008   -1.8198    0.0000 N   0  0  0  0  0  0  0  0  0
    0.6667   -2.3048    0.0000 C   0  0  0  0  0  0  0  0  0
    0.4117   -3.0894    0.0000 C   0  0  0  0  0  0  0  0  0
   -0.4133   -3.0894    0.0000 C   0  0  0  0  0  0  0  0  0
   -0.6682   -2.3048    0.0000 C   0  0  0  0  0  0  0  0  0
   -1.4297    0.6552    0.0000 C   0  0  0  0  0  0  0  0  0
   -2.1442    0.2427    0.0000 C   0  0  0  0  0  0  0  0  0
   -2.8586    0.6552    0.0000 C   0  0  0  0  0  0  0  0  0
   -2.8586    1.4802    0.0000 C   0  0  0  0  0  0  0  0  0
   -2.1442    1.8927    0.0000 C   0  0  0  0  0  0  0  0  0
   -1.4297    1.4802    0.0000 C   0  0  0  0  0  0  0  0  0
   -0.7152    1.8927    0.0000 C   0  0  0  0  0  0  0  0  0
   -0.7152    2.7177    0.0000 O   0  0  0  0  0  0  0  0  0
   -0.0008    1.4802    0.0000 C   0  0  0  0  0  0  0  0  0
    0.7137    1.8927    0.0000 C   0  0  0  0  0  0  0  0  0
    1.4282    1.4802    0.0000 C   0  0  0  0  0  0  0  0  0
    1.4282    0.6552    0.0000 C   0  0  0  0  0  0  0  0  0
    0.7137    0.2427    0.0000 C   0  0  0  0  0  0  0  0  0
   -0.0008    0.6552    0.0000 C   0  0  0  0  0  0  0  0  0
  1  2  1  0  0  0  0
  1  9  1  0  0  0  0
  2  3  1  0  0  0  0
  3  4  1  0  0  0  0
  4  5  1  0  0  0  0
  4  8  1  0  0  0  0
  5  6  1  0  0  0  0
  6  7  1  0  0  0  0
  7  8  1  0  0  0  0
  9 10  4  0  0  0  0
  9 14  4  0  0  0  0
 10 11  4  0  0  0  0
 11 12  4  0  0  0  0
 12 13  4  0  0  0  0
 13 14  4  0  0  0  0
 14 15  1  0  0  0  0
 15 16  1  0  0  0  0
 15 17  1  0  0  0  0
 17 18  4  0  0  0  0
 17 22  4  0  0  0  0
 18 19  4  0  0  0  0
 19 20  4  0  0  0  0
 20 21  4  0  0  0  0
 21 22  4  0  0  0  0
M  END
>  <Name_Molregno>
311981

>  <DOPAMINE D1>
5.58

>  <DOPAMINE D2>
5.2

>  <DOPAMINE D3>
5

>  <DOPAMINE D4>
5

$$$$
312002
  Marvin  02231216192D 0   1.00000     0.00000     0

 21 22  0  0  0  0  0  0  0  0999 V2000
    0.0162    0.4086    0.0000 O   0  0  0  0  0  0  0  0  0
    0.8412    0.4086    0.0000 C   0  0  0  0  0  0  0  0  0
    1.2537    1.1230    0.0000 C   0  0  0  0  0  0  0  0  0
    2.0787    1.1230    0.0000 N   0  0  0  0  0  0  0  0  0
    2.4912    1.8375    0.0000 C   0  0  0  0  0  0  0  0  0
    3.3162    1.8375    0.0000 C   0  0  0  0  0  0  0  0  0
    2.4912    0.4086    0.0000 C   0  0  0  0  0  0  0  0  0
    2.0787   -0.3059    0.0000 C   0  0  0  0  0  0  0  0  0
   -0.3963   -0.3059    0.0000 C   0  0  0  0  0  0  0  0  0
    0.0162   -1.0204    0.0000 C   0  0  0  0  0  0  0  0  0
   -0.3963   -1.7348    0.0000 C   0  0  0  0  0  0  0  0  0
   -1.2213   -1.7348    0.0000 C   0  0  0  0  0  0  0  0  0
   -1.6338   -1.0204    0.0000 C   0  0  0  0  0  0  0  0  0
   -1.2213   -0.3059    0.0000 C   0  0  0  0  0  0  0  0  0
   -1.6338    0.4086    0.0000 C   0  0  0  0  0  0  0  0  0
   -2.4588    0.4086    0.0000 C   0  0  0  0  0  0  0  0  0
   -2.8713   -0.3059    0.0000 C   0  0  0  0  0  0  0  0  0
   -3.6963   -0.3059    0.0000 C   0  0  0  0  0  0  0  0  0
   -4.1088    0.4086    0.0000 C   0  0  0  0  0  0  0  0  0
   -3.6963    1.1230    0.0000 C   0  0  0  0  0  0  0  0  0
   -2.8713    1.1230    0.0000 C   0  0  0  0  0  0  0  0  0
  1  2  1  0  0  0  0
  1  9  1  0  0  0  0
  2  3  1  0  0  0  0
  3  4  1  0  0  0  0
  4  5  1  0  0  0  0
  4  7  1  0  0  0  0
  5  6  1  0  0  0  0
  7  8  1  0  0  0  0
  9 10  4  0  0  0  0
  9 14  4  0  0  0  0
 10 11  4  0  0  0  0
 11 12  4  0  0  0  0
 12 13  4  0  0  0  0
 13 14  4  0  0  0  0
 14 15  1  0  0  0  0
 15 16  1  0  0  0  0
 16 17  4  0  0  0  0
 16 21  4  0  0  0  0
 17 18  4  0  0  0  0
 18 19  4  0  0  0  0
 19 20  4  0  0  0  0
 20 21  4  0  0  0  0
M  END
>  <Name_Molregno>
312002

>  <DOPAMINE D1>
5.71

>  <DOPAMINE D2>
5.69

>  <DOPAMINE D3>
5.33

>  <DOPAMINE D4>
5

$$$$
312003
  Marvin  02231216192D 0   1.00000     0.00000     0

 21 23  0  0  0  0  0  0  0  0999 V2000
   -0.6931    0.4024    0.0000 O   0  0  0  0  0  0  0  0  0
   -0.6931   -0.4226    0.0000 C   0  0  0  0  0  0  0  0  0
    0.0214   -0.8351    0.0000 C   0  0  0  0  0  0  0  0  0
    0.0214   -1.6601    0.0000 N   0  0  0  0  0  0  0  0  0
    0.6888   -2.1451    0.0000 C   0  0  0  0  0  0  0  0  0
    0.4339   -2.9297    0.0000 C   0  0  0  0  0  0  0  0  0
   -0.3911   -2.9297    0.0000 C   0  0  0  0  0  0  0  0  0
   -0.6460   -2.1451    0.0000 C   0  0  0  0  0  0  0  0  0
   -1.4075    0.8149    0.0000 C   0  0  0  0  0  0  0  0  0
   -2.1220    0.4024    0.0000 C   0  0  0  0  0  0  0  0  0
   -2.8365    0.8149    0.0000 C   0  0  0  0  0  0  0  0  0
   -2.8365    1.6399    0.0000 C   0  0  0  0  0  0  0  0  0
   -2.1220    2.0524    0.0000 C   0  0  0  0  0  0  0  0  0
   -1.4075    1.6399    0.0000 C   0  0  0  0  0  0  0  0  0
   -0.6931    2.0524    0.0000 C   0  0  0  0  0  0  0  0  0
    0.0214    1.6399    0.0000 C   0  0  0  0  0  0  0  0  0
    0.7359    2.0524    0.0000 C   0  0  0  0  0  0  0  0  0
    1.4503    1.6399    0.0000 C   0  0  0  0  0  0  0  0  0
    1.4503    0.8149    0.0000 C   0  0  0  0  0  0  0  0  0
    0.7359    0.4024    0.0000 C   0  0  0  0  0  0  0  0  0
    0.0214    0.8149    0.0000 C   0  0  0  0  0  0  0  0  0
  1  2  1  0  0  0  0
  1  9  1  0  0  0  0
  2  3  1  0  0  0  0
  3  4  1  0  0  0  0
  4  5  1  0  0  0  0
  4  8  1  0  0  0  0
  5  6  1  0  0  0  0
  6  7  1  0  0  0  0
  7  8  1  0  0  0  0
  9 10  4  0  0  0  0
  9 14  4  0  0  0  0
 10 11  4  0  0  0  0
 11 12  4  0  0  0  0
 12 13  4  0  0  0  0
 13 14  4  0  0  0  0
 14 15  1  0  0  0  0
 15 16  1  0  0  0  0
 16 17  4  0  0  0  0
 16 21  4  0  0  0  0
 17 18  4  0  0  0  0
 18 19  4  0  0  0  0
 19 20  4  0  0  0  0
 20 21  4  0  0  0  0
M  END
>  <Name_Molregno>
312003

>  <DOPAMINE D1>
6.42

>  <DOPAMINE D2>
5

>  <DOPAMINE D3>
5.74

>  <DOPAMINE D4>
5.85

>  <DOPAMINE D5>
6.02

$$$$
312018
  Marvin  02231216192D 0   1.00000     0.00000     0

 22 24  0  0  0  0  0  0  0  0999 V2000
   -0.9797   -0.4627    0.0000 O   0  0  0  0  0  0  0  0  0
   -0.2182    0.0222    0.0000 C   0  0  0  0  0  0  0  0  0
    0.0368    0.8068    0.0000 C   0  0  0  0  0  0  0  0  0
    0.8618    0.8068    0.0000 N   0  0  0  0  0  0  0  0  0
    1.1167    0.0222    0.0000 C   0  0  0  0  0  0  0  0  0
    1.8782   -0.4627    0.0000 C   0  0  0  0  0  0  0  0  0
    1.8782   -1.2877    0.0000 C   0  0  0  0  0  0  0  0  0
    1.1637   -1.7002    0.0000 C   0  0  0  0  0  0  0  0  0
    0.4493   -1.2877    0.0000 C   0  0  0  0  0  0  0  0  0
   -0.2652   -1.7002    0.0000 C   0  0  0  0  0  0  0  0  0
   -0.9797   -1.2877    0.0000 C   0  0  0  0  0  0  0  0  0
   -1.6942   -1.7002    0.0000 C   0  0  0  0  0  0  0  0  0
   -1.6942   -2.5252    0.0000 C   0  0  0  0  0  0  0  0  0
   -2.4086   -2.9377    0.0000 O   0  0  0  0  0  0  0  0  0
   -2.4086   -3.7627    0.0000 C   0  0  0  0  0  0  0  0  0
   -0.9797   -2.9377    0.0000 C   0  0  0  0  0  0  0  0  0
   -0.2652   -2.5252    0.0000 C   0  0  0  0  0  0  0  0  0
    1.1637   -2.5252    0.0000 C   0  0  0  0  0  0  0  0  0
    1.8782   -2.9377    0.0000 C   0  0  0  0  0  0  0  0  0
    2.5927   -2.5252    0.0000 C   0  0  0  0  0  0  0  0  0
    2.5927   -1.7002    0.0000 C   0  0  0  0  0  0  0  0  0
    1.3467    1.4743    0.0000 C   0  0  0  0  0  0  0  0  0
  1  2  1  0  0  0  0
  1 11  1  0  0  0  0
  2  3  1  0  0  0  0
  3  4  1  0  0  0  0
  4  5  1  0  0  0  0
  4 22  1  0  0  0  0
  5  6  1  0  0  0  0
  6  7  1  0  0  0  0
  7  8  4  0  0  0  0
  7 21  4  0  0  0  0
  8  9  1  0  0  0  0
  8 18  4  0  0  0  0
  9 10  1  0  0  0  0
 10 11  4  0  0  0  0
 10 17  4  0  0  0  0
 11 12  4  0  0  0  0
 12 13  4  0  0  0  0
 13 14  1  0  0  0  0
 13 16  4  0  0  0  0
 14 15  1  0  0  0  0
 16 17  4  0  0  0  0
 18 19  4  0  0  0  0
 19 20  4  0  0  0  0
 20 21  4  0  0  0  0
M  END
>  <Name_Molregno>
312018

>  <DOPAMINE D1>
7.45

>  <DOPAMINE D2>
6.8

>  <DOPAMINE D3>
5.8

>  <DOPAMINE D4>
6.26

>  <DOPAMINE D5>
8.74

$$$$
312019
  Marvin  02231216192D 0   1.00000     0.00000     0

 21 23  0  0  0  0  0  0  0  0999 V2000
   -0.3138   -0.2718    0.0000 O   0  0  0  0  0  0  0  0  0
    0.4477    0.2132    0.0000 C   0  0  0  0  0  0  0  0  0
    0.7027    0.9978    0.0000 C   0  0  0  0  0  0  0  0  0
    1.5277    0.9978    0.0000 N   0  0  0  0  0  0  0  0  0
    1.7826    0.2132    0.0000 C   0  0  0  0  0  0  0  0  0
    2.5441   -0.2718    0.0000 C   0  0  0  0  0  0  0  0  0
    2.5441   -1.0968    0.0000 C   0  0  0  0  0  0  0  0  0
    1.8296   -1.5093    0.0000 C   0  0  0  0  0  0  0  0  0
    1.1152   -1.0968    0.0000 C   0  0  0  0  0  0  0  0  0
    0.4007   -1.5093    0.0000 C   0  0  0  0  0  0  0  0  0
   -0.3138   -1.0968    0.0000 C   0  0  0  0  0  0  0  0  0
   -1.0282   -1.5093    0.0000 C   0  0  0  0  0  0  0  0  0
   -1.0282   -2.3343    0.0000 C   0  0  0  0  0  0  0  0  0
   -1.7427   -2.7468    0.0000 O   0  0  0  0  0  0  0  0  0
   -0.3138   -2.7468    0.0000 C   0  0  0  0  0  0  0  0  0
    0.4007   -2.3343    0.0000 C   0  0  0  0  0  0  0  0  0
    1.8296   -2.3343    0.0000 C   0  0  0  0  0  0  0  0  0
    2.5441   -2.7468    0.0000 C   0  0  0  0  0  0  0  0  0
    3.2586   -2.3343    0.0000 C   0  0  0  0  0  0  0  0  0
    3.2586   -1.5093    0.0000 C   0  0  0  0  0  0  0  0  0
    2.0126    1.6652    0.0000 C   0  0  0  0  0  0  0  0  0
  1  2  1  0  0  0  0
  1 11  1  0  0  0  0
  2  3  1  0  0  0  0
  3  4  1  0  0  0  0
  4  5  1  0  0  0  0
  4 21  1  0  0  0  0
  5  6  1  0  0  0  0
  6  7  1  0  0  0  0
  7  8  4  0  0  0  0
  7 20  4  0  0  0  0
  8  9  1  0  0  0  0
  8 17  4  0  0  0  0
  9 10  1  0  0  0  0
 10 11  4  0  0  0  0
 10 16  4  0  0  0  0
 11 12  4  0  0  0  0
 12 13  4  0  0  0  0
 13 14  1  0  0  0  0
 13 15  4  0  0  0  0
 15 16  4  0  0  0  0
 17 18  4  0  0  0  0
 18 19  4  0  0  0  0
 19 20  4  0  0  0  0
M  END
>  <Name_Molregno>
312019

>  <DOPAMINE D1>
8.49

>  <DOPAMINE D2>
6.56

>  <DOPAMINE D3>
5.86

>  <DOPAMINE D4>
6.43

>  <DOPAMINE D5>
9.24

$$$$
315432
  Marvin  02231216192D 0   1.00000     0.00000     0

 39 42  0  0  0  0  0  0  0  0999 V2000
    1.3459    1.7399    0.0000 O   0  0  0  0  0  0  0  0  0
    2.1709    1.7399    0.0000 C   0  0  0  0  0  0  0  0  0
    2.5834    1.0254    0.0000 N   0  0  0  0  0  0  0  0  0
    2.1709    0.3109    0.0000 C   0  0  0  0  0  0  0  0  0
    2.5834   -0.4036    0.0000 C   0  0  0  0  0  0  0  0  0
    3.4084   -0.4036    0.0000 C   0  0  0  0  0  0  0  0  0
    3.8209   -1.1180    0.0000 C   0  0  0  0  0  0  0  0  0
    3.4084   -1.8325    0.0000 C   0  0  0  0  0  0  0  0  0
    2.5834   -1.8325    0.0000 C   0  0  0  0  0  0  0  0  0
    2.1709   -1.1180    0.0000 C   0  0  0  0  0  0  0  0  0
    3.8209   -2.5470    0.0000 C   0  0  0  0  0  0  0  0  0
    4.6459   -2.5470    0.0000 C   0  0  0  0  0  0  0  0  0
    5.0584   -3.2614    0.0000 C   0  0  0  0  0  0  0  0  0
    4.6459   -3.9759    0.0000 C   0  0  0  0  0  0  0  0  0
    3.8209   -3.9759    0.0000 C   0  0  0  0  0  0  0  0  0
    3.4084   -3.2614    0.0000 C   0  0  0  0  0  0  0  0  0
    5.0584   -4.6904    0.0000 C   0  0  0  0  0  0  0  0  0
    4.6459   -5.4049    0.0000 N   0  0  0  0  0  0  0  0  0
    5.0584   -6.1193    0.0000 C   0  0  0  0  0  0  0  0  0
    4.6459   -6.8338    0.0000 C   0  0  0  0  0  0  0  0  0
    5.0584   -7.5483    0.0000 C   0  0  0  0  0  0  0  0  0
    5.8834   -7.5483    0.0000 C   0  0  0  0  0  0  0  0  0
    6.2959   -8.2627    0.0000 C   0  0  0  0  0  0  0  0  0
    5.8834   -8.9772    0.0000 C   0  0  0  0  0  0  0  0  0
    5.0584   -8.9772    0.0000 C   0  0  0  0  0  0  0  0  0
    4.6459   -8.2627    0.0000 C   0  0  0  0  0  0  0  0  0
    3.4084    1.0254    0.0000 C   0  0  0  0  0  0  0  0  0
    3.8209    0.3109    0.0000 C   0  0  0  0  0  0  0  0  0
    4.6459    0.3109    0.0000 N   0  0  0  0  0  0  0  0  0
    5.0584    1.0254    0.0000 C   0  0  0  0  0  0  0  0  0
    5.0584   -0.4036    0.0000 C   0  0  0  0  0  0  0  0  0
    2.5834    2.4543    0.0000 C   0  0  0  0  0  0  0  0  0
    2.1709    3.1688    0.0000 C   0  0  0  0  0  0  0  0  0
    2.5834    3.8833    0.0000 C   0  0  0  0  0  0  0  0  0
    2.1709    4.5977    0.0000 C   0  0  0  0  0  0  0  0  0
    2.5834    5.3122    0.0000 C   0  0  0  0  0  0  0  0  0
    3.4084    5.3122    0.0000 C   0  0  0  0  0  0  0  0  0
    3.8209    4.5977    0.0000 C   0  0  0  0  0  0  0  0  0
    3.4084    3.8833    0.0000 C   0  0  0  0  0  0  0  0  0
  1  2  2  0  0  0  0
  2  3  1  0  0  0  0
  2 32  1  0  0  0  0
  3  4  1  0  0  0  0
  3 27  1  0  0  0  0
  4  5  1  0  0  0  0
  5  6  4  0  0  0  0
  5 10  4  0  0  0  0
  6  7  4  0  0  0  0
  7  8  4  0  0  0  0
  8  9  4  0  0  0  0
  8 11  1  0  0  0  0
  9 10  4  0  0  0  0
 11 12  4  0  0  0  0
 11 16  4  0  0  0  0
 12 13  4  0  0  0  0
 13 14  4  0  0  0  0
 14 15  4  0  0  0  0
 14 17  1  0  0  0  0
 15 16  4  0  0  0  0
 17 18  1  0  0  0  0
 18 19  1  0  0  0  0
 19 20  1  0  0  0  0
 20 21  1  0  0  0  0
 21 22  4  0  0  0  0
 21 26  4  0  0  0  0
 22 23  4  0  0  0  0
 23 24  4  0  0  0  0
 24 25  4  0  0  0  0
 25 26  4  0  0  0  0
 27 28  1  0  0  0  0
 28 29  1  0  0  0  0
 29 30  1  0  0  0  0
 29 31  1  0  0  0  0
 32 33  2  0  0  0  0
 33 34  1  0  0  0  0
 34 35  4  0  0  0  0
 34 39  4  0  0  0  0
 35 36  4  0  0  0  0
 36 37  4  0  0  0  0
 37 38  4  0  0  0  0
 38 39  4  0  0  0  0
M  END
>  <Name_Molregno>
315432

>  <5-HT1A>
6.1

>  <5-HT1B>
6.2

>  <5-HT1D>
6.8

>  <5-HT1E>
5

>  <5-HT2A>
6.4

>  <5-HT2C>
6.2

>  <5-HT5>
7.6

>  <5-HT6>
5.1

>  <5-HT7>
6

>  <Alpha-1B>
6.7

>  <DOPAMINE D2>
6.1

>  <DOPAMINE D3>
6

>  <DOPAMINE D4>
5.9

$$$$
315433
  Marvin  02231216192D 0   1.00000     0.00000     0

 41 45  0  0  0  0  0  0  0  0999 V2000
    3.1883    0.1879    0.0000 O   0  0  0  0  0  0  0  0  0
    3.1883    1.0129    0.0000 C   0  0  0  0  0  0  0  0  0
    3.9028    1.4254    0.0000 N   0  0  0  0  0  0  0  0  0
    4.6173    1.0129    0.0000 C   0  0  0  0  0  0  0  0  0
    4.6173    0.1879    0.0000 C   0  0  0  0  0  0  0  0  0
    5.3317   -0.2246    0.0000 C   0  0  0  0  0  0  0  0  0
    5.3317   -1.0496    0.0000 C   0  0  0  0  0  0  0  0  0
    4.6173   -1.4621    0.0000 C   0  0  0  0  0  0  0  0  0
    3.9028   -1.0496    0.0000 C   0  0  0  0  0  0  0  0  0
    3.9028   -0.2246    0.0000 C   0  0  0  0  0  0  0  0  0
    4.6173   -2.2871    0.0000 C   0  0  0  0  0  0  0  0  0
    5.3317   -2.6996    0.0000 C   0  0  0  0  0  0  0  0  0
    5.3317   -3.5246    0.0000 C   0  0  0  0  0  0  0  0  0
    4.6173   -3.9371    0.0000 C   0  0  0  0  0  0  0  0  0
    3.9028   -3.5246    0.0000 C   0  0  0  0  0  0  0  0  0
    3.9028   -2.6996    0.0000 C   0  0  0  0  0  0  0  0  0
    4.6173   -4.7621    0.0000 C   0  0  0  0  0  0  0  0  0
    3.9028   -5.1746    0.0000 N   0  0  0  0  0  0  0  0  0
    3.9028   -5.9996    0.0000 C   0  0  0  0  0  0  0  0  0
    3.1883   -6.4121    0.0000 C   0  0  0  0  0  0  0  0  0
    3.1883   -7.2371    0.0000 C   0  0  0  0  0  0  0  0  0
    3.9028   -7.6496    0.0000 C   0  0  0  0  0  0  0  0  0
    3.9028   -8.4746    0.0000 C   0  0  0  0  0  0  0  0  0
    3.1883   -8.8871    0.0000 C   0  0  0  0  0  0  0  0  0
    2.4738   -8.4746    0.0000 C   0  0  0  0  0  0  0  0  0
    2.4738   -7.6496    0.0000 C   0  0  0  0  0  0  0  0  0
    3.9028    2.2504    0.0000 C   0  0  0  0  0  0  0  0  0
    4.6173    2.6629    0.0000 C   0  0  0  0  0  0  0  0  0
    5.3317    2.2504    0.0000 C   0  0  0  0  0  0  0  0  0
    6.0462    2.6629    0.0000 C   0  0  0  0  0  0  0  0  0
    6.0462    3.4879    0.0000 C   0  0  0  0  0  0  0  0  0
    5.3317    3.9004    0.0000 N   0  0  0  0  0  0  0  0  0
    4.6173    3.4879    0.0000 C   0  0  0  0  0  0  0  0  0
    2.4738    1.4254    0.0000 C   0  0  0  0  0  0  0  0  0
    1.7594    1.0129    0.0000 C   0  0  0  0  0  0  0  0  0
    1.0449    1.4254    0.0000 C   0  0  0  0  0  0  0  0  0
    0.3304    1.0129    0.0000 C   0  0  0  0  0  0  0  0  0
   -0.3840    1.4254    0.0000 C   0  0  0  0  0  0  0  0  0
   -0.3840    2.2504    0.0000 C   0  0  0  0  0  0  0  0  0
    0.3304    2.6629    0.0000 C   0  0  0  0  0  0  0  0  0
    1.0449    2.2504    0.0000 C   0  0  0  0  0  0  0  0  0
  1  2  2  0  0  0  0
  2  3  1  0  0  0  0
  2 34  1  0  0  0  0
  3  4  1  0  0  0  0
  3 27  1  0  0  0  0
  4  5  1  0  0  0  0
  5  6  4  0  0  0  0
  5 10  4  0  0  0  0
  6  7  4  0  0  0  0
  7  8  4  0  0  0  0
  8  9  4  0  0  0  0
  8 11  1  0  0  0  0
  9 10  4  0  0  0  0
 11 12  4  0  0  0  0
 11 16  4  0  0  0  0
 12 13  4  0  0  0  0
 13 14  4  0  0  0  0
 14 15  4  0  0  0  0
 14 17  1  0  0  0  0
 15 16  4  0  0  0  0
 17 18  1  0  0  0  0
 18 19  1  0  0  0  0
 19 20  1  0  0  0  0
 20 21  1  0  0  0  0
 21 22  4  0  0  0  0
 21 26  4  0  0  0  0
 22 23  4  0  0  0  0
 23 24  4  0  0  0  0
 24 25  4  0  0  0  0
 25 26  4  0  0  0  0
 27 28  1  0  0  0  0
 28 29  4  0  0  0  0
 28 33  4  0  0  0  0
 29 30  4  0  0  0  0
 30 31  4  0  0  0  0
 31 32  4  0  0  0  0
 32 33  4  0  0  0  0
 34 35  2  0  0  0  0
 35 36  1  0  0  0  0
 36 37  4  0  0  0  0
 36 41  4  0  0  0  0
 37 38  4  0  0  0  0
 38 39  4  0  0  0  0
 39 40  4  0  0  0  0
 40 41  4  0  0  0  0
M  END
>  <Name_Molregno>
315433

>  <5-HT1A>
6

>  <5-HT1B>
6.2

>  <5-HT1D>
5.9

>  <5-HT1E>
5

>  <5-HT2A>
6.1

>  <5-HT2C>
6

>  <5-HT5>
7.3

>  <5-HT6>
5.7

>  <5-HT7>
5.9

>  <Alpha-1B>
6.5

>  <DOPAMINE D2>
5.9

>  <DOPAMINE D3>
5.8

>  <DOPAMINE D4>
5.8

$$$$
315545
  Marvin  02231216192D 0   1.00000     0.00000     0

 38 41  0  0  0  0  0  0  0  0999 V2000
    8.3584    0.3824    0.0000 O   0  0  0  0  0  0  0  0  0
    7.8183   -0.2412    0.0000 C   0  0  0  0  0  0  0  0  0
    7.0082   -0.0853    0.0000 N   0  0  0  0  0  0  0  0  0
    6.7381    0.6942    0.0000 C   0  0  0  0  0  0  0  0  0
    5.9280    0.8501    0.0000 C   0  0  0  0  0  0  0  0  0
    5.3879    0.2265    0.0000 C   0  0  0  0  0  0  0  0  0
    4.5778    0.3824    0.0000 C   0  0  0  0  0  0  0  0  0
    4.3077    1.1620    0.0000 C   0  0  0  0  0  0  0  0  0
    4.8478    1.7856    0.0000 C   0  0  0  0  0  0  0  0  0
    5.6579    1.6297    0.0000 C   0  0  0  0  0  0  0  0  0
    3.4976    1.3179    0.0000 C   0  0  0  0  0  0  0  0  0
    2.9575    0.6942    0.0000 C   0  0  0  0  0  0  0  0  0
    2.1474    0.8501    0.0000 C   0  0  0  0  0  0  0  0  0
    1.8773    1.6297    0.0000 C   0  0  0  0  0  0  0  0  0
    2.4174    2.2533    0.0000 C   0  0  0  0  0  0  0  0  0
    3.2275    2.0974    0.0000 C   0  0  0  0  0  0  0  0  0
    1.0672    1.7856    0.0000 C   0  0  0  0  0  0  0  0  0
    0.7971    2.5652    0.0000 N   0  0  0  0  0  0  0  0  0
   -0.0130    2.7211    0.0000 C   0  0  0  0  0  0  0  0  0
   -0.2830    3.5006    0.0000 C   0  0  0  0  0  0  0  0  0
   -1.0932    3.6565    0.0000 C   0  0  0  0  0  0  0  0  0
   -1.6333    3.0329    0.0000 C   0  0  0  0  0  0  0  0  0
   -2.4434    3.1888    0.0000 C   0  0  0  0  0  0  0  0  0
   -2.7135    3.9683    0.0000 C   0  0  0  0  0  0  0  0  0
   -2.1734    4.5920    0.0000 C   0  0  0  0  0  0  0  0  0
   -1.3632    4.4361    0.0000 C   0  0  0  0  0  0  0  0  0
    6.4681   -0.7090    0.0000 C   0  0  0  0  0  0  0  0  0
    5.6579   -0.5531    0.0000 C   0  0  0  0  0  0  0  0  0
    5.1178   -1.1767    0.0000 N   0  0  0  0  0  0  0  0  0
    5.3879   -1.9562    0.0000 C   0  0  0  0  0  0  0  0  0
    4.3077   -1.0208    0.0000 C   0  0  0  0  0  0  0  0  0
    8.0883   -1.0208    0.0000 C   0  0  0  0  0  0  0  0  0
    8.8985   -1.1767    0.0000 C   0  0  0  0  0  0  0  0  0
    9.1685   -1.9562    0.0000 C   0  0  0  0  0  0  0  0  0
    9.9579   -2.1960    0.0000 C   0  0  0  0  0  0  0  0  0
    9.9738   -3.0208    0.0000 C   0  0  0  0  0  0  0  0  0
    9.1943   -3.2909    0.0000 C   0  0  0  0  0  0  0  0  0
    8.6966   -2.6329    0.0000 C   0  0  0  0  0  0  0  0  0
  1  2  2  0  0  0  0
  2  3  1  0  0  0  0
  2 32  1  0  0  0  0
  3  4  1  0  0  0  0
  3 27  1  0  0  0  0
  4  5  1  0  0  0  0
  5  6  4  0  0  0  0
  5 10  4  0  0  0  0
  6  7  4  0  0  0  0
  7  8  4  0  0  0  0
  8  9  4  0  0  0  0
  8 11  1  0  0  0  0
  9 10  4  0  0  0  0
 11 12  4  0  0  0  0
 11 16  4  0  0  0  0
 12 13  4  0  0  0  0
 13 14  4  0  0  0  0
 14 15  4  0  0  0  0
 14 17  1  0  0  0  0
 15 16  4  0  0  0  0
 17 18  1  0  0  0  0
 18 19  1  0  0  0  0
 19 20  1  0  0  0  0
 20 21  1  0  0  0  0
 21 22  4  0  0  0  0
 21 26  4  0  0  0  0
 22 23  4  0  0  0  0
 23 24  4  0  0  0  0
 24 25  4  0  0  0  0
 25 26  4  0  0  0  0
 27 28  1  0  0  0  0
 28 29  1  0  0  0  0
 29 30  1  0  0  0  0
 29 31  1  0  0  0  0
 32 33  1  0  0  0  0
 33 34  1  0  0  0  0
 34 35  1  0  0  0  0
 34 38  1  0  0  0  0
 35 36  1  0  0  0  0
 36 37  1  0  0  0  0
 37 38  1  0  0  0  0
M  END
>  <Name_Molregno>
315545

>  <5-HT1A>
6.3

>  <5-HT1B>
6.5

>  <5-HT1D>
6.4

>  <5-HT1E>
5

>  <5-HT2A>
6.1

>  <5-HT2C>
6.4

>  <5-HT5>
8.2

>  <5-HT6>
5.4

>  <5-HT7>
5.4

>  <Alpha-1B>
6.5

>  <DOPAMINE D2>
5.9

>  <DOPAMINE D3>
6.2

>  <DOPAMINE D4>
6.1

>  <Serotonin transporter>
7.6

$$$$
320263
  Marvin  02231216192D 0   1.00000     0.00000     0

 19 20  0  0  1  0  0  0  0  0999 V2000
    3.4119   -2.8397    0.0000 O   0  0  0  0  0  0  0  0  0
    3.6669   -2.0551    0.0000 C   0  0  0  0  0  0  0  0  0
    4.4739   -1.8836    0.0000 C   0  0  0  0  0  0  0  0  0
    3.1148   -1.4420    0.0000 C   0  0  0  0  0  0  0  0  0
    3.2864   -0.6350    0.0000 N   0  0  0  0  0  0  0  0  0
    2.5719   -0.2225    0.0000 C   0  0  0  0  0  0  0  0  0
    2.5719    0.6025    0.0000 C   0  0  0  0  0  0  0  0  0
    3.2864    1.0150    0.0000 C   0  0  0  0  0  0  0  0  0
    3.2864    1.8400    0.0000 N   0  0  0  0  0  0  0  0  0
    2.5719    2.2525    0.0000 C   0  0  0  0  0  0  0  0  0
    2.5719    3.0775    0.0000 C   0  0  0  0  0  0  0  0  0
    1.8574    3.4900    0.0000 C   0  0  0  0  0  0  0  0  0
    4.0008    2.2525    0.0000 C   0  0  0  0  0  0  0  0  0
    4.0008    3.0775    0.0000 C   0  0  0  0  0  0  0  0  0
    4.7153    3.4900    0.0000 C   0  0  0  0  0  0  0  0  0
    4.0008    0.6025    0.0000 C   0  0  0  0  0  0  0  0  0
    4.0008   -0.2225    0.0000 C   0  0  0  0  0  0  0  0  0
    1.9588   -0.7746    0.0000 C   0  0  0  0  0  0  0  0  0
    2.2944   -1.5282    0.0000 C   0  0  0  0  0  0  0  0  0
  1  2  2  0  0  0  0
  2  3  1  0  0  0  0
  2  4  1  0  0  0  0
  4  5  4  0  0  0  0
  4 19  4  0  0  0  0
  5  6  4  0  0  0  0
  5 17  1  0  0  0  0
  6  7  1  0  0  0  0
  6 18  4  0  0  0  0
  7  8  1  0  0  0  0
  8  9  1  0  0  0  0
  8 16  1  0  0  0  0
  9 10  1  0  0  0  0
  9 13  1  0  0  0  0
 10 11  1  0  0  0  0
 11 12  1  0  0  0  0
 13 14  1  0  0  0  0
 14 15  1  0  0  0  0
 16 17  1  0  0  0  0
 18 19  4  0  0  0  0
M  END
>  <Name_Molregno>
320263

>  <DOPAMINE D3>
6.45

$$$$
320288
  Marvin  02231216192D 0   1.00000     0.00000     0

 24 26  0  0  1  0  0  0  0  0999 V2000
   -0.4439   -2.4033    0.0000 O   0  0  0  0  0  0  0  0  0
   -1.2509   -2.5748    0.0000 C   0  0  0  0  0  0  0  0  0
   -1.5058   -3.3594    0.0000 C   0  0  0  0  0  0  0  0  0
   -0.9538   -3.9725    0.0000 C   0  0  0  0  0  0  0  0  0
   -1.2087   -4.7571    0.0000 C   0  0  0  0  0  0  0  0  0
   -2.0157   -4.9287    0.0000 C   0  0  0  0  0  0  0  0  0
   -2.5677   -4.3156    0.0000 C   0  0  0  0  0  0  0  0  0
   -2.3128   -3.5310    0.0000 C   0  0  0  0  0  0  0  0  0
   -1.8029   -1.9617    0.0000 C   0  0  0  0  0  0  0  0  0
   -1.6314   -1.1547    0.0000 N   0  0  0  0  0  0  0  0  0
   -2.3459   -0.7422    0.0000 C   0  0  0  0  0  0  0  0  0
   -2.3459    0.0828    0.0000 C   0  0  0  0  0  0  0  0  0
   -1.6314    0.4953    0.0000 C   0  0  0  0  0  0  0  0  0
   -1.6314    1.3203    0.0000 N   0  0  0  0  0  0  0  0  0
   -2.3459    1.7328    0.0000 C   0  0  0  0  0  0  0  0  0
   -2.3459    2.5578    0.0000 C   0  0  0  0  0  0  0  0  0
   -3.0603    2.9703    0.0000 C   0  0  0  0  0  0  0  0  0
   -0.9169    1.7328    0.0000 C   0  0  0  0  0  0  0  0  0
   -0.9169    2.5578    0.0000 C   0  0  0  0  0  0  0  0  0
   -0.2025    2.9703    0.0000 C   0  0  0  0  0  0  0  0  0
   -0.9169    0.0828    0.0000 C   0  0  0  0  0  0  0  0  0
   -0.9169   -0.7422    0.0000 C   0  0  0  0  0  0  0  0  0
   -2.9590   -1.2943    0.0000 C   0  0  0  0  0  0  0  0  0
   -2.6234   -2.0479    0.0000 C   0  0  0  0  0  0  0  0  0
  1  2  2  0  0  0  0
  2  3  1  0  0  0  0
  2  9  1  0  0  0  0
  3  4  4  0  0  0  0
  3  8  4  0  0  0  0
  4  5  4  0  0  0  0
  5  6  4  0  0  0  0
  6  7  4  0  0  0  0
  7  8  4  0  0  0  0
  9 10  4  0  0  0  0
  9 24  4  0  0  0  0
 10 11  4  0  0  0  0
 10 22  1  0  0  0  0
 11 12  1  0  0  0  0
 11 23  4  0  0  0  0
 12 13  1  0  0  0  0
 13 14  1  0  0  0  0
 13 21  1  0  0  0  0
 14 15  1  0  0  0  0
 14 18  1  0  0  0  0
 15 16  1  0  0  0  0
 16 17  1  0  0  0  0
 18 19  1  0  0  0  0
 19 20  1  0  0  0  0
 21 22  1  0  0  0  0
 23 24  4  0  0  0  0
M  END
>  <Name_Molregno>
320288

>  <DOPAMINE D3>
5.76

$$$$
320289
  Marvin  02231216192D 0   1.00000     0.00000     0

 20 21  0  0  1  0  0  0  0  0999 V2000
   -0.6411    0.6655    0.0000 N   0  0  0  0  0  0  0  0  0
   -0.2286   -0.0490    0.0000 C   0  0  0  0  0  0  0  0  0
   -0.6411   -0.7634    0.0000 C   0  0  0  0  0  0  0  0  0
   -1.4661   -0.7634    0.0000 C   0  0  0  0  0  0  0  0  0
   -1.8786   -1.4779    0.0000 N   0  0  0  0  0  0  0  0  0
   -2.7036   -1.4779    0.0000 C   0  0  0  0  0  0  0  0  0
   -3.1161   -2.1924    0.0000 C   0  0  0  0  0  0  0  0  0
   -3.9411   -2.1924    0.0000 C   0  0  0  0  0  0  0  0  0
   -1.4661   -2.1924    0.0000 C   0  0  0  0  0  0  0  0  0
   -0.6411   -2.1924    0.0000 C   0  0  0  0  0  0  0  0  0
   -0.2286   -2.9069    0.0000 C   0  0  0  0  0  0  0  0  0
   -1.8786   -0.0490    0.0000 C   0  0  0  0  0  0  0  0  0
   -1.4661    0.6655    0.0000 C   0  0  0  0  0  0  0  0  0
    0.5784    0.1226    0.0000 C   0  0  0  0  0  0  0  0  0
    0.6646    0.9430    0.0000 C   0  0  0  0  0  0  0  0  0
   -0.0891    1.2786    0.0000 C   0  0  0  0  0  0  0  0  0
   -0.2606    2.0856    0.0000 C   0  0  0  0  0  0  0  0  0
    0.3525    2.6376    0.0000 N   0  0  0  0  0  0  0  0  0
    0.1810    3.4446    0.0000 C   0  0  0  0  0  0  0  0  0
    1.1371    2.3827    0.0000 C   0  0  0  0  0  0  0  0  0
  1  2  4  0  0  0  0
  1 13  1  0  0  0  0
  1 16  4  0  0  0  0
  2  3  1  0  0  0  0
  2 14  4  0  0  0  0
  3  4  1  0  0  0  0
  4  5  1  0  0  0  0
  4 12  1  0  0  0  0
  5  6  1  0  0  0  0
  5  9  1  0  0  0  0
  6  7  1  0  0  0  0
  7  8  1  0  0  0  0
  9 10  1  0  0  0  0
 10 11  1  0  0  0  0
 12 13  1  0  0  0  0
 14 15  4  0  0  0  0
 15 16  4  0  0  0  0
 16 17  1  0  0  0  0
 17 18  1  0  0  0  0
 18 19  1  0  0  0  0
 18 20  1  0  0  0  0
M  END
>  <Name_Molregno>
320289

>  <DOPAMINE D3>
5.18

$$$$
320341
  Marvin  02231216192D 0   1.00000     0.00000     0

 19 20  0  0  1  0  0  0  0  0999 V2000
    4.5477   -4.6235    0.0000 O   0  0  0  0  0  0  0  0  0
    3.9956   -4.0104    0.0000 N   0  0  0  0  0  0  0  0  0
    4.2506   -3.2258    0.0000 C   0  0  0  0  0  0  0  0  0
    3.6985   -2.6127    0.0000 C   0  0  0  0  0  0  0  0  0
    3.8701   -1.8057    0.0000 N   0  0  0  0  0  0  0  0  0
    3.1556   -1.3932    0.0000 C   0  0  0  0  0  0  0  0  0
    3.1556   -0.5682    0.0000 C   0  0  0  0  0  0  0  0  0
    3.8701   -0.1557    0.0000 C   0  0  0  0  0  0  0  0  0
    3.8701    0.6693    0.0000 N   0  0  0  0  0  0  0  0  0
    3.1556    1.0818    0.0000 C   0  0  0  0  0  0  0  0  0
    3.1556    1.9068    0.0000 C   0  0  0  0  0  0  0  0  0
    2.4411    2.3193    0.0000 C   0  0  0  0  0  0  0  0  0
    4.5845    1.0818    0.0000 C   0  0  0  0  0  0  0  0  0
    4.5845    1.9068    0.0000 C   0  0  0  0  0  0  0  0  0
    5.2990    2.3193    0.0000 C   0  0  0  0  0  0  0  0  0
    4.5845   -0.5682    0.0000 C   0  0  0  0  0  0  0  0  0
    4.5845   -1.3932    0.0000 C   0  0  0  0  0  0  0  0  0
    2.5425   -1.9453    0.0000 C   0  0  0  0  0  0  0  0  0
    2.8781   -2.6989    0.0000 C   0  0  0  0  0  0  0  0  0
  1  2  1  0  0  0  0
  2  3  2  0  0  0  0
  3  4  1  0  0  0  0
  4  5  4  0  0  0  0
  4 19  4  0  0  0  0
  5  6  4  0  0  0  0
  5 17  1  0  0  0  0
  6  7  1  0  0  0  0
  6 18  4  0  0  0  0
  7  8  1  0  0  0  0
  8  9  1  0  0  0  0
  8 16  1  0  0  0  0
  9 10  1  0  0  0  0
  9 13  1  0  0  0  0
 10 11  1  0  0  0  0
 11 12  1  0  0  0  0
 13 14  1  0  0  0  0
 14 15  1  0  0  0  0
 16 17  1  0  0  0  0
 18 19  4  0  0  0  0
M  END
>  <Name_Molregno>
320341

>  <DOPAMINE D3>
6.46

$$$$
320346
  Marvin  02231216192D 0   1.00000     0.00000     0

 25 28  0  0  1  0  0  0  0  0999 V2000
   -0.3965   -3.1617    0.0000 O   0  0  0  0  0  0  0  0  0
    0.3175   -3.5751    0.0000 C   0  0  0  0  0  0  0  0  0
    1.0325   -3.1634    0.0000 N   0  0  0  0  0  0  0  0  0
    1.0334   -2.3384    0.0000 C   0  0  0  0  0  0  0  0  0
    1.7484   -1.9268    0.0000 C   0  0  0  0  0  0  0  0  0
    1.7494   -1.1018    0.0000 C   0  0  0  0  0  0  0  0  0
    1.0354   -0.6884    0.0000 C   0  0  0  0  0  0  0  0  0
    0.3205   -1.1001    0.0000 N   0  0  0  0  0  0  0  0  0
    0.3195   -1.9251    0.0000 C   0  0  0  0  0  0  0  0  0
   -0.3935   -0.6867    0.0000 C   0  0  0  0  0  0  0  0  0
    1.0369    0.1357    0.0000 C   0  0  0  0  0  0  0  0  0
    1.7494    0.5482    0.0000 C   0  0  0  0  0  0  0  0  0
    2.4619    0.1357    0.0000 C   0  0  0  0  0  0  0  0  0
    2.4619   -0.6893    0.0000 C   0  0  0  0  0  0  0  0  0
    3.1798   -1.1018    0.0000 C   0  0  0  0  0  0  0  0  0
    3.8923   -0.6893    0.0000 C   0  0  0  0  0  0  0  0  0
    3.8923    0.1357    0.0000 C   0  0  0  0  0  0  0  0  0
    3.1798    0.5482    0.0000 C   0  0  0  0  0  0  0  0  0
    2.8744    1.4054    0.0000 N   0  0  0  0  0  0  0  0  0
    2.0494    1.4054    0.0000 C   0  0  0  0  0  0  0  0  0
    0.3165   -4.4001    0.0000 N   0  0  0  0  0  0  0  0  0
   -0.3985   -4.8117    0.0000 C   0  0  0  0  0  0  0  0  0
   -0.3994   -5.6367    0.0000 C   0  0  0  0  0  0  0  0  0
    1.0305   -4.8134    0.0000 C   0  0  0  0  0  0  0  0  0
    1.0295   -5.6384    0.0000 C   0  0  0  0  0  0  0  0  0
  1  2  2  0  0  0  0
  2  3  1  0  0  0  0
  2 21  1  0  0  0  0
  3  4  1  0  0  0  0
  4  5  1  0  0  0  0
  4  9  1  0  0  0  0
  5  6  2  0  0  0  0
  6  7  1  0  0  0  0
  6 14  1  0  0  0  0
  7  8  1  0  0  0  0
  7 11  1  0  0  0  0
  8  9  1  0  0  0  0
  8 10  1  0  0  0  0
 11 12  1  0  0  0  0
 12 13  4  0  0  0  0
 12 20  4  0  0  0  0
 13 14  4  0  0  0  0
 13 18  4  0  0  0  0
 14 15  4  0  0  0  0
 15 16  4  0  0  0  0
 16 17  4  0  0  0  0
 17 18  4  0  0  0  0
 18 19  4  0  0  0  0
 19 20  4  0  0  0  0
 21 22  1  0  0  0  0
 21 24  1  0  0  0  0
 22 23  1  0  0  0  0
 24 25  1  0  0  0  0
M  STY  1   1 DAT
M  SAL   1  1  19
M  SDT   1 MRV_IMPLICIT_H                                        
M  SDD   1     0.0000    0.0000    DR    ALL  0       0  
M  SED   1 IMPL_H1
M  END
>  <Name_Molregno>
320346

>  <5-HT1A>
9.06

>  <5-HT1B>
7.73

>  <5-HT1D>
9.01

>  <5-HT2A>
8.71

>  <5-HT2C>
8.2

>  <Alpha-1A>
8.26

>  <Alpha-1B>
7.78

>  <Alpha-2A>
10.26

>  <Alpha-2B>
9.87

>  <Beta-1>
7.17

>  <Beta-2>
8.1

>  <DOPAMINE D1>
7.19

>  <DOPAMINE D2>
9.31

>  <DOPAMINE D3>
9.14

>  <DOPAMINE D4>
8.33

>  <DOPAMINE D5>
8.45

$$$$
320372
  Marvin  02231216192D 0   1.00000     0.00000     0

 22 23  0  0  1  0  0  0  0  0999 V2000
    3.1528   -5.1261    0.0000 F   0  0  0  0  0  0  0  0  0
    3.4078   -4.3415    0.0000 C   0  0  0  0  0  0  0  0  0
    4.1924   -4.5964    0.0000 F   0  0  0  0  0  0  0  0  0
    2.6232   -4.0865    0.0000 F   0  0  0  0  0  0  0  0  0
    3.6627   -3.5569    0.0000 C   0  0  0  0  0  0  0  0  0
    4.4697   -3.3853    0.0000 O   0  0  0  0  0  0  0  0  0
    3.1107   -2.9438    0.0000 C   0  0  0  0  0  0  0  0  0
    3.2822   -2.1368    0.0000 N   0  0  0  0  0  0  0  0  0
    2.5677   -1.7243    0.0000 C   0  0  0  0  0  0  0  0  0
    2.5677   -0.8993    0.0000 C   0  0  0  0  0  0  0  0  0
    3.2822   -0.4868    0.0000 C   0  0  0  0  0  0  0  0  0
    3.2822    0.3382    0.0000 N   0  0  0  0  0  0  0  0  0
    2.5677    0.7507    0.0000 C   0  0  0  0  0  0  0  0  0
    2.5677    1.5757    0.0000 C   0  0  0  0  0  0  0  0  0
    1.8533    1.9882    0.0000 C   0  0  0  0  0  0  0  0  0
    3.9967    0.7507    0.0000 C   0  0  0  0  0  0  0  0  0
    3.9967    1.5757    0.0000 C   0  0  0  0  0  0  0  0  0
    4.7112    1.9882    0.0000 C   0  0  0  0  0  0  0  0  0
    3.9967   -0.8993    0.0000 C   0  0  0  0  0  0  0  0  0
    3.9967   -1.7243    0.0000 C   0  0  0  0  0  0  0  0  0
    1.9546   -2.2763    0.0000 C   0  0  0  0  0  0  0  0  0
    2.2902   -3.0300    0.0000 C   0  0  0  0  0  0  0  0  0
  1  2  1  0  0  0  0
  2  3  1  0  0  0  0
  2  4  1  0  0  0  0
  2  5  1  0  0  0  0
  5  6  2  0  0  0  0
  5  7  1  0  0  0  0
  7  8  4  0  0  0  0
  7 22  4  0  0  0  0
  8  9  4  0  0  0  0
  8 20  1  0  0  0  0
  9 10  1  0  0  0  0
  9 21  4  0  0  0  0
 10 11  1  0  0  0  0
 11 12  1  0  0  0  0
 11 19  1  0  0  0  0
 12 13  1  0  0  0  0
 12 16  1  0  0  0  0
 13 14  1  0  0  0  0
 14 15  1  0  0  0  0
 16 17  1  0  0  0  0
 17 18  1  0  0  0  0
 19 20  1  0  0  0  0
 21 22  4  0  0  0  0
M  END
>  <Name_Molregno>
320372

>  <DOPAMINE D3>
6.62

$$$$
320439
  Marvin  02231216192D 0   1.00000     0.00000     0

 18 19  0  0  1  0  0  0  0  0999 V2000
   -0.8148    1.0169    0.0000 N   0  0  0  0  0  0  0  0  0
   -0.4023    0.3024    0.0000 C   0  0  0  0  0  0  0  0  0
   -0.8148   -0.4120    0.0000 C   0  0  0  0  0  0  0  0  0
   -1.6398   -0.4120    0.0000 C   0  0  0  0  0  0  0  0  0
   -2.0523   -1.1265    0.0000 N   0  0  0  0  0  0  0  0  0
   -2.8773   -1.1265    0.0000 C   0  0  0  0  0  0  0  0  0
   -3.2898   -1.8410    0.0000 C   0  0  0  0  0  0  0  0  0
   -4.1148   -1.8410    0.0000 C   0  0  0  0  0  0  0  0  0
   -1.6398   -1.8410    0.0000 C   0  0  0  0  0  0  0  0  0
   -0.8148   -1.8410    0.0000 C   0  0  0  0  0  0  0  0  0
   -0.4023   -2.5554    0.0000 C   0  0  0  0  0  0  0  0  0
   -2.0523    0.3024    0.0000 C   0  0  0  0  0  0  0  0  0
   -1.6398    1.0169    0.0000 C   0  0  0  0  0  0  0  0  0
    0.4047    0.4740    0.0000 C   0  0  0  0  0  0  0  0  0
    0.4909    1.2945    0.0000 C   0  0  0  0  0  0  0  0  0
   -0.2627    1.6300    0.0000 C   0  0  0  0  0  0  0  0  0
   -0.4343    2.4370    0.0000 C   0  0  0  0  0  0  0  0  0
   -0.6058    3.2440    0.0000 N   0  0  0  0  0  0  0  0  0
  1  2  4  0  0  0  0
  1 13  1  0  0  0  0
  1 16  4  0  0  0  0
  2  3  1  0  0  0  0
  2 14  4  0  0  0  0
  3  4  1  0  0  0  0
  4  5  1  0  0  0  0
  4 12  1  0  0  0  0
  5  6  1  0  0  0  0
  5  9  1  0  0  0  0
  6  7  1  0  0  0  0
  7  8  1  0  0  0  0
  9 10  1  0  0  0  0
 10 11  1  0  0  0  0
 12 13  1  0  0  0  0
 14 15  4  0  0  0  0
 15 16  4  0  0  0  0
 16 17  1  0  0  0  0
 17 18  3  0  0  0  0
M  END
>  <Name_Molregno>
320439

>  <DOPAMINE D2>
6.02

>  <DOPAMINE D3>
7.17

>  <DOPAMINE D4>
6.21

$$$$
320441
  Marvin  02231216192D 0   1.00000     0.00000     0

 22 23  0  0  1  0  0  0  0  0999 V2000
    0.0444    0.4718    0.0000 N   0  0  0  0  0  0  0  0  0
    0.4569   -0.2427    0.0000 C   0  0  0  0  0  0  0  0  0
    0.0444   -0.9571    0.0000 C   0  0  0  0  0  0  0  0  0
   -0.7806   -0.9571    0.0000 C   0  0  0  0  0  0  0  0  0
   -1.1931   -1.6716    0.0000 N   0  0  0  0  0  0  0  0  0
   -2.0181   -1.6716    0.0000 C   0  0  0  0  0  0  0  0  0
   -2.4306   -2.3861    0.0000 C   0  0  0  0  0  0  0  0  0
   -3.2556   -2.3861    0.0000 C   0  0  0  0  0  0  0  0  0
   -0.7806   -2.3861    0.0000 C   0  0  0  0  0  0  0  0  0
    0.0444   -2.3861    0.0000 C   0  0  0  0  0  0  0  0  0
    0.4569   -3.1005    0.0000 C   0  0  0  0  0  0  0  0  0
   -1.1931   -0.2427    0.0000 C   0  0  0  0  0  0  0  0  0
   -0.7806    0.4718    0.0000 C   0  0  0  0  0  0  0  0  0
    1.2639   -0.0711    0.0000 C   0  0  0  0  0  0  0  0  0
    1.3501    0.7493    0.0000 C   0  0  0  0  0  0  0  0  0
    0.5965    1.0849    0.0000 C   0  0  0  0  0  0  0  0  0
    0.4249    1.8919    0.0000 C   0  0  0  0  0  0  0  0  0
   -0.3597    2.1468    0.0000 C   0  0  0  0  0  0  0  0  0
   -0.9728    1.5948    0.0000 C   0  0  0  0  0  0  0  0  0
   -1.5859    1.0427    0.0000 N   0  0  0  0  0  0  0  0  0
   -0.5312    2.9538    0.0000 C   0  0  0  0  0  0  0  0  0
   -0.7027    3.7608    0.0000 N   0  0  0  0  0  0  0  0  0
  1  2  4  0  0  0  0
  1 13  1  0  0  0  0
  1 16  4  0  0  0  0
  2  3  1  0  0  0  0
  2 14  4  0  0  0  0
  3  4  1  0  0  0  0
  4  5  1  0  0  0  0
  4 12  1  0  0  0  0
  5  6  1  0  0  0  0
  5  9  1  0  0  0  0
  6  7  1  0  0  0  0
  7  8  1  0  0  0  0
  9 10  1  0  0  0  0
 10 11  1  0  0  0  0
 12 13  1  0  0  0  0
 14 15  4  0  0  0  0
 15 16  4  0  0  0  0
 16 17  1  0  0  0  0
 17 18  2  0  0  0  0
 18 19  1  0  0  0  0
 18 21  1  0  0  0  0
 19 20  3  0  0  0  0
 21 22  3  0  0  0  0
M  END
>  <Name_Molregno>
320441

>  <DOPAMINE D3>
6.22

$$$$
320494
  Marvin  02231216192D 0   1.00000     0.00000     0

 21 22  0  0  1  0  0  0  0  0999 V2000
    2.8372    1.7941    0.0000 O   0  0  0  0  0  0  0  0  0
    3.6218    1.5392    0.0000 C   0  0  0  0  0  0  0  0  0
    4.2349    2.0912    0.0000 O   0  0  0  0  0  0  0  0  0
    3.7933    0.7322    0.0000 C   0  0  0  0  0  0  0  0  0
    3.2413    0.1191    0.0000 N   0  0  0  0  0  0  0  0  0
    3.6538   -0.5954    0.0000 C   0  0  0  0  0  0  0  0  0
    3.2413   -1.3099    0.0000 C   0  0  0  0  0  0  0  0  0
    2.4163   -1.3099    0.0000 C   0  0  0  0  0  0  0  0  0
    2.0038   -2.0243    0.0000 N   0  0  0  0  0  0  0  0  0
    1.1788   -2.0243    0.0000 C   0  0  0  0  0  0  0  0  0
    0.7663   -2.7388    0.0000 C   0  0  0  0  0  0  0  0  0
   -0.0587   -2.7388    0.0000 C   0  0  0  0  0  0  0  0  0
    2.4163   -2.7388    0.0000 C   0  0  0  0  0  0  0  0  0
    3.2413   -2.7388    0.0000 C   0  0  0  0  0  0  0  0  0
    3.6538   -3.4533    0.0000 C   0  0  0  0  0  0  0  0  0
    2.0038   -0.5954    0.0000 C   0  0  0  0  0  0  0  0  0
    2.4163    0.1191    0.0000 C   0  0  0  0  0  0  0  0  0
    4.4607   -0.4239    0.0000 C   0  0  0  0  0  0  0  0  0
    4.5470    0.3966    0.0000 C   0  0  0  0  0  0  0  0  0
    2.6656    2.6011    0.0000 C   0  0  0  0  0  0  0  0  0
    3.2787    3.1531    0.0000 C   0  0  0  0  0  0  0  0  0
  1  2  1  0  0  0  0
  1 20  1  0  0  0  0
  2  3  2  0  0  0  0
  2  4  1  0  0  0  0
  4  5  4  0  0  0  0
  4 19  4  0  0  0  0
  5  6  4  0  0  0  0
  5 17  1  0  0  0  0
  6  7  1  0  0  0  0
  6 18  4  0  0  0  0
  7  8  1  0  0  0  0
  8  9  1  0  0  0  0
  8 16  1  0  0  0  0
  9 10  1  0  0  0  0
  9 13  1  0  0  0  0
 10 11  1  0  0  0  0
 11 12  1  0  0  0  0
 13 14  1  0  0  0  0
 14 15  1  0  0  0  0
 16 17  1  0  0  0  0
 18 19  4  0  0  0  0
 20 21  1  0  0  0  0
M  END
>  <Name_Molregno>
320494

>  <DOPAMINE D3>
5.92

$$$$
320500
  Marvin  02231216192D 0   1.00000     0.00000     0

 19 22  0  0  1  0  0  0  0  0999 V2000
    0.0344   -2.4424    0.0000 O   0  0  0  0  0  0  0  0  0
    0.0344   -1.6174    0.0000 C   0  0  0  0  0  0  0  0  0
   -0.6801   -1.2049    0.0000 C   0  0  0  0  0  0  0  0  0
   -0.6801   -0.3799    0.0000 C   0  0  0  0  0  0  0  0  0
   -1.3945    0.0326    0.0000 C   0  0  0  0  0  0  0  0  0
   -2.1090   -0.3799    0.0000 C   0  0  0  0  0  0  0  0  0
   -2.8235    0.0326    0.0000 N   0  0  0  0  0  0  0  0  0
   -3.5379   -0.3799    0.0000 C   0  0  0  0  0  0  0  0  0
   -3.5379   -1.2049    0.0000 C   0  0  0  0  0  0  0  0  0
   -2.8235   -1.6174    0.0000 C   0  0  0  0  0  0  0  0  0
   -2.1090   -1.2049    0.0000 C   0  0  0  0  0  0  0  0  0
   -1.3945   -1.6174    0.0000 C   0  0  0  0  0  0  0  0  0
   -1.3945   -2.4424    0.0000 C   0  0  0  0  0  0  0  0  0
   -2.1090   -2.8549    0.0000 C   0  0  0  0  0  0  0  0  0
   -2.8235   -2.4424    0.0000 C   0  0  0  0  0  0  0  0  0
    0.0344    0.0326    0.0000 C   0  0  0  0  0  0  0  0  0
    0.7489   -0.3799    0.0000 C   0  0  0  0  0  0  0  0  0
    0.7489   -1.2049    0.0000 C   0  0  0  0  0  0  0  0  0
    1.4634   -1.6174    0.0000 O   0  0  0  0  0  0  0  0  0
  1  2  1  0  0  0  0
  2  3  4  0  0  0  0
  2 18  4  0  0  0  0
  3  4  4  0  0  0  0
  3 12  1  0  0  0  0
  4  5  1  0  0  0  0
  4 16  4  0  0  0  0
  5  6  1  0  0  0  0
  6  7  1  0  0  0  0
  6 11  1  0  0  0  0
  7  8  1  0  0  0  0
  8  9  1  0  0  0  0
  9 10  1  0  0  0  0
 10 11  4  0  0  0  0
 10 15  4  0  0  0  0
 11 12  4  0  0  0  0
 12 13  4  0  0  0  0
 13 14  4  0  0  0  0
 14 15  4  0  0  0  0
 16 17  4  0  0  0  0
 17 18  4  0  0  0  0
 18 19  1  0  0  0  0
M  END
>  <Name_Molregno>
320500

>  <DOPAMINE D3>
7.23

$$$$
320506
  Marvin  02231216192D 0   1.00000     0.00000     0

 16 18  0  0  1  0  0  0  0  0999 V2000
   -0.1353   -1.1187    0.0000 N   0  0  0  0  0  0  0  0  0
    0.3496   -1.7861    0.0000 N   0  0  0  0  0  0  0  0  0
    1.1342   -1.5312    0.0000 C   0  0  0  0  0  0  0  0  0
    1.8487   -1.9437    0.0000 C   0  0  0  0  0  0  0  0  0
    2.5632   -1.5312    0.0000 C   0  0  0  0  0  0  0  0  0
    2.5632   -0.7062    0.0000 C   0  0  0  0  0  0  0  0  0
    3.2776   -0.2937    0.0000 N   0  0  0  0  0  0  0  0  0
    3.9921   -0.7062    0.0000 C   0  0  0  0  0  0  0  0  0
    3.9921   -1.5312    0.0000 C   0  0  0  0  0  0  0  0  0
    3.2776   -1.9437    0.0000 C   0  0  0  0  0  0  0  0  0
    3.2776    0.5313    0.0000 C   0  0  0  0  0  0  0  0  0
    3.9921    0.9438    0.0000 C   0  0  0  0  0  0  0  0  0
    3.9921    1.7688    0.0000 C   0  0  0  0  0  0  0  0  0
    1.8487   -0.2937    0.0000 C   0  0  0  0  0  0  0  0  0
    1.1342   -0.7062    0.0000 C   0  0  0  0  0  0  0  0  0
    0.3496   -0.4512    0.0000 C   0  0  0  0  0  0  0  0  0
  1  2  4  0  0  0  0
  1 16  4  0  0  0  0
  2  3  4  0  0  0  0
  3  4  1  0  0  0  0
  3 15  4  0  0  0  0
  4  5  1  0  0  0  0
  5  6  1  0  0  0  0
  5 10  1  0  0  0  0
  6  7  1  0  0  0  0
  6 14  1  0  0  0  0
  7  8  1  0  0  0  0
  7 11  1  0  0  0  0
  8  9  1  0  0  0  0
  9 10  1  0  0  0  0
 11 12  1  0  0  0  0
 12 13  1  0  0  0  0
 14 15  1  0  0  0  0
 15 16  4  0  0  0  0
M  STY  1   1 DAT
M  SAL   1  1   1
M  SDT   1 MRV_IMPLICIT_H                                        
M  SDD   1     0.0000    0.0000    DR    ALL  0       0  
M  SED   1 IMPL_H1
M  END
>  <Name_Molregno>
320506

>  <DOPAMINE D1>
7.2

>  <DOPAMINE D2>
6.16

>  <DOPAMINE D3>
7

>  <DOPAMINE D4>
8.01

$$$$
320585
  Marvin  02231216192D 0   1.00000     0.00000     0

 18 19  0  0  1  0  0  0  0  0999 V2000
    3.1319   -4.1113    0.0000 O   0  0  0  0  0  0  0  0  0
    2.8770   -3.3266    0.0000 C   0  0  0  0  0  0  0  0  0
    3.4290   -2.7135    0.0000 N   0  0  0  0  0  0  0  0  0
    3.2575   -1.9066    0.0000 C   0  0  0  0  0  0  0  0  0
    2.5430   -1.4941    0.0000 C   0  0  0  0  0  0  0  0  0
    2.5430   -0.6691    0.0000 C   0  0  0  0  0  0  0  0  0
    3.2575   -0.2566    0.0000 C   0  0  0  0  0  0  0  0  0
    3.2575    0.5684    0.0000 N   0  0  0  0  0  0  0  0  0
    2.5430    0.9809    0.0000 C   0  0  0  0  0  0  0  0  0
    2.5430    1.8059    0.0000 C   0  0  0  0  0  0  0  0  0
    1.8285    2.2184    0.0000 C   0  0  0  0  0  0  0  0  0
    3.9720    0.9809    0.0000 C   0  0  0  0  0  0  0  0  0
    3.9720    1.8059    0.0000 C   0  0  0  0  0  0  0  0  0
    4.6864    2.2184    0.0000 C   0  0  0  0  0  0  0  0  0
    3.9720   -0.6691    0.0000 C   0  0  0  0  0  0  0  0  0
    3.9720   -1.4941    0.0000 C   0  0  0  0  0  0  0  0  0
    4.5851   -2.0461    0.0000 C   0  0  0  0  0  0  0  0  0
    4.2495   -2.7998    0.0000 C   0  0  0  0  0  0  0  0  0
  1  2  2  0  0  0  0
  2  3  1  0  0  0  0
  3  4  4  0  0  0  0
  3 18  4  0  0  0  0
  4  5  1  0  0  0  0
  4 16  4  0  0  0  0
  5  6  1  0  0  0  0
  6  7  1  0  0  0  0
  7  8  1  0  0  0  0
  7 15  1  0  0  0  0
  8  9  1  0  0  0  0
  8 12  1  0  0  0  0
  9 10  1  0  0  0  0
 10 11  1  0  0  0  0
 12 13  1  0  0  0  0
 13 14  1  0  0  0  0
 15 16  1  0  0  0  0
 16 17  4  0  0  0  0
 17 18  4  0  0  0  0
M  END
>  <Name_Molregno>
320585

>  <DOPAMINE D3>
7.38

$$$$
320599
  Marvin  02231216192D 0   1.00000     0.00000     0

 22 24  0  0  1  0  0  0  0  0999 V2000
   -0.3110    0.5806    0.0000 N   0  0  0  0  0  0  0  0  0
    0.1015   -0.1339    0.0000 C   0  0  0  0  0  0  0  0  0
   -0.3110   -0.8483    0.0000 C   0  0  0  0  0  0  0  0  0
   -1.1360   -0.8483    0.0000 C   0  0  0  0  0  0  0  0  0
   -1.5485   -1.5628    0.0000 N   0  0  0  0  0  0  0  0  0
   -2.3735   -1.5628    0.0000 C   0  0  0  0  0  0  0  0  0
   -2.7860   -2.2773    0.0000 C   0  0  0  0  0  0  0  0  0
   -3.6110   -2.2773    0.0000 C   0  0  0  0  0  0  0  0  0
   -1.1360   -2.2773    0.0000 C   0  0  0  0  0  0  0  0  0
   -0.3110   -2.2773    0.0000 C   0  0  0  0  0  0  0  0  0
    0.1015   -2.9917    0.0000 C   0  0  0  0  0  0  0  0  0
   -1.5485   -0.1339    0.0000 C   0  0  0  0  0  0  0  0  0
   -1.1360    0.5806    0.0000 C   0  0  0  0  0  0  0  0  0
    0.9084    0.0377    0.0000 C   0  0  0  0  0  0  0  0  0
    0.9947    0.8581    0.0000 C   0  0  0  0  0  0  0  0  0
    0.2410    1.1937    0.0000 C   0  0  0  0  0  0  0  0  0
    0.0695    2.0007    0.0000 C   0  0  0  0  0  0  0  0  0
   -0.7152    2.2556    0.0000 C   0  0  0  0  0  0  0  0  0
   -0.8867    3.0626    0.0000 C   0  0  0  0  0  0  0  0  0
   -0.2736    3.6146    0.0000 C   0  0  0  0  0  0  0  0  0
    0.5110    3.3597    0.0000 C   0  0  0  0  0  0  0  0  0
    0.6826    2.5527    0.0000 C   0  0  0  0  0  0  0  0  0
  1  2  4  0  0  0  0
  1 13  1  0  0  0  0
  1 16  4  0  0  0  0
  2  3  1  0  0  0  0
  2 14  4  0  0  0  0
  3  4  1  0  0  0  0
  4  5  1  0  0  0  0
  4 12  1  0  0  0  0
  5  6  1  0  0  0  0
  5  9  1  0  0  0  0
  6  7  1  0  0  0  0
  7  8  1  0  0  0  0
  9 10  1  0  0  0  0
 10 11  1  0  0  0  0
 12 13  1  0  0  0  0
 14 15  4  0  0  0  0
 15 16  4  0  0  0  0
 16 17  1  0  0  0  0
 17 18  4  0  0  0  0
 17 22  4  0  0  0  0
 18 19  4  0  0  0  0
 19 20  4  0  0  0  0
 20 21  4  0  0  0  0
 21 22  4  0  0  0  0
M  END
>  <Name_Molregno>
320599

>  <DOPAMINE D3>
5.36

$$$$
320681
  Marvin  02231216192D 0   1.00000     0.00000     0

 22 23  0  0  1  0  0  0  0  0999 V2000
    3.1528   -5.1261    0.0000 Cl  0  0  0  0  0  0  0  0  0
    3.4078   -4.3415    0.0000 C   0  0  0  0  0  0  0  0  0
    4.1924   -4.5964    0.0000 Cl  0  0  0  0  0  0  0  0  0
    2.6232   -4.0865    0.0000 Cl  0  0  0  0  0  0  0  0  0
    3.6627   -3.5569    0.0000 C   0  0  0  0  0  0  0  0  0
    4.4697   -3.3853    0.0000 O   0  0  0  0  0  0  0  0  0
    3.1107   -2.9438    0.0000 C   0  0  0  0  0  0  0  0  0
    3.2822   -2.1368    0.0000 N   0  0  0  0  0  0  0  0  0
    2.5677   -1.7243    0.0000 C   0  0  0  0  0  0  0  0  0
    2.5677   -0.8993    0.0000 C   0  0  0  0  0  0  0  0  0
    3.2822   -0.4868    0.0000 C   0  0  0  0  0  0  0  0  0
    3.2822    0.3382    0.0000 N   0  0  0  0  0  0  0  0  0
    2.5677    0.7507    0.0000 C   0  0  0  0  0  0  0  0  0
    2.5677    1.5757    0.0000 C   0  0  0  0  0  0  0  0  0
    1.8533    1.9882    0.0000 C   0  0  0  0  0  0  0  0  0
    3.9967    0.7507    0.0000 C   0  0  0  0  0  0  0  0  0
    3.9967    1.5757    0.0000 C   0  0  0  0  0  0  0  0  0
    4.7112    1.9882    0.0000 C   0  0  0  0  0  0  0  0  0
    3.9967   -0.8993    0.0000 C   0  0  0  0  0  0  0  0  0
    3.9967   -1.7243    0.0000 C   0  0  0  0  0  0  0  0  0
    1.9546   -2.2763    0.0000 C   0  0  0  0  0  0  0  0  0
    2.2902   -3.0300    0.0000 C   0  0  0  0  0  0  0  0  0
  1  2  1  0  0  0  0
  2  3  1  0  0  0  0
  2  4  1  0  0  0  0
  2  5  1  0  0  0  0
  5  6  2  0  0  0  0
  5  7  1  0  0  0  0
  7  8  4  0  0  0  0
  7 22  4  0  0  0  0
  8  9  4  0  0  0  0
  8 20  1  0  0  0  0
  9 10  1  0  0  0  0
  9 21  4  0  0  0  0
 10 11  1  0  0  0  0
 11 12  1  0  0  0  0
 11 19  1  0  0  0  0
 12 13  1  0  0  0  0
 12 16  1  0  0  0  0
 13 14  1  0  0  0  0
 14 15  1  0  0  0  0
 16 17  1  0  0  0  0
 17 18  1  0  0  0  0
 19 20  1  0  0  0  0
 21 22  4  0  0  0  0
M  END
>  <Name_Molregno>
320681

>  <DOPAMINE D3>
6.82

$$$$
321985
  Marvin  02231216192D 0   1.00000     0.00000     0

 31 35  0  0  0  0  0  0  0  0999 V2000
    4.0403    1.1934    0.0000 O   0  0  0  0  0  0  0  0  0
    3.3258    0.7809    0.0000 C   0  0  0  0  0  0  0  0  0
    3.3258   -0.0441    0.0000 C   0  0  0  0  0  0  0  0  0
    2.6114   -0.4566    0.0000 N   0  0  0  0  0  0  0  0  0
    2.6114   -1.2816    0.0000 C   0  0  0  0  0  0  0  0  0
    1.8969   -1.6941    0.0000 C   0  0  0  0  0  0  0  0  0
    1.1824   -1.2816    0.0000 N   0  0  0  0  0  0  0  0  0
    1.1824   -0.4566    0.0000 C   0  0  0  0  0  0  0  0  0
    1.8969   -0.0441    0.0000 C   0  0  0  0  0  0  0  0  0
    0.4679   -1.6941    0.0000 C   0  0  0  0  0  0  0  0  0
   -0.2465   -1.2816    0.0000 C   0  0  0  0  0  0  0  0  0
   -0.9610   -1.6941    0.0000 C   0  0  0  0  0  0  0  0  0
   -0.9610   -2.5191    0.0000 N   0  0  0  0  0  0  0  0  0
   -1.6755   -2.9316    0.0000 C   0  0  0  0  0  0  0  0  0
   -2.3899   -2.5191    0.0000 C   0  0  0  0  0  0  0  0  0
   -2.3899   -1.6941    0.0000 C   0  0  0  0  0  0  0  0  0
   -1.6755   -1.2816    0.0000 C   0  0  0  0  0  0  0  0  0
   -1.6755   -0.4566    0.0000 C   0  0  0  0  0  0  0  0  0
   -0.9610   -0.0441    0.0000 C   0  0  0  0  0  0  0  0  0
   -0.2465   -0.4566    0.0000 C   0  0  0  0  0  0  0  0  0
    4.0403    2.0184    0.0000 C   0  0  0  0  0  0  0  0  0
    4.7548    2.4309    0.0000 C   0  0  0  0  0  0  0  0  0
    4.7548    3.2559    0.0000 C   0  0  0  0  0  0  0  0  0
    5.4692    3.6684    0.0000 N   0  0  0  0  0  0  0  0  0
    6.1837    3.2559    0.0000 C   0  0  0  0  0  0  0  0  0
    6.1837    2.4309    0.0000 C   0  0  0  0  0  0  0  0  0
    5.4692    2.0184    0.0000 C   0  0  0  0  0  0  0  0  0
    6.8982    3.6684    0.0000 C   0  0  0  0  0  0  0  0  0
    4.0403    3.6684    0.0000 C   0  0  0  0  0  0  0  0  0
    3.3258    3.2559    0.0000 C   0  0  0  0  0  0  0  0  0
    3.3258    2.4309    0.0000 C   0  0  0  0  0  0  0  0  0
  1  2  1  0  0  0  0
  1 21  1  0  0  0  0
  2  3  1  0  0  0  0
  3  4  1  0  0  0  0
  4  5  1  0  0  0  0
  4  9  1  0  0  0  0
  5  6  1  0  0  0  0
  6  7  1  0  0  0  0
  7  8  1  0  0  0  0
  7 10  1  0  0  0  0
  8  9  1  0  0  0  0
 10 11  1  0  0  0  0
 11 12  4  0  0  0  0
 11 20  4  0  0  0  0
 12 13  4  0  0  0  0
 12 17  4  0  0  0  0
 13 14  4  0  0  0  0
 14 15  4  0  0  0  0
 15 16  4  0  0  0  0
 16 17  4  0  0  0  0
 17 18  4  0  0  0  0
 18 19  4  0  0  0  0
 19 20  4  0  0  0  0
 21 22  4  0  0  0  0
 21 31  4  0  0  0  0
 22 23  4  0  0  0  0
 22 27  4  0  0  0  0
 23 24  4  0  0  0  0
 23 29  4  0  0  0  0
 24 25  4  0  0  0  0
 25 26  4  0  0  0  0
 25 28  1  0  0  0  0
 26 27  4  0  0  0  0
 29 30  4  0  0  0  0
 30 31  4  0  0  0  0
M  END
>  <Name_Molregno>
321985

>  <5-HT1A>
6.5

>  <5-HT1B>
6.7

>  <5-HT1D>
9.1

>  <5-HT1E>
5

>  <5-HT2A>
5.6

>  <5-HT2C>
5.5

>  <5-HT5>
5.5

>  <5-HT6>
5

>  <5-HT7>
6.3

>  <Alpha-1B>
6

>  <Beta-2>
5.7

>  <DOPAMINE D2>
5.5

>  <DOPAMINE D3>
6

>  <DOPAMINE D4>
5

$$$$
322247
  Marvin  02231216192D 0   1.00000     0.00000     0

 28 30  0  0  0  0  0  0  0  0999 V2000
   -6.9643    1.6440    0.0000 Cl  0  0  0  0  0  0  0  0  0
   -6.9643    0.8190    0.0000 C   0  0  0  0  0  0  0  0  0
   -6.2498    0.4065    0.0000 C   0  0  0  0  0  0  0  0  0
   -5.5353    0.8190    0.0000 N   0  0  0  0  0  0  0  0  0
   -5.5353    1.6440    0.0000 C   0  0  0  0  0  0  0  0  0
   -4.8209    2.0565    0.0000 C   0  0  0  0  0  0  0  0  0
   -4.1064    1.6440    0.0000 N   0  0  0  0  0  0  0  0  0
   -4.1064    0.8190    0.0000 C   0  0  0  0  0  0  0  0  0
   -4.8209    0.4065    0.0000 C   0  0  0  0  0  0  0  0  0
   -3.3919    2.0565    0.0000 C   0  0  0  0  0  0  0  0  0
   -2.6775    1.6440    0.0000 C   0  0  0  0  0  0  0  0  0
   -2.6775    0.8190    0.0000 C   0  0  0  0  0  0  0  0  0
   -1.9630    0.4065    0.0000 C   0  0  0  0  0  0  0  0  0
   -1.9630   -0.4185    0.0000 N   0  0  0  0  0  0  0  0  0
   -1.2485   -0.8310    0.0000 C   0  0  0  0  0  0  0  0  0
   -0.5340   -0.4185    0.0000 O   0  0  0  0  0  0  0  0  0
   -1.2485   -1.6560    0.0000 C   0  0  0  0  0  0  0  0  0
   -0.5340   -2.0685    0.0000 C   0  0  0  0  0  0  0  0  0
   -0.5340   -2.8935    0.0000 C   0  0  0  0  0  0  0  0  0
   -1.2485   -3.3060    0.0000 C   0  0  0  0  0  0  0  0  0
   -1.2485   -4.1310    0.0000 O   0  0  0  0  0  0  0  0  0
   -1.9630   -2.8935    0.0000 C   0  0  0  0  0  0  0  0  0
   -1.9630   -2.0685    0.0000 C   0  0  0  0  0  0  0  0  0
   -6.2498   -0.4185    0.0000 C   0  0  0  0  0  0  0  0  0
   -6.9643   -0.8310    0.0000 C   0  0  0  0  0  0  0  0  0
   -7.6787   -0.4185    0.0000 C   0  0  0  0  0  0  0  0  0
   -7.6787    0.4065    0.0000 C   0  0  0  0  0  0  0  0  0
   -8.3932    0.8190    0.0000 Cl  0  0  0  0  0  0  0  0  0
  1  2  1  0  0  0  0
  2  3  4  0  0  0  0
  2 27  4  0  0  0  0
  3  4  1  0  0  0  0
  3 24  4  0  0  0  0
  4  5  1  0  0  0  0
  4  9  1  0  0  0  0
  5  6  1  0  0  0  0
  6  7  1  0  0  0  0
  7  8  1  0  0  0  0
  7 10  1  0  0  0  0
  8  9  1  0  0  0  0
 10 11  1  0  0  0  0
 11 12  2  0  0  0  0
 12 13  1  0  0  0  0
 13 14  1  0  0  0  0
 14 15  1  0  0  0  0
 15 16  2  0  0  0  0
 15 17  1  0  0  0  0
 17 18  4  0  0  0  0
 17 23  4  0  0  0  0
 18 19  4  0  0  0  0
 19 20  4  0  0  0  0
 20 21  1  0  0  0  0
 20 22  4  0  0  0  0
 22 23  4  0  0  0  0
 24 25  4  0  0  0  0
 25 26  4  0  0  0  0
 26 27  4  0  0  0  0
 27 28  1  0  0  0  0
M  END
>  <Name_Molregno>
322247

>  <DOPAMINE D2>
7.63

>  <DOPAMINE D3>
9.19

$$$$
322426
  Marvin  02231216192D 0   1.00000     0.00000     0

 30 32  0  0  0  0  0  0  0  0999 V2000
   -7.7919   -1.6384    0.0000 Cl  0  0  0  0  0  0  0  0  0
   -7.7919   -2.4634    0.0000 C   0  0  0  0  0  0  0  0  0
   -7.0774   -2.8759    0.0000 C   0  0  0  0  0  0  0  0  0
   -6.3630   -2.4634    0.0000 N   0  0  0  0  0  0  0  0  0
   -6.3630   -1.6384    0.0000 C   0  0  0  0  0  0  0  0  0
   -5.6485   -1.2259    0.0000 C   0  0  0  0  0  0  0  0  0
   -4.9340   -1.6384    0.0000 N   0  0  0  0  0  0  0  0  0
   -4.9340   -2.4634    0.0000 C   0  0  0  0  0  0  0  0  0
   -5.6485   -2.8759    0.0000 C   0  0  0  0  0  0  0  0  0
   -4.2196   -1.2259    0.0000 C   0  0  0  0  0  0  0  0  0
   -4.2196   -0.4009    0.0000 C   0  0  0  0  0  0  0  0  0
   -3.5051    0.0116    0.0000 C   0  0  0  0  0  0  0  0  0
   -3.5051    0.8366    0.0000 C   0  0  0  0  0  0  0  0  0
   -2.7906    1.2491    0.0000 N   0  0  0  0  0  0  0  0  0
   -2.7906    2.0741    0.0000 C   0  0  0  0  0  0  0  0  0
   -3.5051    2.4866    0.0000 O   0  0  0  0  0  0  0  0  0
   -2.0761    2.4866    0.0000 C   0  0  0  0  0  0  0  0  0
   -2.0761    3.3116    0.0000 C   0  0  0  0  0  0  0  0  0
   -1.3617    3.7241    0.0000 C   0  0  0  0  0  0  0  0  0
   -0.6472    3.3116    0.0000 C   0  0  0  0  0  0  0  0  0
    0.0673    3.7241    0.0000 N   0  3  0  0  0  0  0  0  0
    0.7817    3.3116    0.0000 O   0  5  0  0  0  0  0  0  0
    0.0673    4.5491    0.0000 O   0  5  0  0  0  0  0  0  0
   -0.6472    2.4866    0.0000 C   0  0  0  0  0  0  0  0  0
   -1.3617    2.0741    0.0000 C   0  0  0  0  0  0  0  0  0
   -7.0774   -3.7009    0.0000 C   0  0  0  0  0  0  0  0  0
   -7.7919   -4.1134    0.0000 C   0  0  0  0  0  0  0  0  0
   -8.5064   -3.7009    0.0000 C   0  0  0  0  0  0  0  0  0
   -8.5064   -2.8759    0.0000 C   0  0  0  0  0  0  0  0  0
   -9.2209   -2.4634    0.0000 Cl  0  0  0  0  0  0  0  0  0
  1  2  1  0  0  0  0
  2  3  4  0  0  0  0
  2 29  4  0  0  0  0
  3  4  1  0  0  0  0
  3 26  4  0  0  0  0
  4  5  1  0  0  0  0
  4  9  1  0  0  0  0
  5  6  1  0  0  0  0
  6  7  1  0  0  0  0
  7  8  1  0  0  0  0
  7 10  1  0  0  0  0
  8  9  1  0  0  0  0
 10 11  1  0  0  0  0
 11 12  2  0  0  0  0
 12 13  1  0  0  0  0
 13 14  1  0  0  0  0
 14 15  1  0  0  0  0
 15 16  2  0  0  0  0
 15 17  1  0  0  0  0
 17 18  4  0  0  0  0
 17 25  4  0  0  0  0
 18 19  4  0  0  0  0
 19 20  4  0  0  0  0
 20 21  1  0  0  0  0
 20 24  4  0  0  0  0
 21 22  1  0  0  0  0
 21 23  1  0  0  0  0
 24 25  4  0  0  0  0
 26 27  4  0  0  0  0
 27 28  4  0  0  0  0
 28 29  4  0  0  0  0
 29 30  1  0  0  0  0
M  CHG  3  21   1  22  -1  23  -1
M  END
>  <Name_Molregno>
322426

>  <DOPAMINE D2>
7.64

>  <DOPAMINE D3>
8.92

$$$$
322583
  Marvin  02231216192D 0   1.00000     0.00000     0

 38 42  0  0  0  0  0  0  0  0999 V2000
  -12.2585    1.3350    0.0000 S   0  0  0  0  0  0  0  0  0
  -12.9730    1.7475    0.0000 O   0  0  0  0  0  0  0  0  0
  -12.6710    0.6206    0.0000 O   0  0  0  0  0  0  0  0  0
  -11.8460    2.0495    0.0000 C   0  0  0  0  0  0  0  0  0
  -11.5441    0.9225    0.0000 C   0  0  0  0  0  0  0  0  0
  -10.8296    1.3350    0.0000 C   0  0  0  0  0  0  0  0  0
  -10.1151    0.9225    0.0000 C   0  0  0  0  0  0  0  0  0
   -9.4701    1.4369    0.0000 C   0  0  0  0  0  0  0  0  0
   -8.6658    1.2533    0.0000 C   0  0  0  0  0  0  0  0  0
   -8.3078    0.5100    0.0000 N   0  0  0  0  0  0  0  0  0
   -8.6658   -0.2333    0.0000 C   0  0  0  0  0  0  0  0  0
   -9.4701   -0.4168    0.0000 C   0  0  0  0  0  0  0  0  0
  -10.1151    0.0975    0.0000 C   0  0  0  0  0  0  0  0  0
  -10.8296   -0.3150    0.0000 C   0  0  0  0  0  0  0  0  0
  -11.5441    0.0975    0.0000 C   0  0  0  0  0  0  0  0  0
   -7.4828    0.5100    0.0000 C   0  0  0  0  0  0  0  0  0
   -7.0703    1.2245    0.0000 C   0  0  0  0  0  0  0  0  0
   -6.2453    1.2245    0.0000 C   0  0  0  0  0  0  0  0  0
   -5.8328    1.9390    0.0000 C   0  0  0  0  0  0  0  0  0
   -5.0078    1.9390    0.0000 C   0  0  0  0  0  0  0  0  0
   -4.5953    1.2245    0.0000 C   0  0  0  0  0  0  0  0  0
   -3.7703    1.2245    0.0000 N   0  0  0  0  0  0  0  0  0
   -3.3578    1.9390    0.0000 C   0  0  0  0  0  0  0  0  0
   -3.7703    2.6534    0.0000 O   0  0  0  0  0  0  0  0  0
   -2.5328    1.9390    0.0000 C   0  0  0  0  0  0  0  0  0
   -2.1203    2.6534    0.0000 C   0  0  0  0  0  0  0  0  0
   -1.2953    2.6534    0.0000 C   0  0  0  0  0  0  0  0  0
   -0.8828    1.9390    0.0000 C   0  0  0  0  0  0  0  0  0
   -1.2953    1.2245    0.0000 C   0  0  0  0  0  0  0  0  0
   -2.1203    1.2245    0.0000 C   0  0  0  0  0  0  0  0  0
   -0.8828    3.3679    0.0000 C   0  0  0  0  0  0  0  0  0
   -1.2184    4.1216    0.0000 N   0  0  0  0  0  0  0  0  0
   -0.6053    4.6736    0.0000 C   0  0  0  0  0  0  0  0  0
    0.1092    4.2611    0.0000 O   0  0  0  0  0  0  0  0  0
   -0.0624    3.4542    0.0000 N   0  0  0  0  0  0  0  0  0
   -0.6915    5.4941    0.0000 C   0  0  0  0  0  0  0  0  0
   -5.0078    0.5100    0.0000 C   0  0  0  0  0  0  0  0  0
   -5.8328    0.5100    0.0000 C   0  0  0  0  0  0  0  0  0
  1  2  2  0  0  0  0
  1  3  2  0  0  0  0
  1  4  1  0  0  0  0
  1  5  1  0  0  0  0
  5  6  4  0  0  0  0
  5 15  4  0  0  0  0
  6  7  4  0  0  0  0
  7  8  1  0  0  0  0
  7 13  4  0  0  0  0
  8  9  1  0  0  0  0
  9 10  1  0  0  0  0
 10 11  1  0  0  0  0
 10 16  1  0  0  0  0
 11 12  1  0  0  0  0
 12 13  1  0  0  0  0
 13 14  4  0  0  0  0
 14 15  4  0  0  0  0
 16 17  1  0  0  0  0
 17 18  1  0  0  0  0
 18 19  1  0  0  0  0
 18 38  1  0  0  0  0
 19 20  1  0  0  0  0
 20 21  1  0  0  0  0
 21 22  1  0  0  0  0
 21 37  1  0  0  0  0
 22 23  1  0  0  0  0
 23 24  2  0  0  0  0
 23 25  1  0  0  0  0
 25 26  4  0  0  0  0
 25 30  4  0  0  0  0
 26 27  4  0  0  0  0
 27 28  4  0  0  0  0
 27 31  1  0  0  0  0
 28 29  4  0  0  0  0
 29 30  4  0  0  0  0
 31 32  4  0  0  0  0
 31 35  4  0  0  0  0
 32 33  4  0  0  0  0
 33 34  4  0  0  0  0
 33 36  1  0  0  0  0
 34 35  4  0  0  0  0
 37 38  1  0  0  0  0
M  END
>  <Name_Molregno>
322583

>  <DOPAMINE D2>
6.25

>  <DOPAMINE D3>
8.8

$$$$
322629
  Marvin  02231216192D 0   1.00000     0.00000     0

 29 31  0  0  0  0  0  0  0  0999 V2000
   -7.4538   -1.5658    0.0000 Cl  0  0  0  0  0  0  0  0  0
   -7.4538   -2.3908    0.0000 C   0  0  0  0  0  0  0  0  0
   -6.7394   -2.8033    0.0000 C   0  0  0  0  0  0  0  0  0
   -6.0249   -2.3908    0.0000 N   0  0  0  0  0  0  0  0  0
   -6.0249   -1.5658    0.0000 C   0  0  0  0  0  0  0  0  0
   -5.3104   -1.1533    0.0000 C   0  0  0  0  0  0  0  0  0
   -4.5960   -1.5658    0.0000 N   0  0  0  0  0  0  0  0  0
   -4.5960   -2.3908    0.0000 C   0  0  0  0  0  0  0  0  0
   -5.3104   -2.8033    0.0000 C   0  0  0  0  0  0  0  0  0
   -3.8815   -1.1533    0.0000 C   0  0  0  0  0  0  0  0  0
   -3.8815   -0.3283    0.0000 C   0  0  0  0  0  0  0  0  0
   -3.1670    0.0842    0.0000 C   0  0  0  0  0  0  0  0  0
   -3.1670    0.9092    0.0000 C   0  0  0  0  0  0  0  0  0
   -2.4526    1.3217    0.0000 N   0  0  0  0  0  0  0  0  0
   -2.4526    2.1467    0.0000 C   0  0  0  0  0  0  0  0  0
   -3.1670    2.5592    0.0000 O   0  0  0  0  0  0  0  0  0
   -1.7381    2.5592    0.0000 C   0  0  0  0  0  0  0  0  0
   -1.7381    3.3842    0.0000 C   0  0  0  0  0  0  0  0  0
   -1.0236    3.7967    0.0000 C   0  0  0  0  0  0  0  0  0
   -0.3091    3.3842    0.0000 C   0  0  0  0  0  0  0  0  0
    0.4053    3.7967    0.0000 O   0  0  0  0  0  0  0  0  0
    1.1198    3.3842    0.0000 C   0  0  0  0  0  0  0  0  0
   -0.3091    2.5592    0.0000 C   0  0  0  0  0  0  0  0  0
   -1.0236    2.1467    0.0000 C   0  0  0  0  0  0  0  0  0
   -6.7394   -3.6283    0.0000 C   0  0  0  0  0  0  0  0  0
   -7.4538   -4.0408    0.0000 C   0  0  0  0  0  0  0  0  0
   -8.1683   -3.6283    0.0000 C   0  0  0  0  0  0  0  0  0
   -8.1683   -2.8033    0.0000 C   0  0  0  0  0  0  0  0  0
   -8.8828   -2.3908    0.0000 Cl  0  0  0  0  0  0  0  0  0
  1  2  1  0  0  0  0
  2  3  4  0  0  0  0
  2 28  4  0  0  0  0
  3  4  1  0  0  0  0
  3 25  4  0  0  0  0
  4  5  1  0  0  0  0
  4  9  1  0  0  0  0
  5  6  1  0  0  0  0
  6  7  1  0  0  0  0
  7  8  1  0  0  0  0
  7 10  1  0  0  0  0
  8  9  1  0  0  0  0
 10 11  1  0  0  0  0
 11 12  2  0  0  0  0
 12 13  1  0  0  0  0
 13 14  1  0  0  0  0
 14 15  1  0  0  0  0
 15 16  2  0  0  0  0
 15 17  1  0  0  0  0
 17 18  4  0  0  0  0
 17 24  4  0  0  0  0
 18 19  4  0  0  0  0
 19 20  4  0  0  0  0
 20 21  1  0  0  0  0
 20 23  4  0  0  0  0
 21 22  1  0  0  0  0
 23 24  4  0  0  0  0
 25 26  4  0  0  0  0
 26 27  4  0  0  0  0
 27 28  4  0  0  0  0
 28 29  1  0  0  0  0
M  END
>  <Name_Molregno>
322629

>  <DOPAMINE D2>
7.35

>  <DOPAMINE D3>
8.59

$$$$
323376
  Marvin  02231216192D 0   1.00000     0.00000     0

 28 30  0  0  0  0  0  0  0  0999 V2000
    0.8399    1.4485    0.0000 Cl  0  0  0  0  0  0  0  0  0
    0.8399    0.6235    0.0000 C   0  0  0  0  0  0  0  0  0
    1.5544    0.2110    0.0000 C   0  0  0  0  0  0  0  0  0
    2.2689    0.6235    0.0000 N   0  0  0  0  0  0  0  0  0
    2.2689    1.4485    0.0000 C   0  0  0  0  0  0  0  0  0
    2.9833    1.8610    0.0000 C   0  0  0  0  0  0  0  0  0
    3.6978    1.4485    0.0000 N   0  0  0  0  0  0  0  0  0
    3.6978    0.6235    0.0000 C   0  0  0  0  0  0  0  0  0
    2.9833    0.2110    0.0000 C   0  0  0  0  0  0  0  0  0
    4.4123    1.8610    0.0000 C   0  0  0  0  0  0  0  0  0
    5.1267    1.4485    0.0000 C   0  0  0  0  0  0  0  0  0
    5.1267    0.6235    0.0000 C   0  0  0  0  0  0  0  0  0
    5.8412    0.2110    0.0000 C   0  0  0  0  0  0  0  0  0
    5.8412   -0.6140    0.0000 N   0  0  0  0  0  0  0  0  0
    6.5557   -1.0265    0.0000 C   0  0  0  0  0  0  0  0  0
    7.2702   -0.6140    0.0000 O   0  0  0  0  0  0  0  0  0
    6.5557   -1.8515    0.0000 C   0  0  0  0  0  0  0  0  0
    7.2702   -2.2640    0.0000 C   0  0  0  0  0  0  0  0  0
    7.2702   -3.0890    0.0000 C   0  0  0  0  0  0  0  0  0
    6.5557   -3.5015    0.0000 C   0  0  0  0  0  0  0  0  0
    5.8412   -3.0890    0.0000 C   0  0  0  0  0  0  0  0  0
    5.8412   -2.2640    0.0000 C   0  0  0  0  0  0  0  0  0
    5.1267   -1.8515    0.0000 O   0  0  0  0  0  0  0  0  0
    1.5544   -0.6140    0.0000 C   0  0  0  0  0  0  0  0  0
    0.8399   -1.0265    0.0000 C   0  0  0  0  0  0  0  0  0
    0.1254   -0.6140    0.0000 C   0  0  0  0  0  0  0  0  0
    0.1254    0.2110    0.0000 C   0  0  0  0  0  0  0  0  0
   -0.5890    0.6235    0.0000 Cl  0  0  0  0  0  0  0  0  0
  1  2  1  0  0  0  0
  2  3  4  0  0  0  0
  2 27  4  0  0  0  0
  3  4  1  0  0  0  0
  3 24  4  0  0  0  0
  4  5  1  0  0  0  0
  4  9  1  0  0  0  0
  5  6  1  0  0  0  0
  6  7  1  0  0  0  0
  7  8  1  0  0  0  0
  7 10  1  0  0  0  0
  8  9  1  0  0  0  0
 10 11  1  0  0  0  0
 11 12  2  0  0  0  0
 12 13  1  0  0  0  0
 13 14  1  0  0  0  0
 14 15  1  0  0  0  0
 15 16  2  0  0  0  0
 15 17  1  0  0  0  0
 17 18  4  0  0  0  0
 17 22  4  0  0  0  0
 18 19  4  0  0  0  0
 19 20  4  0  0  0  0
 20 21  4  0  0  0  0
 21 22  4  0  0  0  0
 22 23  1  0  0  0  0
 24 25  4  0  0  0  0
 25 26  4  0  0  0  0
 26 27  4  0  0  0  0
 27 28  1  0  0  0  0
M  END
>  <Name_Molregno>
323376

>  <DOPAMINE D2>
8.18

>  <DOPAMINE D3>
9.1

$$$$
323446
  Marvin  02231216192D 0   1.00000     0.00000     0

 30 32  0  0  0  0  0  0  0  0999 V2000
   -7.6266   -1.9053    0.0000 Cl  0  0  0  0  0  0  0  0  0
   -7.6266   -2.7303    0.0000 C   0  0  0  0  0  0  0  0  0
   -6.9121   -3.1428    0.0000 C   0  0  0  0  0  0  0  0  0
   -6.1976   -2.7303    0.0000 N   0  0  0  0  0  0  0  0  0
   -6.1976   -1.9053    0.0000 C   0  0  0  0  0  0  0  0  0
   -5.4832   -1.4928    0.0000 C   0  0  0  0  0  0  0  0  0
   -4.7687   -1.9053    0.0000 N   0  0  0  0  0  0  0  0  0
   -4.7687   -2.7303    0.0000 C   0  0  0  0  0  0  0  0  0
   -5.4832   -3.1428    0.0000 C   0  0  0  0  0  0  0  0  0
   -4.0542   -1.4928    0.0000 C   0  0  0  0  0  0  0  0  0
   -4.0542   -0.6678    0.0000 C   0  0  0  0  0  0  0  0  0
   -3.3398   -0.2553    0.0000 C   0  0  0  0  0  0  0  0  0
   -3.3398    0.5697    0.0000 C   0  0  0  0  0  0  0  0  0
   -2.6253    0.9822    0.0000 N   0  0  0  0  0  0  0  0  0
   -2.6253    1.8072    0.0000 C   0  0  0  0  0  0  0  0  0
   -3.3398    2.2197    0.0000 O   0  0  0  0  0  0  0  0  0
   -1.9108    2.2197    0.0000 C   0  0  0  0  0  0  0  0  0
   -1.9108    3.0447    0.0000 C   0  0  0  0  0  0  0  0  0
   -1.1963    3.4572    0.0000 C   0  0  0  0  0  0  0  0  0
   -1.1963    4.2822    0.0000 N   0  3  0  0  0  0  0  0  0
   -0.4819    4.6947    0.0000 O   0  5  0  0  0  0  0  0  0
   -1.9108    4.6947    0.0000 O   0  5  0  0  0  0  0  0  0
   -0.4819    3.0447    0.0000 C   0  0  0  0  0  0  0  0  0
   -0.4819    2.2197    0.0000 C   0  0  0  0  0  0  0  0  0
   -1.1963    1.8072    0.0000 C   0  0  0  0  0  0  0  0  0
   -6.9121   -3.9678    0.0000 C   0  0  0  0  0  0  0  0  0
   -7.6266   -4.3803    0.0000 C   0  0  0  0  0  0  0  0  0
   -8.3410   -3.9678    0.0000 C   0  0  0  0  0  0  0  0  0
   -8.3410   -3.1428    0.0000 C   0  0  0  0  0  0  0  0  0
   -9.0555   -2.7303    0.0000 Cl  0  0  0  0  0  0  0  0  0
  1  2  1  0  0  0  0
  2  3  4  0  0  0  0
  2 29  4  0  0  0  0
  3  4  1  0  0  0  0
  3 26  4  0  0  0  0
  4  5  1  0  0  0  0
  4  9  1  0  0  0  0
  5  6  1  0  0  0  0
  6  7  1  0  0  0  0
  7  8  1  0  0  0  0
  7 10  1  0  0  0  0
  8  9  1  0  0  0  0
 10 11  1  0  0  0  0
 11 12  2  0  0  0  0
 12 13  1  0  0  0  0
 13 14  1  0  0  0  0
 14 15  1  0  0  0  0
 15 16  2  0  0  0  0
 15 17  1  0  0  0  0
 17 18  4  0  0  0  0
 17 25  4  0  0  0  0
 18 19  4  0  0  0  0
 19 20  1  0  0  0  0
 19 23  4  0  0  0  0
 20 21  1  0  0  0  0
 20 22  1  0  0  0  0
 23 24  4  0  0  0  0
 24 25  4  0  0  0  0
 26 27  4  0  0  0  0
 27 28  4  0  0  0  0
 28 29  4  0  0  0  0
 29 30  1  0  0  0  0
M  CHG  3  20   1  21  -1  22  -1
M  END
>  <Name_Molregno>
323446

>  <DOPAMINE D2>
7.66

>  <DOPAMINE D3>
8.64

$$$$
323537
  Marvin  02231216192D 0   1.00000     0.00000     0

 28 30  0  0  0  0  0  0  0  0999 V2000
    0.8399    1.4485    0.0000 Cl  0  0  0  0  0  0  0  0  0
    0.8399    0.6235    0.0000 C   0  0  0  0  0  0  0  0  0
    1.5544    0.2110    0.0000 C   0  0  0  0  0  0  0  0  0
    2.2689    0.6235    0.0000 N   0  0  0  0  0  0  0  0  0
    2.2689    1.4485    0.0000 C   0  0  0  0  0  0  0  0  0
    2.9833    1.8610    0.0000 C   0  0  0  0  0  0  0  0  0
    3.6978    1.4485    0.0000 N   0  0  0  0  0  0  0  0  0
    3.6978    0.6235    0.0000 C   0  0  0  0  0  0  0  0  0
    2.9833    0.2110    0.0000 C   0  0  0  0  0  0  0  0  0
    4.4123    1.8610    0.0000 C   0  0  0  0  0  0  0  0  0
    5.1267    1.4485    0.0000 C   0  0  0  0  0  0  0  0  0
    5.1267    0.6235    0.0000 C   0  0  0  0  0  0  0  0  0
    5.8412    0.2110    0.0000 C   0  0  0  0  0  0  0  0  0
    5.8412   -0.6140    0.0000 N   0  0  0  0  0  0  0  0  0
    6.5557   -1.0265    0.0000 C   0  0  0  0  0  0  0  0  0
    7.2702   -0.6140    0.0000 O   0  0  0  0  0  0  0  0  0
    6.5557   -1.8515    0.0000 C   0  0  0  0  0  0  0  0  0
    7.2702   -2.2640    0.0000 C   0  0  0  0  0  0  0  0  0
    7.2702   -3.0890    0.0000 C   0  0  0  0  0  0  0  0  0
    6.5557   -3.5015    0.0000 C   0  0  0  0  0  0  0  0  0
    5.8412   -3.0890    0.0000 C   0  0  0  0  0  0  0  0  0
    5.8412   -2.2640    0.0000 C   0  0  0  0  0  0  0  0  0
    5.1267   -1.8515    0.0000 N   0  0  0  0  0  0  0  0  0
    1.5544   -0.6140    0.0000 C   0  0  0  0  0  0  0  0  0
    0.8399   -1.0265    0.0000 C   0  0  0  0  0  0  0  0  0
    0.1254   -0.6140    0.0000 C   0  0  0  0  0  0  0  0  0
    0.1254    0.2110    0.0000 C   0  0  0  0  0  0  0  0  0
   -0.5890    0.6235    0.0000 Cl  0  0  0  0  0  0  0  0  0
  1  2  1  0  0  0  0
  2  3  4  0  0  0  0
  2 27  4  0  0  0  0
  3  4  1  0  0  0  0
  3 24  4  0  0  0  0
  4  5  1  0  0  0  0
  4  9  1  0  0  0  0
  5  6  1  0  0  0  0
  6  7  1  0  0  0  0
  7  8  1  0  0  0  0
  7 10  1  0  0  0  0
  8  9  1  0  0  0  0
 10 11  1  0  0  0  0
 11 12  2  0  0  0  0
 12 13  1  0  0  0  0
 13 14  1  0  0  0  0
 14 15  1  0  0  0  0
 15 16  2  0  0  0  0
 15 17  1  0  0  0  0
 17 18  4  0  0  0  0
 17 22  4  0  0  0  0
 18 19  4  0  0  0  0
 19 20  4  0  0  0  0
 20 21  4  0  0  0  0
 21 22  4  0  0  0  0
 22 23  1  0  0  0  0
 24 25  4  0  0  0  0
 25 26  4  0  0  0  0
 26 27  4  0  0  0  0
 27 28  1  0  0  0  0
M  END
>  <Name_Molregno>
323537

>  <DOPAMINE D2>
7.74

>  <DOPAMINE D3>
8.66

$$$$
323569
  Marvin  02231216192D 0   1.00000     0.00000     0

 28 30  0  0  0  0  0  0  0  0999 V2000
   -7.0131    1.5257    0.0000 Cl  0  0  0  0  0  0  0  0  0
   -7.0131    0.7007    0.0000 C   0  0  0  0  0  0  0  0  0
   -6.2986    0.2882    0.0000 C   0  0  0  0  0  0  0  0  0
   -5.5841    0.7007    0.0000 N   0  0  0  0  0  0  0  0  0
   -5.5841    1.5257    0.0000 C   0  0  0  0  0  0  0  0  0
   -4.8697    1.9382    0.0000 C   0  0  0  0  0  0  0  0  0
   -4.1552    1.5257    0.0000 N   0  0  0  0  0  0  0  0  0
   -4.1552    0.7007    0.0000 C   0  0  0  0  0  0  0  0  0
   -4.8697    0.2882    0.0000 C   0  0  0  0  0  0  0  0  0
   -3.4407    1.9382    0.0000 C   0  0  0  0  0  0  0  0  0
   -2.7262    1.5257    0.0000 C   0  0  0  0  0  0  0  0  0
   -2.7262    0.7007    0.0000 C   0  0  0  0  0  0  0  0  0
   -2.0118    0.2882    0.0000 C   0  0  0  0  0  0  0  0  0
   -2.0118   -0.5368    0.0000 N   0  0  0  0  0  0  0  0  0
   -1.2973   -0.9493    0.0000 C   0  0  0  0  0  0  0  0  0
   -0.5828   -0.5368    0.0000 O   0  0  0  0  0  0  0  0  0
   -1.2973   -1.7743    0.0000 C   0  0  0  0  0  0  0  0  0
   -0.5828   -2.1868    0.0000 C   0  0  0  0  0  0  0  0  0
   -0.5828   -3.0118    0.0000 C   0  0  0  0  0  0  0  0  0
    0.1316   -3.4243    0.0000 N   0  0  0  0  0  0  0  0  0
   -1.2973   -3.4243    0.0000 C   0  0  0  0  0  0  0  0  0
   -2.0118   -3.0118    0.0000 C   0  0  0  0  0  0  0  0  0
   -2.0118   -2.1868    0.0000 C   0  0  0  0  0  0  0  0  0
   -6.2986   -0.5368    0.0000 C   0  0  0  0  0  0  0  0  0
   -7.0131   -0.9493    0.0000 C   0  0  0  0  0  0  0  0  0
   -7.7275   -0.5368    0.0000 C   0  0  0  0  0  0  0  0  0
   -7.7275    0.2882    0.0000 C   0  0  0  0  0  0  0  0  0
   -8.4420    0.7007    0.0000 Cl  0  0  0  0  0  0  0  0  0
  1  2  1  0  0  0  0
  2  3  4  0  0  0  0
  2 27  4  0  0  0  0
  3  4  1  0  0  0  0
  3 24  4  0  0  0  0
  4  5  1  0  0  0  0
  4  9  1  0  0  0  0
  5  6  1  0  0  0  0
  6  7  1  0  0  0  0
  7  8  1  0  0  0  0
  7 10  1  0  0  0  0
  8  9  1  0  0  0  0
 10 11  1  0  0  0  0
 11 12  2  0  0  0  0
 12 13  1  0  0  0  0
 13 14  1  0  0  0  0
 14 15  1  0  0  0  0
 15 16  2  0  0  0  0
 15 17  1  0  0  0  0
 17 18  4  0  0  0  0
 17 23  4  0  0  0  0
 18 19  4  0  0  0  0
 19 20  1  0  0  0  0
 19 21  4  0  0  0  0
 21 22  4  0  0  0  0
 22 23  4  0  0  0  0
 24 25  4  0  0  0  0
 25 26  4  0  0  0  0
 26 27  4  0  0  0  0
 27 28  1  0  0  0  0
M  END
>  <Name_Molregno>
323569

>  <DOPAMINE D2>
7.54

>  <DOPAMINE D3>
8.7

$$$$
323651
  Marvin  02231216192D 0   1.00000     0.00000     0

 30 32  0  0  0  0  0  0  0  0999 V2000
   -7.2246    1.4957    0.0000 Cl  0  0  0  0  0  0  0  0  0
   -7.2246    0.6707    0.0000 C   0  0  0  0  0  0  0  0  0
   -6.5101    0.2582    0.0000 C   0  0  0  0  0  0  0  0  0
   -5.7956    0.6707    0.0000 N   0  0  0  0  0  0  0  0  0
   -5.7956    1.4957    0.0000 C   0  0  0  0  0  0  0  0  0
   -5.0812    1.9082    0.0000 C   0  0  0  0  0  0  0  0  0
   -4.3667    1.4957    0.0000 N   0  0  0  0  0  0  0  0  0
   -4.3667    0.6707    0.0000 C   0  0  0  0  0  0  0  0  0
   -5.0812    0.2582    0.0000 C   0  0  0  0  0  0  0  0  0
   -3.6522    1.9082    0.0000 C   0  0  0  0  0  0  0  0  0
   -2.9378    1.4957    0.0000 C   0  0  0  0  0  0  0  0  0
   -2.9378    0.6707    0.0000 C   0  0  0  0  0  0  0  0  0
   -2.2233    0.2582    0.0000 C   0  0  0  0  0  0  0  0  0
   -2.2233   -0.5668    0.0000 N   0  0  0  0  0  0  0  0  0
   -1.5088   -0.9793    0.0000 C   0  0  0  0  0  0  0  0  0
   -0.7943   -0.5668    0.0000 O   0  0  0  0  0  0  0  0  0
   -1.5088   -1.8043    0.0000 C   0  0  0  0  0  0  0  0  0
   -0.7943   -2.2168    0.0000 C   0  0  0  0  0  0  0  0  0
   -0.7943   -3.0418    0.0000 C   0  0  0  0  0  0  0  0  0
   -1.5088   -3.4543    0.0000 C   0  0  0  0  0  0  0  0  0
   -2.2233   -3.0418    0.0000 C   0  0  0  0  0  0  0  0  0
   -2.2233   -2.2168    0.0000 C   0  0  0  0  0  0  0  0  0
   -2.9378   -1.8043    0.0000 N   0  3  0  0  0  0  0  0  0
   -3.6522   -2.2168    0.0000 O   0  5  0  0  0  0  0  0  0
   -2.9378   -0.9793    0.0000 O   0  5  0  0  0  0  0  0  0
   -6.5101   -0.5668    0.0000 C   0  0  0  0  0  0  0  0  0
   -7.2246   -0.9793    0.0000 C   0  0  0  0  0  0  0  0  0
   -7.9391   -0.5668    0.0000 C   0  0  0  0  0  0  0  0  0
   -7.9391    0.2582    0.0000 C   0  0  0  0  0  0  0  0  0
   -8.6535    0.6707    0.0000 Cl  0  0  0  0  0  0  0  0  0
  1  2  1  0  0  0  0
  2  3  4  0  0  0  0
  2 29  4  0  0  0  0
  3  4  1  0  0  0  0
  3 26  4  0  0  0  0
  4  5  1  0  0  0  0
  4  9  1  0  0  0  0
  5  6  1  0  0  0  0
  6  7  1  0  0  0  0
  7  8  1  0  0  0  0
  7 10  1  0  0  0  0
  8  9  1  0  0  0  0
 10 11  1  0  0  0  0
 11 12  2  0  0  0  0
 12 13  1  0  0  0  0
 13 14  1  0  0  0  0
 14 15  1  0  0  0  0
 15 16  2  0  0  0  0
 15 17  1  0  0  0  0
 17 18  4  0  0  0  0
 17 22  4  0  0  0  0
 18 19  4  0  0  0  0
 19 20  4  0  0  0  0
 20 21  4  0  0  0  0
 21 22  4  0  0  0  0
 22 23  1  0  0  0  0
 23 24  1  0  0  0  0
 23 25  1  0  0  0  0
 26 27  4  0  0  0  0
 27 28  4  0  0  0  0
 28 29  4  0  0  0  0
 29 30  1  0  0  0  0
M  CHG  3  23   1  24  -1  25  -1
M  END
>  <Name_Molregno>
323651

>  <DOPAMINE D2>
8.13

>  <DOPAMINE D3>
8.47

$$$$
323877
  Marvin  02231216192D 0   1.00000     0.00000     0

 23 26  0  0  1  0  0  0  0  0999 V2000
   -0.7165   -2.4653    0.0000 F   0  0  0  0  0  0  0  0  0
    0.0718   -2.7084    0.0000 C   0  0  0  0  0  0  0  0  0
    0.6766   -2.1473    0.0000 C   0  0  0  0  0  0  0  0  0
    1.4649   -2.3905    0.0000 C   0  0  0  0  0  0  0  0  0
    1.9793   -1.7455    0.0000 C   0  0  0  0  0  0  0  0  0
    1.7244   -0.9608    0.0000 O   0  0  0  0  0  0  0  0  0
    2.3918   -0.4759    0.0000 C   0  0  0  0  0  0  0  0  0
    3.0593   -0.9608    0.0000 C   0  0  0  0  0  0  0  0  0
    2.8043   -1.7455    0.0000 C   0  0  0  0  0  0  0  0  0
    3.3187   -2.3905    0.0000 C   0  0  0  0  0  0  0  0  0
    3.1351   -3.1948    0.0000 C   0  0  0  0  0  0  0  0  0
    2.3918   -3.5527    0.0000 O   0  0  0  0  0  0  0  0  0
    1.6485   -3.1948    0.0000 C   0  0  0  0  0  0  0  0  0
    1.0437   -3.7559    0.0000 C   0  0  0  0  0  0  0  0  0
    0.2554   -3.5128    0.0000 C   0  0  0  0  0  0  0  0  0
    3.7399   -3.7559    0.0000 C   0  0  0  0  0  0  0  0  0
    4.5282   -3.5128    0.0000 C   0  0  0  0  0  0  0  0  0
    4.7118   -2.7084    0.0000 C   0  0  0  0  0  0  0  0  0
    4.1070   -2.1473    0.0000 C   0  0  0  0  0  0  0  0  0
    2.3918    0.3491    0.0000 C   0  0  0  0  0  0  0  0  0
    3.1063    0.7616    0.0000 N   0  0  0  0  0  0  0  0  0
    3.1063    1.5866    0.0000 C   0  0  0  0  0  0  0  0  0
    3.8208    0.3491    0.0000 C   0  0  0  0  0  0  0  0  0
  1  2  1  0  0  0  0
  2  3  4  0  0  0  0
  2 15  4  0  0  0  0
  3  4  4  0  0  0  0
  4  5  1  0  0  0  0
  4 13  4  0  0  0  0
  5  6  1  0  0  0  0
  5  9  1  0  0  0  0
  6  7  1  0  0  0  0
  7  8  1  0  0  0  0
  7 20  1  0  0  0  0
  8  9  1  0  0  0  0
  9 10  1  0  0  0  0
 10 11  4  0  0  0  0
 10 19  4  0  0  0  0
 11 12  1  0  0  0  0
 11 16  4  0  0  0  0
 12 13  1  0  0  0  0
 13 14  4  0  0  0  0
 14 15  4  0  0  0  0
 16 17  4  0  0  0  0
 17 18  4  0  0  0  0
 18 19  4  0  0  0  0
 20 21  1  0  0  0  0
 21 22  1  0  0  0  0
 21 23  1  0  0  0  0
M  END
>  <Name_Molregno>
323877

>  <5-HT2A>
5.97

>  <5-HT2C>
7.77

>  <5-HT7>
7.17

>  <Alpha-2A>
6.59

>  <Alpha-2C>
6.68

>  <DOPAMINE D2>
7.1

>  <DOPAMINE D3>
7.02

>  <HISTAMINE H1>
7.8

$$$$
323878
  Marvin  02231216192D 0   1.00000     0.00000     0

 23 26  0  0  1  0  0  0  0  0999 V2000
   -0.7165   -2.4653    0.0000 Cl  0  0  0  0  0  0  0  0  0
    0.0718   -2.7084    0.0000 C   0  0  0  0  0  0  0  0  0
    0.6766   -2.1473    0.0000 C   0  0  0  0  0  0  0  0  0
    1.4649   -2.3905    0.0000 C   0  0  0  0  0  0  0  0  0
    1.9793   -1.7455    0.0000 C   0  0  0  0  0  0  0  0  0
    1.7244   -0.9608    0.0000 O   0  0  0  0  0  0  0  0  0
    2.3918   -0.4759    0.0000 C   0  0  0  0  0  0  0  0  0
    3.0593   -0.9608    0.0000 C   0  0  0  0  0  0  0  0  0
    2.8043   -1.7455    0.0000 C   0  0  0  0  0  0  0  0  0
    3.3187   -2.3905    0.0000 C   0  0  0  0  0  0  0  0  0
    3.1351   -3.1948    0.0000 C   0  0  0  0  0  0  0  0  0
    2.3918   -3.5527    0.0000 O   0  0  0  0  0  0  0  0  0
    1.6485   -3.1948    0.0000 C   0  0  0  0  0  0  0  0  0
    1.0437   -3.7559    0.0000 C   0  0  0  0  0  0  0  0  0
    0.2554   -3.5128    0.0000 C   0  0  0  0  0  0  0  0  0
    3.7399   -3.7559    0.0000 C   0  0  0  0  0  0  0  0  0
    4.5282   -3.5128    0.0000 C   0  0  0  0  0  0  0  0  0
    4.7118   -2.7084    0.0000 C   0  0  0  0  0  0  0  0  0
    4.1070   -2.1473    0.0000 C   0  0  0  0  0  0  0  0  0
    2.3918    0.3491    0.0000 C   0  0  0  0  0  0  0  0  0
    3.1063    0.7616    0.0000 N   0  0  0  0  0  0  0  0  0
    3.1063    1.5866    0.0000 C   0  0  0  0  0  0  0  0  0
    3.8208    0.3491    0.0000 C   0  0  0  0  0  0  0  0  0
  1  2  1  0  0  0  0
  2  3  4  0  0  0  0
  2 15  4  0  0  0  0
  3  4  4  0  0  0  0
  4  5  1  0  0  0  0
  4 13  4  0  0  0  0
  5  6  1  0  0  0  0
  5  9  1  0  0  0  0
  6  7  1  0  0  0  0
  7  8  1  0  0  0  0
  7 20  1  0  0  0  0
  8  9  1  0  0  0  0
  9 10  1  0  0  0  0
 10 11  4  0  0  0  0
 10 19  4  0  0  0  0
 11 12  1  0  0  0  0
 11 16  4  0  0  0  0
 12 13  1  0  0  0  0
 13 14  4  0  0  0  0
 14 15  4  0  0  0  0
 16 17  4  0  0  0  0
 17 18  4  0  0  0  0
 18 19  4  0  0  0  0
 20 21  1  0  0  0  0
 21 22  1  0  0  0  0
 21 23  1  0  0  0  0
M  END
>  <Name_Molregno>
323878

>  <5-HT2A>
8.04

>  <5-HT2C>
8.16

>  <5-HT7>
6.82

>  <Alpha-2A>
7.26

>  <Alpha-2C>
6.88

>  <DOPAMINE D1>
6.84

>  <DOPAMINE D2>
7.7

>  <DOPAMINE D3>
6.97

>  <HISTAMINE H1>
8.11

$$$$
323985
  Marvin  02231216192D 0   1.00000     0.00000     0

 23 26  0  0  1  0  0  0  0  0999 V2000
   -0.7165   -2.4653    0.0000 Br  0  0  0  0  0  0  0  0  0
    0.0718   -2.7084    0.0000 C   0  0  0  0  0  0  0  0  0
    0.6766   -2.1473    0.0000 C   0  0  0  0  0  0  0  0  0
    1.4649   -2.3905    0.0000 C   0  0  0  0  0  0  0  0  0
    1.9793   -1.7455    0.0000 C   0  0  0  0  0  0  0  0  0
    1.7244   -0.9608    0.0000 O   0  0  0  0  0  0  0  0  0
    2.3918   -0.4759    0.0000 C   0  0  0  0  0  0  0  0  0
    3.0593   -0.9608    0.0000 C   0  0  0  0  0  0  0  0  0
    2.8043   -1.7455    0.0000 C   0  0  0  0  0  0  0  0  0
    3.3187   -2.3905    0.0000 C   0  0  0  0  0  0  0  0  0
    3.1351   -3.1948    0.0000 C   0  0  0  0  0  0  0  0  0
    2.3918   -3.5527    0.0000 O   0  0  0  0  0  0  0  0  0
    1.6485   -3.1948    0.0000 C   0  0  0  0  0  0  0  0  0
    1.0437   -3.7559    0.0000 C   0  0  0  0  0  0  0  0  0
    0.2554   -3.5128    0.0000 C   0  0  0  0  0  0  0  0  0
    3.7399   -3.7559    0.0000 C   0  0  0  0  0  0  0  0  0
    4.5282   -3.5128    0.0000 C   0  0  0  0  0  0  0  0  0
    4.7118   -2.7084    0.0000 C   0  0  0  0  0  0  0  0  0
    4.1070   -2.1473    0.0000 C   0  0  0  0  0  0  0  0  0
    2.3918    0.3491    0.0000 C   0  0  0  0  0  0  0  0  0
    3.1063    0.7616    0.0000 N   0  0  0  0  0  0  0  0  0
    3.1063    1.5866    0.0000 C   0  0  0  0  0  0  0  0  0
    3.8208    0.3491    0.0000 C   0  0  0  0  0  0  0  0  0
  1  2  1  0  0  0  0
  2  3  4  0  0  0  0
  2 15  4  0  0  0  0
  3  4  4  0  0  0  0
  4  5  1  0  0  0  0
  4 13  4  0  0  0  0
  5  6  1  0  0  0  0
  5  9  1  0  0  0  0
  6  7  1  0  0  0  0
  7  8  1  0  0  0  0
  7 20  1  0  0  0  0
  8  9  1  0  0  0  0
  9 10  1  0  0  0  0
 10 11  4  0  0  0  0
 10 19  4  0  0  0  0
 11 12  1  0  0  0  0
 11 16  4  0  0  0  0
 12 13  1  0  0  0  0
 13 14  4  0  0  0  0
 14 15  4  0  0  0  0
 16 17  4  0  0  0  0
 17 18  4  0  0  0  0
 18 19  4  0  0  0  0
 20 21  1  0  0  0  0
 21 22  1  0  0  0  0
 21 23  1  0  0  0  0
M  END
>  <Name_Molregno>
323985

>  <5-HT2A>
7.74

>  <5-HT2C>
7.78

>  <5-HT7>
7.46

>  <Alpha-2A>
6.39

>  <Alpha-2C>
6.13

>  <DOPAMINE D1>
6.81

>  <DOPAMINE D2>
6.8

>  <DOPAMINE D3>
7.02

>  <HISTAMINE H1>
7.38

$$$$
323986
  Marvin  02231216192D 0   1.00000     0.00000     0

 23 26  0  0  1  0  0  0  0  0999 V2000
    1.2300    2.6153    0.0000 S   0  0  0  0  0  0  0  0  0
    1.9733    2.2574    0.0000 C   0  0  0  0  0  0  0  0  0
    2.1569    1.4530    0.0000 C   0  0  0  0  0  0  0  0  0
    2.9453    1.2099    0.0000 C   0  0  0  0  0  0  0  0  0
    3.5500    1.7710    0.0000 C   0  0  0  0  0  0  0  0  0
    4.3384    1.5278    0.0000 F   0  0  0  0  0  0  0  0  0
    3.3664    2.5753    0.0000 C   0  0  0  0  0  0  0  0  0
    2.5781    2.8185    0.0000 C   0  0  0  0  0  0  0  0  0
    1.6425    0.8080    0.0000 C   0  0  0  0  0  0  0  0  0
    1.8975    0.0234    0.0000 O   0  0  0  0  0  0  0  0  0
    1.2300   -0.4615    0.0000 C   0  0  0  0  0  0  0  0  0
    0.5626    0.0234    0.0000 C   0  0  0  0  0  0  0  0  0
    0.8175    0.8080    0.0000 C   0  0  0  0  0  0  0  0  0
    0.3032    1.4530    0.0000 C   0  0  0  0  0  0  0  0  0
    0.4867    2.2574    0.0000 C   0  0  0  0  0  0  0  0  0
   -0.1180    2.8185    0.0000 C   0  0  0  0  0  0  0  0  0
   -0.9064    2.5753    0.0000 C   0  0  0  0  0  0  0  0  0
   -1.0900    1.7710    0.0000 C   0  0  0  0  0  0  0  0  0
   -0.4852    1.2099    0.0000 C   0  0  0  0  0  0  0  0  0
    1.2300   -1.2865    0.0000 C   0  0  0  0  0  0  0  0  0
    0.5156   -1.6990    0.0000 N   0  0  0  0  0  0  0  0  0
    0.5156   -2.5240    0.0000 C   0  0  0  0  0  0  0  0  0
   -0.1989   -1.2865    0.0000 C   0  0  0  0  0  0  0  0  0
  1  2  1  0  0  0  0
  1 15  1  0  0  0  0
  2  3  4  0  0  0  0
  2  8  4  0  0  0  0
  3  4  4  0  0  0  0
  3  9  1  0  0  0  0
  4  5  4  0  0  0  0
  5  6  1  0  0  0  0
  5  7  4  0  0  0  0
  7  8  4  0  0  0  0
  9 10  1  0  0  0  0
  9 13  1  0  0  0  0
 10 11  1  0  0  0  0
 11 12  1  0  0  0  0
 11 20  1  0  0  0  0
 12 13  1  0  0  0  0
 13 14  1  0  0  0  0
 14 15  4  0  0  0  0
 14 19  4  0  0  0  0
 15 16  4  0  0  0  0
 16 17  4  0  0  0  0
 17 18  4  0  0  0  0
 18 19  4  0  0  0  0
 20 21  1  0  0  0  0
 21 22  1  0  0  0  0
 21 23  1  0  0  0  0
M  END
>  <Name_Molregno>
323986

>  <5-HT2A>
8.89

>  <5-HT2C>
9.27

>  <5-HT7>
8.01

>  <Alpha-2A>
7.06

>  <Alpha-2C>
7.13

>  <DOPAMINE D1>
8.04

>  <DOPAMINE D2>
8.31

>  <DOPAMINE D3>
8.14

>  <HISTAMINE H1>
9.07

$$$$
324778
  Marvin  02231216192D 0   1.00000     0.00000     0

 22 25  0  0  1  0  0  0  0  0999 V2000
    0.2576    0.9399    0.0000 O   0  0  0  0  0  0  0  0  0
    0.5126    0.1553    0.0000 C   0  0  0  0  0  0  0  0  0
    1.3376    0.1553    0.0000 C   0  0  0  0  0  0  0  0  0
    1.5925    0.9399    0.0000 C   0  0  0  0  0  0  0  0  0
    0.9251    1.4248    0.0000 C   0  0  0  0  0  0  0  0  0
    0.9251    2.2498    0.0000 C   0  0  0  0  0  0  0  0  0
    1.6395    2.6623    0.0000 N   0  0  0  0  0  0  0  0  0
    1.6395    3.4873    0.0000 C   0  0  0  0  0  0  0  0  0
    2.3540    2.2498    0.0000 C   0  0  0  0  0  0  0  0  0
    1.8519   -0.4897    0.0000 C   0  0  0  0  0  0  0  0  0
    1.6684   -1.2940    0.0000 C   0  0  0  0  0  0  0  0  0
    0.9251   -1.6520    0.0000 C   0  0  0  0  0  0  0  0  0
    0.1818   -1.2940    0.0000 C   0  0  0  0  0  0  0  0  0
   -0.0018   -0.4897    0.0000 C   0  0  0  0  0  0  0  0  0
   -0.7902   -0.2466    0.0000 C   0  0  0  0  0  0  0  0  0
   -1.3949   -0.8077    0.0000 C   0  0  0  0  0  0  0  0  0
   -1.2114   -1.6120    0.0000 C   0  0  0  0  0  0  0  0  0
   -0.4230   -1.8552    0.0000 C   0  0  0  0  0  0  0  0  0
    2.2731   -1.8552    0.0000 C   0  0  0  0  0  0  0  0  0
    3.0615   -1.6120    0.0000 C   0  0  0  0  0  0  0  0  0
    3.2451   -0.8077    0.0000 C   0  0  0  0  0  0  0  0  0
    2.6403   -0.2466    0.0000 C   0  0  0  0  0  0  0  0  0
  1  2  1  0  0  0  0
  1  5  1  0  0  0  0
  2  3  1  0  0  0  0
  2 14  1  0  0  0  0
  3  4  1  0  0  0  0
  3 10  1  0  0  0  0
  4  5  1  0  0  0  0
  5  6  1  0  0  0  0
  6  7  1  0  0  0  0
  7  8  1  0  0  0  0
  7  9  1  0  0  0  0
 10 11  4  0  0  0  0
 10 22  4  0  0  0  0
 11 12  1  0  0  0  0
 11 19  4  0  0  0  0
 12 13  1  0  0  0  0
 13 14  4  0  0  0  0
 13 18  4  0  0  0  0
 14 15  4  0  0  0  0
 15 16  4  0  0  0  0
 16 17  4  0  0  0  0
 17 18  4  0  0  0  0
 19 20  4  0  0  0  0
 20 21  4  0  0  0  0
 21 22  4  0  0  0  0
M  END
>  <Name_Molregno>
324778

>  <5-HT2A>
8.6

>  <5-HT2C>
9.03

>  <5-HT7>
7.89

>  <Alpha-2A>
6.9

>  <Alpha-2C>
7.16

>  <DOPAMINE D1>
7.2

>  <DOPAMINE D2>
7.21

>  <DOPAMINE D3>
7.08

>  <HISTAMINE H1>
9.37

$$$$
324887
  Marvin  02231216192D 0   1.00000     0.00000     0

 25 26  0  0  1  0  0  0  0  0999 V2000
    0.0278    1.0796    0.0000 Cl  0  0  0  0  0  0  0  0  0
    0.7423    0.6671    0.0000 C   0  0  0  0  0  0  0  0  0
    1.4568    1.0796    0.0000 C   0  0  0  0  0  0  0  0  0
    2.1712    0.6671    0.0000 C   0  0  0  0  0  0  0  0  0
    2.1712   -0.1579    0.0000 C   0  0  0  0  0  0  0  0  0
    1.4568   -0.5704    0.0000 C   0  0  0  0  0  0  0  0  0
    0.7423   -0.1579    0.0000 C   0  0  0  0  0  0  0  0  0
    2.8857   -0.5704    0.0000 C   0  0  0  0  0  0  0  0  0
    2.8857   -1.3954    0.0000 O   0  0  0  0  0  0  0  0  0
    3.6002   -0.1579    0.0000 C   0  0  0  0  0  0  0  0  0
    4.3147   -0.5704    0.0000 C   0  0  0  0  0  0  0  0  0
    5.0291   -0.1579    0.0000 N   0  0  0  0  0  0  0  0  0
    5.7436   -0.5704    0.0000 C   0  0  0  0  0  0  0  0  0
    6.4581   -0.1579    0.0000 C   0  0  0  0  0  0  0  0  0
    7.1725   -0.5704    0.0000 C   0  0  0  0  0  0  0  0  0
    7.8870   -0.1579    0.0000 C   0  0  0  0  0  0  0  0  0
    7.8870    0.6671    0.0000 O   0  0  0  0  0  0  0  0  0
    8.6015   -0.5704    0.0000 C   0  0  0  0  0  0  0  0  0
    9.3160   -0.1579    0.0000 C   0  0  0  0  0  0  0  0  0
   10.0304   -0.5704    0.0000 C   0  0  0  0  0  0  0  0  0
   10.0304   -1.3954    0.0000 C   0  0  0  0  0  0  0  0  0
   10.7449   -1.8079    0.0000 F   0  0  0  0  0  0  0  0  0
    9.3160   -1.8079    0.0000 C   0  0  0  0  0  0  0  0  0
    8.6015   -1.3954    0.0000 C   0  0  0  0  0  0  0  0  0
    5.0291    0.6671    0.0000 C   0  0  0  0  0  0  0  0  0
  1  2  1  0  0  0  0
  2  3  4  0  0  0  0
  2  7  4  0  0  0  0
  3  4  4  0  0  0  0
  4  5  4  0  0  0  0
  5  6  4  0  0  0  0
  5  8  1  0  0  0  0
  6  7  4  0  0  0  0
  8  9  1  0  0  0  0
  8 10  1  0  0  0  0
 10 11  1  0  0  0  0
 11 12  1  0  0  0  0
 12 13  1  0  0  0  0
 12 25  1  0  0  0  0
 13 14  1  0  0  0  0
 14 15  1  0  0  0  0
 15 16  1  0  0  0  0
 16 17  2  0  0  0  0
 16 18  1  0  0  0  0
 18 19  4  0  0  0  0
 18 24  4  0  0  0  0
 19 20  4  0  0  0  0
 20 21  4  0  0  0  0
 21 22  1  0  0  0  0
 21 23  4  0  0  0  0
 23 24  4  0  0  0  0
M  END
>  <Name_Molregno>
324887

>  <DOPAMINE D2>
7.58

>  <DOPAMINE D3>
6.79

>  <DOPAMINE D4>
6.72

$$$$
325134
  Marvin  02231216192D 0   1.00000     0.00000     0

 27 29  0  0  0  0  0  0  0  0999 V2000
   -0.0721    1.7043    0.0000 F   0  0  0  0  0  0  0  0  0
    0.6423    1.2918    0.0000 C   0  0  0  0  0  0  0  0  0
    1.3568    1.7043    0.0000 C   0  0  0  0  0  0  0  0  0
    2.0713    1.2918    0.0000 C   0  0  0  0  0  0  0  0  0
    2.0713    0.4668    0.0000 C   0  0  0  0  0  0  0  0  0
    1.3568    0.0543    0.0000 C   0  0  0  0  0  0  0  0  0
    0.6423    0.4668    0.0000 C   0  0  0  0  0  0  0  0  0
    2.7857    0.0543    0.0000 C   0  0  0  0  0  0  0  0  0
    2.7857   -0.7707    0.0000 O   0  0  0  0  0  0  0  0  0
    3.5002    0.4668    0.0000 C   0  0  0  0  0  0  0  0  0
    4.2147    0.0543    0.0000 C   0  0  0  0  0  0  0  0  0
    4.9292    0.4668    0.0000 C   0  0  0  0  0  0  0  0  0
    5.6436    0.0543    0.0000 N   0  0  0  0  0  0  0  0  0
    6.3581    0.4668    0.0000 C   0  0  0  0  0  0  0  0  0
    7.0726    0.0543    0.0000 C   0  0  0  0  0  0  0  0  0
    7.0726   -0.7707    0.0000 C   0  0  0  0  0  0  0  0  0
    7.8850   -0.6274    0.0000 O   0  0  0  0  0  0  0  0  0
    6.3581   -1.1832    0.0000 C   0  0  0  0  0  0  0  0  0
    5.6436   -0.7707    0.0000 C   0  0  0  0  0  0  0  0  0
    7.3547   -1.5460    0.0000 C   0  0  0  0  0  0  0  0  0
    8.1672   -1.6892    0.0000 C   0  0  0  0  0  0  0  0  0
    8.6975   -1.0572    0.0000 C   0  0  0  0  0  0  0  0  0
    9.5100   -1.2005    0.0000 C   0  0  0  0  0  0  0  0  0
    9.7921   -1.9757    0.0000 C   0  0  0  0  0  0  0  0  0
    9.2618   -2.6077    0.0000 C   0  0  0  0  0  0  0  0  0
    8.4494   -2.4645    0.0000 C   0  0  0  0  0  0  0  0  0
   10.6046   -2.1190    0.0000 C   0  0  0  0  0  0  0  0  0
  1  2  1  0  0  0  0
  2  3  4  0  0  0  0
  2  7  4  0  0  0  0
  3  4  4  0  0  0  0
  4  5  4  0  0  0  0
  5  6  4  0  0  0  0
  5  8  1  0  0  0  0
  6  7  4  0  0  0  0
  8  9  2  0  0  0  0
  8 10  1  0  0  0  0
 10 11  1  0  0  0  0
 11 12  1  0  0  0  0
 12 13  1  0  0  0  0
 13 14  1  0  0  0  0
 13 19  1  0  0  0  0
 14 15  1  0  0  0  0
 15 16  1  0  0  0  0
 16 17  1  0  0  0  0
 16 18  1  0  0  0  0
 16 20  1  0  0  0  0
 18 19  1  0  0  0  0
 20 21  1  0  0  0  0
 21 22  4  0  0  0  0
 21 26  4  0  0  0  0
 22 23  4  0  0  0  0
 23 24  4  0  0  0  0
 24 25  4  0  0  0  0
 24 27  1  0  0  0  0
 25 26  4  0  0  0  0
M  END
>  <Name_Molregno>
325134

>  <DOPAMINE D2>
8.1

>  <DOPAMINE D3>
8.05

>  <DOPAMINE D4>
7.23

$$$$
327069
  Marvin  02231216192D 0   1.00000     0.00000     0

 31 34  0  0  0  0  0  0  0  0999 V2000
    4.9165    5.1026    0.0000 Cl  0  0  0  0  0  0  0  0  0
    4.9165    4.2776    0.0000 C   0  0  0  0  0  0  0  0  0
    5.6310    3.8651    0.0000 C   0  0  0  0  0  0  0  0  0
    5.6310    3.0401    0.0000 C   0  0  0  0  0  0  0  0  0
    4.9165    2.6276    0.0000 C   0  0  0  0  0  0  0  0  0
    4.9165    1.8026    0.0000 N   0  0  0  0  0  0  0  0  0
    5.6310    1.3901    0.0000 C   0  0  0  0  0  0  0  0  0
    5.6310    0.5651    0.0000 C   0  0  0  0  0  0  0  0  0
    4.9165    0.1526    0.0000 N   0  0  0  0  0  0  0  0  0
    4.2021    0.5651    0.0000 C   0  0  0  0  0  0  0  0  0
    4.2021    1.3901    0.0000 C   0  0  0  0  0  0  0  0  0
    4.9165   -0.6724    0.0000 C   0  0  0  0  0  0  0  0  0
    4.2021   -1.0849    0.0000 O   0  0  0  0  0  0  0  0  0
    5.6310   -1.0849    0.0000 N   0  0  0  0  0  0  0  0  0
    5.6310   -1.9099    0.0000 C   0  0  0  0  0  0  0  0  0
    6.3455   -2.3224    0.0000 C   0  0  0  0  0  0  0  0  0
    6.3455   -3.1474    0.0000 C   0  0  0  0  0  0  0  0  0
    7.0599   -3.5599    0.0000 N   0  0  0  0  0  0  0  0  0
    7.7744   -3.1474    0.0000 C   0  0  0  0  0  0  0  0  0
    8.4889   -3.5599    0.0000 C   0  0  0  0  0  0  0  0  0
    8.4889   -4.3849    0.0000 N   0  0  0  0  0  0  0  0  0
    7.7744   -4.7974    0.0000 C   0  0  0  0  0  0  0  0  0
    7.0599   -4.3849    0.0000 C   0  0  0  0  0  0  0  0  0
    9.2034   -4.7974    0.0000 C   0  0  0  0  0  0  0  0  0
    5.6310   -3.5599    0.0000 C   0  0  0  0  0  0  0  0  0
    5.6310   -4.3849    0.0000 O   0  0  0  0  0  0  0  0  0
    4.9165   -4.7974    0.0000 C   0  0  0  0  0  0  0  0  0
    4.9165   -3.1474    0.0000 C   0  0  0  0  0  0  0  0  0
    4.9165   -2.3224    0.0000 C   0  0  0  0  0  0  0  0  0
    4.2021    3.0401    0.0000 C   0  0  0  0  0  0  0  0  0
    4.2021    3.8651    0.0000 C   0  0  0  0  0  0  0  0  0
  1  2  1  0  0  0  0
  2  3  4  0  0  0  0
  2 31  4  0  0  0  0
  3  4  4  0  0  0  0
  4  5  4  0  0  0  0
  5  6  1  0  0  0  0
  5 30  4  0  0  0  0
  6  7  1  0  0  0  0
  6 11  1  0  0  0  0
  7  8  1  0  0  0  0
  8  9  1  0  0  0  0
  9 10  1  0  0  0  0
  9 12  1  0  0  0  0
 10 11  1  0  0  0  0
 12 13  2  0  0  0  0
 12 14  1  0  0  0  0
 14 15  1  0  0  0  0
 15 16  4  0  0  0  0
 15 29  4  0  0  0  0
 16 17  4  0  0  0  0
 17 18  1  0  0  0  0
 17 25  4  0  0  0  0
 18 19  1  0  0  0  0
 18 23  1  0  0  0  0
 19 20  1  0  0  0  0
 20 21  1  0  0  0  0
 21 22  1  0  0  0  0
 21 24  1  0  0  0  0
 22 23  1  0  0  0  0
 25 26  1  0  0  0  0
 25 28  4  0  0  0  0
 26 27  1  0  0  0  0
 28 29  4  0  0  0  0
 30 31  4  0  0  0  0
M  END
>  <Name_Molregno>
327069

>  <5-HT1A>
7.28

>  <5-HT1B>
8.74

>  <5-HT1D>
8.19

>  <5-HT2A>
6

>  <5-HT2C>
6.57

>  <5-HT6>
5.29

>  <5-HT7>
5

>  <DOPAMINE D1>
5

>  <DOPAMINE D2>
5

>  <DOPAMINE D3>
5

>  <DOPAMINE D4>
5

>  <DOPAMINE D5>
5

>  <HISTAMINE H1>
5

>  <Muscarinic acetylcholine receptor M1>
5

>  <Muscarinic acetylcholine receptor M2>
5

>  <Muscarinic acetylcholine receptor M3>
5

>  <Muscarinic acetylcholine receptor M4>
5

>  <Muscarinic acetylcholine receptor M5>
5

$$$$
327077
  Marvin  02231216192D 0   1.00000     0.00000     0

 31 34  0  0  0  0  0  0  0  0999 V2000
    4.9165    5.1026    0.0000 F   0  0  0  0  0  0  0  0  0
    4.9165    4.2776    0.0000 C   0  0  0  0  0  0  0  0  0
    5.6310    3.8651    0.0000 C   0  0  0  0  0  0  0  0  0
    5.6310    3.0401    0.0000 C   0  0  0  0  0  0  0  0  0
    4.9165    2.6276    0.0000 C   0  0  0  0  0  0  0  0  0
    4.9165    1.8026    0.0000 N   0  0  0  0  0  0  0  0  0
    5.6310    1.3901    0.0000 C   0  0  0  0  0  0  0  0  0
    5.6310    0.5651    0.0000 C   0  0  0  0  0  0  0  0  0
    4.9165    0.1526    0.0000 N   0  0  0  0  0  0  0  0  0
    4.2021    0.5651    0.0000 C   0  0  0  0  0  0  0  0  0
    4.2021    1.3901    0.0000 C   0  0  0  0  0  0  0  0  0
    4.9165   -0.6724    0.0000 C   0  0  0  0  0  0  0  0  0
    4.2021   -1.0849    0.0000 O   0  0  0  0  0  0  0  0  0
    5.6310   -1.0849    0.0000 N   0  0  0  0  0  0  0  0  0
    5.6310   -1.9099    0.0000 C   0  0  0  0  0  0  0  0  0
    6.3455   -2.3224    0.0000 C   0  0  0  0  0  0  0  0  0
    6.3455   -3.1474    0.0000 C   0  0  0  0  0  0  0  0  0
    7.0599   -3.5599    0.0000 N   0  0  0  0  0  0  0  0  0
    7.7744   -3.1474    0.0000 C   0  0  0  0  0  0  0  0  0
    8.4889   -3.5599    0.0000 C   0  0  0  0  0  0  0  0  0
    8.4889   -4.3849    0.0000 N   0  0  0  0  0  0  0  0  0
    7.7744   -4.7974    0.0000 C   0  0  0  0  0  0  0  0  0
    7.0599   -4.3849    0.0000 C   0  0  0  0  0  0  0  0  0
    9.2034   -4.7974    0.0000 C   0  0  0  0  0  0  0  0  0
    5.6310   -3.5599    0.0000 C   0  0  0  0  0  0  0  0  0
    5.6310   -4.3849    0.0000 O   0  0  0  0  0  0  0  0  0
    4.9165   -4.7974    0.0000 C   0  0  0  0  0  0  0  0  0
    4.9165   -3.1474    0.0000 C   0  0  0  0  0  0  0  0  0
    4.9165   -2.3224    0.0000 C   0  0  0  0  0  0  0  0  0
    4.2021    3.0401    0.0000 C   0  0  0  0  0  0  0  0  0
    4.2021    3.8651    0.0000 C   0  0  0  0  0  0  0  0  0
  1  2  1  0  0  0  0
  2  3  4  0  0  0  0
  2 31  4  0  0  0  0
  3  4  4  0  0  0  0
  4  5  4  0  0  0  0
  5  6  1  0  0  0  0
  5 30  4  0  0  0  0
  6  7  1  0  0  0  0
  6 11  1  0  0  0  0
  7  8  1  0  0  0  0
  8  9  1  0  0  0  0
  9 10  1  0  0  0  0
  9 12  1  0  0  0  0
 10 11  1  0  0  0  0
 12 13  2  0  0  0  0
 12 14  1  0  0  0  0
 14 15  1  0  0  0  0
 15 16  4  0  0  0  0
 15 29  4  0  0  0  0
 16 17  4  0  0  0  0
 17 18  1  0  0  0  0
 17 25  4  0  0  0  0
 18 19  1  0  0  0  0
 18 23  1  0  0  0  0
 19 20  1  0  0  0  0
 20 21  1  0  0  0  0
 21 22  1  0  0  0  0
 21 24  1  0  0  0  0
 22 23  1  0  0  0  0
 25 26  1  0  0  0  0
 25 28  4  0  0  0  0
 26 27  1  0  0  0  0
 28 29  4  0  0  0  0
 30 31  4  0  0  0  0
M  END
>  <Name_Molregno>
327077

>  <5-HT1A>
5.97

>  <5-HT1B>
7.42

>  <5-HT1D>
6.77

>  <5-HT2A>
5.35

>  <5-HT2C>
5

>  <5-HT6>
5

>  <5-HT7>
5

>  <DOPAMINE D1>
5

>  <DOPAMINE D2>
5

>  <DOPAMINE D3>
5

>  <DOPAMINE D4>
5

>  <DOPAMINE D5>
5

>  <HISTAMINE H1>
5

>  <Muscarinic acetylcholine receptor M1>
5

>  <Muscarinic acetylcholine receptor M2>
5

>  <Muscarinic acetylcholine receptor M3>
5

>  <Muscarinic acetylcholine receptor M4>
5

>  <Muscarinic acetylcholine receptor M5>
5

$$$$
327082
  Marvin  02231216192D 0   1.00000     0.00000     0

 36 40  0  0  0  0  0  0  0  0999 V2000
   -4.3490    4.5404    0.0000 O   0  0  0  0  0  0  0  0  0
   -5.0635    4.9529    0.0000 C   0  0  0  0  0  0  0  0  0
   -4.3490    3.7154    0.0000 C   0  0  0  0  0  0  0  0  0
   -3.6345    3.3029    0.0000 C   0  0  0  0  0  0  0  0  0
   -3.6345    2.4779    0.0000 C   0  0  0  0  0  0  0  0  0
   -4.3490    2.0654    0.0000 C   0  0  0  0  0  0  0  0  0
   -4.3490    1.2404    0.0000 N   0  0  0  0  0  0  0  0  0
   -3.6345    0.8279    0.0000 C   0  0  0  0  0  0  0  0  0
   -2.9201    1.2404    0.0000 O   0  0  0  0  0  0  0  0  0
   -3.6345    0.0029    0.0000 N   0  0  0  0  0  0  0  0  0
   -2.9201   -0.4096    0.0000 C   0  0  0  0  0  0  0  0  0
   -2.9201   -1.2346    0.0000 C   0  0  0  0  0  0  0  0  0
   -3.6345   -1.6471    0.0000 N   0  0  0  0  0  0  0  0  0
   -4.3490   -1.2346    0.0000 C   0  0  0  0  0  0  0  0  0
   -4.3490   -0.4096    0.0000 C   0  0  0  0  0  0  0  0  0
   -3.6345   -2.4721    0.0000 C   0  0  0  0  0  0  0  0  0
   -2.9201   -2.8846    0.0000 C   0  0  0  0  0  0  0  0  0
   -2.9201   -3.7096    0.0000 C   0  0  0  0  0  0  0  0  0
   -3.6345   -4.1221    0.0000 C   0  0  0  0  0  0  0  0  0
   -4.3490   -3.7096    0.0000 C   0  0  0  0  0  0  0  0  0
   -4.3490   -2.8846    0.0000 C   0  0  0  0  0  0  0  0  0
   -3.6345   -4.9471    0.0000 C   0  0  0  0  0  0  0  0  0
   -2.9201   -5.3596    0.0000 C   0  0  0  0  0  0  0  0  0
   -2.9201   -6.1846    0.0000 C   0  0  0  0  0  0  0  0  0
   -3.6345   -6.5971    0.0000 C   0  0  0  0  0  0  0  0  0
   -4.3490   -6.1846    0.0000 C   0  0  0  0  0  0  0  0  0
   -4.3490   -5.3596    0.0000 C   0  0  0  0  0  0  0  0  0
   -5.0635    2.4779    0.0000 C   0  0  0  0  0  0  0  0  0
   -5.0635    3.3029    0.0000 C   0  0  0  0  0  0  0  0  0
   -5.7779    3.7154    0.0000 N   0  0  0  0  0  0  0  0  0
   -6.4924    3.3029    0.0000 C   0  0  0  0  0  0  0  0  0
   -7.2069    3.7154    0.0000 C   0  0  0  0  0  0  0  0  0
   -7.2069    4.5404    0.0000 N   0  0  0  0  0  0  0  0  0
   -6.4924    4.9529    0.0000 C   0  0  0  0  0  0  0  0  0
   -5.7779    4.5404    0.0000 C   0  0  0  0  0  0  0  0  0
   -7.9214    4.9529    0.0000 C   0  0  0  0  0  0  0  0  0
  1  2  1  0  0  0  0
  1  3  1  0  0  0  0
  3  4  4  0  0  0  0
  3 29  4  0  0  0  0
  4  5  4  0  0  0  0
  5  6  4  0  0  0  0
  6  7  1  0  0  0  0
  6 28  4  0  0  0  0
  7  8  1  0  0  0  0
  8  9  2  0  0  0  0
  8 10  1  0  0  0  0
 10 11  1  0  0  0  0
 10 15  1  0  0  0  0
 11 12  1  0  0  0  0
 12 13  1  0  0  0  0
 13 14  1  0  0  0  0
 13 16  1  0  0  0  0
 14 15  1  0  0  0  0
 16 17  4  0  0  0  0
 16 21  4  0  0  0  0
 17 18  4  0  0  0  0
 18 19  4  0  0  0  0
 19 20  4  0  0  0  0
 19 22  1  0  0  0  0
 20 21  4  0  0  0  0
 22 23  4  0  0  0  0
 22 27  4  0  0  0  0
 23 24  4  0  0  0  0
 24 25  4  0  0  0  0
 25 26  4  0  0  0  0
 26 27  4  0  0  0  0
 28 29  4  0  0  0  0
 29 30  1  0  0  0  0
 30 31  1  0  0  0  0
 30 35  1  0  0  0  0
 31 32  1  0  0  0  0
 32 33  1  0  0  0  0
 33 34  1  0  0  0  0
 33 36  1  0  0  0  0
 34 35  1  0  0  0  0
M  END
>  <Name_Molregno>
327082

>  <5-HT1A>
6.39

>  <5-HT1B>
7.86

>  <5-HT1D>
6.68

>  <5-HT2A>
6.77

>  <5-HT2C>
8.19

>  <5-HT6>
5.84

>  <5-HT7>
5

>  <DOPAMINE D1>
5

>  <DOPAMINE D2>
5

>  <DOPAMINE D3>
5

>  <DOPAMINE D4>
5

>  <DOPAMINE D5>
5

>  <HISTAMINE H1>
5

>  <Muscarinic acetylcholine receptor M1>
5

>  <Muscarinic acetylcholine receptor M2>
5

>  <Muscarinic acetylcholine receptor M3>
5

>  <Muscarinic acetylcholine receptor M4>
5

>  <Muscarinic acetylcholine receptor M5>
5

$$$$
327083
  Marvin  02231216192D 0   1.00000     0.00000     0

 34 37  0  0  0  0  0  0  0  0999 V2000
    5.2566    5.4075    0.0000 F   0  0  0  0  0  0  0  0  0
    5.2566    4.5825    0.0000 C   0  0  0  0  0  0  0  0  0
    4.4316    4.5825    0.0000 F   0  0  0  0  0  0  0  0  0
    6.0816    4.5825    0.0000 F   0  0  0  0  0  0  0  0  0
    5.2566    3.7575    0.0000 C   0  0  0  0  0  0  0  0  0
    5.9711    3.3450    0.0000 C   0  0  0  0  0  0  0  0  0
    5.9711    2.5200    0.0000 C   0  0  0  0  0  0  0  0  0
    5.2566    2.1075    0.0000 C   0  0  0  0  0  0  0  0  0
    5.2566    1.2825    0.0000 N   0  0  0  0  0  0  0  0  0
    5.9711    0.8700    0.0000 C   0  0  0  0  0  0  0  0  0
    5.9711    0.0450    0.0000 C   0  0  0  0  0  0  0  0  0
    5.2566   -0.3675    0.0000 N   0  0  0  0  0  0  0  0  0
    4.5421    0.0450    0.0000 C   0  0  0  0  0  0  0  0  0
    4.5421    0.8700    0.0000 C   0  0  0  0  0  0  0  0  0
    5.2566   -1.1925    0.0000 C   0  0  0  0  0  0  0  0  0
    4.5421   -1.6050    0.0000 O   0  0  0  0  0  0  0  0  0
    5.9711   -1.6050    0.0000 N   0  0  0  0  0  0  0  0  0
    5.9711   -2.4300    0.0000 C   0  0  0  0  0  0  0  0  0
    6.6855   -2.8425    0.0000 C   0  0  0  0  0  0  0  0  0
    6.6855   -3.6675    0.0000 C   0  0  0  0  0  0  0  0  0
    7.4000   -4.0800    0.0000 N   0  0  0  0  0  0  0  0  0
    8.1145   -3.6675    0.0000 C   0  0  0  0  0  0  0  0  0
    8.8289   -4.0800    0.0000 C   0  0  0  0  0  0  0  0  0
    8.8289   -4.9050    0.0000 N   0  0  0  0  0  0  0  0  0
    8.1145   -5.3175    0.0000 C   0  0  0  0  0  0  0  0  0
    7.4000   -4.9050    0.0000 C   0  0  0  0  0  0  0  0  0
    9.5434   -5.3175    0.0000 C   0  0  0  0  0  0  0  0  0
    5.9711   -4.0800    0.0000 C   0  0  0  0  0  0  0  0  0
    5.9711   -4.9050    0.0000 O   0  0  0  0  0  0  0  0  0
    5.2566   -5.3175    0.0000 C   0  0  0  0  0  0  0  0  0
    5.2566   -3.6675    0.0000 C   0  0  0  0  0  0  0  0  0
    5.2566   -2.8425    0.0000 C   0  0  0  0  0  0  0  0  0
    4.5421    2.5200    0.0000 C   0  0  0  0  0  0  0  0  0
    4.5421    3.3450    0.0000 C   0  0  0  0  0  0  0  0  0
  1  2  1  0  0  0  0
  2  3  1  0  0  0  0
  2  4  1  0  0  0  0
  2  5  1  0  0  0  0
  5  6  4  0  0  0  0
  5 34  4  0  0  0  0
  6  7  4  0  0  0  0
  7  8  4  0  0  0  0
  8  9  1  0  0  0  0
  8 33  4  0  0  0  0
  9 10  1  0  0  0  0
  9 14  1  0  0  0  0
 10 11  1  0  0  0  0
 11 12  1  0  0  0  0
 12 13  1  0  0  0  0
 12 15  1  0  0  0  0
 13 14  1  0  0  0  0
 15 16  2  0  0  0  0
 15 17  1  0  0  0  0
 17 18  1  0  0  0  0
 18 19  4  0  0  0  0
 18 32  4  0  0  0  0
 19 20  4  0  0  0  0
 20 21  1  0  0  0  0
 20 28  4  0  0  0  0
 21 22  1  0  0  0  0
 21 26  1  0  0  0  0
 22 23  1  0  0  0  0
 23 24  1  0  0  0  0
 24 25  1  0  0  0  0
 24 27  1  0  0  0  0
 25 26  1  0  0  0  0
 28 29  1  0  0  0  0
 28 31  4  0  0  0  0
 29 30  1  0  0  0  0
 31 32  4  0  0  0  0
 33 34  4  0  0  0  0
M  END
>  <Name_Molregno>
327083

>  <5-HT1A>
6.42

>  <5-HT1B>
7.55

>  <5-HT1D>
6.46

>  <5-HT2A>
6.21

>  <5-HT2C>
5.55

>  <5-HT6>
5.54

>  <5-HT7>
5

>  <DOPAMINE D1>
5

>  <DOPAMINE D2>
5

>  <DOPAMINE D3>
5

>  <DOPAMINE D4>
5

>  <DOPAMINE D5>
5

>  <HISTAMINE H1>
5

>  <Muscarinic acetylcholine receptor M1>
5

>  <Muscarinic acetylcholine receptor M2>
5

>  <Muscarinic acetylcholine receptor M3>
5

>  <Muscarinic acetylcholine receptor M4>
5

>  <Muscarinic acetylcholine receptor M5>
5

$$$$
327090
  Marvin  02231216192D 0   1.00000     0.00000     0

 32 35  0  0  0  0  0  0  0  0999 V2000
   -6.3746    6.5338    0.0000 S   0  0  0  0  0  0  0  0  0
   -7.0891    6.9463    0.0000 C   0  0  0  0  0  0  0  0  0
   -6.3746    5.7088    0.0000 C   0  0  0  0  0  0  0  0  0
   -5.6602    5.2963    0.0000 C   0  0  0  0  0  0  0  0  0
   -5.6602    4.4713    0.0000 C   0  0  0  0  0  0  0  0  0
   -6.3746    4.0588    0.0000 C   0  0  0  0  0  0  0  0  0
   -6.3746    3.2338    0.0000 N   0  0  0  0  0  0  0  0  0
   -5.6602    2.8213    0.0000 C   0  0  0  0  0  0  0  0  0
   -5.6602    1.9963    0.0000 C   0  0  0  0  0  0  0  0  0
   -6.3746    1.5838    0.0000 N   0  0  0  0  0  0  0  0  0
   -7.0891    1.9963    0.0000 C   0  0  0  0  0  0  0  0  0
   -7.0891    2.8213    0.0000 C   0  0  0  0  0  0  0  0  0
   -6.3746    0.7588    0.0000 C   0  0  0  0  0  0  0  0  0
   -7.0891    0.3463    0.0000 O   0  0  0  0  0  0  0  0  0
   -5.6602    0.3463    0.0000 N   0  0  0  0  0  0  0  0  0
   -5.6602   -0.4787    0.0000 C   0  0  0  0  0  0  0  0  0
   -4.9457   -0.8912    0.0000 C   0  0  0  0  0  0  0  0  0
   -4.9457   -1.7162    0.0000 C   0  0  0  0  0  0  0  0  0
   -4.2312   -2.1287    0.0000 N   0  0  0  0  0  0  0  0  0
   -3.5167   -1.7162    0.0000 C   0  0  0  0  0  0  0  0  0
   -2.8023   -2.1287    0.0000 C   0  0  0  0  0  0  0  0  0
   -2.8023   -2.9537    0.0000 N   0  0  0  0  0  0  0  0  0
   -3.5167   -3.3662    0.0000 C   0  0  0  0  0  0  0  0  0
   -4.2312   -2.9537    0.0000 C   0  0  0  0  0  0  0  0  0
   -2.0878   -3.3662    0.0000 C   0  0  0  0  0  0  0  0  0
   -5.6602   -2.1287    0.0000 C   0  0  0  0  0  0  0  0  0
   -5.6602   -2.9537    0.0000 O   0  0  0  0  0  0  0  0  0
   -6.3746   -3.3662    0.0000 C   0  0  0  0  0  0  0  0  0
   -6.3746   -1.7162    0.0000 C   0  0  0  0  0  0  0  0  0
   -6.3746   -0.8912    0.0000 C   0  0  0  0  0  0  0  0  0
   -7.0891    4.4713    0.0000 C   0  0  0  0  0  0  0  0  0
   -7.0891    5.2963    0.0000 C   0  0  0  0  0  0  0  0  0
  1  2  1  0  0  0  0
  1  3  1  0  0  0  0
  3  4  4  0  0  0  0
  3 32  4  0  0  0  0
  4  5  4  0  0  0  0
  5  6  4  0  0  0  0
  6  7  1  0  0  0  0
  6 31  4  0  0  0  0
  7  8  1  0  0  0  0
  7 12  1  0  0  0  0
  8  9  1  0  0  0  0
  9 10  1  0  0  0  0
 10 11  1  0  0  0  0
 10 13  1  0  0  0  0
 11 12  1  0  0  0  0
 13 14  2  0  0  0  0
 13 15  1  0  0  0  0
 15 16  1  0  0  0  0
 16 17  4  0  0  0  0
 16 30  4  0  0  0  0
 17 18  4  0  0  0  0
 18 19  1  0  0  0  0
 18 26  4  0  0  0  0
 19 20  1  0  0  0  0
 19 24  1  0  0  0  0
 20 21  1  0  0  0  0
 21 22  1  0  0  0  0
 22 23  1  0  0  0  0
 22 25  1  0  0  0  0
 23 24  1  0  0  0  0
 26 27  1  0  0  0  0
 26 29  4  0  0  0  0
 27 28  1  0  0  0  0
 29 30  4  0  0  0  0
 31 32  4  0  0  0  0
M  END
>  <Name_Molregno>
327090

>  <5-HT1A>
6.05

>  <5-HT1B>
7.78

>  <5-HT1D>
6.48

>  <5-HT2A>
5.87

>  <5-HT2C>
5.94

>  <5-HT6>
5

>  <5-HT7>
5

>  <DOPAMINE D1>
5

>  <DOPAMINE D2>
5

>  <DOPAMINE D3>
5

>  <DOPAMINE D4>
5

>  <DOPAMINE D5>
5

>  <HISTAMINE H1>
5

>  <Muscarinic acetylcholine receptor M1>
5

>  <Muscarinic acetylcholine receptor M2>
5

>  <Muscarinic acetylcholine receptor M3>
5

>  <Muscarinic acetylcholine receptor M4>
5

>  <Muscarinic acetylcholine receptor M5>
5

$$$$
327091
  Marvin  02231216192D 0   1.00000     0.00000     0

 32 35  0  0  0  0  0  0  0  0999 V2000
    3.7835    3.5848    0.0000 O   0  0  0  0  0  0  0  0  0
    3.0690    3.9973    0.0000 C   0  0  0  0  0  0  0  0  0
    3.7835    2.7598    0.0000 C   0  0  0  0  0  0  0  0  0
    4.4980    2.3473    0.0000 C   0  0  0  0  0  0  0  0  0
    4.4980    1.5223    0.0000 C   0  0  0  0  0  0  0  0  0
    3.7835    1.1098    0.0000 C   0  0  0  0  0  0  0  0  0
    3.7835    0.2848    0.0000 N   0  0  0  0  0  0  0  0  0
    4.4980   -0.1277    0.0000 C   0  0  0  0  0  0  0  0  0
    5.2124    0.2848    0.0000 O   0  0  0  0  0  0  0  0  0
    4.4980   -0.9527    0.0000 C   0  0  0  0  0  0  0  0  0
    5.2124   -1.3652    0.0000 C   0  0  0  0  0  0  0  0  0
    5.2124   -2.1902    0.0000 C   0  0  0  0  0  0  0  0  0
    4.4980   -2.6027    0.0000 N   0  0  0  0  0  0  0  0  0
    3.7835   -2.1902    0.0000 C   0  0  0  0  0  0  0  0  0
    3.7835   -1.3652    0.0000 C   0  0  0  0  0  0  0  0  0
    4.4980   -3.4277    0.0000 C   0  0  0  0  0  0  0  0  0
    5.2124   -3.8402    0.0000 C   0  0  0  0  0  0  0  0  0
    5.2124   -4.6652    0.0000 C   0  0  0  0  0  0  0  0  0
    4.4980   -5.0777    0.0000 C   0  0  0  0  0  0  0  0  0
    3.7835   -4.6652    0.0000 C   0  0  0  0  0  0  0  0  0
    3.7835   -3.8402    0.0000 C   0  0  0  0  0  0  0  0  0
    3.0690   -3.4277    0.0000 O   0  0  0  0  0  0  0  0  0
    2.3546   -3.8402    0.0000 C   0  0  0  0  0  0  0  0  0
    3.0690    1.5223    0.0000 C   0  0  0  0  0  0  0  0  0
    3.0690    2.3473    0.0000 C   0  0  0  0  0  0  0  0  0
    2.3546    2.7598    0.0000 N   0  0  0  0  0  0  0  0  0
    1.6401    2.3473    0.0000 C   0  0  0  0  0  0  0  0  0
    0.9256    2.7598    0.0000 C   0  0  0  0  0  0  0  0  0
    0.9256    3.5848    0.0000 N   0  0  0  0  0  0  0  0  0
    1.6401    3.9973    0.0000 C   0  0  0  0  0  0  0  0  0
    2.3546    3.5848    0.0000 C   0  0  0  0  0  0  0  0  0
    0.2111    3.9973    0.0000 C   0  0  0  0  0  0  0  0  0
  1  2  1  0  0  0  0
  1  3  1  0  0  0  0
  3  4  4  0  0  0  0
  3 25  4  0  0  0  0
  4  5  4  0  0  0  0
  5  6  4  0  0  0  0
  6  7  1  0  0  0  0
  6 24  4  0  0  0  0
  7  8  1  0  0  0  0
  8  9  2  0  0  0  0
  8 10  1  0  0  0  0
 10 11  1  0  0  0  0
 10 15  1  0  0  0  0
 11 12  1  0  0  0  0
 12 13  1  0  0  0  0
 13 14  1  0  0  0  0
 13 16  1  0  0  0  0
 14 15  1  0  0  0  0
 16 17  4  0  0  0  0
 16 21  4  0  0  0  0
 17 18  4  0  0  0  0
 18 19  4  0  0  0  0
 19 20  4  0  0  0  0
 20 21  4  0  0  0  0
 21 22  1  0  0  0  0
 22 23  1  0  0  0  0
 24 25  4  0  0  0  0
 25 26  1  0  0  0  0
 26 27  1  0  0  0  0
 26 31  1  0  0  0  0
 27 28  1  0  0  0  0
 28 29  1  0  0  0  0
 29 30  1  0  0  0  0
 29 32  1  0  0  0  0
 30 31  1  0  0  0  0
M  END
>  <Name_Molregno>
327091

>  <5-HT1A>
7.81

>  <5-HT1B>
8.01

>  <5-HT1D>
7.81

>  <5-HT2A>
5

>  <5-HT2C>
5

>  <DOPAMINE D1>
5

>  <DOPAMINE D2>
5

>  <DOPAMINE D3>
5

>  <DOPAMINE D4>
5

>  <DOPAMINE D5>
5

>  <HISTAMINE H1>
5

>  <Muscarinic acetylcholine receptor M1>
5

>  <Muscarinic acetylcholine receptor M2>
5

>  <Muscarinic acetylcholine receptor M3>
5

>  <Muscarinic acetylcholine receptor M4>
5

>  <Muscarinic acetylcholine receptor M5>
5

$$$$
327286
  Marvin  02231216192D 0   1.00000     0.00000     0

 28 30  0  0  0  0  0  0  0  0999 V2000
    0.2084    2.6536    0.0000 F   0  0  0  0  0  0  0  0  0
    0.9228    2.2411    0.0000 C   0  0  0  0  0  0  0  0  0
    1.6373    2.6536    0.0000 C   0  0  0  0  0  0  0  0  0
    2.3518    2.2411    0.0000 C   0  0  0  0  0  0  0  0  0
    2.3518    1.4161    0.0000 C   0  0  0  0  0  0  0  0  0
    1.6373    1.0036    0.0000 C   0  0  0  0  0  0  0  0  0
    0.9228    1.4161    0.0000 C   0  0  0  0  0  0  0  0  0
    3.0662    1.0036    0.0000 C   0  0  0  0  0  0  0  0  0
    3.0662    0.1786    0.0000 O   0  0  0  0  0  0  0  0  0
    3.7807    1.4161    0.0000 N   0  0  0  0  0  0  0  0  0
    4.4952    1.0036    0.0000 C   0  0  0  0  0  0  0  0  0
    5.2097    1.4161    0.0000 C   0  0  0  0  0  0  0  0  0
    5.9241    1.0036    0.0000 C   0  0  0  0  0  0  0  0  0
    6.6386    1.4161    0.0000 C   0  0  0  0  0  0  0  0  0
    7.3531    1.0036    0.0000 N   0  0  0  0  0  0  0  0  0
    8.0675    1.4161    0.0000 C   0  0  0  0  0  0  0  0  0
    8.7820    1.0036    0.0000 C   0  0  0  0  0  0  0  0  0
    8.7820    0.1786    0.0000 N   0  0  0  0  0  0  0  0  0
    8.0675   -0.2339    0.0000 C   0  0  0  0  0  0  0  0  0
    7.3531    0.1786    0.0000 C   0  0  0  0  0  0  0  0  0
    9.4965   -0.2339    0.0000 C   0  0  0  0  0  0  0  0  0
   10.2110    0.1786    0.0000 C   0  0  0  0  0  0  0  0  0
   10.9254   -0.2339    0.0000 C   0  0  0  0  0  0  0  0  0
   10.9254   -1.0589    0.0000 C   0  0  0  0  0  0  0  0  0
   10.2110   -1.4714    0.0000 C   0  0  0  0  0  0  0  0  0
    9.4965   -1.0589    0.0000 C   0  0  0  0  0  0  0  0  0
    8.7820   -1.4714    0.0000 O   0  0  0  0  0  0  0  0  0
    8.7820   -2.2964    0.0000 C   0  0  0  0  0  0  0  0  0
  1  2  1  0  0  0  0
  2  3  4  0  0  0  0
  2  7  4  0  0  0  0
  3  4  4  0  0  0  0
  4  5  4  0  0  0  0
  5  6  4  0  0  0  0
  5  8  1  0  0  0  0
  6  7  4  0  0  0  0
  8  9  2  0  0  0  0
  8 10  1  0  0  0  0
 10 11  1  0  0  0  0
 11 12  1  0  0  0  0
 12 13  1  0  0  0  0
 13 14  1  0  0  0  0
 14 15  1  0  0  0  0
 15 16  1  0  0  0  0
 15 20  1  0  0  0  0
 16 17  1  0  0  0  0
 17 18  1  0  0  0  0
 18 19  1  0  0  0  0
 18 21  1  0  0  0  0
 19 20  1  0  0  0  0
 21 22  4  0  0  0  0
 21 26  4  0  0  0  0
 22 23  4  0  0  0  0
 23 24  4  0  0  0  0
 24 25  4  0  0  0  0
 25 26  4  0  0  0  0
 26 27  1  0  0  0  0
 27 28  1  0  0  0  0
M  END
>  <Name_Molregno>
327286

>  <DOPAMINE D2>
6.93

>  <DOPAMINE D3>
8.37

>  <DOPAMINE D4>
7.47

$$$$
327291
  Marvin  02231216192D 0   1.00000     0.00000     0

 28 30  0  0  0  0  0  0  0  0999 V2000
   -7.9084    0.0087    0.0000 Cl  0  0  0  0  0  0  0  0  0
   -7.9084   -0.8163    0.0000 C   0  0  0  0  0  0  0  0  0
   -7.1939   -1.2288    0.0000 C   0  0  0  0  0  0  0  0  0
   -6.4795   -0.8163    0.0000 N   0  0  0  0  0  0  0  0  0
   -6.4795    0.0087    0.0000 C   0  0  0  0  0  0  0  0  0
   -5.7650    0.4212    0.0000 C   0  0  0  0  0  0  0  0  0
   -5.0505    0.0087    0.0000 N   0  0  0  0  0  0  0  0  0
   -5.0505   -0.8163    0.0000 C   0  0  0  0  0  0  0  0  0
   -5.7650   -1.2288    0.0000 C   0  0  0  0  0  0  0  0  0
   -4.3360    0.4212    0.0000 C   0  0  0  0  0  0  0  0  0
   -3.6216    0.0087    0.0000 C   0  0  0  0  0  0  0  0  0
   -2.9071    0.4212    0.0000 C   0  0  0  0  0  0  0  0  0
   -2.1926    0.0087    0.0000 C   0  0  0  0  0  0  0  0  0
   -1.4782    0.4212    0.0000 N   0  0  0  0  0  0  0  0  0
   -0.7637    0.0087    0.0000 C   0  0  0  0  0  0  0  0  0
   -0.7637   -0.8163    0.0000 O   0  0  0  0  0  0  0  0  0
   -0.0492    0.4212    0.0000 C   0  0  0  0  0  0  0  0  0
   -0.0492    1.2462    0.0000 C   0  0  0  0  0  0  0  0  0
    0.6653    1.6587    0.0000 C   0  0  0  0  0  0  0  0  0
    1.3797    1.2462    0.0000 C   0  0  0  0  0  0  0  0  0
    2.0942    1.6587    0.0000 F   0  0  0  0  0  0  0  0  0
    1.3797    0.4212    0.0000 C   0  0  0  0  0  0  0  0  0
    0.6653    0.0087    0.0000 C   0  0  0  0  0  0  0  0  0
   -7.1939   -2.0538    0.0000 C   0  0  0  0  0  0  0  0  0
   -7.9084   -2.4663    0.0000 C   0  0  0  0  0  0  0  0  0
   -8.6229   -2.0538    0.0000 C   0  0  0  0  0  0  0  0  0
   -8.6229   -1.2288    0.0000 C   0  0  0  0  0  0  0  0  0
   -9.3373   -0.8163    0.0000 Cl  0  0  0  0  0  0  0  0  0
  1  2  1  0  0  0  0
  2  3  4  0  0  0  0
  2 27  4  0  0  0  0
  3  4  1  0  0  0  0
  3 24  4  0  0  0  0
  4  5  1  0  0  0  0
  4  9  1  0  0  0  0
  5  6  1  0  0  0  0
  6  7  1  0  0  0  0
  7  8  1  0  0  0  0
  7 10  1  0  0  0  0
  8  9  1  0  0  0  0
 10 11  1  0  0  0  0
 11 12  1  0  0  0  0
 12 13  1  0  0  0  0
 13 14  1  0  0  0  0
 14 15  1  0  0  0  0
 15 16  2  0  0  0  0
 15 17  1  0  0  0  0
 17 18  4  0  0  0  0
 17 23  4  0  0  0  0
 18 19  4  0  0  0  0
 19 20  4  0  0  0  0
 20 21  1  0  0  0  0
 20 22  4  0  0  0  0
 22 23  4  0  0  0  0
 24 25  4  0  0  0  0
 25 26  4  0  0  0  0
 26 27  4  0  0  0  0
 27 28  1  0  0  0  0
M  END
>  <Name_Molregno>
327291

>  <DOPAMINE D2>
7.75

>  <DOPAMINE D3>
9.28

>  <DOPAMINE D4>
7.36

$$$$
327292
  Marvin  02231216192D 0   1.00000     0.00000     0

 28 30  0  0  0  0  0  0  0  0999 V2000
    0.2084    2.6536    0.0000 F   0  0  0  0  0  0  0  0  0
    0.9228    2.2411    0.0000 C   0  0  0  0  0  0  0  0  0
    1.6373    2.6536    0.0000 N   0  0  0  0  0  0  0  0  0
    2.3518    2.2411    0.0000 C   0  0  0  0  0  0  0  0  0
    2.3518    1.4161    0.0000 C   0  0  0  0  0  0  0  0  0
    1.6373    1.0036    0.0000 C   0  0  0  0  0  0  0  0  0
    0.9228    1.4161    0.0000 C   0  0  0  0  0  0  0  0  0
    3.0662    1.0036    0.0000 C   0  0  0  0  0  0  0  0  0
    3.0662    0.1786    0.0000 O   0  0  0  0  0  0  0  0  0
    3.7807    1.4161    0.0000 N   0  0  0  0  0  0  0  0  0
    4.4952    1.0036    0.0000 C   0  0  0  0  0  0  0  0  0
    5.2097    1.4161    0.0000 C   0  0  0  0  0  0  0  0  0
    5.9241    1.0036    0.0000 C   0  0  0  0  0  0  0  0  0
    6.6386    1.4161    0.0000 C   0  0  0  0  0  0  0  0  0
    7.3531    1.0036    0.0000 N   0  0  0  0  0  0  0  0  0
    8.0675    1.4161    0.0000 C   0  0  0  0  0  0  0  0  0
    8.7820    1.0036    0.0000 C   0  0  0  0  0  0  0  0  0
    8.7820    0.1786    0.0000 N   0  0  0  0  0  0  0  0  0
    8.0675   -0.2339    0.0000 C   0  0  0  0  0  0  0  0  0
    7.3531    0.1786    0.0000 C   0  0  0  0  0  0  0  0  0
    9.4965   -0.2339    0.0000 C   0  0  0  0  0  0  0  0  0
   10.2110    0.1786    0.0000 C   0  0  0  0  0  0  0  0  0
   10.9254   -0.2339    0.0000 C   0  0  0  0  0  0  0  0  0
   10.9254   -1.0589    0.0000 C   0  0  0  0  0  0  0  0  0
   10.2110   -1.4714    0.0000 C   0  0  0  0  0  0  0  0  0
    9.4965   -1.0589    0.0000 C   0  0  0  0  0  0  0  0  0
    8.7820   -1.4714    0.0000 O   0  0  0  0  0  0  0  0  0
    8.7820   -2.2964    0.0000 C   0  0  0  0  0  0  0  0  0
  1  2  1  0  0  0  0
  2  3  4  0  0  0  0
  2  7  4  0  0  0  0
  3  4  4  0  0  0  0
  4  5  4  0  0  0  0
  5  6  4  0  0  0  0
  5  8  1  0  0  0  0
  6  7  4  0  0  0  0
  8  9  2  0  0  0  0
  8 10  1  0  0  0  0
 10 11  1  0  0  0  0
 11 12  1  0  0  0  0
 12 13  1  0  0  0  0
 13 14  1  0  0  0  0
 14 15  1  0  0  0  0
 15 16  1  0  0  0  0
 15 20  1  0  0  0  0
 16 17  1  0  0  0  0
 17 18  1  0  0  0  0
 18 19  1  0  0  0  0
 18 21  1  0  0  0  0
 19 20  1  0  0  0  0
 21 22  4  0  0  0  0
 21 26  4  0  0  0  0
 22 23  4  0  0  0  0
 23 24  4  0  0  0  0
 24 25  4  0  0  0  0
 25 26  4  0  0  0  0
 26 27  1  0  0  0  0
 27 28  1  0  0  0  0
M  END
>  <Name_Molregno>
327292

>  <DOPAMINE D2>
6.71

>  <DOPAMINE D3>
7.85

>  <DOPAMINE D4>
6.89

$$$$
327299
  Marvin  02231216192D 0   1.00000     0.00000     0

 28 30  0  0  0  0  0  0  0  0999 V2000
   -7.9084    0.0087    0.0000 Cl  0  0  0  0  0  0  0  0  0
   -7.9084   -0.8163    0.0000 C   0  0  0  0  0  0  0  0  0
   -7.1939   -1.2288    0.0000 C   0  0  0  0  0  0  0  0  0
   -6.4795   -0.8163    0.0000 N   0  0  0  0  0  0  0  0  0
   -6.4795    0.0087    0.0000 C   0  0  0  0  0  0  0  0  0
   -5.7650    0.4212    0.0000 C   0  0  0  0  0  0  0  0  0
   -5.0505    0.0087    0.0000 N   0  0  0  0  0  0  0  0  0
   -5.0505   -0.8163    0.0000 C   0  0  0  0  0  0  0  0  0
   -5.7650   -1.2288    0.0000 C   0  0  0  0  0  0  0  0  0
   -4.3360    0.4212    0.0000 C   0  0  0  0  0  0  0  0  0
   -3.6216    0.0087    0.0000 C   0  0  0  0  0  0  0  0  0
   -2.9071    0.4212    0.0000 C   0  0  0  0  0  0  0  0  0
   -2.1926    0.0087    0.0000 C   0  0  0  0  0  0  0  0  0
   -1.4782    0.4212    0.0000 N   0  0  0  0  0  0  0  0  0
   -0.7637    0.0087    0.0000 C   0  0  0  0  0  0  0  0  0
   -0.7637   -0.8163    0.0000 O   0  0  0  0  0  0  0  0  0
   -0.0492    0.4212    0.0000 C   0  0  0  0  0  0  0  0  0
   -0.0492    1.2462    0.0000 C   0  0  0  0  0  0  0  0  0
    0.6653    1.6587    0.0000 C   0  0  0  0  0  0  0  0  0
    1.3797    1.2462    0.0000 C   0  0  0  0  0  0  0  0  0
    2.0942    1.6587    0.0000 F   0  0  0  0  0  0  0  0  0
    1.3797    0.4212    0.0000 N   0  0  0  0  0  0  0  0  0
    0.6653    0.0087    0.0000 C   0  0  0  0  0  0  0  0  0
   -7.1939   -2.0538    0.0000 C   0  0  0  0  0  0  0  0  0
   -7.9084   -2.4663    0.0000 C   0  0  0  0  0  0  0  0  0
   -8.6229   -2.0538    0.0000 C   0  0  0  0  0  0  0  0  0
   -8.6229   -1.2288    0.0000 C   0  0  0  0  0  0  0  0  0
   -9.3373   -0.8163    0.0000 Cl  0  0  0  0  0  0  0  0  0
  1  2  1  0  0  0  0
  2  3  4  0  0  0  0
  2 27  4  0  0  0  0
  3  4  1  0  0  0  0
  3 24  4  0  0  0  0
  4  5  1  0  0  0  0
  4  9  1  0  0  0  0
  5  6  1  0  0  0  0
  6  7  1  0  0  0  0
  7  8  1  0  0  0  0
  7 10  1  0  0  0  0
  8  9  1  0  0  0  0
 10 11  1  0  0  0  0
 11 12  1  0  0  0  0
 12 13  1  0  0  0  0
 13 14  1  0  0  0  0
 14 15  1  0  0  0  0
 15 16  2  0  0  0  0
 15 17  1  0  0  0  0
 17 18  4  0  0  0  0
 17 23  4  0  0  0  0
 18 19  4  0  0  0  0
 19 20  4  0  0  0  0
 20 21  1  0  0  0  0
 20 22  4  0  0  0  0
 22 23  4  0  0  0  0
 24 25  4  0  0  0  0
 25 26  4  0  0  0  0
 26 27  4  0  0  0  0
 27 28  1  0  0  0  0
M  END
>  <Name_Molregno>
327299

>  <DOPAMINE D2>
7.61

>  <DOPAMINE D3>
8.96

>  <DOPAMINE D4>
7

$$$$
327300
  Marvin  02231216192D 0   1.00000     0.00000     0

 28 30  0  0  0  0  0  0  0  0999 V2000
    1.3492    3.1026    0.0000 F   0  0  0  0  0  0  0  0  0
    1.3492    2.2776    0.0000 C   0  0  0  0  0  0  0  0  0
    2.0636    1.8651    0.0000 N   0  0  0  0  0  0  0  0  0
    2.0636    1.0401    0.0000 C   0  0  0  0  0  0  0  0  0
    1.3492    0.6276    0.0000 C   0  0  0  0  0  0  0  0  0
    0.6347    1.0401    0.0000 C   0  0  0  0  0  0  0  0  0
    0.6347    1.8651    0.0000 C   0  0  0  0  0  0  0  0  0
    2.7781    0.6276    0.0000 C   0  0  0  0  0  0  0  0  0
    2.7781   -0.1974    0.0000 O   0  0  0  0  0  0  0  0  0
    3.4926    1.0401    0.0000 N   0  0  0  0  0  0  0  0  0
    4.2070    0.6276    0.0000 C   0  0  0  0  0  0  0  0  0
    4.9215    1.0401    0.0000 C   0  0  0  0  0  0  0  0  0
    5.6360    0.6276    0.0000 C   0  0  0  0  0  0  0  0  0
    6.3505    1.0401    0.0000 C   0  0  0  0  0  0  0  0  0
    7.0649    0.6276    0.0000 N   0  0  0  0  0  0  0  0  0
    7.7794    1.0401    0.0000 C   0  0  0  0  0  0  0  0  0
    8.4939    0.6276    0.0000 C   0  0  0  0  0  0  0  0  0
    8.4939   -0.1974    0.0000 N   0  0  0  0  0  0  0  0  0
    7.7794   -0.6099    0.0000 C   0  0  0  0  0  0  0  0  0
    7.0649   -0.1974    0.0000 C   0  0  0  0  0  0  0  0  0
    9.2083   -0.6099    0.0000 C   0  0  0  0  0  0  0  0  0
    9.9228   -0.1974    0.0000 C   0  0  0  0  0  0  0  0  0
   10.6373   -0.6099    0.0000 C   0  0  0  0  0  0  0  0  0
   10.6373   -1.4349    0.0000 C   0  0  0  0  0  0  0  0  0
    9.9228   -1.8474    0.0000 C   0  0  0  0  0  0  0  0  0
    9.2083   -1.4349    0.0000 C   0  0  0  0  0  0  0  0  0
    8.4939   -1.8474    0.0000 O   0  0  0  0  0  0  0  0  0
    8.4939   -2.6724    0.0000 C   0  0  0  0  0  0  0  0  0
  1  2  1  0  0  0  0
  2  3  4  0  0  0  0
  2  7  4  0  0  0  0
  3  4  4  0  0  0  0
  4  5  4  0  0  0  0
  4  8  1  0  0  0  0
  5  6  4  0  0  0  0
  6  7  4  0  0  0  0
  8  9  2  0  0  0  0
  8 10  1  0  0  0  0
 10 11  1  0  0  0  0
 11 12  1  0  0  0  0
 12 13  1  0  0  0  0
 13 14  1  0  0  0  0
 14 15  1  0  0  0  0
 15 16  1  0  0  0  0
 15 20  1  0  0  0  0
 16 17  1  0  0  0  0
 17 18  1  0  0  0  0
 18 19  1  0  0  0  0
 18 21  1  0  0  0  0
 19 20  1  0  0  0  0
 21 22  4  0  0  0  0
 21 26  4  0  0  0  0
 22 23  4  0  0  0  0
 23 24  4  0  0  0  0
 24 25  4  0  0  0  0
 25 26  4  0  0  0  0
 26 27  1  0  0  0  0
 27 28  1  0  0  0  0
M  END
>  <Name_Molregno>
327300

>  <DOPAMINE D2>
6.5

>  <DOPAMINE D3>
7.07

>  <DOPAMINE D4>
7.12

$$$$
327307
  Marvin  02231216192D 0   1.00000     0.00000     0

 28 30  0  0  0  0  0  0  0  0999 V2000
   -7.8551   -0.1095    0.0000 Cl  0  0  0  0  0  0  0  0  0
   -7.8551   -0.9345    0.0000 C   0  0  0  0  0  0  0  0  0
   -7.1407   -1.3470    0.0000 C   0  0  0  0  0  0  0  0  0
   -6.4262   -0.9345    0.0000 N   0  0  0  0  0  0  0  0  0
   -6.4262   -0.1095    0.0000 C   0  0  0  0  0  0  0  0  0
   -5.7117    0.3030    0.0000 C   0  0  0  0  0  0  0  0  0
   -4.9972   -0.1095    0.0000 N   0  0  0  0  0  0  0  0  0
   -4.9972   -0.9345    0.0000 C   0  0  0  0  0  0  0  0  0
   -5.7117   -1.3470    0.0000 C   0  0  0  0  0  0  0  0  0
   -4.2828    0.3030    0.0000 C   0  0  0  0  0  0  0  0  0
   -3.5683   -0.1095    0.0000 C   0  0  0  0  0  0  0  0  0
   -2.8538    0.3030    0.0000 C   0  0  0  0  0  0  0  0  0
   -2.1394   -0.1095    0.0000 C   0  0  0  0  0  0  0  0  0
   -1.4249    0.3030    0.0000 N   0  0  0  0  0  0  0  0  0
   -0.7104   -0.1095    0.0000 C   0  0  0  0  0  0  0  0  0
   -0.7104   -0.9345    0.0000 O   0  0  0  0  0  0  0  0  0
    0.0041    0.3030    0.0000 C   0  0  0  0  0  0  0  0  0
    0.0041    1.1280    0.0000 N   0  0  0  0  0  0  0  0  0
    0.7185    1.5405    0.0000 C   0  0  0  0  0  0  0  0  0
    0.7185    2.3655    0.0000 F   0  0  0  0  0  0  0  0  0
    1.4330    1.1280    0.0000 C   0  0  0  0  0  0  0  0  0
    1.4330    0.3030    0.0000 C   0  0  0  0  0  0  0  0  0
    0.7185   -0.1095    0.0000 C   0  0  0  0  0  0  0  0  0
   -7.1407   -2.1720    0.0000 C   0  0  0  0  0  0  0  0  0
   -7.8551   -2.5845    0.0000 C   0  0  0  0  0  0  0  0  0
   -8.5696   -2.1720    0.0000 C   0  0  0  0  0  0  0  0  0
   -8.5696   -1.3470    0.0000 C   0  0  0  0  0  0  0  0  0
   -9.2841   -0.9345    0.0000 Cl  0  0  0  0  0  0  0  0  0
  1  2  1  0  0  0  0
  2  3  4  0  0  0  0
  2 27  4  0  0  0  0
  3  4  1  0  0  0  0
  3 24  4  0  0  0  0
  4  5  1  0  0  0  0
  4  9  1  0  0  0  0
  5  6  1  0  0  0  0
  6  7  1  0  0  0  0
  7  8  1  0  0  0  0
  7 10  1  0  0  0  0
  8  9  1  0  0  0  0
 10 11  1  0  0  0  0
 11 12  1  0  0  0  0
 12 13  1  0  0  0  0
 13 14  1  0  0  0  0
 14 15  1  0  0  0  0
 15 16  2  0  0  0  0
 15 17  1  0  0  0  0
 17 18  4  0  0  0  0
 17 23  4  0  0  0  0
 18 19  4  0  0  0  0
 19 20  1  0  0  0  0
 19 21  4  0  0  0  0
 21 22  4  0  0  0  0
 22 23  4  0  0  0  0
 24 25  4  0  0  0  0
 25 26  4  0  0  0  0
 26 27  4  0  0  0  0
 27 28  1  0  0  0  0
M  END
>  <Name_Molregno>
327307

>  <DOPAMINE D2>
7.3

>  <DOPAMINE D3>
8.05

>  <DOPAMINE D4>
7.01

$$$$
327308
  Marvin  02231216192D 0   1.00000     0.00000     0

 29 31  0  0  0  0  0  0  0  0999 V2000
   -0.0747   -1.1619    0.0000 S   0  0  0  0  0  0  0  0  0
    0.3378   -0.4474    0.0000 O   0  0  0  0  0  0  0  0  0
   -0.4872   -1.8764    0.0000 O   0  0  0  0  0  0  0  0  0
    0.6398   -1.5744    0.0000 N   0  0  0  0  0  0  0  0  0
    1.3543   -1.1619    0.0000 C   0  0  0  0  0  0  0  0  0
    2.0687   -1.5744    0.0000 C   0  0  0  0  0  0  0  0  0
    2.7832   -1.1619    0.0000 C   0  0  0  0  0  0  0  0  0
    3.4977   -1.5744    0.0000 C   0  0  0  0  0  0  0  0  0
    4.2122   -1.1619    0.0000 N   0  0  0  0  0  0  0  0  0
    4.2122   -0.3369    0.0000 C   0  0  0  0  0  0  0  0  0
    4.9266    0.0756    0.0000 C   0  0  0  0  0  0  0  0  0
    5.6411   -0.3369    0.0000 N   0  0  0  0  0  0  0  0  0
    5.6411   -1.1619    0.0000 C   0  0  0  0  0  0  0  0  0
    4.9266   -1.5744    0.0000 C   0  0  0  0  0  0  0  0  0
    6.3556    0.0756    0.0000 C   0  0  0  0  0  0  0  0  0
    6.3556    0.9006    0.0000 C   0  0  0  0  0  0  0  0  0
    7.0700    1.3131    0.0000 C   0  0  0  0  0  0  0  0  0
    7.7845    0.9006    0.0000 C   0  0  0  0  0  0  0  0  0
    7.7845    0.0756    0.0000 C   0  0  0  0  0  0  0  0  0
    7.0700   -0.3369    0.0000 C   0  0  0  0  0  0  0  0  0
    7.0700   -1.1619    0.0000 O   0  0  0  0  0  0  0  0  0
    7.7845   -1.5744    0.0000 C   0  0  0  0  0  0  0  0  0
   -0.7891   -0.7494    0.0000 C   0  0  0  0  0  0  0  0  0
   -1.5036   -1.1619    0.0000 C   0  0  0  0  0  0  0  0  0
   -2.2181   -0.7494    0.0000 C   0  0  0  0  0  0  0  0  0
   -2.2181    0.0756    0.0000 C   0  0  0  0  0  0  0  0  0
   -2.9325    0.4881    0.0000 F   0  0  0  0  0  0  0  0  0
   -1.5036    0.4881    0.0000 C   0  0  0  0  0  0  0  0  0
   -0.7891    0.0756    0.0000 C   0  0  0  0  0  0  0  0  0
  1  2  2  0  0  0  0
  1  3  2  0  0  0  0
  1  4  1  0  0  0  0
  1 23  1  0  0  0  0
  4  5  1  0  0  0  0
  5  6  1  0  0  0  0
  6  7  1  0  0  0  0
  7  8  1  0  0  0  0
  8  9  1  0  0  0  0
  9 10  1  0  0  0  0
  9 14  1  0  0  0  0
 10 11  1  0  0  0  0
 11 12  1  0  0  0  0
 12 13  1  0  0  0  0
 12 15  1  0  0  0  0
 13 14  1  0  0  0  0
 15 16  4  0  0  0  0
 15 20  4  0  0  0  0
 16 17  4  0  0  0  0
 17 18  4  0  0  0  0
 18 19  4  0  0  0  0
 19 20  4  0  0  0  0
 20 21  1  0  0  0  0
 21 22  1  0  0  0  0
 23 24  4  0  0  0  0
 23 29  4  0  0  0  0
 24 25  4  0  0  0  0
 25 26  4  0  0  0  0
 26 27  1  0  0  0  0
 26 28  4  0  0  0  0
 28 29  4  0  0  0  0
M  END
>  <Name_Molregno>
327308

>  <DOPAMINE D2>
7.03

>  <DOPAMINE D3>
6.68

>  <DOPAMINE D4>
8

$$$$
327319
  Marvin  02231216192D 0   1.00000     0.00000     0

 29 31  0  0  0  0  0  0  0  0999 V2000
   -0.1099   -0.0032    0.0000 Cl  0  0  0  0  0  0  0  0  0
   -0.1099   -0.8282    0.0000 C   0  0  0  0  0  0  0  0  0
    0.6045   -1.2407    0.0000 C   0  0  0  0  0  0  0  0  0
    1.3190   -0.8282    0.0000 N   0  0  0  0  0  0  0  0  0
    1.3190   -0.0032    0.0000 C   0  0  0  0  0  0  0  0  0
    2.0335    0.4093    0.0000 C   0  0  0  0  0  0  0  0  0
    2.7479   -0.0032    0.0000 N   0  0  0  0  0  0  0  0  0
    2.7479   -0.8282    0.0000 C   0  0  0  0  0  0  0  0  0
    2.0335   -1.2407    0.0000 C   0  0  0  0  0  0  0  0  0
    3.4624    0.4093    0.0000 C   0  0  0  0  0  0  0  0  0
    4.1769   -0.0032    0.0000 C   0  0  0  0  0  0  0  0  0
    4.8914    0.4093    0.0000 C   0  0  0  0  0  0  0  0  0
    5.6058   -0.0032    0.0000 C   0  0  0  0  0  0  0  0  0
    6.3203    0.4093    0.0000 N   0  0  0  0  0  0  0  0  0
    7.0348   -0.0032    0.0000 S   0  0  0  0  0  0  0  0  0
    7.4473    0.7113    0.0000 O   0  0  0  0  0  0  0  0  0
    6.6223   -0.7176    0.0000 O   0  0  0  0  0  0  0  0  0
    7.7492   -0.4157    0.0000 C   0  0  0  0  0  0  0  0  0
    8.4637   -0.0032    0.0000 C   0  0  0  0  0  0  0  0  0
    9.1782   -0.4157    0.0000 C   0  0  0  0  0  0  0  0  0
    9.1782   -1.2407    0.0000 C   0  0  0  0  0  0  0  0  0
    9.8927   -1.6532    0.0000 F   0  0  0  0  0  0  0  0  0
    8.4637   -1.6532    0.0000 C   0  0  0  0  0  0  0  0  0
    7.7492   -1.2407    0.0000 C   0  0  0  0  0  0  0  0  0
    0.6045   -2.0657    0.0000 C   0  0  0  0  0  0  0  0  0
   -0.1099   -2.4782    0.0000 C   0  0  0  0  0  0  0  0  0
   -0.8244   -2.0657    0.0000 C   0  0  0  0  0  0  0  0  0
   -0.8244   -1.2407    0.0000 C   0  0  0  0  0  0  0  0  0
   -1.5389   -0.8282    0.0000 Cl  0  0  0  0  0  0  0  0  0
  1  2  1  0  0  0  0
  2  3  4  0  0  0  0
  2 28  4  0  0  0  0
  3  4  1  0  0  0  0
  3 25  4  0  0  0  0
  4  5  1  0  0  0  0
  4  9  1  0  0  0  0
  5  6  1  0  0  0  0
  6  7  1  0  0  0  0
  7  8  1  0  0  0  0
  7 10  1  0  0  0  0
  8  9  1  0  0  0  0
 10 11  1  0  0  0  0
 11 12  1  0  0  0  0
 12 13  1  0  0  0  0
 13 14  1  0  0  0  0
 14 15  1  0  0  0  0
 15 16  2  0  0  0  0
 15 17  2  0  0  0  0
 15 18  1  0  0  0  0
 18 19  4  0  0  0  0
 18 24  4  0  0  0  0
 19 20  4  0  0  0  0
 20 21  4  0  0  0  0
 21 22  1  0  0  0  0
 21 23  4  0  0  0  0
 23 24  4  0  0  0  0
 25 26  4  0  0  0  0
 26 27  4  0  0  0  0
 27 28  4  0  0  0  0
 28 29  1  0  0  0  0
M  END
>  <Name_Molregno>
327319

>  <DOPAMINE D2>
7.36

>  <DOPAMINE D3>
7.8

>  <DOPAMINE D4>
7.77

$$$$
328679
  Marvin  02231216192D 0   1.00000     0.00000     0

 16 17  0  0  1  0  0  0  0  0999 V2000
    1.8003   -1.5256    0.0000 N   0  0  0  0  0  0  0  0  0
    1.6288   -2.3326    0.0000 N   0  0  0  0  0  0  0  0  0
    0.8083   -2.4188    0.0000 C   0  0  0  0  0  0  0  0  0
    0.4727   -1.6651    0.0000 C   0  0  0  0  0  0  0  0  0
    1.0858   -1.1131    0.0000 C   0  0  0  0  0  0  0  0  0
    1.0858   -0.2881    0.0000 C   0  0  0  0  0  0  0  0  0
    1.8003    0.1244    0.0000 C   0  0  0  0  0  0  0  0  0
    1.8003    0.9494    0.0000 N   0  0  0  0  0  0  0  0  0
    1.0858    1.3619    0.0000 C   0  0  0  0  0  0  0  0  0
    1.0858    2.1869    0.0000 C   0  0  0  0  0  0  0  0  0
    0.3714    2.5994    0.0000 C   0  0  0  0  0  0  0  0  0
    2.5148    1.3619    0.0000 C   0  0  0  0  0  0  0  0  0
    2.5148    2.1869    0.0000 C   0  0  0  0  0  0  0  0  0
    3.2292    2.5994    0.0000 C   0  0  0  0  0  0  0  0  0
    2.5148   -0.2881    0.0000 C   0  0  0  0  0  0  0  0  0
    2.5148   -1.1131    0.0000 C   0  0  0  0  0  0  0  0  0
  1  2  4  0  0  0  0
  1  5  4  0  0  0  0
  1 16  1  0  0  0  0
  2  3  4  0  0  0  0
  3  4  4  0  0  0  0
  4  5  4  0  0  0  0
  5  6  1  0  0  0  0
  6  7  1  0  0  0  0
  7  8  1  0  0  0  0
  7 15  1  0  0  0  0
  8  9  1  0  0  0  0
  8 12  1  0  0  0  0
  9 10  1  0  0  0  0
 10 11  1  0  0  0  0
 12 13  1  0  0  0  0
 13 14  1  0  0  0  0
 15 16  1  0  0  0  0
M  END
>  <Name_Molregno>
328679

>  <DOPAMINE D2>
5.58

>  <DOPAMINE D3>
7.31

>  <DOPAMINE D4>
6.19

$$$$
328687
  Marvin  02231216192D 0   1.00000     0.00000     0

 17 18  0  0  1  0  0  0  0  0999 V2000
    0.5727   -3.5443    0.0000 Cl  0  0  0  0  0  0  0  0  0
   -0.2343   -3.7158    0.0000 C   0  0  0  0  0  0  0  0  0
   -0.8474   -3.1638    0.0000 C   0  0  0  0  0  0  0  0  0
   -1.5618   -3.5763    0.0000 N   0  0  0  0  0  0  0  0  0
   -1.3903   -4.3832    0.0000 N   0  0  0  0  0  0  0  0  0
   -0.5698   -4.4695    0.0000 C   0  0  0  0  0  0  0  0  0
   -2.2763   -3.1638    0.0000 C   0  0  0  0  0  0  0  0  0
   -2.2763   -2.3388    0.0000 C   0  0  0  0  0  0  0  0  0
   -1.5618   -1.9263    0.0000 C   0  0  0  0  0  0  0  0  0
   -1.5618   -1.1013    0.0000 N   0  0  0  0  0  0  0  0  0
   -2.2763   -0.6888    0.0000 C   0  0  0  0  0  0  0  0  0
   -2.2763    0.1362    0.0000 C   0  0  0  0  0  0  0  0  0
   -2.9908    0.5487    0.0000 C   0  0  0  0  0  0  0  0  0
   -0.8474   -0.6888    0.0000 C   0  0  0  0  0  0  0  0  0
   -0.8474    0.1362    0.0000 C   0  0  0  0  0  0  0  0  0
   -0.1329    0.5487    0.0000 C   0  0  0  0  0  0  0  0  0
   -0.8474   -2.3388    0.0000 C   0  0  0  0  0  0  0  0  0
  1  2  1  0  0  0  0
  2  3  4  0  0  0  0
  2  6  4  0  0  0  0
  3  4  4  0  0  0  0
  3 17  1  0  0  0  0
  4  5  4  0  0  0  0
  4  7  1  0  0  0  0
  5  6  4  0  0  0  0
  7  8  1  0  0  0  0
  8  9  1  0  0  0  0
  9 10  1  0  0  0  0
  9 17  1  0  0  0  0
 10 11  1  0  0  0  0
 10 14  1  0  0  0  0
 11 12  1  0  0  0  0
 12 13  1  0  0  0  0
 14 15  1  0  0  0  0
 15 16  1  0  0  0  0
M  END
>  <Name_Molregno>
328687

>  <DOPAMINE D2>
5.8

>  <DOPAMINE D3>
7.42

>  <DOPAMINE D4>
5.94

$$$$
328688
  Marvin  02231216192D 0   1.00000     0.00000     0

 17 18  0  0  1  0  0  0  0  0999 V2000
    0.0822   -1.6095    0.0000 O   0  0  0  0  0  0  0  0  0
    0.8892   -1.4380    0.0000 C   0  0  0  0  0  0  0  0  0
    1.4412   -2.0511    0.0000 O   0  0  0  0  0  0  0  0  0
    1.1441   -0.6534    0.0000 C   0  0  0  0  0  0  0  0  0
    1.9288   -0.3985    0.0000 C   0  0  0  0  0  0  0  0  0
    1.9288    0.4265    0.0000 N   0  0  0  0  0  0  0  0  0
    1.1441    0.6815    0.0000 N   0  0  0  0  0  0  0  0  0
    0.6592    0.0140    0.0000 C   0  0  0  0  0  0  0  0  0
    2.6432    0.8390    0.0000 C   0  0  0  0  0  0  0  0  0
    3.3577    0.4265    0.0000 C   0  0  0  0  0  0  0  0  0
    3.3577   -0.3985    0.0000 C   0  0  0  0  0  0  0  0  0
    4.0722   -0.8110    0.0000 N   0  0  0  0  0  0  0  0  0
    4.7866   -0.3985    0.0000 C   0  0  0  0  0  0  0  0  0
    5.5011   -0.8110    0.0000 C   0  0  0  0  0  0  0  0  0
    6.2156   -0.3985    0.0000 C   0  0  0  0  0  0  0  0  0
    2.6432   -0.8110    0.0000 C   0  0  0  0  0  0  0  0  0
   -0.1727   -2.3942    0.0000 C   0  0  0  0  0  0  0  0  0
  1  2  1  0  0  0  0
  1 17  1  0  0  0  0
  2  3  2  0  0  0  0
  2  4  1  0  0  0  0
  4  5  4  0  0  0  0
  4  8  4  0  0  0  0
  5  6  4  0  0  0  0
  5 16  1  0  0  0  0
  6  7  4  0  0  0  0
  6  9  1  0  0  0  0
  7  8  4  0  0  0  0
  9 10  1  0  0  0  0
 10 11  1  0  0  0  0
 11 12  1  0  0  0  0
 11 16  1  0  0  0  0
 12 13  1  0  0  0  0
 13 14  1  0  0  0  0
 14 15  1  0  0  0  0
M  END
>  <Name_Molregno>
328688

>  <DOPAMINE D2>
4

>  <DOPAMINE D3>
4.92

>  <DOPAMINE D4>
4.05

$$$$
328696
  Marvin  02231216192D 0   1.00000     0.00000     0

 20 21  0  0  1  0  0  0  0  0999 V2000
    4.7372   -2.1894    0.0000 O   0  0  0  0  0  0  0  0  0
    4.1852   -1.5763    0.0000 C   0  0  0  0  0  0  0  0  0
    4.4401   -0.7917    0.0000 O   0  0  0  0  0  0  0  0  0
    3.3782   -1.7478    0.0000 C   0  0  0  0  0  0  0  0  0
    2.7651   -1.1958    0.0000 C   0  0  0  0  0  0  0  0  0
    2.0506   -1.6083    0.0000 N   0  0  0  0  0  0  0  0  0
    2.2222   -2.4153    0.0000 N   0  0  0  0  0  0  0  0  0
    3.0426   -2.5015    0.0000 C   0  0  0  0  0  0  0  0  0
    1.3362   -1.1958    0.0000 C   0  0  0  0  0  0  0  0  0
    1.3362   -0.3708    0.0000 C   0  0  0  0  0  0  0  0  0
    2.0506    0.0417    0.0000 C   0  0  0  0  0  0  0  0  0
    2.0506    0.8667    0.0000 N   0  0  0  0  0  0  0  0  0
    1.3362    1.2792    0.0000 C   0  0  0  0  0  0  0  0  0
    1.3362    2.1042    0.0000 C   0  0  0  0  0  0  0  0  0
    0.6217    2.5167    0.0000 C   0  0  0  0  0  0  0  0  0
    2.7651    1.2792    0.0000 C   0  0  0  0  0  0  0  0  0
    2.7651    2.1042    0.0000 C   0  0  0  0  0  0  0  0  0
    3.4796    2.5167    0.0000 C   0  0  0  0  0  0  0  0  0
    2.7651   -0.3708    0.0000 C   0  0  0  0  0  0  0  0  0
    5.5442   -2.0179    0.0000 C   0  0  0  0  0  0  0  0  0
  1  2  1  0  0  0  0
  1 20  1  0  0  0  0
  2  3  2  0  0  0  0
  2  4  1  0  0  0  0
  4  5  4  0  0  0  0
  4  8  4  0  0  0  0
  5  6  4  0  0  0  0
  5 19  1  0  0  0  0
  6  7  4  0  0  0  0
  6  9  1  0  0  0  0
  7  8  4  0  0  0  0
  9 10  1  0  0  0  0
 10 11  1  0  0  0  0
 11 12  1  0  0  0  0
 11 19  1  0  0  0  0
 12 13  1  0  0  0  0
 12 16  1  0  0  0  0
 13 14  1  0  0  0  0
 14 15  1  0  0  0  0
 16 17  1  0  0  0  0
 17 18  1  0  0  0  0
M  END
>  <Name_Molregno>
328696

>  <DOPAMINE D2>
4.7

>  <DOPAMINE D3>
4.77

>  <DOPAMINE D4>
4.7

$$$$
328697
  Marvin  02231216192D 0   1.00000     0.00000     0

 18 19  0  0  1  0  0  0  0  0999 V2000
    5.2485   -2.3992    0.0000 O   0  0  0  0  0  0  0  0  0
    4.6965   -1.7861    0.0000 C   0  0  0  0  0  0  0  0  0
    3.8895   -1.9576    0.0000 C   0  0  0  0  0  0  0  0  0
    3.2764   -1.4056    0.0000 C   0  0  0  0  0  0  0  0  0
    2.5619   -1.8181    0.0000 N   0  0  0  0  0  0  0  0  0
    2.7334   -2.6251    0.0000 N   0  0  0  0  0  0  0  0  0
    3.5539   -2.7113    0.0000 C   0  0  0  0  0  0  0  0  0
    1.8475   -1.4056    0.0000 C   0  0  0  0  0  0  0  0  0
    1.8475   -0.5806    0.0000 C   0  0  0  0  0  0  0  0  0
    2.5619   -0.1681    0.0000 C   0  0  0  0  0  0  0  0  0
    2.5619    0.6569    0.0000 N   0  0  0  0  0  0  0  0  0
    1.8475    1.0694    0.0000 C   0  0  0  0  0  0  0  0  0
    1.8475    1.8944    0.0000 C   0  0  0  0  0  0  0  0  0
    1.1330    2.3069    0.0000 C   0  0  0  0  0  0  0  0  0
    3.2764    1.0694    0.0000 C   0  0  0  0  0  0  0  0  0
    3.2764    1.8944    0.0000 C   0  0  0  0  0  0  0  0  0
    3.9909    2.3069    0.0000 C   0  0  0  0  0  0  0  0  0
    3.2764   -0.5806    0.0000 C   0  0  0  0  0  0  0  0  0
  1  2  1  0  0  0  0
  2  3  1  0  0  0  0
  3  4  4  0  0  0  0
  3  7  4  0  0  0  0
  4  5  4  0  0  0  0
  4 18  1  0  0  0  0
  5  6  4  0  0  0  0
  5  8  1  0  0  0  0
  6  7  4  0  0  0  0
  8  9  1  0  0  0  0
  9 10  1  0  0  0  0
 10 11  1  0  0  0  0
 10 18  1  0  0  0  0
 11 12  1  0  0  0  0
 11 15  1  0  0  0  0
 12 13  1  0  0  0  0
 13 14  1  0  0  0  0
 15 16  1  0  0  0  0
 16 17  1  0  0  0  0
M  END
>  <Name_Molregno>
328697

>  <DOPAMINE D2>
4.7

>  <DOPAMINE D3>
5.4

>  <DOPAMINE D4>
4.8

$$$$
328698
  Marvin  02231216192D 0   1.00000     0.00000     0

 18 19  0  0  1  0  0  0  0  0999 V2000
    5.2485   -2.3992    0.0000 O   0  0  0  0  0  0  0  0  0
    4.6965   -1.7861    0.0000 C   0  0  0  0  0  0  0  0  0
    3.8895   -1.9576    0.0000 C   0  0  0  0  0  0  0  0  0
    3.2764   -1.4056    0.0000 C   0  0  0  0  0  0  0  0  0
    2.5619   -1.8181    0.0000 N   0  0  0  0  0  0  0  0  0
    2.7334   -2.6251    0.0000 N   0  0  0  0  0  0  0  0  0
    3.5539   -2.7113    0.0000 C   0  0  0  0  0  0  0  0  0
    1.8475   -1.4056    0.0000 C   0  0  0  0  0  0  0  0  0
    1.8475   -0.5806    0.0000 C   0  0  0  0  0  0  0  0  0
    2.5619   -0.1681    0.0000 C   0  0  0  0  0  0  0  0  0
    2.5619    0.6569    0.0000 N   0  0  0  0  0  0  0  0  0
    1.8475    1.0694    0.0000 C   0  0  0  0  0  0  0  0  0
    1.8475    1.8944    0.0000 C   0  0  0  0  0  0  0  0  0
    1.1330    2.3069    0.0000 C   0  0  0  0  0  0  0  0  0
    3.2764    1.0694    0.0000 C   0  0  0  0  0  0  0  0  0
    3.2764    1.8944    0.0000 C   0  0  0  0  0  0  0  0  0
    3.9909    2.3069    0.0000 C   0  0  0  0  0  0  0  0  0
    3.2764   -0.5806    0.0000 C   0  0  0  0  0  0  0  0  0
  1  2  2  0  0  0  0
  2  3  1  0  0  0  0
  3  4  4  0  0  0  0
  3  7  4  0  0  0  0
  4  5  4  0  0  0  0
  4 18  1  0  0  0  0
  5  6  4  0  0  0  0
  5  8  1  0  0  0  0
  6  7  4  0  0  0  0
  8  9  1  0  0  0  0
  9 10  1  0  0  0  0
 10 11  1  0  0  0  0
 10 18  1  0  0  0  0
 11 12  1  0  0  0  0
 11 15  1  0  0  0  0
 12 13  1  0  0  0  0
 13 14  1  0  0  0  0
 15 16  1  0  0  0  0
 16 17  1  0  0  0  0
M  END
>  <Name_Molregno>
328698

>  <DOPAMINE D2>
5.32

>  <DOPAMINE D3>
4.92

>  <DOPAMINE D4>
4.85

$$$$
329265
  Marvin  02231216192D 0   1.00000     0.00000     0

 31 35  0  0  1  0  0  0  0  0999 V2000
   -5.7354    5.8865    0.0000 F   0  0  0  0  0  0  0  0  0
   -6.2875    5.2734    0.0000 C   0  0  0  0  0  0  0  0  0
   -6.0325    4.4888    0.0000 C   0  0  0  0  0  0  0  0  0
   -6.5846    3.8757    0.0000 C   0  0  0  0  0  0  0  0  0
   -7.3915    4.0473    0.0000 C   0  0  0  0  0  0  0  0  0
   -7.8040    3.3328    0.0000 N   0  0  0  0  0  0  0  0  0
   -7.2520    2.7197    0.0000 C   0  0  0  0  0  0  0  0  0
   -6.4983    3.0552    0.0000 C   0  0  0  0  0  0  0  0  0
   -5.7838    2.6427    0.0000 C   0  0  0  0  0  0  0  0  0
   -5.7838    1.8177    0.0000 C   0  0  0  0  0  0  0  0  0
   -5.0694    1.4052    0.0000 C   0  0  0  0  0  0  0  0  0
   -5.0694    0.5802    0.0000 N   0  0  0  0  0  0  0  0  0
   -4.3549    0.1677    0.0000 C   0  0  0  0  0  0  0  0  0
   -4.3549   -0.6573    0.0000 C   0  0  0  0  0  0  0  0  0
   -5.0694   -1.0698    0.0000 N   0  0  0  0  0  0  0  0  0
   -5.7838   -0.6573    0.0000 C   0  0  0  0  0  0  0  0  0
   -5.7838    0.1677    0.0000 C   0  0  0  0  0  0  0  0  0
   -5.0694   -1.8948    0.0000 C   0  0  0  0  0  0  0  0  0
   -4.3549   -2.3073    0.0000 C   0  0  0  0  0  0  0  0  0
   -3.6404   -1.8948    0.0000 O   0  0  0  0  0  0  0  0  0
   -2.9260   -2.3073    0.0000 C   0  0  0  0  0  0  0  0  0
   -2.2115   -1.8948    0.0000 C   0  0  0  0  0  0  0  0  0
   -2.9260   -3.1323    0.0000 C   0  0  0  0  0  0  0  0  0
   -2.2115   -3.5448    0.0000 O   0  0  0  0  0  0  0  0  0
   -3.6404   -3.5448    0.0000 N   0  0  0  0  0  0  0  0  0
   -4.3549   -3.1323    0.0000 C   0  0  0  0  0  0  0  0  0
   -5.0694   -3.5448    0.0000 C   0  0  0  0  0  0  0  0  0
   -5.7838   -3.1323    0.0000 C   0  0  0  0  0  0  0  0  0
   -5.7838   -2.3073    0.0000 C   0  0  0  0  0  0  0  0  0
   -7.6465    4.8319    0.0000 C   0  0  0  0  0  0  0  0  0
   -7.0944    5.4450    0.0000 C   0  0  0  0  0  0  0  0  0
  1  2  1  0  0  0  0
  2  3  4  0  0  0  0
  2 31  4  0  0  0  0
  3  4  4  0  0  0  0
  4  5  4  0  0  0  0
  4  8  4  0  0  0  0
  5  6  4  0  0  0  0
  5 30  4  0  0  0  0
  6  7  4  0  0  0  0
  7  8  4  0  0  0  0
  8  9  1  0  0  0  0
  9 10  1  0  0  0  0
 10 11  1  0  0  0  0
 11 12  1  0  0  0  0
 12 13  1  0  0  0  0
 12 17  1  0  0  0  0
 13 14  1  0  0  0  0
 14 15  1  0  0  0  0
 15 16  1  0  0  0  0
 15 18  1  0  0  0  0
 16 17  1  0  0  0  0
 18 19  4  0  0  0  0
 18 29  4  0  0  0  0
 19 20  1  0  0  0  0
 19 26  4  0  0  0  0
 20 21  1  0  0  0  0
 21 22  1  0  0  0  0
 21 23  1  0  0  0  0
 23 24  2  0  0  0  0
 23 25  1  0  0  0  0
 25 26  1  0  0  0  0
 26 27  4  0  0  0  0
 27 28  4  0  0  0  0
 28 29  4  0  0  0  0
 30 31  4  0  0  0  0
M  STY  1   1 DAT
M  SAL   1  1   6
M  SDT   1 MRV_IMPLICIT_H                                        
M  SDD   1     0.0000    0.0000    DR    ALL  0       0  
M  SED   1 IMPL_H1
M  END
>  <Name_Molregno>
329265

>  <5-HT1A>
8.3

>  <5-HT2A>
7.7

>  <5-HT2C>
6.7

>  <5-HT7>
8.1

>  <DOPAMINE D2>
8.24

>  <DOPAMINE D3>
9.3

>  <Serotonin transporter>
9.6

$$$$
329441
  Marvin  02231216192D 0   1.00000     0.00000     0

 32 35  0  0  0  0  0  0  0  0999 V2000
   -0.1251    0.0151    0.0000 Cl  0  0  0  0  0  0  0  0  0
   -0.1251   -0.8099    0.0000 C   0  0  0  0  0  0  0  0  0
    0.5894   -1.2224    0.0000 C   0  0  0  0  0  0  0  0  0
    1.3039   -0.8099    0.0000 N   0  0  0  0  0  0  0  0  0
    1.3039    0.0151    0.0000 C   0  0  0  0  0  0  0  0  0
    2.0183    0.4276    0.0000 C   0  0  0  0  0  0  0  0  0
    2.7328    0.0151    0.0000 N   0  0  0  0  0  0  0  0  0
    2.7328   -0.8099    0.0000 C   0  0  0  0  0  0  0  0  0
    2.0183   -1.2224    0.0000 C   0  0  0  0  0  0  0  0  0
    3.4473    0.4276    0.0000 C   0  0  0  0  0  0  0  0  0
    4.1617    0.0151    0.0000 C   0  0  0  0  0  0  0  0  0
    4.8762    0.4276    0.0000 C   0  0  0  0  0  0  0  0  0
    5.5907    0.0151    0.0000 C   0  0  0  0  0  0  0  0  0
    6.3052    0.4276    0.0000 N   0  0  0  0  0  0  0  0  0
    7.0196    0.0151    0.0000 C   0  0  0  0  0  0  0  0  0
    7.0196   -0.8099    0.0000 O   0  0  0  0  0  0  0  0  0
    7.7341    0.4276    0.0000 C   0  0  0  0  0  0  0  0  0
    8.4878    0.0920    0.0000 O   0  0  0  0  0  0  0  0  0
    9.0398    0.7051    0.0000 C   0  0  0  0  0  0  0  0  0
    8.6273    1.4196    0.0000 C   0  0  0  0  0  0  0  0  0
    7.8203    1.2480    0.0000 C   0  0  0  0  0  0  0  0  0
    9.0398    2.1340    0.0000 C   0  0  0  0  0  0  0  0  0
    9.8648    2.1340    0.0000 C   0  0  0  0  0  0  0  0  0
   10.2773    1.4196    0.0000 C   0  0  0  0  0  0  0  0  0
    9.8648    0.7051    0.0000 C   0  0  0  0  0  0  0  0  0
   10.2773   -0.0094    0.0000 O   0  0  0  0  0  0  0  0  0
   11.1023   -0.0094    0.0000 C   0  0  0  0  0  0  0  0  0
    0.5894   -2.0474    0.0000 C   0  0  0  0  0  0  0  0  0
   -0.1251   -2.4599    0.0000 C   0  0  0  0  0  0  0  0  0
   -0.8396   -2.0474    0.0000 C   0  0  0  0  0  0  0  0  0
   -0.8396   -1.2224    0.0000 C   0  0  0  0  0  0  0  0  0
   -1.5540   -0.8099    0.0000 Cl  0  0  0  0  0  0  0  0  0
  1  2  1  0  0  0  0
  2  3  4  0  0  0  0
  2 31  4  0  0  0  0
  3  4  1  0  0  0  0
  3 28  4  0  0  0  0
  4  5  1  0  0  0  0
  4  9  1  0  0  0  0
  5  6  1  0  0  0  0
  6  7  1  0  0  0  0
  7  8  1  0  0  0  0
  7 10  1  0  0  0  0
  8  9  1  0  0  0  0
 10 11  1  0  0  0  0
 11 12  1  0  0  0  0
 12 13  1  0  0  0  0
 13 14  1  0  0  0  0
 14 15  1  0  0  0  0
 15 16  2  0  0  0  0
 15 17  1  0  0  0  0
 17 18  4  0  0  0  0
 17 21  4  0  0  0  0
 18 19  4  0  0  0  0
 19 20  4  0  0  0  0
 19 25  4  0  0  0  0
 20 21  4  0  0  0  0
 20 22  4  0  0  0  0
 22 23  4  0  0  0  0
 23 24  4  0  0  0  0
 24 25  4  0  0  0  0
 25 26  1  0  0  0  0
 26 27  1  0  0  0  0
 28 29  4  0  0  0  0
 29 30  4  0  0  0  0
 30 31  4  0  0  0  0
 31 32  1  0  0  0  0
M  END
>  <Name_Molregno>
329441

>  <DOPAMINE D2>
6.43

>  <DOPAMINE D3>
9.89

$$$$
330283
  Marvin  02231216192D 0   1.00000     0.00000     0

 31 34  0  0  0  0  0  0  0  0999 V2000
    0.1076    0.0239    0.0000 Cl  0  0  0  0  0  0  0  0  0
    0.1076   -0.8011    0.0000 C   0  0  0  0  0  0  0  0  0
    0.8221   -1.2136    0.0000 C   0  0  0  0  0  0  0  0  0
    0.8221   -2.0386    0.0000 C   0  0  0  0  0  0  0  0  0
    0.1076   -2.4511    0.0000 C   0  0  0  0  0  0  0  0  0
   -0.6069   -2.0386    0.0000 C   0  0  0  0  0  0  0  0  0
   -0.6069   -1.2136    0.0000 C   0  0  0  0  0  0  0  0  0
   -1.3213   -0.8011    0.0000 N   0  0  0  0  0  0  0  0  0
   -2.0358   -1.2136    0.0000 C   0  0  0  0  0  0  0  0  0
   -2.7503   -0.8011    0.0000 C   0  0  0  0  0  0  0  0  0
   -2.7503    0.0239    0.0000 N   0  0  0  0  0  0  0  0  0
   -2.0358    0.4364    0.0000 C   0  0  0  0  0  0  0  0  0
   -1.3213    0.0239    0.0000 C   0  0  0  0  0  0  0  0  0
   -3.4647    0.4364    0.0000 C   0  0  0  0  0  0  0  0  0
   -3.4647    1.2614    0.0000 O   0  0  0  0  0  0  0  0  0
   -4.1792    0.0239    0.0000 N   0  0  0  0  0  0  0  0  0
   -4.8937    0.4364    0.0000 C   0  0  0  0  0  0  0  0  0
   -5.6082    0.0239    0.0000 C   0  0  0  0  0  0  0  0  0
   -6.3226    0.4364    0.0000 C   0  0  0  0  0  0  0  0  0
   -7.0371    0.0239    0.0000 N   0  0  0  0  0  0  0  0  0
   -7.0371   -0.8011    0.0000 C   0  0  0  0  0  0  0  0  0
   -7.7516   -1.2136    0.0000 C   0  0  0  0  0  0  0  0  0
   -8.4660   -0.8011    0.0000 N   0  0  0  0  0  0  0  0  0
   -8.4660    0.0239    0.0000 C   0  0  0  0  0  0  0  0  0
   -7.7516    0.4364    0.0000 C   0  0  0  0  0  0  0  0  0
   -9.1805   -1.2136    0.0000 C   0  0  0  0  0  0  0  0  0
   -6.3226    1.2614    0.0000 C   0  0  0  0  0  0  0  0  0
   -7.0371    1.6739    0.0000 O   0  0  0  0  0  0  0  0  0
   -7.0371    2.4989    0.0000 C   0  0  0  0  0  0  0  0  0
   -5.6082    1.6739    0.0000 C   0  0  0  0  0  0  0  0  0
   -4.8937    1.2614    0.0000 C   0  0  0  0  0  0  0  0  0
  1  2  1  0  0  0  0
  2  3  4  0  0  0  0
  2  7  4  0  0  0  0
  3  4  4  0  0  0  0
  4  5  4  0  0  0  0
  5  6  4  0  0  0  0
  6  7  4  0  0  0  0
  7  8  1  0  0  0  0
  8  9  1  0  0  0  0
  8 13  1  0  0  0  0
  9 10  1  0  0  0  0
 10 11  1  0  0  0  0
 11 12  1  0  0  0  0
 11 14  1  0  0  0  0
 12 13  1  0  0  0  0
 14 15  2  0  0  0  0
 14 16  1  0  0  0  0
 16 17  1  0  0  0  0
 17 18  4  0  0  0  0
 17 31  4  0  0  0  0
 18 19  4  0  0  0  0
 19 20  1  0  0  0  0
 19 27  4  0  0  0  0
 20 21  1  0  0  0  0
 20 25  1  0  0  0  0
 21 22  1  0  0  0  0
 22 23  1  0  0  0  0
 23 24  1  0  0  0  0
 23 26  1  0  0  0  0
 24 25  1  0  0  0  0
 27 28  1  0  0  0  0
 27 30  4  0  0  0  0
 28 29  1  0  0  0  0
 30 31  4  0  0  0  0
M  END
>  <Name_Molregno>
330283

>  <5-HT1A>
6.47

>  <5-HT1B>
7.95

>  <5-HT1D>
7.46

>  <5-HT2A>
5.22

>  <5-HT2C>
5.91

>  <5-HT6>
6.33

>  <5-HT7>
6.47

>  <DOPAMINE D1>
5

>  <DOPAMINE D2>
5

>  <DOPAMINE D3>
5

>  <DOPAMINE D4>
5

>  <DOPAMINE D5>
5

>  <HISTAMINE H1>
5

>  <Muscarinic acetylcholine receptor M1>
5

>  <Muscarinic acetylcholine receptor M2>
5

>  <Muscarinic acetylcholine receptor M3>
5

>  <Muscarinic acetylcholine receptor M4>
5

>  <Muscarinic acetylcholine receptor M5>
5

$$$$
330287
  Marvin  02231216192D 0   1.00000     0.00000     0

 31 34  0  0  0  0  0  0  0  0999 V2000
    0.1076    0.0239    0.0000 F   0  0  0  0  0  0  0  0  0
    0.1076   -0.8011    0.0000 C   0  0  0  0  0  0  0  0  0
    0.8221   -1.2136    0.0000 C   0  0  0  0  0  0  0  0  0
    0.8221   -2.0386    0.0000 C   0  0  0  0  0  0  0  0  0
    0.1076   -2.4511    0.0000 C   0  0  0  0  0  0  0  0  0
   -0.6069   -2.0386    0.0000 C   0  0  0  0  0  0  0  0  0
   -0.6069   -1.2136    0.0000 C   0  0  0  0  0  0  0  0  0
   -1.3213   -0.8011    0.0000 N   0  0  0  0  0  0  0  0  0
   -2.0358   -1.2136    0.0000 C   0  0  0  0  0  0  0  0  0
   -2.7503   -0.8011    0.0000 C   0  0  0  0  0  0  0  0  0
   -2.7503    0.0239    0.0000 N   0  0  0  0  0  0  0  0  0
   -2.0358    0.4364    0.0000 C   0  0  0  0  0  0  0  0  0
   -1.3213    0.0239    0.0000 C   0  0  0  0  0  0  0  0  0
   -3.4647    0.4364    0.0000 C   0  0  0  0  0  0  0  0  0
   -3.4647    1.2614    0.0000 O   0  0  0  0  0  0  0  0  0
   -4.1792    0.0239    0.0000 N   0  0  0  0  0  0  0  0  0
   -4.8937    0.4364    0.0000 C   0  0  0  0  0  0  0  0  0
   -5.6082    0.0239    0.0000 C   0  0  0  0  0  0  0  0  0
   -6.3226    0.4364    0.0000 C   0  0  0  0  0  0  0  0  0
   -7.0371    0.0239    0.0000 N   0  0  0  0  0  0  0  0  0
   -7.0371   -0.8011    0.0000 C   0  0  0  0  0  0  0  0  0
   -7.7516   -1.2136    0.0000 C   0  0  0  0  0  0  0  0  0
   -8.4660   -0.8011    0.0000 N   0  0  0  0  0  0  0  0  0
   -8.4660    0.0239    0.0000 C   0  0  0  0  0  0  0  0  0
   -7.7516    0.4364    0.0000 C   0  0  0  0  0  0  0  0  0
   -9.1805   -1.2136    0.0000 C   0  0  0  0  0  0  0  0  0
   -6.3226    1.2614    0.0000 C   0  0  0  0  0  0  0  0  0
   -7.0371    1.6739    0.0000 O   0  0  0  0  0  0  0  0  0
   -7.0371    2.4989    0.0000 C   0  0  0  0  0  0  0  0  0
   -5.6082    1.6739    0.0000 C   0  0  0  0  0  0  0  0  0
   -4.8937    1.2614    0.0000 C   0  0  0  0  0  0  0  0  0
  1  2  1  0  0  0  0
  2  3  4  0  0  0  0
  2  7  4  0  0  0  0
  3  4  4  0  0  0  0
  4  5  4  0  0  0  0
  5  6  4  0  0  0  0
  6  7  4  0  0  0  0
  7  8  1  0  0  0  0
  8  9  1  0  0  0  0
  8 13  1  0  0  0  0
  9 10  1  0  0  0  0
 10 11  1  0  0  0  0
 11 12  1  0  0  0  0
 11 14  1  0  0  0  0
 12 13  1  0  0  0  0
 14 15  2  0  0  0  0
 14 16  1  0  0  0  0
 16 17  1  0  0  0  0
 17 18  4  0  0  0  0
 17 31  4  0  0  0  0
 18 19  4  0  0  0  0
 19 20  1  0  0  0  0
 19 27  4  0  0  0  0
 20 21  1  0  0  0  0
 20 25  1  0  0  0  0
 21 22  1  0  0  0  0
 22 23  1  0  0  0  0
 23 24  1  0  0  0  0
 23 26  1  0  0  0  0
 24 25  1  0  0  0  0
 27 28  1  0  0  0  0
 27 30  4  0  0  0  0
 28 29  1  0  0  0  0
 30 31  4  0  0  0  0
M  END
>  <Name_Molregno>
330287

>  <5-HT1A>
6.5

>  <5-HT1B>
7.74

>  <5-HT1D>
6.99

>  <5-HT2A>
5

>  <5-HT2C>
5.97

>  <5-HT6>
6.08

>  <5-HT7>
5

>  <DOPAMINE D1>
5

>  <DOPAMINE D2>
5

>  <DOPAMINE D3>
5

>  <DOPAMINE D4>
5

>  <DOPAMINE D5>
5

>  <HISTAMINE H1>
5

>  <Muscarinic acetylcholine receptor M1>
5

>  <Muscarinic acetylcholine receptor M2>
5

>  <Muscarinic acetylcholine receptor M3>
5

>  <Muscarinic acetylcholine receptor M4>
5

>  <Muscarinic acetylcholine receptor M5>
5

$$$$
331559
  Marvin  02231216192D 0   1.00000     0.00000     0

 34 38  0  0  0  0  0  0  0  0999 V2000
   -9.0296   -2.3369    0.0000 O   0  0  0  0  0  0  0  0  0
   -9.0296   -3.1619    0.0000 C   0  0  0  0  0  0  0  0  0
   -9.7441   -1.9244    0.0000 C   0  0  0  0  0  0  0  0  0
  -10.4586   -2.3369    0.0000 C   0  0  0  0  0  0  0  0  0
  -11.1730   -1.9244    0.0000 C   0  0  0  0  0  0  0  0  0
  -11.1730   -1.0994    0.0000 C   0  0  0  0  0  0  0  0  0
  -10.4586   -0.6869    0.0000 C   0  0  0  0  0  0  0  0  0
   -9.7441   -1.0994    0.0000 C   0  0  0  0  0  0  0  0  0
   -9.0296   -0.6869    0.0000 N   0  0  0  0  0  0  0  0  0
   -9.0296    0.1381    0.0000 C   0  0  0  0  0  0  0  0  0
   -8.3151    0.5506    0.0000 C   0  0  0  0  0  0  0  0  0
   -7.6007    0.1381    0.0000 N   0  0  0  0  0  0  0  0  0
   -7.6007   -0.6869    0.0000 C   0  0  0  0  0  0  0  0  0
   -8.3151   -1.0994    0.0000 C   0  0  0  0  0  0  0  0  0
   -6.8862    0.5506    0.0000 C   0  0  0  0  0  0  0  0  0
   -6.1717    0.1381    0.0000 C   0  0  0  0  0  0  0  0  0
   -5.4573    0.5506    0.0000 C   0  0  0  0  0  0  0  0  0
   -4.7428    0.1381    0.0000 C   0  0  0  0  0  0  0  0  0
   -4.0283    0.5506    0.0000 N   0  0  0  0  0  0  0  0  0
   -3.3138    0.1381    0.0000 C   0  0  0  0  0  0  0  0  0
   -3.3138   -0.6869    0.0000 O   0  0  0  0  0  0  0  0  0
   -2.5994    0.5506    0.0000 C   0  0  0  0  0  0  0  0  0
   -1.8849    0.1381    0.0000 C   0  0  0  0  0  0  0  0  0
   -1.1704    0.5506    0.0000 C   0  0  0  0  0  0  0  0  0
   -0.3858    0.2956    0.0000 C   0  0  0  0  0  0  0  0  0
    0.0991    0.9631    0.0000 C   0  0  0  0  0  0  0  0  0
   -0.3858    1.6305    0.0000 C   0  0  0  0  0  0  0  0  0
   -1.1704    1.3756    0.0000 C   0  0  0  0  0  0  0  0  0
   -1.8849    1.7881    0.0000 C   0  0  0  0  0  0  0  0  0
   -2.5994    1.3756    0.0000 C   0  0  0  0  0  0  0  0  0
   -0.0503    2.3842    0.0000 C   0  0  0  0  0  0  0  0  0
    0.7702    2.4704    0.0000 C   0  0  0  0  0  0  0  0  0
    1.2551    1.8030    0.0000 C   0  0  0  0  0  0  0  0  0
    0.9196    1.0493    0.0000 C   0  0  0  0  0  0  0  0  0
  1  2  1  0  0  0  0
  1  3  1  0  0  0  0
  3  4  4  0  0  0  0
  3  8  4  0  0  0  0
  4  5  4  0  0  0  0
  5  6  4  0  0  0  0
  6  7  4  0  0  0  0
  7  8  4  0  0  0  0
  8  9  1  0  0  0  0
  9 10  1  0  0  0  0
  9 14  1  0  0  0  0
 10 11  1  0  0  0  0
 11 12  1  0  0  0  0
 12 13  1  0  0  0  0
 12 15  1  0  0  0  0
 13 14  1  0  0  0  0
 15 16  1  0  0  0  0
 16 17  1  0  0  0  0
 17 18  1  0  0  0  0
 18 19  1  0  0  0  0
 19 20  1  0  0  0  0
 20 21  2  0  0  0  0
 20 22  1  0  0  0  0
 22 23  4  0  0  0  0
 22 30  4  0  0  0  0
 23 24  4  0  0  0  0
 24 25  1  0  0  0  0
 24 28  4  0  0  0  0
 25 26  1  0  0  0  0
 26 27  4  0  0  0  0
 26 34  4  0  0  0  0
 27 28  1  0  0  0  0
 27 31  4  0  0  0  0
 28 29  4  0  0  0  0
 29 30  4  0  0  0  0
 31 32  4  0  0  0  0
 32 33  4  0  0  0  0
 33 34  4  0  0  0  0
M  END
>  <Name_Molregno>
331559

>  <5-HT1A>
7.47

>  <5-HT2A>
6.81

>  <5-HT2C>
6.49

>  <DOPAMINE D2>
7.26

>  <DOPAMINE D3>
9.4

>  <DOPAMINE D4>
6.37

$$$$
331579
  Marvin  02231216192D 0   1.00000     0.00000     0

 33 36  0  0  0  0  0  0  0  0999 V2000
  -10.0001    0.3660    0.0000 O   0  0  0  0  0  0  0  0  0
  -10.7146   -0.0465    0.0000 C   0  0  0  0  0  0  0  0  0
  -10.0001    1.1910    0.0000 C   0  0  0  0  0  0  0  0  0
  -10.7146    1.6035    0.0000 C   0  0  0  0  0  0  0  0  0
  -10.7146    2.4285    0.0000 C   0  0  0  0  0  0  0  0  0
  -10.0001    2.8410    0.0000 C   0  0  0  0  0  0  0  0  0
   -9.2857    2.4285    0.0000 C   0  0  0  0  0  0  0  0  0
   -9.2857    1.6035    0.0000 C   0  0  0  0  0  0  0  0  0
   -8.5712    1.1910    0.0000 N   0  0  0  0  0  0  0  0  0
   -7.8567    1.6035    0.0000 C   0  0  0  0  0  0  0  0  0
   -7.1423    1.1910    0.0000 C   0  0  0  0  0  0  0  0  0
   -7.1423    0.3660    0.0000 N   0  0  0  0  0  0  0  0  0
   -7.8567   -0.0465    0.0000 C   0  0  0  0  0  0  0  0  0
   -8.5712    0.3660    0.0000 C   0  0  0  0  0  0  0  0  0
   -6.4278   -0.0465    0.0000 C   0  0  0  0  0  0  0  0  0
   -5.7133    0.3660    0.0000 C   0  0  0  0  0  0  0  0  0
   -4.9988   -0.0465    0.0000 C   0  0  0  0  0  0  0  0  0
   -4.2844    0.3660    0.0000 C   0  0  0  0  0  0  0  0  0
   -3.5699   -0.0465    0.0000 N   0  0  0  0  0  0  0  0  0
   -2.8554    0.3660    0.0000 C   0  0  0  0  0  0  0  0  0
   -2.8554    1.1910    0.0000 O   0  0  0  0  0  0  0  0  0
   -2.1410   -0.0465    0.0000 C   0  0  0  0  0  0  0  0  0
   -1.4265    0.3660    0.0000 C   0  0  0  0  0  0  0  0  0
   -0.7120   -0.0465    0.0000 C   0  0  0  0  0  0  0  0  0
   -0.7120   -0.8715    0.0000 C   0  0  0  0  0  0  0  0  0
   -1.4265   -1.2840    0.0000 C   0  0  0  0  0  0  0  0  0
   -2.1410   -0.8715    0.0000 C   0  0  0  0  0  0  0  0  0
    0.0024   -1.2840    0.0000 C   0  0  0  0  0  0  0  0  0
    0.7169   -0.8715    0.0000 C   0  0  0  0  0  0  0  0  0
    1.4314   -1.2840    0.0000 C   0  0  0  0  0  0  0  0  0
    1.4314   -2.1090    0.0000 C   0  0  0  0  0  0  0  0  0
    0.7169   -2.5215    0.0000 C   0  0  0  0  0  0  0  0  0
    0.0024   -2.1090    0.0000 C   0  0  0  0  0  0  0  0  0
  1  2  1  0  0  0  0
  1  3  1  0  0  0  0
  3  4  4  0  0  0  0
  3  8  4  0  0  0  0
  4  5  4  0  0  0  0
  5  6  4  0  0  0  0
  6  7  4  0  0  0  0
  7  8  4  0  0  0  0
  8  9  1  0  0  0  0
  9 10  1  0  0  0  0
  9 14  1  0  0  0  0
 10 11  1  0  0  0  0
 11 12  1  0  0  0  0
 12 13  1  0  0  0  0
 12 15  1  0  0  0  0
 13 14  1  0  0  0  0
 15 16  1  0  0  0  0
 16 17  1  0  0  0  0
 17 18  1  0  0  0  0
 18 19  1  0  0  0  0
 19 20  1  0  0  0  0
 20 21  2  0  0  0  0
 20 22  1  0  0  0  0
 22 23  4  0  0  0  0
 22 27  4  0  0  0  0
 23 24  4  0  0  0  0
 24 25  4  0  0  0  0
 25 26  4  0  0  0  0
 25 28  1  0  0  0  0
 26 27  4  0  0  0  0
 28 29  4  0  0  0  0
 28 33  4  0  0  0  0
 29 30  4  0  0  0  0
 30 31  4  0  0  0  0
 31 32  4  0  0  0  0
 32 33  4  0  0  0  0
M  END
>  <Name_Molregno>
331579

>  <DOPAMINE D3>
9.52

$$$$
331580
  Marvin  02231216192D 0   1.00000     0.00000     0

 27 29  0  0  0  0  0  0  0  0999 V2000
   -7.4676   -0.0187    0.0000 Cl  0  0  0  0  0  0  0  0  0
   -7.4676   -0.8437    0.0000 C   0  0  0  0  0  0  0  0  0
   -6.7531   -1.2562    0.0000 C   0  0  0  0  0  0  0  0  0
   -6.0387   -0.8437    0.0000 N   0  0  0  0  0  0  0  0  0
   -6.0387   -0.0187    0.0000 C   0  0  0  0  0  0  0  0  0
   -5.3242    0.3938    0.0000 C   0  0  0  0  0  0  0  0  0
   -4.6097   -0.0187    0.0000 N   0  0  0  0  0  0  0  0  0
   -4.6097   -0.8437    0.0000 C   0  0  0  0  0  0  0  0  0
   -5.3242   -1.2562    0.0000 C   0  0  0  0  0  0  0  0  0
   -3.8952    0.3938    0.0000 C   0  0  0  0  0  0  0  0  0
   -3.1808   -0.0187    0.0000 C   0  0  0  0  0  0  0  0  0
   -2.4663    0.3938    0.0000 C   0  0  0  0  0  0  0  0  0
   -1.7518   -0.0187    0.0000 C   0  0  0  0  0  0  0  0  0
   -1.0374    0.3938    0.0000 N   0  0  0  0  0  0  0  0  0
   -0.3229   -0.0187    0.0000 C   0  0  0  0  0  0  0  0  0
   -0.3229   -0.8437    0.0000 O   0  0  0  0  0  0  0  0  0
    0.3916    0.3938    0.0000 C   0  0  0  0  0  0  0  0  0
    0.3916    1.2188    0.0000 C   0  0  0  0  0  0  0  0  0
    1.1061    1.6313    0.0000 C   0  0  0  0  0  0  0  0  0
    1.8205    1.2188    0.0000 C   0  0  0  0  0  0  0  0  0
    1.8205    0.3938    0.0000 C   0  0  0  0  0  0  0  0  0
    1.1061   -0.0187    0.0000 C   0  0  0  0  0  0  0  0  0
   -6.7531   -2.0812    0.0000 C   0  0  0  0  0  0  0  0  0
   -7.4676   -2.4937    0.0000 C   0  0  0  0  0  0  0  0  0
   -8.1821   -2.0812    0.0000 C   0  0  0  0  0  0  0  0  0
   -8.1821   -1.2562    0.0000 C   0  0  0  0  0  0  0  0  0
   -8.8965   -0.8437    0.0000 Cl  0  0  0  0  0  0  0  0  0
  1  2  1  0  0  0  0
  2  3  4  0  0  0  0
  2 26  4  0  0  0  0
  3  4  1  0  0  0  0
  3 23  4  0  0  0  0
  4  5  1  0  0  0  0
  4  9  1  0  0  0  0
  5  6  1  0  0  0  0
  6  7  1  0  0  0  0
  7  8  1  0  0  0  0
  7 10  1  0  0  0  0
  8  9  1  0  0  0  0
 10 11  1  0  0  0  0
 11 12  1  0  0  0  0
 12 13  1  0  0  0  0
 13 14  1  0  0  0  0
 14 15  1  0  0  0  0
 15 16  2  0  0  0  0
 15 17  1  0  0  0  0
 17 18  4  0  0  0  0
 17 22  4  0  0  0  0
 18 19  4  0  0  0  0
 19 20  4  0  0  0  0
 20 21  4  0  0  0  0
 21 22  4  0  0  0  0
 23 24  4  0  0  0  0
 24 25  4  0  0  0  0
 25 26  4  0  0  0  0
 26 27  1  0  0  0  0
M  END
>  <Name_Molregno>
331580

>  <DOPAMINE D3>
7.92

$$$$
331647
  Marvin  02231216192D 0   1.00000     0.00000     0

 31 34  0  0  0  0  0  0  0  0999 V2000
   -7.6463   -2.3049    0.0000 O   0  0  0  0  0  0  0  0  0
   -7.6463   -3.1299    0.0000 C   0  0  0  0  0  0  0  0  0
   -8.3608   -1.8924    0.0000 C   0  0  0  0  0  0  0  0  0
   -9.0753   -2.3049    0.0000 C   0  0  0  0  0  0  0  0  0
   -9.7897   -1.8924    0.0000 C   0  0  0  0  0  0  0  0  0
   -9.7897   -1.0674    0.0000 C   0  0  0  0  0  0  0  0  0
   -9.0753   -0.6549    0.0000 C   0  0  0  0  0  0  0  0  0
   -8.3608   -1.0674    0.0000 C   0  0  0  0  0  0  0  0  0
   -7.6463   -0.6549    0.0000 N   0  0  0  0  0  0  0  0  0
   -7.6463    0.1701    0.0000 C   0  0  0  0  0  0  0  0  0
   -6.9318    0.5826    0.0000 C   0  0  0  0  0  0  0  0  0
   -6.2174    0.1701    0.0000 N   0  0  0  0  0  0  0  0  0
   -6.2174   -0.6549    0.0000 C   0  0  0  0  0  0  0  0  0
   -6.9318   -1.0674    0.0000 C   0  0  0  0  0  0  0  0  0
   -5.5029    0.5826    0.0000 C   0  0  0  0  0  0  0  0  0
   -4.7884    0.1701    0.0000 C   0  0  0  0  0  0  0  0  0
   -4.0740    0.5826    0.0000 C   0  0  0  0  0  0  0  0  0
   -3.3595    0.1701    0.0000 C   0  0  0  0  0  0  0  0  0
   -2.6450    0.5826    0.0000 N   0  0  0  0  0  0  0  0  0
   -1.9306    0.1701    0.0000 C   0  0  0  0  0  0  0  0  0
   -1.9306   -0.6549    0.0000 O   0  0  0  0  0  0  0  0  0
   -1.2161    0.5826    0.0000 C   0  0  0  0  0  0  0  0  0
   -0.5016    0.1701    0.0000 C   0  0  0  0  0  0  0  0  0
    0.2129    0.5826    0.0000 C   0  0  0  0  0  0  0  0  0
    0.2129    1.4076    0.0000 C   0  0  0  0  0  0  0  0  0
   -0.5016    1.8201    0.0000 C   0  0  0  0  0  0  0  0  0
   -1.2161    1.4076    0.0000 C   0  0  0  0  0  0  0  0  0
    0.9273    0.1701    0.0000 C   0  0  0  0  0  0  0  0  0
    0.9273   -0.6549    0.0000 C   0  0  0  0  0  0  0  0  0
    0.2129   -1.0674    0.0000 C   0  0  0  0  0  0  0  0  0
   -0.5016   -0.6549    0.0000 C   0  0  0  0  0  0  0  0  0
  1  2  1  0  0  0  0
  1  3  1  0  0  0  0
  3  4  4  0  0  0  0
  3  8  4  0  0  0  0
  4  5  4  0  0  0  0
  5  6  4  0  0  0  0
  6  7  4  0  0  0  0
  7  8  4  0  0  0  0
  8  9  1  0  0  0  0
  9 10  1  0  0  0  0
  9 14  1  0  0  0  0
 10 11  1  0  0  0  0
 11 12  1  0  0  0  0
 12 13  1  0  0  0  0
 12 15  1  0  0  0  0
 13 14  1  0  0  0  0
 15 16  1  0  0  0  0
 16 17  1  0  0  0  0
 17 18  1  0  0  0  0
 18 19  1  0  0  0  0
 19 20  1  0  0  0  0
 20 21  2  0  0  0  0
 20 22  1  0  0  0  0
 22 23  4  0  0  0  0
 22 27  4  0  0  0  0
 23 24  4  0  0  0  0
 23 31  4  0  0  0  0
 24 25  4  0  0  0  0
 24 28  4  0  0  0  0
 25 26  4  0  0  0  0
 26 27  4  0  0  0  0
 28 29  4  0  0  0  0
 29 30  4  0  0  0  0
 30 31  4  0  0  0  0
M  END
>  <Name_Molregno>
331647

>  <DOPAMINE D3>
7.49

$$$$
331648
  Marvin  02231216192D 0   1.00000     0.00000     0

 33 36  0  0  0  0  0  0  0  0999 V2000
   -9.9587   -0.0242    0.0000 Cl  0  0  0  0  0  0  0  0  0
   -9.9587   -0.8492    0.0000 C   0  0  0  0  0  0  0  0  0
   -9.2442   -1.2617    0.0000 C   0  0  0  0  0  0  0  0  0
   -8.5297   -0.8492    0.0000 N   0  0  0  0  0  0  0  0  0
   -8.5297   -0.0242    0.0000 C   0  0  0  0  0  0  0  0  0
   -7.8152    0.3883    0.0000 C   0  0  0  0  0  0  0  0  0
   -7.1008   -0.0242    0.0000 N   0  0  0  0  0  0  0  0  0
   -7.1008   -0.8492    0.0000 C   0  0  0  0  0  0  0  0  0
   -7.8152   -1.2617    0.0000 C   0  0  0  0  0  0  0  0  0
   -6.3863    0.3883    0.0000 C   0  0  0  0  0  0  0  0  0
   -5.6718   -0.0242    0.0000 C   0  0  0  0  0  0  0  0  0
   -4.9574    0.3883    0.0000 C   0  0  0  0  0  0  0  0  0
   -4.2429   -0.0242    0.0000 C   0  0  0  0  0  0  0  0  0
   -3.5284    0.3883    0.0000 N   0  0  0  0  0  0  0  0  0
   -2.8139   -0.0242    0.0000 C   0  0  0  0  0  0  0  0  0
   -2.8139   -0.8492    0.0000 O   0  0  0  0  0  0  0  0  0
   -2.0995    0.3883    0.0000 C   0  0  0  0  0  0  0  0  0
   -2.0995    1.2133    0.0000 C   0  0  0  0  0  0  0  0  0
   -1.3850    1.6258    0.0000 C   0  0  0  0  0  0  0  0  0
   -0.6705    1.2133    0.0000 C   0  0  0  0  0  0  0  0  0
   -0.6705    0.3883    0.0000 C   0  0  0  0  0  0  0  0  0
   -1.3850   -0.0242    0.0000 C   0  0  0  0  0  0  0  0  0
    0.0439    1.6258    0.0000 C   0  0  0  0  0  0  0  0  0
    0.0439    2.4508    0.0000 C   0  0  0  0  0  0  0  0  0
    0.7584    2.8633    0.0000 C   0  0  0  0  0  0  0  0  0
    1.4729    2.4508    0.0000 C   0  0  0  0  0  0  0  0  0
    1.4729    1.6258    0.0000 C   0  0  0  0  0  0  0  0  0
    0.7584    1.2133    0.0000 C   0  0  0  0  0  0  0  0  0
   -9.2442   -2.0867    0.0000 C   0  0  0  0  0  0  0  0  0
   -9.9587   -2.4992    0.0000 C   0  0  0  0  0  0  0  0  0
  -10.6731   -2.0867    0.0000 C   0  0  0  0  0  0  0  0  0
  -10.6731   -1.2617    0.0000 C   0  0  0  0  0  0  0  0  0
  -11.3876   -0.8492    0.0000 Cl  0  0  0  0  0  0  0  0  0
  1  2  1  0  0  0  0
  2  3  4  0  0  0  0
  2 32  4  0  0  0  0
  3  4  1  0  0  0  0
  3 29  4  0  0  0  0
  4  5  1  0  0  0  0
  4  9  1  0  0  0  0
  5  6  1  0  0  0  0
  6  7  1  0  0  0  0
  7  8  1  0  0  0  0
  7 10  1  0  0  0  0
  8  9  1  0  0  0  0
 10 11  1  0  0  0  0
 11 12  1  0  0  0  0
 12 13  1  0  0  0  0
 13 14  1  0  0  0  0
 14 15  1  0  0  0  0
 15 16  2  0  0  0  0
 15 17  1  0  0  0  0
 17 18  1  0  0  0  0
 17 22  1  0  0  0  0
 18 19  1  0  0  0  0
 19 20  1  0  0  0  0
 20 21  1  0  0  0  0
 20 23  1  0  0  0  0
 21 22  1  0  0  0  0
 23 24  4  0  0  0  0
 23 28  4  0  0  0  0
 24 25  4  0  0  0  0
 25 26  4  0  0  0  0
 26 27  4  0  0  0  0
 27 28  4  0  0  0  0
 29 30  4  0  0  0  0
 30 31  4  0  0  0  0
 31 32  4  0  0  0  0
 32 33  1  0  0  0  0
M  END
>  <Name_Molregno>
331648

>  <DOPAMINE D3>
7.8

$$$$
331655
  Marvin  02231216192D 0   1.00000     0.00000     0

 31 34  0  0  0  0  0  0  0  0999 V2000
   -0.1188   -0.0087    0.0000 Cl  0  0  0  0  0  0  0  0  0
   -0.1188   -0.8337    0.0000 C   0  0  0  0  0  0  0  0  0
    0.5957   -1.2462    0.0000 C   0  0  0  0  0  0  0  0  0
    1.3101   -0.8337    0.0000 N   0  0  0  0  0  0  0  0  0
    1.3101   -0.0087    0.0000 C   0  0  0  0  0  0  0  0  0
    2.0246    0.4038    0.0000 C   0  0  0  0  0  0  0  0  0
    2.7391   -0.0087    0.0000 N   0  0  0  0  0  0  0  0  0
    2.7391   -0.8337    0.0000 C   0  0  0  0  0  0  0  0  0
    2.0246   -1.2462    0.0000 C   0  0  0  0  0  0  0  0  0
    3.4535    0.4038    0.0000 C   0  0  0  0  0  0  0  0  0
    4.1680   -0.0087    0.0000 C   0  0  0  0  0  0  0  0  0
    4.8825    0.4038    0.0000 C   0  0  0  0  0  0  0  0  0
    5.5970   -0.0087    0.0000 C   0  0  0  0  0  0  0  0  0
    6.3114    0.4038    0.0000 N   0  0  0  0  0  0  0  0  0
    7.0259   -0.0087    0.0000 C   0  0  0  0  0  0  0  0  0
    7.0259   -0.8337    0.0000 O   0  0  0  0  0  0  0  0  0
    7.7404    0.4038    0.0000 C   0  0  0  0  0  0  0  0  0
    8.4548   -0.0087    0.0000 C   0  0  0  0  0  0  0  0  0
    9.1693    0.4038    0.0000 C   0  0  0  0  0  0  0  0  0
    9.1693    1.2288    0.0000 C   0  0  0  0  0  0  0  0  0
    8.4548    1.6413    0.0000 C   0  0  0  0  0  0  0  0  0
    7.7404    1.2288    0.0000 C   0  0  0  0  0  0  0  0  0
    9.8838   -0.0087    0.0000 C   0  0  0  0  0  0  0  0  0
    9.8838   -0.8337    0.0000 C   0  0  0  0  0  0  0  0  0
    9.1693   -1.2462    0.0000 C   0  0  0  0  0  0  0  0  0
    8.4548   -0.8337    0.0000 C   0  0  0  0  0  0  0  0  0
    0.5957   -2.0712    0.0000 C   0  0  0  0  0  0  0  0  0
   -0.1188   -2.4837    0.0000 C   0  0  0  0  0  0  0  0  0
   -0.8333   -2.0712    0.0000 C   0  0  0  0  0  0  0  0  0
   -0.8333   -1.2462    0.0000 C   0  0  0  0  0  0  0  0  0
   -1.5478   -0.8337    0.0000 Cl  0  0  0  0  0  0  0  0  0
  1  2  1  0  0  0  0
  2  3  4  0  0  0  0
  2 30  4  0  0  0  0
  3  4  1  0  0  0  0
  3 27  4  0  0  0  0
  4  5  1  0  0  0  0
  4  9  1  0  0  0  0
  5  6  1  0  0  0  0
  6  7  1  0  0  0  0
  7  8  1  0  0  0  0
  7 10  1  0  0  0  0
  8  9  1  0  0  0  0
 10 11  1  0  0  0  0
 11 12  1  0  0  0  0
 12 13  1  0  0  0  0
 13 14  1  0  0  0  0
 14 15  1  0  0  0  0
 15 16  2  0  0  0  0
 15 17  1  0  0  0  0
 17 18  4  0  0  0  0
 17 22  4  0  0  0  0
 18 19  4  0  0  0  0
 18 26  4  0  0  0  0
 19 20  4  0  0  0  0
 19 23  4  0  0  0  0
 20 21  4  0  0  0  0
 21 22  4  0  0  0  0
 23 24  4  0  0  0  0
 24 25  4  0  0  0  0
 25 26  4  0  0  0  0
 27 28  4  0  0  0  0
 28 29  4  0  0  0  0
 29 30  4  0  0  0  0
 30 31  1  0  0  0  0
M  END
>  <Name_Molregno>
331655

>  <DOPAMINE D3>
8.16

$$$$
331668
  Marvin  02231216192D 0   1.00000     0.00000     0

 33 36  0  0  0  0  0  0  0  0999 V2000
  -10.0001    0.3660    0.0000 O   0  0  0  0  0  0  0  0  0
  -10.7146   -0.0465    0.0000 C   0  0  0  0  0  0  0  0  0
  -10.0001    1.1910    0.0000 C   0  0  0  0  0  0  0  0  0
  -10.7146    1.6035    0.0000 C   0  0  0  0  0  0  0  0  0
  -10.7146    2.4285    0.0000 C   0  0  0  0  0  0  0  0  0
  -10.0001    2.8410    0.0000 C   0  0  0  0  0  0  0  0  0
   -9.2857    2.4285    0.0000 C   0  0  0  0  0  0  0  0  0
   -9.2857    1.6035    0.0000 C   0  0  0  0  0  0  0  0  0
   -8.5712    1.1910    0.0000 N   0  0  0  0  0  0  0  0  0
   -7.8567    1.6035    0.0000 C   0  0  0  0  0  0  0  0  0
   -7.1423    1.1910    0.0000 C   0  0  0  0  0  0  0  0  0
   -7.1423    0.3660    0.0000 N   0  0  0  0  0  0  0  0  0
   -7.8567   -0.0465    0.0000 C   0  0  0  0  0  0  0  0  0
   -8.5712    0.3660    0.0000 C   0  0  0  0  0  0  0  0  0
   -6.4278   -0.0465    0.0000 C   0  0  0  0  0  0  0  0  0
   -5.7133    0.3660    0.0000 C   0  0  0  0  0  0  0  0  0
   -4.9988   -0.0465    0.0000 C   0  0  0  0  0  0  0  0  0
   -4.2844    0.3660    0.0000 C   0  0  0  0  0  0  0  0  0
   -3.5699   -0.0465    0.0000 N   0  0  0  0  0  0  0  0  0
   -2.8554    0.3660    0.0000 C   0  0  0  0  0  0  0  0  0
   -2.8554    1.1910    0.0000 O   0  0  0  0  0  0  0  0  0
   -2.1410   -0.0465    0.0000 C   0  0  0  0  0  0  0  0  0
   -1.4265    0.3660    0.0000 C   0  0  0  0  0  0  0  0  0
   -0.7120   -0.0465    0.0000 C   0  0  0  0  0  0  0  0  0
   -0.7120   -0.8715    0.0000 C   0  0  0  0  0  0  0  0  0
   -1.4265   -1.2840    0.0000 C   0  0  0  0  0  0  0  0  0
   -2.1410   -0.8715    0.0000 C   0  0  0  0  0  0  0  0  0
    0.0024   -1.2840    0.0000 C   0  0  0  0  0  0  0  0  0
    0.7169   -0.8715    0.0000 C   0  0  0  0  0  0  0  0  0
    1.4314   -1.2840    0.0000 C   0  0  0  0  0  0  0  0  0
    1.4314   -2.1090    0.0000 C   0  0  0  0  0  0  0  0  0
    0.7169   -2.5215    0.0000 C   0  0  0  0  0  0  0  0  0
    0.0024   -2.1090    0.0000 C   0  0  0  0  0  0  0  0  0
  1  2  1  0  0  0  0
  1  3  1  0  0  0  0
  3  4  4  0  0  0  0
  3  8  4  0  0  0  0
  4  5  4  0  0  0  0
  5  6  4  0  0  0  0
  6  7  4  0  0  0  0
  7  8  4  0  0  0  0
  8  9  1  0  0  0  0
  9 10  1  0  0  0  0
  9 14  1  0  0  0  0
 10 11  1  0  0  0  0
 11 12  1  0  0  0  0
 12 13  1  0  0  0  0
 12 15  1  0  0  0  0
 13 14  1  0  0  0  0
 15 16  1  0  0  0  0
 16 17  1  0  0  0  0
 17 18  1  0  0  0  0
 18 19  1  0  0  0  0
 19 20  1  0  0  0  0
 20 21  2  0  0  0  0
 20 22  1  0  0  0  0
 22 23  1  0  0  0  0
 22 27  1  0  0  0  0
 23 24  1  0  0  0  0
 24 25  1  0  0  0  0
 25 26  1  0  0  0  0
 25 28  1  0  0  0  0
 26 27  1  0  0  0  0
 28 29  4  0  0  0  0
 28 33  4  0  0  0  0
 29 30  4  0  0  0  0
 30 31  4  0  0  0  0
 31 32  4  0  0  0  0
 32 33  4  0  0  0  0
M  END
>  <Name_Molregno>
331668

>  <DOPAMINE D3>
8.08

$$$$
333436
  Marvin  02231216192D 0   1.00000     0.00000     0

 33 38  0  0  0  0  0  0  0  0999 V2000
   -3.7150   -5.1498    0.0000 S   0  0  0  0  0  0  0  0  0
   -2.8945   -5.2360    0.0000 C   0  0  0  0  0  0  0  0  0
   -2.5589   -4.4823    0.0000 C   0  0  0  0  0  0  0  0  0
   -3.1720   -3.9303    0.0000 C   0  0  0  0  0  0  0  0  0
   -3.8865   -4.3428    0.0000 C   0  0  0  0  0  0  0  0  0
   -4.6010   -3.9303    0.0000 N   0  0  0  0  0  0  0  0  0
   -4.6010   -3.1053    0.0000 C   0  0  0  0  0  0  0  0  0
   -3.8865   -2.6928    0.0000 N   0  0  0  0  0  0  0  0  0
   -3.8865   -1.8678    0.0000 C   0  0  0  0  0  0  0  0  0
   -4.6010   -1.4553    0.0000 C   0  0  0  0  0  0  0  0  0
   -4.6010   -0.6303    0.0000 N   0  0  0  0  0  0  0  0  0
   -5.3154   -0.2178    0.0000 C   0  0  0  0  0  0  0  0  0
   -5.3154    0.6072    0.0000 C   0  0  0  0  0  0  0  0  0
   -4.6010    1.0197    0.0000 N   0  0  0  0  0  0  0  0  0
   -3.8865    0.6072    0.0000 C   0  0  0  0  0  0  0  0  0
   -3.8865   -0.2178    0.0000 C   0  0  0  0  0  0  0  0  0
   -4.6010    1.8447    0.0000 C   0  0  0  0  0  0  0  0  0
   -3.8865    2.2572    0.0000 C   0  0  0  0  0  0  0  0  0
   -3.8865    3.0822    0.0000 C   0  0  0  0  0  0  0  0  0
   -4.6010    3.4947    0.0000 N   0  0  0  0  0  0  0  0  0
   -5.3154    3.0822    0.0000 C   0  0  0  0  0  0  0  0  0
   -5.3154    2.2572    0.0000 C   0  0  0  0  0  0  0  0  0
   -3.1720    3.4947    0.0000 C   0  0  0  0  0  0  0  0  0
   -2.4576    3.0822    0.0000 C   0  0  0  0  0  0  0  0  0
   -2.4576    2.2572    0.0000 C   0  0  0  0  0  0  0  0  0
   -3.1720    1.8447    0.0000 C   0  0  0  0  0  0  0  0  0
   -3.1720   -3.1053    0.0000 C   0  0  0  0  0  0  0  0  0
   -2.4576   -2.6928    0.0000 O   0  0  0  0  0  0  0  0  0
   -1.7385   -4.3961    0.0000 C   0  0  0  0  0  0  0  0  0
   -1.2535   -5.0635    0.0000 C   0  0  0  0  0  0  0  0  0
   -1.5891   -5.8172    0.0000 N   0  0  0  0  0  0  0  0  0
   -2.4096   -5.9034    0.0000 C   0  0  0  0  0  0  0  0  0
   -1.1042   -6.4846    0.0000 C   0  0  0  0  0  0  0  0  0
  1  2  4  0  0  0  0
  1  5  4  0  0  0  0
  2  3  4  0  0  0  0
  2 32  1  0  0  0  0
  3  4  4  0  0  0  0
  3 29  1  0  0  0  0
  4  5  4  0  0  0  0
  4 27  1  0  0  0  0
  5  6  1  0  0  0  0
  6  7  2  0  0  0  0
  7  8  1  0  0  0  0
  8  9  1  0  0  0  0
  8 27  1  0  0  0  0
  9 10  1  0  0  0  0
 10 11  1  0  0  0  0
 11 12  1  0  0  0  0
 11 16  1  0  0  0  0
 12 13  1  0  0  0  0
 13 14  1  0  0  0  0
 14 15  1  0  0  0  0
 14 17  1  0  0  0  0
 15 16  1  0  0  0  0
 17 18  4  0  0  0  0
 17 22  4  0  0  0  0
 18 19  4  0  0  0  0
 18 26  4  0  0  0  0
 19 20  4  0  0  0  0
 19 23  4  0  0  0  0
 20 21  4  0  0  0  0
 21 22  4  0  0  0  0
 23 24  4  0  0  0  0
 24 25  4  0  0  0  0
 25 26  4  0  0  0  0
 27 28  2  0  0  0  0
 29 30  1  0  0  0  0
 30 31  1  0  0  0  0
 31 32  1  0  0  0  0
 31 33  1  0  0  0  0
M  STY  1   1 DAT
M  SAL   1  1  20
M  SDT   1 MRV_IMPLICIT_H                                        
M  SDD   1     0.0000    0.0000    DR    ALL  0       0  
M  SED   1 IMPL_H1
M  END
>  <Name_Molregno>
333436

>  <5-HT1A>
8.19

>  <5-HT1B>
8.01

>  <5-HT2A>
8.92

>  <5-HT2C>
8.26

>  <5-HT5>
9

>  <DOPAMINE D3>
8.89

$$$$
333574
  Marvin  02231216192D 0   1.00000     0.00000     0

 33 38  0  0  0  0  0  0  0  0999 V2000
   -3.7150   -5.1498    0.0000 S   0  0  0  0  0  0  0  0  0
   -2.8945   -5.2360    0.0000 C   0  0  0  0  0  0  0  0  0
   -2.5589   -4.4823    0.0000 C   0  0  0  0  0  0  0  0  0
   -3.1720   -3.9303    0.0000 C   0  0  0  0  0  0  0  0  0
   -3.8865   -4.3428    0.0000 C   0  0  0  0  0  0  0  0  0
   -4.6010   -3.9303    0.0000 N   0  0  0  0  0  0  0  0  0
   -4.6010   -3.1053    0.0000 C   0  0  0  0  0  0  0  0  0
   -3.8865   -2.6928    0.0000 N   0  0  0  0  0  0  0  0  0
   -3.8865   -1.8678    0.0000 C   0  0  0  0  0  0  0  0  0
   -4.6010   -1.4553    0.0000 C   0  0  0  0  0  0  0  0  0
   -4.6010   -0.6303    0.0000 N   0  0  0  0  0  0  0  0  0
   -5.3154   -0.2178    0.0000 C   0  0  0  0  0  0  0  0  0
   -5.3154    0.6072    0.0000 C   0  0  0  0  0  0  0  0  0
   -4.6010    1.0197    0.0000 N   0  0  0  0  0  0  0  0  0
   -3.8865    0.6072    0.0000 C   0  0  0  0  0  0  0  0  0
   -3.8865   -0.2178    0.0000 C   0  0  0  0  0  0  0  0  0
   -4.6010    1.8447    0.0000 C   0  0  0  0  0  0  0  0  0
   -3.8865    2.2572    0.0000 C   0  0  0  0  0  0  0  0  0
   -3.8865    3.0822    0.0000 C   0  0  0  0  0  0  0  0  0
   -3.1720    3.4947    0.0000 C   0  0  0  0  0  0  0  0  0
   -2.4576    3.0822    0.0000 C   0  0  0  0  0  0  0  0  0
   -2.4576    2.2572    0.0000 C   0  0  0  0  0  0  0  0  0
   -3.1720    1.8447    0.0000 C   0  0  0  0  0  0  0  0  0
   -4.6010    3.4947    0.0000 C   0  0  0  0  0  0  0  0  0
   -5.3154    3.0822    0.0000 N   0  0  0  0  0  0  0  0  0
   -5.3154    2.2572    0.0000 C   0  0  0  0  0  0  0  0  0
   -3.1720   -3.1053    0.0000 C   0  0  0  0  0  0  0  0  0
   -2.4576   -2.6928    0.0000 O   0  0  0  0  0  0  0  0  0
   -1.7385   -4.3961    0.0000 C   0  0  0  0  0  0  0  0  0
   -1.2535   -5.0635    0.0000 C   0  0  0  0  0  0  0  0  0
   -1.5891   -5.8172    0.0000 N   0  0  0  0  0  0  0  0  0
   -2.4096   -5.9034    0.0000 C   0  0  0  0  0  0  0  0  0
   -1.1042   -6.4846    0.0000 C   0  0  0  0  0  0  0  0  0
  1  2  4  0  0  0  0
  1  5  4  0  0  0  0
  2  3  4  0  0  0  0
  2 32  1  0  0  0  0
  3  4  4  0  0  0  0
  3 29  1  0  0  0  0
  4  5  4  0  0  0  0
  4 27  1  0  0  0  0
  5  6  1  0  0  0  0
  6  7  2  0  0  0  0
  7  8  1  0  0  0  0
  8  9  1  0  0  0  0
  8 27  1  0  0  0  0
  9 10  1  0  0  0  0
 10 11  1  0  0  0  0
 11 12  1  0  0  0  0
 11 16  1  0  0  0  0
 12 13  1  0  0  0  0
 13 14  1  0  0  0  0
 14 15  1  0  0  0  0
 14 17  1  0  0  0  0
 15 16  1  0  0  0  0
 17 18  4  0  0  0  0
 17 26  4  0  0  0  0
 18 19  4  0  0  0  0
 18 23  4  0  0  0  0
 19 20  4  0  0  0  0
 19 24  4  0  0  0  0
 20 21  4  0  0  0  0
 21 22  4  0  0  0  0
 22 23  4  0  0  0  0
 24 25  4  0  0  0  0
 25 26  4  0  0  0  0
 27 28  2  0  0  0  0
 29 30  1  0  0  0  0
 30 31  1  0  0  0  0
 31 32  1  0  0  0  0
 31 33  1  0  0  0  0
M  END
>  <Name_Molregno>
333574

>  <5-HT1A>
8.33

>  <5-HT1B>
8.6

>  <5-HT2A>
6.74

>  <5-HT2C>
8

>  <5-HT5>
8

>  <DOPAMINE D3>
8.93

$$$$
335202
  Marvin  02231216192D 0   1.00000     0.00000     0

 31 34  0  0  0  0  0  0  0  0999 V2000
   -5.3316    5.4643    0.0000 O   0  0  0  0  0  0  0  0  0
   -6.0461    5.8768    0.0000 C   0  0  0  0  0  0  0  0  0
   -4.6172    5.8768    0.0000 C   0  0  0  0  0  0  0  0  0
   -3.9027    5.4643    0.0000 C   0  0  0  0  0  0  0  0  0
   -3.1882    5.8768    0.0000 C   0  0  0  0  0  0  0  0  0
   -3.1882    6.7018    0.0000 C   0  0  0  0  0  0  0  0  0
   -3.9027    7.1143    0.0000 C   0  0  0  0  0  0  0  0  0
   -4.6172    6.7018    0.0000 C   0  0  0  0  0  0  0  0  0
   -2.4737    7.1143    0.0000 C   0  0  0  0  0  0  0  0  0
   -1.7593    6.7018    0.0000 C   0  0  0  0  0  0  0  0  0
   -1.7593    5.8768    0.0000 C   0  0  0  0  0  0  0  0  0
   -2.4737    5.4643    0.0000 C   0  0  0  0  0  0  0  0  0
   -2.4737    4.6393    0.0000 N   0  0  0  0  0  0  0  0  0
   -1.7593    4.2268    0.0000 C   0  0  0  0  0  0  0  0  0
   -1.7593    3.4018    0.0000 C   0  0  0  0  0  0  0  0  0
   -2.4737    2.9893    0.0000 N   0  0  0  0  0  0  0  0  0
   -3.1882    3.4018    0.0000 C   0  0  0  0  0  0  0  0  0
   -3.1882    4.2268    0.0000 C   0  0  0  0  0  0  0  0  0
   -2.4737    2.1643    0.0000 C   0  0  0  0  0  0  0  0  0
   -1.7593    1.7518    0.0000 C   0  0  0  0  0  0  0  0  0
   -1.7593    0.9268    0.0000 C   0  0  0  0  0  0  0  0  0
   -1.0448    0.5143    0.0000 C   0  0  0  0  0  0  0  0  0
   -1.0448   -0.3107    0.0000 N   0  0  0  0  0  0  0  0  0
   -0.3303   -0.7232    0.0000 N   0  0  0  0  0  0  0  0  0
   -0.3303   -1.5482    0.0000 C   0  0  0  0  0  0  0  0  0
   -1.0448   -1.9607    0.0000 C   0  0  0  0  0  0  0  0  0
   -1.0448   -2.7857    0.0000 O   0  0  0  0  0  0  0  0  0
   -1.7593   -1.5482    0.0000 N   0  0  0  0  0  0  0  0  0
   -2.4737   -1.9607    0.0000 C   0  0  0  0  0  0  0  0  0
   -1.7593   -0.7232    0.0000 C   0  0  0  0  0  0  0  0  0
   -2.4737   -0.3107    0.0000 O   0  0  0  0  0  0  0  0  0
  1  2  1  0  0  0  0
  1  3  1  0  0  0  0
  3  4  4  0  0  0  0
  3  8  4  0  0  0  0
  4  5  4  0  0  0  0
  5  6  4  0  0  0  0
  5 12  4  0  0  0  0
  6  7  4  0  0  0  0
  6  9  4  0  0  0  0
  7  8  4  0  0  0  0
  9 10  4  0  0  0  0
 10 11  4  0  0  0  0
 11 12  4  0  0  0  0
 12 13  1  0  0  0  0
 13 14  1  0  0  0  0
 13 18  1  0  0  0  0
 14 15  1  0  0  0  0
 15 16  1  0  0  0  0
 16 17  1  0  0  0  0
 16 19  1  0  0  0  0
 17 18  1  0  0  0  0
 19 20  1  0  0  0  0
 20 21  1  0  0  0  0
 21 22  1  0  0  0  0
 22 23  1  0  0  0  0
 23 24  1  0  0  0  0
 23 30  1  0  0  0  0
 24 25  2  0  0  0  0
 25 26  1  0  0  0  0
 26 27  2  0  0  0  0
 26 28  1  0  0  0  0
 28 29  1  0  0  0  0
 28 30  1  0  0  0  0
 30 31  2  0  0  0  0
M  END
>  <Name_Molregno>
335202

>  <5-HT1A>
8.87

>  <5-HT2A>
7.38

>  <5-HT2C>
7

>  <5-HT3>
5

>  <5-HT5>
6.64

>  <5-HT6>
6.92

>  <5-HT7>
8.04

>  <Alpha-2A>
5.99

>  <Alpha-2B>
6.5

>  <Alpha-2C>
7.63

>  <Beta-1>
6.32

>  <Beta-2>
7.22

>  <DOPAMINE D1>
5.13

>  <DOPAMINE D2>
7.66

>  <DOPAMINE D3>
7.2

>  <DOPAMINE D4>
8.07

>  <DOPAMINE D5>
5

>  <Dopamine transporter>
6.39

>  <HISTAMINE H1>
6.82

>  <HISTAMINE H2>
6.52

>  <HISTAMINE H3>
5

>  <HISTAMINE H4>
5

>  <Norepinephrine transporter>
5.16

>  <Serotonin transporter>
5.21

$$$$
335439
  Marvin  02231216192D 0   1.00000     0.00000     0

 35 39  0  0  0  0  0  0  0  0999 V2000
   -0.1046    0.1074    0.0000 O   0  0  0  0  0  0  0  0  0
   -0.6567   -0.5057    0.0000 C   0  0  0  0  0  0  0  0  0
   -0.2442   -1.2202    0.0000 C   0  0  0  0  0  0  0  0  0
    0.5628   -1.0486    0.0000 C   0  0  0  0  0  0  0  0  0
    0.6490   -0.2282    0.0000 C   0  0  0  0  0  0  0  0  0
    1.3635    0.1843    0.0000 C   0  0  0  0  0  0  0  0  0
    1.3635    1.0093    0.0000 O   0  0  0  0  0  0  0  0  0
    2.0780   -0.2282    0.0000 N   0  0  0  0  0  0  0  0  0
    2.7924    0.1843    0.0000 C   0  0  0  0  0  0  0  0  0
    3.5069   -0.2282    0.0000 C   0  0  0  0  0  0  0  0  0
    4.2214    0.1843    0.0000 C   0  0  0  0  0  0  0  0  0
    4.9359   -0.2282    0.0000 C   0  0  0  0  0  0  0  0  0
    5.6503    0.1843    0.0000 N   0  0  0  0  0  0  0  0  0
    5.6503    1.0093    0.0000 C   0  0  0  0  0  0  0  0  0
    6.3648    1.4218    0.0000 C   0  0  0  0  0  0  0  0  0
    7.0793    1.0093    0.0000 N   0  0  0  0  0  0  0  0  0
    7.0793    0.1843    0.0000 C   0  0  0  0  0  0  0  0  0
    6.3648   -0.2282    0.0000 C   0  0  0  0  0  0  0  0  0
    7.7937    1.4218    0.0000 C   0  0  0  0  0  0  0  0  0
    8.5474    1.0863    0.0000 O   0  0  0  0  0  0  0  0  0
    9.0995    1.6994    0.0000 C   0  0  0  0  0  0  0  0  0
    8.6870    2.4138    0.0000 C   0  0  0  0  0  0  0  0  0
    7.8800    2.2423    0.0000 N   0  0  0  0  0  0  0  0  0
    9.0995    3.1283    0.0000 C   0  0  0  0  0  0  0  0  0
    9.9245    3.1283    0.0000 C   0  0  0  0  0  0  0  0  0
   10.3370    3.8428    0.0000 O   0  0  0  0  0  0  0  0  0
   11.1620    3.8428    0.0000 C   0  0  0  0  0  0  0  0  0
   10.3370    2.4138    0.0000 C   0  0  0  0  0  0  0  0  0
    9.9245    1.6994    0.0000 C   0  0  0  0  0  0  0  0  0
   -0.6567   -1.9346    0.0000 C   0  0  0  0  0  0  0  0  0
   -1.4817   -1.9346    0.0000 C   0  0  0  0  0  0  0  0  0
   -1.8942   -1.2202    0.0000 C   0  0  0  0  0  0  0  0  0
   -1.4817   -0.5057    0.0000 C   0  0  0  0  0  0  0  0  0
   -1.8942    0.2088    0.0000 O   0  0  0  0  0  0  0  0  0
   -2.7192    0.2088    0.0000 C   0  0  0  0  0  0  0  0  0
  1  2  4  0  0  0  0
  1  5  4  0  0  0  0
  2  3  4  0  0  0  0
  2 33  4  0  0  0  0
  3  4  4  0  0  0  0
  3 30  4  0  0  0  0
  4  5  4  0  0  0  0
  5  6  1  0  0  0  0
  6  7  2  0  0  0  0
  6  8  1  0  0  0  0
  8  9  1  0  0  0  0
  9 10  1  0  0  0  0
 10 11  1  0  0  0  0
 11 12  1  0  0  0  0
 12 13  1  0  0  0  0
 13 14  1  0  0  0  0
 13 18  1  0  0  0  0
 14 15  1  0  0  0  0
 15 16  1  0  0  0  0
 16 17  1  0  0  0  0
 16 19  1  0  0  0  0
 17 18  1  0  0  0  0
 19 20  4  0  0  0  0
 19 23  4  0  0  0  0
 20 21  4  0  0  0  0
 21 22  4  0  0  0  0
 21 29  4  0  0  0  0
 22 23  4  0  0  0  0
 22 24  4  0  0  0  0
 24 25  4  0  0  0  0
 25 26  1  0  0  0  0
 25 28  4  0  0  0  0
 26 27  1  0  0  0  0
 28 29  4  0  0  0  0
 30 31  4  0  0  0  0
 31 32  4  0  0  0  0
 32 33  4  0  0  0  0
 33 34  1  0  0  0  0
 34 35  1  0  0  0  0
M  END
>  <Name_Molregno>
335439

>  <DOPAMINE D2>
6.12

>  <DOPAMINE D3>
5.07

$$$$
335445
  Marvin  02231216192D 0   1.00000     0.00000     0

 33 37  0  0  0  0  0  0  0  0999 V2000
   -0.1431    0.2871    0.0000 O   0  0  0  0  0  0  0  0  0
   -0.6952   -0.3259    0.0000 C   0  0  0  0  0  0  0  0  0
   -0.2827   -1.0404    0.0000 C   0  0  0  0  0  0  0  0  0
    0.5243   -0.8689    0.0000 C   0  0  0  0  0  0  0  0  0
    0.6105   -0.0484    0.0000 C   0  0  0  0  0  0  0  0  0
    1.3250    0.3641    0.0000 C   0  0  0  0  0  0  0  0  0
    1.3250    1.1891    0.0000 O   0  0  0  0  0  0  0  0  0
    2.0395   -0.0484    0.0000 N   0  0  0  0  0  0  0  0  0
    2.7539    0.3641    0.0000 C   0  0  0  0  0  0  0  0  0
    3.4684   -0.0484    0.0000 C   0  0  0  0  0  0  0  0  0
    4.1829    0.3641    0.0000 C   0  0  0  0  0  0  0  0  0
    4.8974   -0.0484    0.0000 C   0  0  0  0  0  0  0  0  0
    5.6118    0.3641    0.0000 N   0  0  0  0  0  0  0  0  0
    5.6118    1.1891    0.0000 C   0  0  0  0  0  0  0  0  0
    6.3263    1.6016    0.0000 C   0  0  0  0  0  0  0  0  0
    7.0408    1.1891    0.0000 N   0  0  0  0  0  0  0  0  0
    7.0408    0.3641    0.0000 C   0  0  0  0  0  0  0  0  0
    6.3263   -0.0484    0.0000 C   0  0  0  0  0  0  0  0  0
    7.7552    1.6016    0.0000 C   0  0  0  0  0  0  0  0  0
    8.5089    1.2660    0.0000 N   0  0  0  0  0  0  0  0  0
    9.0610    1.8791    0.0000 C   0  0  0  0  0  0  0  0  0
    8.6485    2.5936    0.0000 C   0  0  0  0  0  0  0  0  0
    7.8415    2.4221    0.0000 N   0  0  0  0  0  0  0  0  0
    9.0610    3.3081    0.0000 C   0  0  0  0  0  0  0  0  0
    9.8860    3.3081    0.0000 C   0  0  0  0  0  0  0  0  0
   10.2985    2.5936    0.0000 C   0  0  0  0  0  0  0  0  0
    9.8860    1.8791    0.0000 C   0  0  0  0  0  0  0  0  0
   -0.6952   -1.7549    0.0000 C   0  0  0  0  0  0  0  0  0
   -1.5202   -1.7549    0.0000 C   0  0  0  0  0  0  0  0  0
   -1.9327   -1.0404    0.0000 C   0  0  0  0  0  0  0  0  0
   -1.5202   -0.3259    0.0000 C   0  0  0  0  0  0  0  0  0
   -1.9327    0.3885    0.0000 O   0  0  0  0  0  0  0  0  0
   -2.7577    0.3885    0.0000 C   0  0  0  0  0  0  0  0  0
  1  2  4  0  0  0  0
  1  5  4  0  0  0  0
  2  3  4  0  0  0  0
  2 31  4  0  0  0  0
  3  4  4  0  0  0  0
  3 28  4  0  0  0  0
  4  5  4  0  0  0  0
  5  6  1  0  0  0  0
  6  7  2  0  0  0  0
  6  8  1  0  0  0  0
  8  9  1  0  0  0  0
  9 10  1  0  0  0  0
 10 11  1  0  0  0  0
 11 12  1  0  0  0  0
 12 13  1  0  0  0  0
 13 14  1  0  0  0  0
 13 18  1  0  0  0  0
 14 15  1  0  0  0  0
 15 16  1  0  0  0  0
 16 17  1  0  0  0  0
 16 19  1  0  0  0  0
 17 18  1  0  0  0  0
 19 20  4  0  0  0  0
 19 23  4  0  0  0  0
 20 21  4  0  0  0  0
 21 22  4  0  0  0  0
 21 27  4  0  0  0  0
 22 23  4  0  0  0  0
 22 24  4  0  0  0  0
 24 25  4  0  0  0  0
 25 26  4  0  0  0  0
 26 27  4  0  0  0  0
 28 29  4  0  0  0  0
 29 30  4  0  0  0  0
 30 31  4  0  0  0  0
 31 32  1  0  0  0  0
 32 33  1  0  0  0  0
M  STY  1   1 DAT
M  SAL   1  1  20
M  SDT   1 MRV_IMPLICIT_H                                        
M  SDD   1     0.0000    0.0000    DR    ALL  0       0  
M  SED   1 IMPL_H1
M  END
>  <Name_Molregno>
335445

>  <DOPAMINE D2>
6.12

>  <DOPAMINE D3>
5.07

$$$$
335488
  Marvin  02231216192D 0   1.00000     0.00000     0

 35 39  0  0  0  0  0  0  0  0999 V2000
    0.2428   -0.6811    0.0000 O   0  0  0  0  0  0  0  0  0
   -0.3092   -1.2942    0.0000 C   0  0  0  0  0  0  0  0  0
    0.1033   -2.0087    0.0000 C   0  0  0  0  0  0  0  0  0
    0.9103   -1.8371    0.0000 C   0  0  0  0  0  0  0  0  0
    0.9965   -1.0167    0.0000 C   0  0  0  0  0  0  0  0  0
    1.7110   -0.6042    0.0000 C   0  0  0  0  0  0  0  0  0
    1.7110    0.2208    0.0000 O   0  0  0  0  0  0  0  0  0
    2.4254   -1.0167    0.0000 N   0  0  0  0  0  0  0  0  0
    3.1399   -0.6042    0.0000 C   0  0  0  0  0  0  0  0  0
    3.8544   -1.0167    0.0000 C   0  0  0  0  0  0  0  0  0
    4.5689   -0.6042    0.0000 C   0  0  0  0  0  0  0  0  0
    5.2833   -1.0167    0.0000 C   0  0  0  0  0  0  0  0  0
    5.9978   -0.6042    0.0000 N   0  0  0  0  0  0  0  0  0
    5.9978    0.2208    0.0000 C   0  0  0  0  0  0  0  0  0
    6.7123    0.6333    0.0000 C   0  0  0  0  0  0  0  0  0
    7.4267    0.2208    0.0000 N   0  0  0  0  0  0  0  0  0
    7.4267   -0.6042    0.0000 C   0  0  0  0  0  0  0  0  0
    6.7123   -1.0167    0.0000 C   0  0  0  0  0  0  0  0  0
    8.1412    0.6333    0.0000 C   0  0  0  0  0  0  0  0  0
    8.8949    0.2978    0.0000 N   0  0  0  0  0  0  0  0  0
    9.4469    0.9109    0.0000 O   0  0  0  0  0  0  0  0  0
    9.0344    1.6253    0.0000 C   0  0  0  0  0  0  0  0  0
    8.2275    1.4538    0.0000 C   0  0  0  0  0  0  0  0  0
    7.6754    2.0669    0.0000 C   0  0  0  0  0  0  0  0  0
    7.9304    2.8515    0.0000 C   0  0  0  0  0  0  0  0  0
    7.3783    3.4646    0.0000 O   0  0  0  0  0  0  0  0  0
    7.6333    4.2492    0.0000 C   0  0  0  0  0  0  0  0  0
    8.7373    3.0231    0.0000 C   0  0  0  0  0  0  0  0  0
    9.2894    2.4100    0.0000 C   0  0  0  0  0  0  0  0  0
   -0.3092   -2.7231    0.0000 C   0  0  0  0  0  0  0  0  0
   -1.1342   -2.7231    0.0000 C   0  0  0  0  0  0  0  0  0
   -1.5467   -2.0087    0.0000 C   0  0  0  0  0  0  0  0  0
   -1.1342   -1.2942    0.0000 C   0  0  0  0  0  0  0  0  0
   -1.5467   -0.5797    0.0000 O   0  0  0  0  0  0  0  0  0
   -2.3717   -0.5797    0.0000 C   0  0  0  0  0  0  0  0  0
  1  2  4  0  0  0  0
  1  5  4  0  0  0  0
  2  3  4  0  0  0  0
  2 33  4  0  0  0  0
  3  4  4  0  0  0  0
  3 30  4  0  0  0  0
  4  5  4  0  0  0  0
  5  6  1  0  0  0  0
  6  7  2  0  0  0  0
  6  8  1  0  0  0  0
  8  9  1  0  0  0  0
  9 10  1  0  0  0  0
 10 11  1  0  0  0  0
 11 12  1  0  0  0  0
 12 13  1  0  0  0  0
 13 14  1  0  0  0  0
 13 18  1  0  0  0  0
 14 15  1  0  0  0  0
 15 16  1  0  0  0  0
 16 17  1  0  0  0  0
 16 19  1  0  0  0  0
 17 18  1  0  0  0  0
 19 20  4  0  0  0  0
 19 23  4  0  0  0  0
 20 21  4  0  0  0  0
 21 22  4  0  0  0  0
 22 23  4  0  0  0  0
 22 29  4  0  0  0  0
 23 24  4  0  0  0  0
 24 25  4  0  0  0  0
 25 26  1  0  0  0  0
 25 28  4  0  0  0  0
 26 27  1  0  0  0  0
 28 29  4  0  0  0  0
 30 31  4  0  0  0  0
 31 32  4  0  0  0  0
 32 33  4  0  0  0  0
 33 34  1  0  0  0  0
 34 35  1  0  0  0  0
M  END
>  <Name_Molregno>
335488

>  <DOPAMINE D2>
6.12

>  <DOPAMINE D3>
7.01

$$$$
335723
  Marvin  02231216192D 0   1.00000     0.00000     0

 31 34  0  0  0  0  0  0  0  0999 V2000
   -0.1497    0.6055    0.0000 O   0  0  0  0  0  0  0  0  0
   -0.9566    0.7771    0.0000 C   0  0  0  0  0  0  0  0  0
   -1.0429    1.5975    0.0000 C   0  0  0  0  0  0  0  0  0
   -0.2892    1.9331    0.0000 C   0  0  0  0  0  0  0  0  0
    0.2628    1.3200    0.0000 C   0  0  0  0  0  0  0  0  0
    1.0833    1.4062    0.0000 C   0  0  0  0  0  0  0  0  0
    1.4958    2.1207    0.0000 N   0  0  0  0  0  0  0  0  0
    2.3028    1.9492    0.0000 N   0  0  0  0  0  0  0  0  0
    2.3890    1.1287    0.0000 C   0  0  0  0  0  0  0  0  0
    1.6354    0.7931    0.0000 C   0  0  0  0  0  0  0  0  0
    3.1035    0.7162    0.0000 C   0  0  0  0  0  0  0  0  0
    3.1035   -0.1088    0.0000 O   0  0  0  0  0  0  0  0  0
    3.8180    1.1287    0.0000 N   0  0  0  0  0  0  0  0  0
    4.5324    0.7162    0.0000 C   0  0  0  0  0  0  0  0  0
    5.2469    1.1287    0.0000 C   0  0  0  0  0  0  0  0  0
    5.9614    0.7162    0.0000 C   0  0  0  0  0  0  0  0  0
    6.6759    1.1287    0.0000 C   0  0  0  0  0  0  0  0  0
    7.3903    0.7162    0.0000 N   0  0  0  0  0  0  0  0  0
    8.1048    1.1287    0.0000 C   0  0  0  0  0  0  0  0  0
    8.8193    0.7162    0.0000 C   0  0  0  0  0  0  0  0  0
    8.8193   -0.1088    0.0000 N   0  0  0  0  0  0  0  0  0
    8.1048   -0.5213    0.0000 C   0  0  0  0  0  0  0  0  0
    7.3903   -0.1088    0.0000 C   0  0  0  0  0  0  0  0  0
    9.5337   -0.5213    0.0000 C   0  0  0  0  0  0  0  0  0
   10.2482   -0.1088    0.0000 C   0  0  0  0  0  0  0  0  0
   10.9627   -0.5213    0.0000 C   0  0  0  0  0  0  0  0  0
   10.9627   -1.3463    0.0000 C   0  0  0  0  0  0  0  0  0
   10.2482   -1.7588    0.0000 C   0  0  0  0  0  0  0  0  0
    9.5337   -1.3463    0.0000 C   0  0  0  0  0  0  0  0  0
    8.8193   -1.7588    0.0000 O   0  0  0  0  0  0  0  0  0
    8.8193   -2.5838    0.0000 C   0  0  0  0  0  0  0  0  0
  1  2  4  0  0  0  0
  1  5  4  0  0  0  0
  2  3  4  0  0  0  0
  3  4  4  0  0  0  0
  4  5  4  0  0  0  0
  5  6  1  0  0  0  0
  6  7  4  0  0  0  0
  6 10  4  0  0  0  0
  7  8  4  0  0  0  0
  8  9  4  0  0  0  0
  9 10  4  0  0  0  0
  9 11  1  0  0  0  0
 11 12  2  0  0  0  0
 11 13  1  0  0  0  0
 13 14  1  0  0  0  0
 14 15  1  0  0  0  0
 15 16  1  0  0  0  0
 16 17  1  0  0  0  0
 17 18  1  0  0  0  0
 18 19  1  0  0  0  0
 18 23  1  0  0  0  0
 19 20  1  0  0  0  0
 20 21  1  0  0  0  0
 21 22  1  0  0  0  0
 21 24  1  0  0  0  0
 22 23  1  0  0  0  0
 24 25  4  0  0  0  0
 24 29  4  0  0  0  0
 25 26  4  0  0  0  0
 26 27  4  0  0  0  0
 27 28  4  0  0  0  0
 28 29  4  0  0  0  0
 29 30  1  0  0  0  0
 30 31  1  0  0  0  0
M  STY  1   1 DAT
M  SAL   1  1   7
M  SDT   1 MRV_IMPLICIT_H                                        
M  SDD   1     0.0000    0.0000    DR    ALL  0       0  
M  SED   1 IMPL_H1
M  END
>  <Name_Molregno>
335723

>  <DOPAMINE D2>
6.89

>  <DOPAMINE D3>
7.71

$$$$
335762
  Marvin  02231216192D 0   1.00000     0.00000     0

 36 40  0  0  0  0  0  0  0  0999 V2000
   -0.1128   -1.3411    0.0000 O   0  0  0  0  0  0  0  0  0
    0.4392   -0.7280    0.0000 N   0  0  0  0  0  0  0  0  0
    1.1929   -1.0636    0.0000 C   0  0  0  0  0  0  0  0  0
    1.9074   -0.6511    0.0000 N   0  0  0  0  0  0  0  0  0
    1.9074    0.1739    0.0000 C   0  0  0  0  0  0  0  0  0
    2.6219    0.5864    0.0000 C   0  0  0  0  0  0  0  0  0
    3.3363    0.1739    0.0000 N   0  0  0  0  0  0  0  0  0
    3.3363   -0.6511    0.0000 C   0  0  0  0  0  0  0  0  0
    2.6219   -1.0636    0.0000 C   0  0  0  0  0  0  0  0  0
    4.0508    0.5864    0.0000 C   0  0  0  0  0  0  0  0  0
    4.7653    0.1739    0.0000 C   0  0  0  0  0  0  0  0  0
    5.4797    0.5864    0.0000 C   0  0  0  0  0  0  0  0  0
    6.1942    0.1739    0.0000 C   0  0  0  0  0  0  0  0  0
    6.9087    0.5864    0.0000 N   0  0  0  0  0  0  0  0  0
    7.6232    0.1739    0.0000 C   0  0  0  0  0  0  0  0  0
    7.6232   -0.6511    0.0000 O   0  0  0  0  0  0  0  0  0
    8.3376    0.5864    0.0000 C   0  0  0  0  0  0  0  0  0
    8.3376    1.4114    0.0000 C   0  0  0  0  0  0  0  0  0
    9.0521    1.8239    0.0000 C   0  0  0  0  0  0  0  0  0
    9.7666    1.4114    0.0000 C   0  0  0  0  0  0  0  0  0
    9.7666    0.5864    0.0000 C   0  0  0  0  0  0  0  0  0
    9.0521    0.1739    0.0000 C   0  0  0  0  0  0  0  0  0
    9.0521    2.6489    0.0000 C   0  0  0  0  0  0  0  0  0
    8.3376    3.0614    0.0000 N   0  0  0  0  0  0  0  0  0
    8.3376    3.8864    0.0000 C   0  0  0  0  0  0  0  0  0
    9.0521    4.2989    0.0000 C   0  0  0  0  0  0  0  0  0
    9.7666    3.8864    0.0000 C   0  0  0  0  0  0  0  0  0
    9.7666    3.0614    0.0000 N   0  0  0  0  0  0  0  0  0
    1.1067   -1.8840    0.0000 C   0  0  0  0  0  0  0  0  0
    1.6587   -2.4971    0.0000 C   0  0  0  0  0  0  0  0  0
    1.4038   -3.2818    0.0000 C   0  0  0  0  0  0  0  0  0
    1.9558   -3.8949    0.0000 O   0  0  0  0  0  0  0  0  0
    1.7009   -4.6795    0.0000 C   0  0  0  0  0  0  0  0  0
    0.5968   -3.4533    0.0000 C   0  0  0  0  0  0  0  0  0
    0.0448   -2.8402    0.0000 C   0  0  0  0  0  0  0  0  0
    0.2997   -2.0556    0.0000 C   0  0  0  0  0  0  0  0  0
  1  2  4  0  0  0  0
  1 36  4  0  0  0  0
  2  3  4  0  0  0  0
  3  4  1  0  0  0  0
  3 29  4  0  0  0  0
  4  5  1  0  0  0  0
  4  9  1  0  0  0  0
  5  6  1  0  0  0  0
  6  7  1  0  0  0  0
  7  8  1  0  0  0  0
  7 10  1  0  0  0  0
  8  9  1  0  0  0  0
 10 11  1  0  0  0  0
 11 12  1  0  0  0  0
 12 13  1  0  0  0  0
 13 14  1  0  0  0  0
 14 15  1  0  0  0  0
 15 16  2  0  0  0  0
 15 17  1  0  0  0  0
 17 18  4  0  0  0  0
 17 22  4  0  0  0  0
 18 19  4  0  0  0  0
 19 20  4  0  0  0  0
 19 23  1  0  0  0  0
 20 21  4  0  0  0  0
 21 22  4  0  0  0  0
 23 24  4  0  0  0  0
 23 28  4  0  0  0  0
 24 25  4  0  0  0  0
 25 26  4  0  0  0  0
 26 27  4  0  0  0  0
 27 28  4  0  0  0  0
 29 30  4  0  0  0  0
 29 36  4  0  0  0  0
 30 31  4  0  0  0  0
 31 32  1  0  0  0  0
 31 34  4  0  0  0  0
 32 33  1  0  0  0  0
 34 35  4  0  0  0  0
 35 36  4  0  0  0  0
M  END
>  <Name_Molregno>
335762

>  <DOPAMINE D2>
6

>  <DOPAMINE D3>
5.94

$$$$
335837
  Marvin  02231216192D 0   1.00000     0.00000     0

 35 39  0  0  0  0  0  0  0  0999 V2000
   -9.5157    1.3443    0.0000 O   0  0  0  0  0  0  0  0  0
  -10.2301    0.9318    0.0000 C   0  0  0  0  0  0  0  0  0
  -10.2301    0.1068    0.0000 C   0  0  0  0  0  0  0  0  0
   -9.5157   -0.3057    0.0000 C   0  0  0  0  0  0  0  0  0
   -8.8012    0.1068    0.0000 C   0  0  0  0  0  0  0  0  0
   -8.0867   -0.3057    0.0000 C   0  0  0  0  0  0  0  0  0
   -8.0867   -1.1307    0.0000 O   0  0  0  0  0  0  0  0  0
   -7.3723    0.1068    0.0000 N   0  0  0  0  0  0  0  0  0
   -6.6578   -0.3057    0.0000 C   0  0  0  0  0  0  0  0  0
   -5.9433    0.1068    0.0000 C   0  0  0  0  0  0  0  0  0
   -5.2289   -0.3057    0.0000 C   0  0  0  0  0  0  0  0  0
   -4.5144    0.1068    0.0000 C   0  0  0  0  0  0  0  0  0
   -3.7999   -0.3057    0.0000 N   0  0  0  0  0  0  0  0  0
   -3.0854    0.1068    0.0000 C   0  0  0  0  0  0  0  0  0
   -2.3710   -0.3057    0.0000 C   0  0  0  0  0  0  0  0  0
   -2.3710   -1.1307    0.0000 N   0  0  0  0  0  0  0  0  0
   -3.0854   -1.5432    0.0000 C   0  0  0  0  0  0  0  0  0
   -3.7999   -1.1307    0.0000 C   0  0  0  0  0  0  0  0  0
   -1.6565   -1.5432    0.0000 C   0  0  0  0  0  0  0  0  0
   -1.5703   -2.3637    0.0000 N   0  0  0  0  0  0  0  0  0
   -0.7633   -2.5352    0.0000 O   0  0  0  0  0  0  0  0  0
   -0.3508   -1.8208    0.0000 C   0  0  0  0  0  0  0  0  0
   -0.9028   -1.2077    0.0000 C   0  0  0  0  0  0  0  0  0
   -0.6479   -0.4231    0.0000 C   0  0  0  0  0  0  0  0  0
    0.1591   -0.2515    0.0000 C   0  0  0  0  0  0  0  0  0
    0.4140    0.5331    0.0000 O   0  0  0  0  0  0  0  0  0
    1.2210    0.7046    0.0000 C   0  0  0  0  0  0  0  0  0
    0.7111   -0.8646    0.0000 C   0  0  0  0  0  0  0  0  0
    0.4562   -1.6492    0.0000 C   0  0  0  0  0  0  0  0  0
   -8.8012    0.9318    0.0000 C   0  0  0  0  0  0  0  0  0
   -8.0867    1.3443    0.0000 O   0  0  0  0  0  0  0  0  0
  -10.9446   -0.3057    0.0000 C   0  0  0  0  0  0  0  0  0
  -11.6591    0.1068    0.0000 C   0  0  0  0  0  0  0  0  0
  -11.6591    0.9318    0.0000 C   0  0  0  0  0  0  0  0  0
  -10.9446    1.3443    0.0000 C   0  0  0  0  0  0  0  0  0
  1  2  1  0  0  0  0
  1 30  1  0  0  0  0
  2  3  4  0  0  0  0
  2 35  4  0  0  0  0
  3  4  1  0  0  0  0
  3 32  4  0  0  0  0
  4  5  2  0  0  0  0
  5  6  1  0  0  0  0
  5 30  1  0  0  0  0
  6  7  2  0  0  0  0
  6  8  1  0  0  0  0
  8  9  1  0  0  0  0
  9 10  1  0  0  0  0
 10 11  1  0  0  0  0
 11 12  1  0  0  0  0
 12 13  1  0  0  0  0
 13 14  1  0  0  0  0
 13 18  1  0  0  0  0
 14 15  1  0  0  0  0
 15 16  1  0  0  0  0
 16 17  1  0  0  0  0
 16 19  1  0  0  0  0
 17 18  1  0  0  0  0
 19 20  4  0  0  0  0
 19 23  4  0  0  0  0
 20 21  4  0  0  0  0
 21 22  4  0  0  0  0
 22 23  4  0  0  0  0
 22 29  4  0  0  0  0
 23 24  4  0  0  0  0
 24 25  4  0  0  0  0
 25 26  1  0  0  0  0
 25 28  4  0  0  0  0
 26 27  1  0  0  0  0
 28 29  4  0  0  0  0
 30 31  2  0  0  0  0
 32 33  4  0  0  0  0
 33 34  4  0  0  0  0
 34 35  4  0  0  0  0
M  END
>  <Name_Molregno>
335837

>  <DOPAMINE D2>
6.12

>  <DOPAMINE D3>
5.57

$$$$
335838
  Marvin  02231216192D 0   1.00000     0.00000     0

 34 38  0  0  0  0  0  0  0  0999 V2000
    0.1032   -0.6309    0.0000 O   0  0  0  0  0  0  0  0  0
   -0.4488   -1.2440    0.0000 C   0  0  0  0  0  0  0  0  0
   -0.0363   -1.9584    0.0000 C   0  0  0  0  0  0  0  0  0
    0.7706   -1.7869    0.0000 C   0  0  0  0  0  0  0  0  0
    0.8569   -0.9664    0.0000 C   0  0  0  0  0  0  0  0  0
    1.5714   -0.5539    0.0000 C   0  0  0  0  0  0  0  0  0
    1.5714    0.2711    0.0000 O   0  0  0  0  0  0  0  0  0
    2.2858   -0.9664    0.0000 N   0  0  0  0  0  0  0  0  0
    3.0003   -0.5539    0.0000 C   0  0  0  0  0  0  0  0  0
    3.7148   -0.9664    0.0000 C   0  0  0  0  0  0  0  0  0
    4.4292   -0.5539    0.0000 C   0  0  0  0  0  0  0  0  0
    5.1437   -0.9664    0.0000 C   0  0  0  0  0  0  0  0  0
    5.8582   -0.5539    0.0000 N   0  0  0  0  0  0  0  0  0
    5.8582    0.2711    0.0000 C   0  0  0  0  0  0  0  0  0
    6.5727    0.6836    0.0000 C   0  0  0  0  0  0  0  0  0
    7.2871    0.2711    0.0000 N   0  0  0  0  0  0  0  0  0
    7.2871   -0.5539    0.0000 C   0  0  0  0  0  0  0  0  0
    6.5727   -0.9664    0.0000 C   0  0  0  0  0  0  0  0  0
    8.0016    0.6836    0.0000 C   0  0  0  0  0  0  0  0  0
    8.0016    1.5086    0.0000 C   0  0  0  0  0  0  0  0  0
    7.2871    1.9211    0.0000 N   0  0  0  0  0  0  0  0  0
    7.2871    2.7461    0.0000 C   0  0  0  0  0  0  0  0  0
    8.0016    3.1586    0.0000 C   0  0  0  0  0  0  0  0  0
    8.7161    2.7461    0.0000 N   0  0  0  0  0  0  0  0  0
    8.7161    1.9211    0.0000 C   0  0  0  0  0  0  0  0  0
    9.4305    1.5086    0.0000 C   0  0  0  0  0  0  0  0  0
    9.4305    0.6836    0.0000 C   0  0  0  0  0  0  0  0  0
    8.7161    0.2711    0.0000 C   0  0  0  0  0  0  0  0  0
   -0.4488   -2.6729    0.0000 C   0  0  0  0  0  0  0  0  0
   -1.2738   -2.6729    0.0000 C   0  0  0  0  0  0  0  0  0
   -1.6863   -1.9584    0.0000 C   0  0  0  0  0  0  0  0  0
   -1.2738   -1.2440    0.0000 C   0  0  0  0  0  0  0  0  0
   -1.6863   -0.5295    0.0000 O   0  0  0  0  0  0  0  0  0
   -2.5113   -0.5295    0.0000 C   0  0  0  0  0  0  0  0  0
  1  2  4  0  0  0  0
  1  5  4  0  0  0  0
  2  3  4  0  0  0  0
  2 32  4  0  0  0  0
  3  4  4  0  0  0  0
  3 29  4  0  0  0  0
  4  5  4  0  0  0  0
  5  6  1  0  0  0  0
  6  7  2  0  0  0  0
  6  8  1  0  0  0  0
  8  9  1  0  0  0  0
  9 10  1  0  0  0  0
 10 11  1  0  0  0  0
 11 12  1  0  0  0  0
 12 13  1  0  0  0  0
 13 14  1  0  0  0  0
 13 18  1  0  0  0  0
 14 15  1  0  0  0  0
 15 16  1  0  0  0  0
 16 17  1  0  0  0  0
 16 19  1  0  0  0  0
 17 18  1  0  0  0  0
 19 20  4  0  0  0  0
 19 28  4  0  0  0  0
 20 21  4  0  0  0  0
 20 25  4  0  0  0  0
 21 22  4  0  0  0  0
 22 23  4  0  0  0  0
 23 24  4  0  0  0  0
 24 25  4  0  0  0  0
 25 26  4  0  0  0  0
 26 27  4  0  0  0  0
 27 28  4  0  0  0  0
 29 30  4  0  0  0  0
 30 31  4  0  0  0  0
 31 32  4  0  0  0  0
 32 33  1  0  0  0  0
 33 34  1  0  0  0  0
M  END
>  <Name_Molregno>
335838

>  <DOPAMINE D2>
5.9

>  <DOPAMINE D3>
6.58

$$$$
335839
  Marvin  02231216192D 0   1.00000     0.00000     0

 36 40  0  0  0  0  0  0  0  0999 V2000
    0.2619   -0.6990    0.0000 O   0  0  0  0  0  0  0  0  0
   -0.2901   -1.3121    0.0000 C   0  0  0  0  0  0  0  0  0
    0.1224   -2.0266    0.0000 C   0  0  0  0  0  0  0  0  0
    0.9294   -1.8550    0.0000 C   0  0  0  0  0  0  0  0  0
    1.0156   -1.0346    0.0000 C   0  0  0  0  0  0  0  0  0
    1.7301   -0.6221    0.0000 C   0  0  0  0  0  0  0  0  0
    1.7301    0.2029    0.0000 O   0  0  0  0  0  0  0  0  0
    2.4445   -1.0346    0.0000 N   0  0  0  0  0  0  0  0  0
    3.1590   -0.6221    0.0000 C   0  0  0  0  0  0  0  0  0
    3.8735   -1.0346    0.0000 C   0  0  0  0  0  0  0  0  0
    4.5879   -0.6221    0.0000 C   0  0  0  0  0  0  0  0  0
    5.3024   -1.0346    0.0000 C   0  0  0  0  0  0  0  0  0
    6.0169   -0.6221    0.0000 N   0  0  0  0  0  0  0  0  0
    6.0169    0.2029    0.0000 C   0  0  0  0  0  0  0  0  0
    6.7314    0.6154    0.0000 C   0  0  0  0  0  0  0  0  0
    7.4458    0.2029    0.0000 N   0  0  0  0  0  0  0  0  0
    7.4458   -0.6221    0.0000 C   0  0  0  0  0  0  0  0  0
    6.7314   -1.0346    0.0000 C   0  0  0  0  0  0  0  0  0
    8.1603    0.6154    0.0000 C   0  0  0  0  0  0  0  0  0
    8.8748    0.2029    0.0000 N   0  0  0  0  0  0  0  0  0
    9.5892    0.6154    0.0000 C   0  0  0  0  0  0  0  0  0
    9.5892    1.4404    0.0000 C   0  0  0  0  0  0  0  0  0
    8.8748    1.8529    0.0000 C   0  0  0  0  0  0  0  0  0
    8.1603    1.4404    0.0000 C   0  0  0  0  0  0  0  0  0
    7.4458    1.8529    0.0000 C   0  0  0  0  0  0  0  0  0
    7.4458    2.6779    0.0000 C   0  0  0  0  0  0  0  0  0
    6.7314    3.0904    0.0000 O   0  0  0  0  0  0  0  0  0
    6.7314    3.9154    0.0000 C   0  0  0  0  0  0  0  0  0
    8.1603    3.0904    0.0000 C   0  0  0  0  0  0  0  0  0
    8.8748    2.6779    0.0000 C   0  0  0  0  0  0  0  0  0
   -0.2901   -2.7410    0.0000 C   0  0  0  0  0  0  0  0  0
   -1.1151   -2.7410    0.0000 C   0  0  0  0  0  0  0  0  0
   -1.5276   -2.0266    0.0000 C   0  0  0  0  0  0  0  0  0
   -1.1151   -1.3121    0.0000 C   0  0  0  0  0  0  0  0  0
   -1.5276   -0.5976    0.0000 O   0  0  0  0  0  0  0  0  0
   -2.3526   -0.5976    0.0000 C   0  0  0  0  0  0  0  0  0
  1  2  4  0  0  0  0
  1  5  4  0  0  0  0
  2  3  4  0  0  0  0
  2 34  4  0  0  0  0
  3  4  4  0  0  0  0
  3 31  4  0  0  0  0
  4  5  4  0  0  0  0
  5  6  1  0  0  0  0
  6  7  2  0  0  0  0
  6  8  1  0  0  0  0
  8  9  1  0  0  0  0
  9 10  1  0  0  0  0
 10 11  1  0  0  0  0
 11 12  1  0  0  0  0
 12 13  1  0  0  0  0
 13 14  1  0  0  0  0
 13 18  1  0  0  0  0
 14 15  1  0  0  0  0
 15 16  1  0  0  0  0
 16 17  1  0  0  0  0
 16 19  1  0  0  0  0
 17 18  1  0  0  0  0
 19 20  4  0  0  0  0
 19 24  4  0  0  0  0
 20 21  4  0  0  0  0
 21 22  4  0  0  0  0
 22 23  4  0  0  0  0
 23 24  4  0  0  0  0
 23 30  4  0  0  0  0
 24 25  4  0  0  0  0
 25 26  4  0  0  0  0
 26 27  1  0  0  0  0
 26 29  4  0  0  0  0
 27 28  1  0  0  0  0
 29 30  4  0  0  0  0
 31 32  4  0  0  0  0
 32 33  4  0  0  0  0
 33 34  4  0  0  0  0
 34 35  1  0  0  0  0
 35 36  1  0  0  0  0
M  END
>  <Name_Molregno>
335839

>  <DOPAMINE D2>
6.28

>  <DOPAMINE D3>
6.99

$$$$
335845
  Marvin  02231216192D 0   1.00000     0.00000     0

 33 37  0  0  0  0  0  0  0  0999 V2000
   -9.1674   -0.5768    0.0000 O   0  0  0  0  0  0  0  0  0
   -8.6154    0.0363    0.0000 N   0  0  0  0  0  0  0  0  0
   -7.8617   -0.2992    0.0000 C   0  0  0  0  0  0  0  0  0
   -7.1472    0.1133    0.0000 N   0  0  0  0  0  0  0  0  0
   -7.1472    0.9383    0.0000 C   0  0  0  0  0  0  0  0  0
   -6.4327    1.3508    0.0000 C   0  0  0  0  0  0  0  0  0
   -5.7183    0.9383    0.0000 N   0  0  0  0  0  0  0  0  0
   -5.7183    0.1133    0.0000 C   0  0  0  0  0  0  0  0  0
   -6.4327   -0.2992    0.0000 C   0  0  0  0  0  0  0  0  0
   -5.0038    1.3508    0.0000 C   0  0  0  0  0  0  0  0  0
   -4.2893    0.9383    0.0000 C   0  0  0  0  0  0  0  0  0
   -3.5749    1.3508    0.0000 C   0  0  0  0  0  0  0  0  0
   -2.8604    0.9383    0.0000 C   0  0  0  0  0  0  0  0  0
   -2.1459    1.3508    0.0000 N   0  0  0  0  0  0  0  0  0
   -1.4314    0.9383    0.0000 C   0  0  0  0  0  0  0  0  0
   -1.4314    0.1133    0.0000 O   0  0  0  0  0  0  0  0  0
   -0.7170    1.3508    0.0000 C   0  0  0  0  0  0  0  0  0
   -0.7170    2.1758    0.0000 C   0  0  0  0  0  0  0  0  0
   -0.0025    2.5883    0.0000 C   0  0  0  0  0  0  0  0  0
    0.1690    3.3952    0.0000 N   0  0  0  0  0  0  0  0  0
    0.9895    3.4815    0.0000 O   0  0  0  0  0  0  0  0  0
    1.3251    2.7278    0.0000 N   0  0  0  0  0  0  0  0  0
    0.7120    2.1758    0.0000 C   0  0  0  0  0  0  0  0  0
    0.7120    1.3508    0.0000 C   0  0  0  0  0  0  0  0  0
   -0.0025    0.9383    0.0000 C   0  0  0  0  0  0  0  0  0
   -7.9479   -1.1197    0.0000 C   0  0  0  0  0  0  0  0  0
   -7.3959   -1.7328    0.0000 C   0  0  0  0  0  0  0  0  0
   -7.6508   -2.5174    0.0000 C   0  0  0  0  0  0  0  0  0
   -7.0988   -3.1305    0.0000 O   0  0  0  0  0  0  0  0  0
   -7.3537   -3.9152    0.0000 C   0  0  0  0  0  0  0  0  0
   -8.4578   -2.6890    0.0000 C   0  0  0  0  0  0  0  0  0
   -9.0098   -2.0759    0.0000 C   0  0  0  0  0  0  0  0  0
   -8.7549   -1.2913    0.0000 C   0  0  0  0  0  0  0  0  0
  1  2  4  0  0  0  0
  1 33  4  0  0  0  0
  2  3  4  0  0  0  0
  3  4  1  0  0  0  0
  3 26  4  0  0  0  0
  4  5  1  0  0  0  0
  4  9  1  0  0  0  0
  5  6  1  0  0  0  0
  6  7  1  0  0  0  0
  7  8  1  0  0  0  0
  7 10  1  0  0  0  0
  8  9  1  0  0  0  0
 10 11  1  0  0  0  0
 11 12  1  0  0  0  0
 12 13  1  0  0  0  0
 13 14  1  0  0  0  0
 14 15  1  0  0  0  0
 15 16  2  0  0  0  0
 15 17  1  0  0  0  0
 17 18  4  0  0  0  0
 17 25  4  0  0  0  0
 18 19  4  0  0  0  0
 19 20  4  0  0  0  0
 19 23  4  0  0  0  0
 20 21  4  0  0  0  0
 21 22  4  0  0  0  0
 22 23  4  0  0  0  0
 23 24  4  0  0  0  0
 24 25  4  0  0  0  0
 26 27  4  0  0  0  0
 26 33  4  0  0  0  0
 27 28  4  0  0  0  0
 28 29  1  0  0  0  0
 28 31  4  0  0  0  0
 29 30  1  0  0  0  0
 31 32  4  0  0  0  0
 32 33  4  0  0  0  0
M  END
>  <Name_Molregno>
335845

>  <DOPAMINE D2>
6.12

>  <DOPAMINE D3>
7.07

$$$$
335846
  Marvin  02231216192D 0   1.00000     0.00000     0

 32 35  0  0  0  0  0  0  0  0999 V2000
   -0.2470    0.4946    0.0000 O   0  0  0  0  0  0  0  0  0
   -0.7990   -0.1185    0.0000 C   0  0  0  0  0  0  0  0  0
   -0.3865   -0.8330    0.0000 C   0  0  0  0  0  0  0  0  0
    0.4204   -0.6614    0.0000 C   0  0  0  0  0  0  0  0  0
    0.5067    0.1590    0.0000 C   0  0  0  0  0  0  0  0  0
    1.2211    0.5715    0.0000 C   0  0  0  0  0  0  0  0  0
    1.2211    1.3965    0.0000 O   0  0  0  0  0  0  0  0  0
    1.9356    0.1590    0.0000 N   0  0  0  0  0  0  0  0  0
    2.6501    0.5715    0.0000 C   0  0  0  0  0  0  0  0  0
    3.3645    0.1590    0.0000 C   0  0  0  0  0  0  0  0  0
    4.0790    0.5715    0.0000 C   0  0  0  0  0  0  0  0  0
    4.7935    0.1590    0.0000 C   0  0  0  0  0  0  0  0  0
    5.5080    0.5715    0.0000 N   0  0  0  0  0  0  0  0  0
    5.5080    1.3965    0.0000 C   0  0  0  0  0  0  0  0  0
    6.2224    1.8090    0.0000 C   0  0  0  0  0  0  0  0  0
    6.9369    1.3965    0.0000 N   0  0  0  0  0  0  0  0  0
    6.9369    0.5715    0.0000 C   0  0  0  0  0  0  0  0  0
    6.2224    0.1590    0.0000 C   0  0  0  0  0  0  0  0  0
    7.6514    1.8090    0.0000 C   0  0  0  0  0  0  0  0  0
    7.6514    2.6340    0.0000 C   0  0  0  0  0  0  0  0  0
    8.3658    3.0465    0.0000 C   0  0  0  0  0  0  0  0  0
    9.0803    2.6340    0.0000 C   0  0  0  0  0  0  0  0  0
    9.0803    1.8090    0.0000 C   0  0  0  0  0  0  0  0  0
    8.3658    1.3965    0.0000 C   0  0  0  0  0  0  0  0  0
    8.3658    0.5715    0.0000 O   0  0  0  0  0  0  0  0  0
    9.0803    0.1590    0.0000 C   0  0  0  0  0  0  0  0  0
   -0.7990   -1.5474    0.0000 C   0  0  0  0  0  0  0  0  0
   -1.6240   -1.5474    0.0000 C   0  0  0  0  0  0  0  0  0
   -2.0365   -0.8330    0.0000 C   0  0  0  0  0  0  0  0  0
   -1.6240   -0.1185    0.0000 C   0  0  0  0  0  0  0  0  0
   -2.0365    0.5960    0.0000 O   0  0  0  0  0  0  0  0  0
   -2.8615    0.5960    0.0000 C   0  0  0  0  0  0  0  0  0
  1  2  4  0  0  0  0
  1  5  4  0  0  0  0
  2  3  4  0  0  0  0
  2 30  4  0  0  0  0
  3  4  4  0  0  0  0
  3 27  4  0  0  0  0
  4  5  4  0  0  0  0
  5  6  1  0  0  0  0
  6  7  2  0  0  0  0
  6  8  1  0  0  0  0
  8  9  1  0  0  0  0
  9 10  1  0  0  0  0
 10 11  1  0  0  0  0
 11 12  1  0  0  0  0
 12 13  1  0  0  0  0
 13 14  1  0  0  0  0
 13 18  1  0  0  0  0
 14 15  1  0  0  0  0
 15 16  1  0  0  0  0
 16 17  1  0  0  0  0
 16 19  1  0  0  0  0
 17 18  1  0  0  0  0
 19 20  4  0  0  0  0
 19 24  4  0  0  0  0
 20 21  4  0  0  0  0
 21 22  4  0  0  0  0
 22 23  4  0  0  0  0
 23 24  4  0  0  0  0
 24 25  1  0  0  0  0
 25 26  1  0  0  0  0
 27 28  4  0  0  0  0
 28 29  4  0  0  0  0
 29 30  4  0  0  0  0
 30 31  1  0  0  0  0
 31 32  1  0  0  0  0
M  END
>  <Name_Molregno>
335846

>  <DOPAMINE D2>
6.43

>  <DOPAMINE D3>
7.59

$$$$
335847
  Marvin  02231216192D 0   1.00000     0.00000     0

 36 40  0  0  0  0  0  0  0  0999 V2000
  -10.1696    1.9079    0.0000 O   0  0  0  0  0  0  0  0  0
   -9.9147    1.1232    0.0000 N   0  0  0  0  0  0  0  0  0
  -10.5821    0.6383    0.0000 C   0  0  0  0  0  0  0  0  0
  -11.2496    1.1232    0.0000 N   0  0  0  0  0  0  0  0  0
  -10.9946    1.9079    0.0000 C   0  0  0  0  0  0  0  0  0
  -11.4795    2.5753    0.0000 C   0  0  0  0  0  0  0  0  0
  -10.5821   -0.1867    0.0000 C   0  0  0  0  0  0  0  0  0
   -9.8676   -0.5992    0.0000 C   0  0  0  0  0  0  0  0  0
   -9.8676   -1.4242    0.0000 C   0  0  0  0  0  0  0  0  0
  -10.5821   -1.8367    0.0000 C   0  0  0  0  0  0  0  0  0
  -11.2966   -1.4242    0.0000 C   0  0  0  0  0  0  0  0  0
  -11.2966   -0.5992    0.0000 C   0  0  0  0  0  0  0  0  0
   -9.1532   -1.8367    0.0000 C   0  0  0  0  0  0  0  0  0
   -9.1532   -2.6617    0.0000 O   0  0  0  0  0  0  0  0  0
   -8.4387   -1.4242    0.0000 N   0  0  0  0  0  0  0  0  0
   -7.7242   -1.8367    0.0000 C   0  0  0  0  0  0  0  0  0
   -7.0098   -1.4242    0.0000 C   0  0  0  0  0  0  0  0  0
   -6.2953   -1.8367    0.0000 C   0  0  0  0  0  0  0  0  0
   -5.5808   -1.4242    0.0000 C   0  0  0  0  0  0  0  0  0
   -4.8663   -1.8367    0.0000 N   0  0  0  0  0  0  0  0  0
   -4.1519   -1.4242    0.0000 C   0  0  0  0  0  0  0  0  0
   -3.4374   -1.8367    0.0000 C   0  0  0  0  0  0  0  0  0
   -3.4374   -2.6617    0.0000 N   0  0  0  0  0  0  0  0  0
   -4.1519   -3.0742    0.0000 C   0  0  0  0  0  0  0  0  0
   -4.8663   -2.6617    0.0000 C   0  0  0  0  0  0  0  0  0
   -2.7229   -3.0742    0.0000 C   0  0  0  0  0  0  0  0  0
   -2.6367   -3.8947    0.0000 N   0  0  0  0  0  0  0  0  0
   -1.8297   -4.0662    0.0000 O   0  0  0  0  0  0  0  0  0
   -1.4172   -3.3517    0.0000 C   0  0  0  0  0  0  0  0  0
   -1.9693   -2.7386    0.0000 C   0  0  0  0  0  0  0  0  0
   -1.7143   -1.9540    0.0000 C   0  0  0  0  0  0  0  0  0
   -0.9073   -1.7825    0.0000 C   0  0  0  0  0  0  0  0  0
   -0.6524   -0.9979    0.0000 O   0  0  0  0  0  0  0  0  0
    0.1546   -0.8263    0.0000 C   0  0  0  0  0  0  0  0  0
   -0.3553   -2.3956    0.0000 C   0  0  0  0  0  0  0  0  0
   -0.6103   -3.1802    0.0000 C   0  0  0  0  0  0  0  0  0
  1  2  4  0  0  0  0
  1  5  4  0  0  0  0
  2  3  4  0  0  0  0
  3  4  4  0  0  0  0
  3  7  1  0  0  0  0
  4  5  4  0  0  0  0
  5  6  1  0  0  0  0
  7  8  4  0  0  0  0
  7 12  4  0  0  0  0
  8  9  4  0  0  0  0
  9 10  4  0  0  0  0
  9 13  1  0  0  0  0
 10 11  4  0  0  0  0
 11 12  4  0  0  0  0
 13 14  2  0  0  0  0
 13 15  1  0  0  0  0
 15 16  1  0  0  0  0
 16 17  1  0  0  0  0
 17 18  1  0  0  0  0
 18 19  1  0  0  0  0
 19 20  1  0  0  0  0
 20 21  1  0  0  0  0
 20 25  1  0  0  0  0
 21 22  1  0  0  0  0
 22 23  1  0  0  0  0
 23 24  1  0  0  0  0
 23 26  1  0  0  0  0
 24 25  1  0  0  0  0
 26 27  4  0  0  0  0
 26 30  4  0  0  0  0
 27 28  4  0  0  0  0
 28 29  4  0  0  0  0
 29 30  4  0  0  0  0
 29 36  4  0  0  0  0
 30 31  4  0  0  0  0
 31 32  4  0  0  0  0
 32 33  1  0  0  0  0
 32 35  4  0  0  0  0
 33 34  1  0  0  0  0
 35 36  4  0  0  0  0
M  END
>  <Name_Molregno>
335847

>  <DOPAMINE D2>
6

>  <DOPAMINE D3>
5.89

$$$$
335854
  Marvin  02231216192D 0   1.00000     0.00000     0

 36 40  0  0  0  0  0  0  0  0999 V2000
  -11.2691    3.1534    0.0000 O   0  0  0  0  0  0  0  0  0
  -10.5546    2.7409    0.0000 C   0  0  0  0  0  0  0  0  0
  -10.5546    1.9159    0.0000 C   0  0  0  0  0  0  0  0  0
  -11.2691    1.5034    0.0000 N   0  0  0  0  0  0  0  0  0
  -11.9835    1.9159    0.0000 C   0  0  0  0  0  0  0  0  0
  -11.9835    2.7409    0.0000 C   0  0  0  0  0  0  0  0  0
  -11.2691    0.6784    0.0000 C   0  0  0  0  0  0  0  0  0
  -10.5546    0.2659    0.0000 C   0  0  0  0  0  0  0  0  0
  -10.5546   -0.5591    0.0000 C   0  0  0  0  0  0  0  0  0
  -11.2691   -0.9716    0.0000 C   0  0  0  0  0  0  0  0  0
  -11.9835   -0.5591    0.0000 C   0  0  0  0  0  0  0  0  0
  -11.9835    0.2659    0.0000 C   0  0  0  0  0  0  0  0  0
   -9.8401   -0.9716    0.0000 C   0  0  0  0  0  0  0  0  0
   -9.8401   -1.7966    0.0000 O   0  0  0  0  0  0  0  0  0
   -9.1257   -0.5591    0.0000 N   0  0  0  0  0  0  0  0  0
   -8.4112   -0.9716    0.0000 C   0  0  0  0  0  0  0  0  0
   -7.6967   -0.5591    0.0000 C   0  0  0  0  0  0  0  0  0
   -6.9822   -0.9716    0.0000 C   0  0  0  0  0  0  0  0  0
   -6.2678   -0.5591    0.0000 C   0  0  0  0  0  0  0  0  0
   -5.5533   -0.9716    0.0000 N   0  0  0  0  0  0  0  0  0
   -4.8388   -0.5591    0.0000 C   0  0  0  0  0  0  0  0  0
   -4.1244   -0.9716    0.0000 C   0  0  0  0  0  0  0  0  0
   -4.1244   -1.7966    0.0000 N   0  0  0  0  0  0  0  0  0
   -4.8388   -2.2091    0.0000 C   0  0  0  0  0  0  0  0  0
   -5.5533   -1.7966    0.0000 C   0  0  0  0  0  0  0  0  0
   -3.4099   -2.2091    0.0000 C   0  0  0  0  0  0  0  0  0
   -3.3237   -3.0296    0.0000 N   0  0  0  0  0  0  0  0  0
   -2.5167   -3.2011    0.0000 O   0  0  0  0  0  0  0  0  0
   -2.1042   -2.4866    0.0000 C   0  0  0  0  0  0  0  0  0
   -2.6562   -1.8735    0.0000 C   0  0  0  0  0  0  0  0  0
   -2.4013   -1.0889    0.0000 C   0  0  0  0  0  0  0  0  0
   -1.5943   -0.9174    0.0000 C   0  0  0  0  0  0  0  0  0
   -1.3394   -0.1328    0.0000 O   0  0  0  0  0  0  0  0  0
   -0.5324    0.0388    0.0000 C   0  0  0  0  0  0  0  0  0
   -1.0423   -1.5305    0.0000 C   0  0  0  0  0  0  0  0  0
   -1.2972   -2.3151    0.0000 C   0  0  0  0  0  0  0  0  0
  1  2  1  0  0  0  0
  1  6  1  0  0  0  0
  2  3  1  0  0  0  0
  3  4  1  0  0  0  0
  4  5  1  0  0  0  0
  4  7  1  0  0  0  0
  5  6  1  0  0  0  0
  7  8  4  0  0  0  0
  7 12  4  0  0  0  0
  8  9  4  0  0  0  0
  9 10  4  0  0  0  0
  9 13  1  0  0  0  0
 10 11  4  0  0  0  0
 11 12  4  0  0  0  0
 13 14  2  0  0  0  0
 13 15  1  0  0  0  0
 15 16  1  0  0  0  0
 16 17  1  0  0  0  0
 17 18  1  0  0  0  0
 18 19  1  0  0  0  0
 19 20  1  0  0  0  0
 20 21  1  0  0  0  0
 20 25  1  0  0  0  0
 21 22  1  0  0  0  0
 22 23  1  0  0  0  0
 23 24  1  0  0  0  0
 23 26  1  0  0  0  0
 24 25  1  0  0  0  0
 26 27  4  0  0  0  0
 26 30  4  0  0  0  0
 27 28  4  0  0  0  0
 28 29  4  0  0  0  0
 29 30  4  0  0  0  0
 29 36  4  0  0  0  0
 30 31  4  0  0  0  0
 31 32  4  0  0  0  0
 32 33  1  0  0  0  0
 32 35  4  0  0  0  0
 33 34  1  0  0  0  0
 35 36  4  0  0  0  0
M  END
>  <Name_Molregno>
335854

>  <DOPAMINE D2>
6

>  <DOPAMINE D3>
5.84

$$$$
335855
  Marvin  02231216192D 0   1.00000     0.00000     0

 35 39  0  0  0  0  0  0  0  0999 V2000
   -9.6773   -1.1832    0.0000 O   0  0  0  0  0  0  0  0  0
   -9.1252   -0.5701    0.0000 N   0  0  0  0  0  0  0  0  0
   -8.3715   -0.9057    0.0000 C   0  0  0  0  0  0  0  0  0
   -7.6571   -0.4932    0.0000 N   0  0  0  0  0  0  0  0  0
   -7.6571    0.3318    0.0000 C   0  0  0  0  0  0  0  0  0
   -6.9426    0.7443    0.0000 C   0  0  0  0  0  0  0  0  0
   -6.2281    0.3318    0.0000 N   0  0  0  0  0  0  0  0  0
   -6.2281   -0.4932    0.0000 C   0  0  0  0  0  0  0  0  0
   -6.9426   -0.9057    0.0000 C   0  0  0  0  0  0  0  0  0
   -5.5137    0.7443    0.0000 C   0  0  0  0  0  0  0  0  0
   -4.7992    0.3318    0.0000 C   0  0  0  0  0  0  0  0  0
   -4.0847    0.7443    0.0000 C   0  0  0  0  0  0  0  0  0
   -3.3702    0.3318    0.0000 C   0  0  0  0  0  0  0  0  0
   -2.6558    0.7443    0.0000 N   0  0  0  0  0  0  0  0  0
   -1.9413    0.3318    0.0000 C   0  0  0  0  0  0  0  0  0
   -1.9413   -0.4932    0.0000 O   0  0  0  0  0  0  0  0  0
   -1.2268    0.7443    0.0000 C   0  0  0  0  0  0  0  0  0
   -1.2268    1.5693    0.0000 C   0  0  0  0  0  0  0  0  0
   -0.5124    1.9818    0.0000 C   0  0  0  0  0  0  0  0  0
   -0.5124    2.8068    0.0000 N   0  0  0  0  0  0  0  0  0
   -1.1798    3.2917    0.0000 C   0  0  0  0  0  0  0  0  0
   -0.9249    4.0764    0.0000 C   0  0  0  0  0  0  0  0  0
   -0.0999    4.0764    0.0000 N   0  0  0  0  0  0  0  0  0
    0.1551    3.2917    0.0000 C   0  0  0  0  0  0  0  0  0
    0.2021    1.5693    0.0000 C   0  0  0  0  0  0  0  0  0
    0.2021    0.7443    0.0000 C   0  0  0  0  0  0  0  0  0
   -0.5124    0.3318    0.0000 C   0  0  0  0  0  0  0  0  0
   -8.4578   -1.7262    0.0000 C   0  0  0  0  0  0  0  0  0
   -7.9057   -2.3393    0.0000 C   0  0  0  0  0  0  0  0  0
   -8.1607   -3.1239    0.0000 C   0  0  0  0  0  0  0  0  0
   -7.6087   -3.7370    0.0000 O   0  0  0  0  0  0  0  0  0
   -7.8636   -4.5216    0.0000 C   0  0  0  0  0  0  0  0  0
   -8.9677   -3.2954    0.0000 C   0  0  0  0  0  0  0  0  0
   -9.5197   -2.6823    0.0000 C   0  0  0  0  0  0  0  0  0
   -9.2648   -1.8977    0.0000 C   0  0  0  0  0  0  0  0  0
  1  2  4  0  0  0  0
  1 35  4  0  0  0  0
  2  3  4  0  0  0  0
  3  4  1  0  0  0  0
  3 28  4  0  0  0  0
  4  5  1  0  0  0  0
  4  9  1  0  0  0  0
  5  6  1  0  0  0  0
  6  7  1  0  0  0  0
  7  8  1  0  0  0  0
  7 10  1  0  0  0  0
  8  9  1  0  0  0  0
 10 11  1  0  0  0  0
 11 12  1  0  0  0  0
 12 13  1  0  0  0  0
 13 14  1  0  0  0  0
 14 15  1  0  0  0  0
 15 16  2  0  0  0  0
 15 17  1  0  0  0  0
 17 18  4  0  0  0  0
 17 27  4  0  0  0  0
 18 19  4  0  0  0  0
 19 20  1  0  0  0  0
 19 25  4  0  0  0  0
 20 21  4  0  0  0  0
 20 24  4  0  0  0  0
 21 22  4  0  0  0  0
 22 23  4  0  0  0  0
 23 24  4  0  0  0  0
 25 26  4  0  0  0  0
 26 27  4  0  0  0  0
 28 29  4  0  0  0  0
 28 35  4  0  0  0  0
 29 30  4  0  0  0  0
 30 31  1  0  0  0  0
 30 33  4  0  0  0  0
 31 32  1  0  0  0  0
 33 34  4  0  0  0  0
 34 35  4  0  0  0  0
M  END
>  <Name_Molregno>
335855

>  <DOPAMINE D2>
6

>  <DOPAMINE D3>
5.26

$$$$
335876
  Marvin  02231216192D 0   1.00000     0.00000     0

 34 38  0  0  0  0  0  0  0  0999 V2000
   -0.1230    0.0314    0.0000 O   0  0  0  0  0  0  0  0  0
   -0.9300    0.2029    0.0000 C   0  0  0  0  0  0  0  0  0
   -1.0162    1.0234    0.0000 C   0  0  0  0  0  0  0  0  0
   -0.2625    1.3590    0.0000 C   0  0  0  0  0  0  0  0  0
    0.2895    0.7459    0.0000 C   0  0  0  0  0  0  0  0  0
    1.1100    0.8321    0.0000 C   0  0  0  0  0  0  0  0  0
    1.5225    1.5466    0.0000 N   0  0  0  0  0  0  0  0  0
    2.3295    1.3750    0.0000 N   0  0  0  0  0  0  0  0  0
    2.4157    0.5546    0.0000 C   0  0  0  0  0  0  0  0  0
    1.6620    0.2190    0.0000 C   0  0  0  0  0  0  0  0  0
    3.1302    0.1421    0.0000 C   0  0  0  0  0  0  0  0  0
    3.1302   -0.6829    0.0000 O   0  0  0  0  0  0  0  0  0
    3.8446    0.5546    0.0000 N   0  0  0  0  0  0  0  0  0
    4.5591    0.1421    0.0000 C   0  0  0  0  0  0  0  0  0
    5.2736    0.5546    0.0000 C   0  0  0  0  0  0  0  0  0
    5.9881    0.1421    0.0000 C   0  0  0  0  0  0  0  0  0
    6.7025    0.5546    0.0000 C   0  0  0  0  0  0  0  0  0
    7.4170    0.1421    0.0000 N   0  0  0  0  0  0  0  0  0
    8.1315    0.5546    0.0000 C   0  0  0  0  0  0  0  0  0
    8.8459    0.1421    0.0000 C   0  0  0  0  0  0  0  0  0
    8.8459   -0.6829    0.0000 N   0  0  0  0  0  0  0  0  0
    8.1315   -1.0954    0.0000 C   0  0  0  0  0  0  0  0  0
    7.4170   -0.6829    0.0000 C   0  0  0  0  0  0  0  0  0
    9.5604   -1.0954    0.0000 C   0  0  0  0  0  0  0  0  0
    9.6467   -1.9159    0.0000 N   0  0  0  0  0  0  0  0  0
   10.4536   -2.0874    0.0000 O   0  0  0  0  0  0  0  0  0
   10.8661   -1.3730    0.0000 C   0  0  0  0  0  0  0  0  0
   10.3141   -0.7599    0.0000 C   0  0  0  0  0  0  0  0  0
   10.5690    0.0247    0.0000 C   0  0  0  0  0  0  0  0  0
   11.3760    0.1963    0.0000 C   0  0  0  0  0  0  0  0  0
   11.6309    0.9809    0.0000 O   0  0  0  0  0  0  0  0  0
   11.0789    1.5940    0.0000 C   0  0  0  0  0  0  0  0  0
   11.9280   -0.4168    0.0000 C   0  0  0  0  0  0  0  0  0
   11.6731   -1.2014    0.0000 C   0  0  0  0  0  0  0  0  0
  1  2  4  0  0  0  0
  1  5  4  0  0  0  0
  2  3  4  0  0  0  0
  3  4  4  0  0  0  0
  4  5  4  0  0  0  0
  5  6  1  0  0  0  0
  6  7  4  0  0  0  0
  6 10  4  0  0  0  0
  7  8  4  0  0  0  0
  8  9  4  0  0  0  0
  9 10  4  0  0  0  0
  9 11  1  0  0  0  0
 11 12  2  0  0  0  0
 11 13  1  0  0  0  0
 13 14  1  0  0  0  0
 14 15  1  0  0  0  0
 15 16  1  0  0  0  0
 16 17  1  0  0  0  0
 17 18  1  0  0  0  0
 18 19  1  0  0  0  0
 18 23  1  0  0  0  0
 19 20  1  0  0  0  0
 20 21  1  0  0  0  0
 21 22  1  0  0  0  0
 21 24  1  0  0  0  0
 22 23  1  0  0  0  0
 24 25  4  0  0  0  0
 24 28  4  0  0  0  0
 25 26  4  0  0  0  0
 26 27  4  0  0  0  0
 27 28  4  0  0  0  0
 27 34  4  0  0  0  0
 28 29  4  0  0  0  0
 29 30  4  0  0  0  0
 30 31  1  0  0  0  0
 30 33  4  0  0  0  0
 31 32  1  0  0  0  0
 33 34  4  0  0  0  0
M  STY  1   1 DAT
M  SAL   1  1   7
M  SDT   1 MRV_IMPLICIT_H                                        
M  SDD   1     0.0000    0.0000    DR    ALL  0       0  
M  SED   1 IMPL_H1
M  END
>  <Name_Molregno>
335876

>  <DOPAMINE D2>
6.12

>  <DOPAMINE D3>
7.67

$$$$
335877
  Marvin  02231216192D 0   1.00000     0.00000     0

 30 33  0  0  0  0  0  0  0  0999 V2000
  -11.0952    2.8640    0.0000 O   0  0  0  0  0  0  0  0  0
  -10.2747    2.7778    0.0000 N   0  0  0  0  0  0  0  0  0
  -10.1032    1.9708    0.0000 C   0  0  0  0  0  0  0  0  0
   -9.3887    1.5583    0.0000 C   0  0  0  0  0  0  0  0  0
   -9.3887    0.7333    0.0000 C   0  0  0  0  0  0  0  0  0
  -10.1032    0.3208    0.0000 C   0  0  0  0  0  0  0  0  0
  -10.8176    0.7333    0.0000 C   0  0  0  0  0  0  0  0  0
  -10.8176    1.5583    0.0000 C   0  0  0  0  0  0  0  0  0
  -11.4307    2.1104    0.0000 N   0  0  0  0  0  0  0  0  0
   -8.6742    0.3208    0.0000 C   0  0  0  0  0  0  0  0  0
   -8.6742   -0.5042    0.0000 O   0  0  0  0  0  0  0  0  0
   -7.9598    0.7333    0.0000 N   0  0  0  0  0  0  0  0  0
   -7.2453    0.3208    0.0000 C   0  0  0  0  0  0  0  0  0
   -6.5308    0.7333    0.0000 C   0  0  0  0  0  0  0  0  0
   -5.8163    0.3208    0.0000 C   0  0  0  0  0  0  0  0  0
   -5.1019    0.7333    0.0000 C   0  0  0  0  0  0  0  0  0
   -4.3874    0.3208    0.0000 N   0  0  0  0  0  0  0  0  0
   -3.6729    0.7333    0.0000 C   0  0  0  0  0  0  0  0  0
   -2.9585    0.3208    0.0000 C   0  0  0  0  0  0  0  0  0
   -2.9585   -0.5042    0.0000 N   0  0  0  0  0  0  0  0  0
   -3.6729   -0.9167    0.0000 C   0  0  0  0  0  0  0  0  0
   -4.3874   -0.5042    0.0000 C   0  0  0  0  0  0  0  0  0
   -2.2440   -0.9167    0.0000 C   0  0  0  0  0  0  0  0  0
   -1.5295   -0.5042    0.0000 C   0  0  0  0  0  0  0  0  0
   -0.8151   -0.9167    0.0000 C   0  0  0  0  0  0  0  0  0
   -0.8151   -1.7417    0.0000 C   0  0  0  0  0  0  0  0  0
   -1.5295   -2.1542    0.0000 C   0  0  0  0  0  0  0  0  0
   -2.2440   -1.7417    0.0000 C   0  0  0  0  0  0  0  0  0
   -2.9585   -2.1542    0.0000 O   0  0  0  0  0  0  0  0  0
   -2.9585   -2.9792    0.0000 C   0  0  0  0  0  0  0  0  0
  1  2  4  0  0  0  0
  1  9  4  0  0  0  0
  2  3  4  0  0  0  0
  3  4  4  0  0  0  0
  3  8  4  0  0  0  0
  4  5  4  0  0  0  0
  5  6  4  0  0  0  0
  5 10  1  0  0  0  0
  6  7  4  0  0  0  0
  7  8  4  0  0  0  0
  8  9  4  0  0  0  0
 10 11  2  0  0  0  0
 10 12  1  0  0  0  0
 12 13  1  0  0  0  0
 13 14  1  0  0  0  0
 14 15  1  0  0  0  0
 15 16  1  0  0  0  0
 16 17  1  0  0  0  0
 17 18  1  0  0  0  0
 17 22  1  0  0  0  0
 18 19  1  0  0  0  0
 19 20  1  0  0  0  0
 20 21  1  0  0  0  0
 20 23  1  0  0  0  0
 21 22  1  0  0  0  0
 23 24  4  0  0  0  0
 23 28  4  0  0  0  0
 24 25  4  0  0  0  0
 25 26  4  0  0  0  0
 26 27  4  0  0  0  0
 27 28  4  0  0  0  0
 28 29  1  0  0  0  0
 29 30  1  0  0  0  0
M  END
>  <Name_Molregno>
335877

>  <DOPAMINE D2>
7.01

>  <DOPAMINE D3>
7.96

$$$$
335887
  Marvin  02231216192D 0   1.00000     0.00000     0

 34 38  0  0  0  0  0  0  0  0999 V2000
   -9.5204   -0.7285    0.0000 O   0  0  0  0  0  0  0  0  0
   -8.9684   -0.1154    0.0000 N   0  0  0  0  0  0  0  0  0
   -8.2147   -0.4510    0.0000 C   0  0  0  0  0  0  0  0  0
   -7.5002   -0.0385    0.0000 N   0  0  0  0  0  0  0  0  0
   -7.5002    0.7865    0.0000 C   0  0  0  0  0  0  0  0  0
   -6.7858    1.1990    0.0000 C   0  0  0  0  0  0  0  0  0
   -6.0713    0.7865    0.0000 N   0  0  0  0  0  0  0  0  0
   -6.0713   -0.0385    0.0000 C   0  0  0  0  0  0  0  0  0
   -6.7858   -0.4510    0.0000 C   0  0  0  0  0  0  0  0  0
   -5.3568    1.1990    0.0000 C   0  0  0  0  0  0  0  0  0
   -4.6424    0.7865    0.0000 C   0  0  0  0  0  0  0  0  0
   -3.9279    1.1990    0.0000 C   0  0  0  0  0  0  0  0  0
   -3.2134    0.7865    0.0000 C   0  0  0  0  0  0  0  0  0
   -2.4989    1.1990    0.0000 N   0  0  0  0  0  0  0  0  0
   -1.7845    0.7865    0.0000 C   0  0  0  0  0  0  0  0  0
   -1.7845   -0.0385    0.0000 O   0  0  0  0  0  0  0  0  0
   -1.0700    1.1990    0.0000 C   0  0  0  0  0  0  0  0  0
   -1.0700    2.0240    0.0000 C   0  0  0  0  0  0  0  0  0
   -0.3555    2.4365    0.0000 C   0  0  0  0  0  0  0  0  0
   -0.3555    3.2615    0.0000 N   0  0  0  0  0  0  0  0  0
    0.3589    3.6740    0.0000 C   0  0  0  0  0  0  0  0  0
    1.0734    3.2615    0.0000 C   0  0  0  0  0  0  0  0  0
    1.0734    2.4365    0.0000 N   0  0  0  0  0  0  0  0  0
    0.3589    2.0240    0.0000 C   0  0  0  0  0  0  0  0  0
    0.3589    1.1990    0.0000 C   0  0  0  0  0  0  0  0  0
   -0.3555    0.7865    0.0000 C   0  0  0  0  0  0  0  0  0
   -8.3010   -1.2715    0.0000 C   0  0  0  0  0  0  0  0  0
   -7.7489   -1.8846    0.0000 C   0  0  0  0  0  0  0  0  0
   -8.0039   -2.6692    0.0000 C   0  0  0  0  0  0  0  0  0
   -7.4518   -3.2823    0.0000 O   0  0  0  0  0  0  0  0  0
   -7.7068   -4.0669    0.0000 C   0  0  0  0  0  0  0  0  0
   -8.8108   -2.8407    0.0000 C   0  0  0  0  0  0  0  0  0
   -9.3629   -2.2276    0.0000 C   0  0  0  0  0  0  0  0  0
   -9.1079   -1.4430    0.0000 C   0  0  0  0  0  0  0  0  0
  1  2  4  0  0  0  0
  1 34  4  0  0  0  0
  2  3  4  0  0  0  0
  3  4  1  0  0  0  0
  3 27  4  0  0  0  0
  4  5  1  0  0  0  0
  4  9  1  0  0  0  0
  5  6  1  0  0  0  0
  6  7  1  0  0  0  0
  7  8  1  0  0  0  0
  7 10  1  0  0  0  0
  8  9  1  0  0  0  0
 10 11  1  0  0  0  0
 11 12  1  0  0  0  0
 12 13  1  0  0  0  0
 13 14  1  0  0  0  0
 14 15  1  0  0  0  0
 15 16  2  0  0  0  0
 15 17  1  0  0  0  0
 17 18  4  0  0  0  0
 17 26  4  0  0  0  0
 18 19  4  0  0  0  0
 19 20  4  0  0  0  0
 19 24  4  0  0  0  0
 20 21  4  0  0  0  0
 21 22  4  0  0  0  0
 22 23  4  0  0  0  0
 23 24  4  0  0  0  0
 24 25  4  0  0  0  0
 25 26  4  0  0  0  0
 27 28  4  0  0  0  0
 27 34  4  0  0  0  0
 28 29  4  0  0  0  0
 29 30  1  0  0  0  0
 29 32  4  0  0  0  0
 30 31  1  0  0  0  0
 32 33  4  0  0  0  0
 33 34  4  0  0  0  0
M  END
>  <Name_Molregno>
335887

>  <DOPAMINE D2>
6.12

>  <DOPAMINE D3>
6.66

$$$$
335888
  Marvin  02231216192D 0   1.00000     0.00000     0

 33 37  0  0  0  0  0  0  0  0999 V2000
  -10.9770    2.9858    0.0000 O   0  0  0  0  0  0  0  0  0
  -10.8055    2.1789    0.0000 C   0  0  0  0  0  0  0  0  0
  -10.0910    1.7664    0.0000 C   0  0  0  0  0  0  0  0  0
  -10.0910    0.9414    0.0000 C   0  0  0  0  0  0  0  0  0
  -10.8055    0.5289    0.0000 C   0  0  0  0  0  0  0  0  0
  -11.5200    0.9414    0.0000 C   0  0  0  0  0  0  0  0  0
  -11.5200    1.7664    0.0000 C   0  0  0  0  0  0  0  0  0
  -12.1331    2.3184    0.0000 O   0  0  0  0  0  0  0  0  0
  -11.7975    3.0721    0.0000 C   0  0  0  0  0  0  0  0  0
   -9.3766    0.5289    0.0000 C   0  0  0  0  0  0  0  0  0
   -9.3766   -0.2961    0.0000 O   0  0  0  0  0  0  0  0  0
   -8.6621    0.9414    0.0000 N   0  0  0  0  0  0  0  0  0
   -7.9476    0.5289    0.0000 C   0  0  0  0  0  0  0  0  0
   -7.2332    0.9414    0.0000 C   0  0  0  0  0  0  0  0  0
   -6.5187    0.5289    0.0000 C   0  0  0  0  0  0  0  0  0
   -5.8042    0.9414    0.0000 C   0  0  0  0  0  0  0  0  0
   -5.0897    0.5289    0.0000 N   0  0  0  0  0  0  0  0  0
   -4.3753    0.9414    0.0000 C   0  0  0  0  0  0  0  0  0
   -3.6608    0.5289    0.0000 C   0  0  0  0  0  0  0  0  0
   -3.6608   -0.2961    0.0000 N   0  0  0  0  0  0  0  0  0
   -4.3753   -0.7086    0.0000 C   0  0  0  0  0  0  0  0  0
   -5.0897   -0.2961    0.0000 C   0  0  0  0  0  0  0  0  0
   -2.9463   -0.7086    0.0000 C   0  0  0  0  0  0  0  0  0
   -2.8601   -1.5291    0.0000 N   0  0  0  0  0  0  0  0  0
   -2.0531   -1.7006    0.0000 O   0  0  0  0  0  0  0  0  0
   -1.6406   -0.9862    0.0000 C   0  0  0  0  0  0  0  0  0
   -2.1927   -0.3731    0.0000 C   0  0  0  0  0  0  0  0  0
   -1.9377    0.4115    0.0000 C   0  0  0  0  0  0  0  0  0
   -1.1307    0.5831    0.0000 C   0  0  0  0  0  0  0  0  0
   -0.8758    1.3677    0.0000 O   0  0  0  0  0  0  0  0  0
   -1.4278    1.9808    0.0000 C   0  0  0  0  0  0  0  0  0
   -0.5787   -0.0300    0.0000 C   0  0  0  0  0  0  0  0  0
   -0.8337   -0.8146    0.0000 C   0  0  0  0  0  0  0  0  0
  1  2  1  0  0  0  0
  1  9  1  0  0  0  0
  2  3  4  0  0  0  0
  2  7  4  0  0  0  0
  3  4  4  0  0  0  0
  4  5  4  0  0  0  0
  4 10  1  0  0  0  0
  5  6  4  0  0  0  0
  6  7  4  0  0  0  0
  7  8  1  0  0  0  0
  8  9  1  0  0  0  0
 10 11  2  0  0  0  0
 10 12  1  0  0  0  0
 12 13  1  0  0  0  0
 13 14  1  0  0  0  0
 14 15  1  0  0  0  0
 15 16  1  0  0  0  0
 16 17  1  0  0  0  0
 17 18  1  0  0  0  0
 17 22  1  0  0  0  0
 18 19  1  0  0  0  0
 19 20  1  0  0  0  0
 20 21  1  0  0  0  0
 20 23  1  0  0  0  0
 21 22  1  0  0  0  0
 23 24  4  0  0  0  0
 23 27  4  0  0  0  0
 24 25  4  0  0  0  0
 25 26  4  0  0  0  0
 26 27  4  0  0  0  0
 26 33  4  0  0  0  0
 27 28  4  0  0  0  0
 28 29  4  0  0  0  0
 29 30  1  0  0  0  0
 29 32  4  0  0  0  0
 30 31  1  0  0  0  0
 32 33  4  0  0  0  0
M  END
>  <Name_Molregno>
335888

>  <DOPAMINE D2>
6.12

>  <DOPAMINE D3>
6.93

$$$$
335891
  Marvin  02231216192D 0   1.00000     0.00000     0

 36 40  0  0  0  0  0  0  0  0999 V2000
  -13.9763    0.8526    0.0000 O   0  0  0  0  0  0  0  0  0
  -13.2618    1.2651    0.0000 C   0  0  0  0  0  0  0  0  0
  -12.5473    0.8526    0.0000 C   0  0  0  0  0  0  0  0  0
  -12.5473    0.0276    0.0000 N   0  0  0  0  0  0  0  0  0
  -13.2618   -0.3849    0.0000 C   0  0  0  0  0  0  0  0  0
  -13.9763    0.0276    0.0000 C   0  0  0  0  0  0  0  0  0
  -11.8329   -0.3849    0.0000 C   0  0  0  0  0  0  0  0  0
  -11.1184    0.0276    0.0000 C   0  0  0  0  0  0  0  0  0
  -10.4039   -0.3849    0.0000 C   0  0  0  0  0  0  0  0  0
  -10.4039   -1.2099    0.0000 C   0  0  0  0  0  0  0  0  0
  -11.1184   -1.6224    0.0000 C   0  0  0  0  0  0  0  0  0
  -11.8329   -1.2099    0.0000 C   0  0  0  0  0  0  0  0  0
   -9.6895   -1.6224    0.0000 C   0  0  0  0  0  0  0  0  0
   -9.6895   -2.4474    0.0000 O   0  0  0  0  0  0  0  0  0
   -8.9750   -1.2099    0.0000 N   0  0  0  0  0  0  0  0  0
   -8.2605   -1.6224    0.0000 C   0  0  0  0  0  0  0  0  0
   -7.5460   -1.2099    0.0000 C   0  0  0  0  0  0  0  0  0
   -6.8316   -1.6224    0.0000 C   0  0  0  0  0  0  0  0  0
   -6.1171   -1.2099    0.0000 C   0  0  0  0  0  0  0  0  0
   -5.4026   -1.6224    0.0000 N   0  0  0  0  0  0  0  0  0
   -4.6882   -1.2099    0.0000 C   0  0  0  0  0  0  0  0  0
   -3.9737   -1.6224    0.0000 C   0  0  0  0  0  0  0  0  0
   -3.9737   -2.4474    0.0000 N   0  0  0  0  0  0  0  0  0
   -4.6882   -2.8599    0.0000 C   0  0  0  0  0  0  0  0  0
   -5.4026   -2.4474    0.0000 C   0  0  0  0  0  0  0  0  0
   -3.2592   -2.8599    0.0000 C   0  0  0  0  0  0  0  0  0
   -3.1730   -3.6804    0.0000 N   0  0  0  0  0  0  0  0  0
   -2.3660   -3.8519    0.0000 O   0  0  0  0  0  0  0  0  0
   -1.9535   -3.1374    0.0000 C   0  0  0  0  0  0  0  0  0
   -2.5055   -2.5243    0.0000 C   0  0  0  0  0  0  0  0  0
   -2.2506   -1.7397    0.0000 C   0  0  0  0  0  0  0  0  0
   -1.4436   -1.5682    0.0000 C   0  0  0  0  0  0  0  0  0
   -1.1887   -0.7836    0.0000 O   0  0  0  0  0  0  0  0  0
   -0.3817   -0.6120    0.0000 C   0  0  0  0  0  0  0  0  0
   -0.8916   -2.1813    0.0000 C   0  0  0  0  0  0  0  0  0
   -1.1465   -2.9659    0.0000 C   0  0  0  0  0  0  0  0  0
  1  2  1  0  0  0  0
  1  6  1  0  0  0  0
  2  3  1  0  0  0  0
  3  4  1  0  0  0  0
  4  5  1  0  0  0  0
  4  7  1  0  0  0  0
  5  6  1  0  0  0  0
  7  8  4  0  0  0  0
  7 12  4  0  0  0  0
  8  9  4  0  0  0  0
  9 10  4  0  0  0  0
 10 11  4  0  0  0  0
 10 13  1  0  0  0  0
 11 12  4  0  0  0  0
 13 14  2  0  0  0  0
 13 15  1  0  0  0  0
 15 16  1  0  0  0  0
 16 17  1  0  0  0  0
 17 18  1  0  0  0  0
 18 19  1  0  0  0  0
 19 20  1  0  0  0  0
 20 21  1  0  0  0  0
 20 25  1  0  0  0  0
 21 22  1  0  0  0  0
 22 23  1  0  0  0  0
 23 24  1  0  0  0  0
 23 26  1  0  0  0  0
 24 25  1  0  0  0  0
 26 27  4  0  0  0  0
 26 30  4  0  0  0  0
 27 28  4  0  0  0  0
 28 29  4  0  0  0  0
 29 30  4  0  0  0  0
 29 36  4  0  0  0  0
 30 31  4  0  0  0  0
 31 32  4  0  0  0  0
 32 33  1  0  0  0  0
 32 35  4  0  0  0  0
 33 34  1  0  0  0  0
 35 36  4  0  0  0  0
M  END
>  <Name_Molregno>
335891

>  <DOPAMINE D2>
6.12

>  <DOPAMINE D3>
7.42

$$$$
335892
  Marvin  02231216192D 0   1.00000     0.00000     0

 35 39  0  0  0  0  0  0  0  0999 V2000
  -10.1015   -0.6952    0.0000 O   0  0  0  0  0  0  0  0  0
   -9.5495   -0.0821    0.0000 N   0  0  0  0  0  0  0  0  0
   -8.7958   -0.4176    0.0000 C   0  0  0  0  0  0  0  0  0
   -8.0813   -0.0051    0.0000 N   0  0  0  0  0  0  0  0  0
   -8.0813    0.8199    0.0000 C   0  0  0  0  0  0  0  0  0
   -7.3668    1.2324    0.0000 C   0  0  0  0  0  0  0  0  0
   -6.6524    0.8199    0.0000 N   0  0  0  0  0  0  0  0  0
   -6.6524   -0.0051    0.0000 C   0  0  0  0  0  0  0  0  0
   -7.3668   -0.4176    0.0000 C   0  0  0  0  0  0  0  0  0
   -5.9379    1.2324    0.0000 C   0  0  0  0  0  0  0  0  0
   -5.2234    0.8199    0.0000 C   0  0  0  0  0  0  0  0  0
   -4.5090    1.2324    0.0000 C   0  0  0  0  0  0  0  0  0
   -3.7945    0.8199    0.0000 C   0  0  0  0  0  0  0  0  0
   -3.0800    1.2324    0.0000 N   0  0  0  0  0  0  0  0  0
   -2.3655    0.8199    0.0000 C   0  0  0  0  0  0  0  0  0
   -2.3655   -0.0051    0.0000 O   0  0  0  0  0  0  0  0  0
   -1.6511    1.2324    0.0000 C   0  0  0  0  0  0  0  0  0
   -1.6511    2.0574    0.0000 C   0  0  0  0  0  0  0  0  0
   -0.9366    2.4699    0.0000 C   0  0  0  0  0  0  0  0  0
   -0.2221    2.0574    0.0000 C   0  0  0  0  0  0  0  0  0
    0.4923    2.4699    0.0000 N   0  0  0  0  0  0  0  0  0
    0.5786    3.2903    0.0000 C   0  0  0  0  0  0  0  0  0
    1.3855    3.4619    0.0000 C   0  0  0  0  0  0  0  0  0
    1.7980    2.7474    0.0000 N   0  0  0  0  0  0  0  0  0
    1.2460    2.1343    0.0000 C   0  0  0  0  0  0  0  0  0
   -0.2221    1.2324    0.0000 C   0  0  0  0  0  0  0  0  0
   -0.9366    0.8199    0.0000 C   0  0  0  0  0  0  0  0  0
   -8.8820   -1.2381    0.0000 C   0  0  0  0  0  0  0  0  0
   -8.3300   -1.8512    0.0000 C   0  0  0  0  0  0  0  0  0
   -8.5849   -2.6358    0.0000 C   0  0  0  0  0  0  0  0  0
   -8.0329   -3.2489    0.0000 O   0  0  0  0  0  0  0  0  0
   -8.2878   -4.0336    0.0000 C   0  0  0  0  0  0  0  0  0
   -9.3919   -2.8074    0.0000 C   0  0  0  0  0  0  0  0  0
   -9.9439   -2.1943    0.0000 C   0  0  0  0  0  0  0  0  0
   -9.6890   -1.4097    0.0000 C   0  0  0  0  0  0  0  0  0
  1  2  4  0  0  0  0
  1 35  4  0  0  0  0
  2  3  4  0  0  0  0
  3  4  1  0  0  0  0
  3 28  4  0  0  0  0
  4  5  1  0  0  0  0
  4  9  1  0  0  0  0
  5  6  1  0  0  0  0
  6  7  1  0  0  0  0
  7  8  1  0  0  0  0
  7 10  1  0  0  0  0
  8  9  1  0  0  0  0
 10 11  1  0  0  0  0
 11 12  1  0  0  0  0
 12 13  1  0  0  0  0
 13 14  1  0  0  0  0
 14 15  1  0  0  0  0
 15 16  2  0  0  0  0
 15 17  1  0  0  0  0
 17 18  4  0  0  0  0
 17 27  4  0  0  0  0
 18 19  4  0  0  0  0
 19 20  4  0  0  0  0
 20 21  1  0  0  0  0
 20 26  4  0  0  0  0
 21 22  4  0  0  0  0
 21 25  4  0  0  0  0
 22 23  4  0  0  0  0
 23 24  4  0  0  0  0
 24 25  4  0  0  0  0
 26 27  4  0  0  0  0
 28 29  4  0  0  0  0
 28 35  4  0  0  0  0
 29 30  4  0  0  0  0
 30 31  1  0  0  0  0
 30 33  4  0  0  0  0
 31 32  1  0  0  0  0
 33 34  4  0  0  0  0
 34 35  4  0  0  0  0
M  END
>  <Name_Molregno>
335892

>  <DOPAMINE D2>
6.12

>  <DOPAMINE D3>
7.65

$$$$
335894
  Marvin  02231216192D 0   1.00000     0.00000     0

 31 34  0  0  0  0  0  0  0  0999 V2000
   -9.1903   -0.2041    0.0000 O   0  0  0  0  0  0  0  0  0
   -9.9048   -0.6166    0.0000 C   0  0  0  0  0  0  0  0  0
   -9.1903    0.6209    0.0000 C   0  0  0  0  0  0  0  0  0
   -9.9048    1.0334    0.0000 C   0  0  0  0  0  0  0  0  0
   -9.9048    1.8584    0.0000 C   0  0  0  0  0  0  0  0  0
   -9.1903    2.2709    0.0000 C   0  0  0  0  0  0  0  0  0
   -8.4758    1.8584    0.0000 C   0  0  0  0  0  0  0  0  0
   -8.4758    1.0334    0.0000 C   0  0  0  0  0  0  0  0  0
   -7.7614    0.6209    0.0000 N   0  0  0  0  0  0  0  0  0
   -7.0469    1.0334    0.0000 C   0  0  0  0  0  0  0  0  0
   -6.3324    0.6209    0.0000 C   0  0  0  0  0  0  0  0  0
   -6.3324   -0.2041    0.0000 N   0  0  0  0  0  0  0  0  0
   -7.0469   -0.6166    0.0000 C   0  0  0  0  0  0  0  0  0
   -7.7614   -0.2041    0.0000 C   0  0  0  0  0  0  0  0  0
   -5.6180   -0.6166    0.0000 C   0  0  0  0  0  0  0  0  0
   -4.9035   -0.2041    0.0000 C   0  0  0  0  0  0  0  0  0
   -4.1890   -0.6166    0.0000 C   0  0  0  0  0  0  0  0  0
   -3.4746   -0.2041    0.0000 C   0  0  0  0  0  0  0  0  0
   -2.7601   -0.6166    0.0000 N   0  0  0  0  0  0  0  0  0
   -2.0456   -0.2041    0.0000 C   0  0  0  0  0  0  0  0  0
   -2.0456    0.6209    0.0000 O   0  0  0  0  0  0  0  0  0
   -1.3311   -0.6166    0.0000 C   0  0  0  0  0  0  0  0  0
   -0.6167   -0.2041    0.0000 C   0  0  0  0  0  0  0  0  0
    0.0978   -0.6166    0.0000 C   0  0  0  0  0  0  0  0  0
    0.8123   -0.2041    0.0000 N   0  0  0  0  0  0  0  0  0
    1.5267   -0.6166    0.0000 C   0  0  0  0  0  0  0  0  0
    1.5267   -1.4416    0.0000 C   0  0  0  0  0  0  0  0  0
    0.8123   -1.8541    0.0000 N   0  0  0  0  0  0  0  0  0
    0.0978   -1.4416    0.0000 C   0  0  0  0  0  0  0  0  0
   -0.6167   -1.8541    0.0000 C   0  0  0  0  0  0  0  0  0
   -1.3311   -1.4416    0.0000 C   0  0  0  0  0  0  0  0  0
  1  2  1  0  0  0  0
  1  3  1  0  0  0  0
  3  4  4  0  0  0  0
  3  8  4  0  0  0  0
  4  5  4  0  0  0  0
  5  6  4  0  0  0  0
  6  7  4  0  0  0  0
  7  8  4  0  0  0  0
  8  9  1  0  0  0  0
  9 10  1  0  0  0  0
  9 14  1  0  0  0  0
 10 11  1  0  0  0  0
 11 12  1  0  0  0  0
 12 13  1  0  0  0  0
 12 15  1  0  0  0  0
 13 14  1  0  0  0  0
 15 16  1  0  0  0  0
 16 17  1  0  0  0  0
 17 18  1  0  0  0  0
 18 19  1  0  0  0  0
 19 20  1  0  0  0  0
 20 21  2  0  0  0  0
 20 22  1  0  0  0  0
 22 23  4  0  0  0  0
 22 31  4  0  0  0  0
 23 24  4  0  0  0  0
 24 25  4  0  0  0  0
 24 29  4  0  0  0  0
 25 26  4  0  0  0  0
 26 27  4  0  0  0  0
 27 28  4  0  0  0  0
 28 29  4  0  0  0  0
 29 30  4  0  0  0  0
 30 31  4  0  0  0  0
M  END
>  <Name_Molregno>
335894

>  <DOPAMINE D2>
6.75

>  <DOPAMINE D3>
7.11

$$$$
335901
  Marvin  02231216192D 0   1.00000     0.00000     0

 30 33  0  0  0  0  0  0  0  0999 V2000
   -9.7346    2.4756    0.0000 O   0  0  0  0  0  0  0  0  0
   -9.5631    1.6686    0.0000 C   0  0  0  0  0  0  0  0  0
   -8.8487    1.2561    0.0000 C   0  0  0  0  0  0  0  0  0
   -8.8487    0.4311    0.0000 C   0  0  0  0  0  0  0  0  0
   -9.5631    0.0186    0.0000 C   0  0  0  0  0  0  0  0  0
  -10.2776    0.4311    0.0000 C   0  0  0  0  0  0  0  0  0
  -10.2776    1.2561    0.0000 C   0  0  0  0  0  0  0  0  0
  -10.8907    1.8081    0.0000 O   0  0  0  0  0  0  0  0  0
  -10.5551    2.5618    0.0000 C   0  0  0  0  0  0  0  0  0
   -8.1342    0.0186    0.0000 C   0  0  0  0  0  0  0  0  0
   -8.1342   -0.8064    0.0000 O   0  0  0  0  0  0  0  0  0
   -7.4197    0.4311    0.0000 N   0  0  0  0  0  0  0  0  0
   -6.7052    0.0186    0.0000 C   0  0  0  0  0  0  0  0  0
   -5.9908    0.4311    0.0000 C   0  0  0  0  0  0  0  0  0
   -5.2763    0.0186    0.0000 C   0  0  0  0  0  0  0  0  0
   -4.5618    0.4311    0.0000 C   0  0  0  0  0  0  0  0  0
   -3.8474    0.0186    0.0000 N   0  0  0  0  0  0  0  0  0
   -3.1329    0.4311    0.0000 C   0  0  0  0  0  0  0  0  0
   -2.4184    0.0186    0.0000 C   0  0  0  0  0  0  0  0  0
   -2.4184   -0.8064    0.0000 N   0  0  0  0  0  0  0  0  0
   -3.1329   -1.2189    0.0000 C   0  0  0  0  0  0  0  0  0
   -3.8474   -0.8064    0.0000 C   0  0  0  0  0  0  0  0  0
   -1.7039   -1.2189    0.0000 C   0  0  0  0  0  0  0  0  0
   -0.9895   -0.8064    0.0000 C   0  0  0  0  0  0  0  0  0
   -0.2750   -1.2189    0.0000 C   0  0  0  0  0  0  0  0  0
   -0.2750   -2.0439    0.0000 C   0  0  0  0  0  0  0  0  0
   -0.9895   -2.4564    0.0000 C   0  0  0  0  0  0  0  0  0
   -1.7039   -2.0439    0.0000 C   0  0  0  0  0  0  0  0  0
   -2.4184   -2.4564    0.0000 O   0  0  0  0  0  0  0  0  0
   -2.4184   -3.2814    0.0000 C   0  0  0  0  0  0  0  0  0
  1  2  1  0  0  0  0
  1  9  1  0  0  0  0
  2  3  4  0  0  0  0
  2  7  4  0  0  0  0
  3  4  4  0  0  0  0
  4  5  4  0  0  0  0
  4 10  1  0  0  0  0
  5  6  4  0  0  0  0
  6  7  4  0  0  0  0
  7  8  1  0  0  0  0
  8  9  1  0  0  0  0
 10 11  2  0  0  0  0
 10 12  1  0  0  0  0
 12 13  1  0  0  0  0
 13 14  1  0  0  0  0
 14 15  1  0  0  0  0
 15 16  1  0  0  0  0
 16 17  1  0  0  0  0
 17 18  1  0  0  0  0
 17 22  1  0  0  0  0
 18 19  1  0  0  0  0
 19 20  1  0  0  0  0
 20 21  1  0  0  0  0
 20 23  1  0  0  0  0
 21 22  1  0  0  0  0
 23 24  4  0  0  0  0
 23 28  4  0  0  0  0
 24 25  4  0  0  0  0
 25 26  4  0  0  0  0
 26 27  4  0  0  0  0
 27 28  4  0  0  0  0
 28 29  1  0  0  0  0
 29 30  1  0  0  0  0
M  END
>  <Name_Molregno>
335901

>  <DOPAMINE D2>
7.06

>  <DOPAMINE D3>
7.83

$$$$
335913
  Marvin  02231216192D 0   1.00000     0.00000     0

 33 37  0  0  0  0  0  0  0  0999 V2000
    0.0856   -0.5613    0.0000 O   0  0  0  0  0  0  0  0  0
   -0.4664   -1.1744    0.0000 C   0  0  0  0  0  0  0  0  0
   -0.0539   -1.8888    0.0000 C   0  0  0  0  0  0  0  0  0
    0.7531   -1.7173    0.0000 C   0  0  0  0  0  0  0  0  0
    0.8393   -0.8968    0.0000 C   0  0  0  0  0  0  0  0  0
    1.5538   -0.4843    0.0000 C   0  0  0  0  0  0  0  0  0
    1.5538    0.3407    0.0000 O   0  0  0  0  0  0  0  0  0
    2.2682   -0.8968    0.0000 N   0  0  0  0  0  0  0  0  0
    2.9827   -0.4843    0.0000 C   0  0  0  0  0  0  0  0  0
    3.6972   -0.8968    0.0000 C   0  0  0  0  0  0  0  0  0
    4.4116   -0.4843    0.0000 C   0  0  0  0  0  0  0  0  0
    5.1261   -0.8968    0.0000 C   0  0  0  0  0  0  0  0  0
    5.8406   -0.4843    0.0000 N   0  0  0  0  0  0  0  0  0
    5.8406    0.3407    0.0000 C   0  0  0  0  0  0  0  0  0
    6.5551    0.7532    0.0000 C   0  0  0  0  0  0  0  0  0
    7.2695    0.3407    0.0000 N   0  0  0  0  0  0  0  0  0
    7.2695   -0.4843    0.0000 C   0  0  0  0  0  0  0  0  0
    6.5551   -0.8968    0.0000 C   0  0  0  0  0  0  0  0  0
    7.9840    0.7532    0.0000 C   0  0  0  0  0  0  0  0  0
    8.7377    0.4176    0.0000 N   0  0  0  0  0  0  0  0  0
    9.2897    1.0307    0.0000 N   0  0  0  0  0  0  0  0  0
    8.8772    1.7452    0.0000 C   0  0  0  0  0  0  0  0  0
    8.0702    1.5737    0.0000 C   0  0  0  0  0  0  0  0  0
    7.5182    2.1868    0.0000 C   0  0  0  0  0  0  0  0  0
    7.7731    2.9714    0.0000 C   0  0  0  0  0  0  0  0  0
    8.5801    3.1429    0.0000 C   0  0  0  0  0  0  0  0  0
    9.1321    2.5298    0.0000 C   0  0  0  0  0  0  0  0  0
   -0.4664   -2.6033    0.0000 C   0  0  0  0  0  0  0  0  0
   -1.2914   -2.6033    0.0000 C   0  0  0  0  0  0  0  0  0
   -1.7039   -1.8888    0.0000 C   0  0  0  0  0  0  0  0  0
   -1.2914   -1.1744    0.0000 C   0  0  0  0  0  0  0  0  0
   -1.7039   -0.4599    0.0000 O   0  0  0  0  0  0  0  0  0
   -2.5289   -0.4599    0.0000 C   0  0  0  0  0  0  0  0  0
  1  2  4  0  0  0  0
  1  5  4  0  0  0  0
  2  3  4  0  0  0  0
  2 31  4  0  0  0  0
  3  4  4  0  0  0  0
  3 28  4  0  0  0  0
  4  5  4  0  0  0  0
  5  6  1  0  0  0  0
  6  7  2  0  0  0  0
  6  8  1  0  0  0  0
  8  9  1  0  0  0  0
  9 10  1  0  0  0  0
 10 11  1  0  0  0  0
 11 12  1  0  0  0  0
 12 13  1  0  0  0  0
 13 14  1  0  0  0  0
 13 18  1  0  0  0  0
 14 15  1  0  0  0  0
 15 16  1  0  0  0  0
 16 17  1  0  0  0  0
 16 19  1  0  0  0  0
 17 18  1  0  0  0  0
 19 20  4  0  0  0  0
 19 23  4  0  0  0  0
 20 21  4  0  0  0  0
 21 22  4  0  0  0  0
 22 23  4  0  0  0  0
 22 27  4  0  0  0  0
 23 24  4  0  0  0  0
 24 25  4  0  0  0  0
 25 26  4  0  0  0  0
 26 27  4  0  0  0  0
 28 29  4  0  0  0  0
 29 30  4  0  0  0  0
 30 31  4  0  0  0  0
 31 32  1  0  0  0  0
 32 33  1  0  0  0  0
M  STY  1   1 DAT
M  SAL   1  1  20
M  SDT   1 MRV_IMPLICIT_H                                        
M  SDD   1     0.0000    0.0000    DR    ALL  0       0  
M  SED   1 IMPL_H1
M  END
>  <Name_Molregno>
335913

>  <DOPAMINE D2>
7.25

>  <DOPAMINE D3>
6.9

$$$$
336025
  Marvin  02231216192D 0   1.00000     0.00000     0

 33 36  0  0  0  0  0  0  0  0999 V2000
  -12.7435    3.4569    0.0000 O   0  0  0  0  0  0  0  0  0
  -12.0291    3.8694    0.0000 C   0  0  0  0  0  0  0  0  0
  -11.3146    3.4569    0.0000 C   0  0  0  0  0  0  0  0  0
  -11.3146    2.6319    0.0000 N   0  0  0  0  0  0  0  0  0
  -12.0291    2.2194    0.0000 C   0  0  0  0  0  0  0  0  0
  -12.7435    2.6319    0.0000 C   0  0  0  0  0  0  0  0  0
  -10.6001    2.2194    0.0000 C   0  0  0  0  0  0  0  0  0
   -9.8856    2.6319    0.0000 C   0  0  0  0  0  0  0  0  0
   -9.1712    2.2194    0.0000 C   0  0  0  0  0  0  0  0  0
   -9.1712    1.3944    0.0000 C   0  0  0  0  0  0  0  0  0
   -9.8856    0.9819    0.0000 C   0  0  0  0  0  0  0  0  0
  -10.6001    1.3944    0.0000 C   0  0  0  0  0  0  0  0  0
   -8.4567    0.9819    0.0000 C   0  0  0  0  0  0  0  0  0
   -8.4567    0.1569    0.0000 O   0  0  0  0  0  0  0  0  0
   -7.7422    1.3944    0.0000 N   0  0  0  0  0  0  0  0  0
   -7.0278    0.9819    0.0000 C   0  0  0  0  0  0  0  0  0
   -6.3133    1.3944    0.0000 C   0  0  0  0  0  0  0  0  0
   -5.5988    0.9819    0.0000 C   0  0  0  0  0  0  0  0  0
   -4.8843    1.3944    0.0000 C   0  0  0  0  0  0  0  0  0
   -4.1699    0.9819    0.0000 N   0  0  0  0  0  0  0  0  0
   -3.4554    1.3944    0.0000 C   0  0  0  0  0  0  0  0  0
   -2.7409    0.9819    0.0000 C   0  0  0  0  0  0  0  0  0
   -2.7409    0.1569    0.0000 N   0  0  0  0  0  0  0  0  0
   -3.4554   -0.2556    0.0000 C   0  0  0  0  0  0  0  0  0
   -4.1699    0.1569    0.0000 C   0  0  0  0  0  0  0  0  0
   -2.0265   -0.2556    0.0000 C   0  0  0  0  0  0  0  0  0
   -1.3120    0.1569    0.0000 C   0  0  0  0  0  0  0  0  0
   -0.5975   -0.2556    0.0000 C   0  0  0  0  0  0  0  0  0
   -0.5975   -1.0806    0.0000 C   0  0  0  0  0  0  0  0  0
   -1.3120   -1.4931    0.0000 C   0  0  0  0  0  0  0  0  0
   -2.0265   -1.0806    0.0000 C   0  0  0  0  0  0  0  0  0
   -2.7409   -1.4931    0.0000 O   0  0  0  0  0  0  0  0  0
   -2.7409   -2.3181    0.0000 C   0  0  0  0  0  0  0  0  0
  1  2  1  0  0  0  0
  1  6  1  0  0  0  0
  2  3  1  0  0  0  0
  3  4  1  0  0  0  0
  4  5  1  0  0  0  0
  4  7  1  0  0  0  0
  5  6  1  0  0  0  0
  7  8  4  0  0  0  0
  7 12  4  0  0  0  0
  8  9  4  0  0  0  0
  9 10  4  0  0  0  0
 10 11  4  0  0  0  0
 10 13  1  0  0  0  0
 11 12  4  0  0  0  0
 13 14  2  0  0  0  0
 13 15  1  0  0  0  0
 15 16  1  0  0  0  0
 16 17  1  0  0  0  0
 17 18  1  0  0  0  0
 18 19  1  0  0  0  0
 19 20  1  0  0  0  0
 20 21  1  0  0  0  0
 20 25  1  0  0  0  0
 21 22  1  0  0  0  0
 22 23  1  0  0  0  0
 23 24  1  0  0  0  0
 23 26  1  0  0  0  0
 24 25  1  0  0  0  0
 26 27  4  0  0  0  0
 26 31  4  0  0  0  0
 27 28  4  0  0  0  0
 28 29  4  0  0  0  0
 29 30  4  0  0  0  0
 30 31  4  0  0  0  0
 31 32  1  0  0  0  0
 32 33  1  0  0  0  0
M  END
>  <Name_Molregno>
336025

>  <DOPAMINE D2>
6.85

>  <DOPAMINE D3>
7.62

$$$$
336026
  Marvin  02231216192D 0   1.00000     0.00000     0

 32 35  0  0  0  0  0  0  0  0999 V2000
   -9.6200    0.1791    0.0000 O   0  0  0  0  0  0  0  0  0
  -10.3344   -0.2334    0.0000 C   0  0  0  0  0  0  0  0  0
   -9.6200    1.0041    0.0000 C   0  0  0  0  0  0  0  0  0
  -10.3344    1.4166    0.0000 C   0  0  0  0  0  0  0  0  0
  -10.3344    2.2416    0.0000 C   0  0  0  0  0  0  0  0  0
   -9.6200    2.6541    0.0000 C   0  0  0  0  0  0  0  0  0
   -8.9055    2.2416    0.0000 C   0  0  0  0  0  0  0  0  0
   -8.9055    1.4166    0.0000 C   0  0  0  0  0  0  0  0  0
   -8.1910    1.0041    0.0000 N   0  0  0  0  0  0  0  0  0
   -7.4766    1.4166    0.0000 C   0  0  0  0  0  0  0  0  0
   -6.7621    1.0041    0.0000 C   0  0  0  0  0  0  0  0  0
   -6.7621    0.1791    0.0000 N   0  0  0  0  0  0  0  0  0
   -7.4766   -0.2334    0.0000 C   0  0  0  0  0  0  0  0  0
   -8.1910    0.1791    0.0000 C   0  0  0  0  0  0  0  0  0
   -6.0476   -0.2334    0.0000 C   0  0  0  0  0  0  0  0  0
   -5.3331    0.1791    0.0000 C   0  0  0  0  0  0  0  0  0
   -4.6187   -0.2334    0.0000 C   0  0  0  0  0  0  0  0  0
   -3.9042    0.1791    0.0000 C   0  0  0  0  0  0  0  0  0
   -3.1897   -0.2334    0.0000 N   0  0  0  0  0  0  0  0  0
   -2.4753    0.1791    0.0000 C   0  0  0  0  0  0  0  0  0
   -2.4753    1.0041    0.0000 O   0  0  0  0  0  0  0  0  0
   -1.7608   -0.2334    0.0000 C   0  0  0  0  0  0  0  0  0
   -1.0463    0.1791    0.0000 C   0  0  0  0  0  0  0  0  0
   -0.3318   -0.2334    0.0000 C   0  0  0  0  0  0  0  0  0
   -0.3318   -1.0584    0.0000 C   0  0  0  0  0  0  0  0  0
    0.3826   -1.4709    0.0000 N   0  0  0  0  0  0  0  0  0
    1.1363   -1.1353    0.0000 C   0  0  0  0  0  0  0  0  0
    1.6883   -1.7484    0.0000 C   0  0  0  0  0  0  0  0  0
    1.2758   -2.4629    0.0000 N   0  0  0  0  0  0  0  0  0
    0.4689   -2.2913    0.0000 C   0  0  0  0  0  0  0  0  0
   -1.0463   -1.4709    0.0000 C   0  0  0  0  0  0  0  0  0
   -1.7608   -1.0584    0.0000 C   0  0  0  0  0  0  0  0  0
  1  2  1  0  0  0  0
  1  3  1  0  0  0  0
  3  4  4  0  0  0  0
  3  8  4  0  0  0  0
  4  5  4  0  0  0  0
  5  6  4  0  0  0  0
  6  7  4  0  0  0  0
  7  8  4  0  0  0  0
  8  9  1  0  0  0  0
  9 10  1  0  0  0  0
  9 14  1  0  0  0  0
 10 11  1  0  0  0  0
 11 12  1  0  0  0  0
 12 13  1  0  0  0  0
 12 15  1  0  0  0  0
 13 14  1  0  0  0  0
 15 16  1  0  0  0  0
 16 17  1  0  0  0  0
 17 18  1  0  0  0  0
 18 19  1  0  0  0  0
 19 20  1  0  0  0  0
 20 21  2  0  0  0  0
 20 22  1  0  0  0  0
 22 23  4  0  0  0  0
 22 32  4  0  0  0  0
 23 24  4  0  0  0  0
 24 25  4  0  0  0  0
 25 26  1  0  0  0  0
 25 31  4  0  0  0  0
 26 27  4  0  0  0  0
 26 30  4  0  0  0  0
 27 28  4  0  0  0  0
 28 29  4  0  0  0  0
 29 30  4  0  0  0  0
 31 32  4  0  0  0  0
M  END
>  <Name_Molregno>
336026

>  <DOPAMINE D2>
7.38

>  <DOPAMINE D3>
8.35

$$$$
336646
  Marvin  02231216192D 0   1.00000     0.00000     0

 19 21  0  0  0  0  0  0  0  0999 V2000
    0.0255   -0.6767    0.0000 N   0  0  0  0  0  0  0  0  0
    0.7400   -0.2642    0.0000 C   0  0  0  0  0  0  0  0  0
    1.4545   -0.6767    0.0000 C   0  0  0  0  0  0  0  0  0
    1.4545   -1.5017    0.0000 C   0  0  0  0  0  0  0  0  0
    0.7400   -1.9142    0.0000 C   0  0  0  0  0  0  0  0  0
    0.0255   -1.5017    0.0000 C   0  0  0  0  0  0  0  0  0
   -0.6889   -1.9142    0.0000 C   0  0  0  0  0  0  0  0  0
   -1.4034   -1.5017    0.0000 C   0  0  0  0  0  0  0  0  0
   -1.4034   -0.6767    0.0000 C   0  0  0  0  0  0  0  0  0
   -0.6889   -0.2642    0.0000 C   0  0  0  0  0  0  0  0  0
   -2.1179   -1.9142    0.0000 C   0  0  0  0  0  0  0  0  0
   -2.1179   -2.7392    0.0000 C   0  0  0  0  0  0  0  0  0
   -1.4034   -3.1517    0.0000 C   0  0  0  0  0  0  0  0  0
   -0.6889   -2.7392    0.0000 C   0  0  0  0  0  0  0  0  0
    0.7400   -2.7392    0.0000 C   0  0  0  0  0  0  0  0  0
    1.4545   -3.1517    0.0000 C   0  0  0  0  0  0  0  0  0
    2.1689   -2.7392    0.0000 C   0  0  0  0  0  0  0  0  0
    2.1689   -1.9142    0.0000 C   0  0  0  0  0  0  0  0  0
   -0.4594   -1.3441    0.0000 C   0  0  0  0  0  0  0  0  0
  1  2  1  0  0  0  0
  1 10  1  0  0  0  0
  1 19  1  0  0  0  0
  2  3  1  0  0  0  0
  3  4  1  0  0  0  0
  4  5  4  0  0  0  0
  4 18  4  0  0  0  0
  5  6  1  0  0  0  0
  5 15  4  0  0  0  0
  6  7  1  0  0  0  0
  7  8  4  0  0  0  0
  7 14  4  0  0  0  0
  8  9  1  0  0  0  0
  8 11  4  0  0  0  0
  9 10  1  0  0  0  0
 11 12  4  0  0  0  0
 12 13  4  0  0  0  0
 13 14  4  0  0  0  0
 15 16  4  0  0  0  0
 16 17  4  0  0  0  0
 17 18  4  0  0  0  0
M  END
>  <Name_Molregno>
336646

>  <DOPAMINE D1>
8.14

>  <DOPAMINE D2>
7.45

>  <DOPAMINE D3>
7.3

>  <DOPAMINE D4>
6.87

>  <DOPAMINE D5>
8.14

$$$$
336666
  Marvin  02231216192D 0   1.00000     0.00000     0

 20 22  0  0  0  0  0  0  0  0999 V2000
    0.3810   -0.8391    0.0000 O   0  0  0  0  0  0  0  0  0
    1.0955   -0.4266    0.0000 C   0  0  0  0  0  0  0  0  0
    1.0955    0.3984    0.0000 C   0  0  0  0  0  0  0  0  0
    1.8099    0.8109    0.0000 C   0  0  0  0  0  0  0  0  0
    1.8099    1.6359    0.0000 C   0  0  0  0  0  0  0  0  0
    2.5244    2.0484    0.0000 C   0  0  0  0  0  0  0  0  0
    3.2389    1.6359    0.0000 N   0  0  0  0  0  0  0  0  0
    3.9533    2.0484    0.0000 C   0  0  0  0  0  0  0  0  0
    4.6678    1.6359    0.0000 C   0  0  0  0  0  0  0  0  0
    4.6678    0.8109    0.0000 C   0  0  0  0  0  0  0  0  0
    3.9533    0.3984    0.0000 C   0  0  0  0  0  0  0  0  0
    3.2389    0.8109    0.0000 C   0  0  0  0  0  0  0  0  0
    2.5244    0.3984    0.0000 C   0  0  0  0  0  0  0  0  0
    2.5244   -0.4266    0.0000 C   0  0  0  0  0  0  0  0  0
    1.8099   -0.8391    0.0000 C   0  0  0  0  0  0  0  0  0
    3.9533   -0.4266    0.0000 C   0  0  0  0  0  0  0  0  0
    4.6678   -0.8391    0.0000 C   0  0  0  0  0  0  0  0  0
    5.3823   -0.4266    0.0000 C   0  0  0  0  0  0  0  0  0
    5.3823    0.3984    0.0000 C   0  0  0  0  0  0  0  0  0
    2.7539    0.9685    0.0000 C   0  0  0  0  0  0  0  0  0
  1  2  1  0  0  0  0
  2  3  4  0  0  0  0
  2 15  4  0  0  0  0
  3  4  4  0  0  0  0
  4  5  1  0  0  0  0
  4 13  4  0  0  0  0
  5  6  1  0  0  0  0
  6  7  1  0  0  0  0
  7  8  1  0  0  0  0
  7 20  1  0  0  0  0
  8  9  1  0  0  0  0
  9 10  1  0  0  0  0
 10 11  4  0  0  0  0
 10 19  4  0  0  0  0
 11 12  1  0  0  0  0
 11 16  4  0  0  0  0
 12 13  1  0  0  0  0
 13 14  4  0  0  0  0
 14 15  4  0  0  0  0
 16 17  4  0  0  0  0
 17 18  4  0  0  0  0
 18 19  4  0  0  0  0
M  END
>  <Name_Molregno>
336666

>  <DOPAMINE D1>
9.16

>  <DOPAMINE D2>
7.68

>  <DOPAMINE D3>
7.31

>  <DOPAMINE D4>
7.95

>  <DOPAMINE D5>
8.81

$$$$
336693
  Marvin  02231216192D 0   1.00000     0.00000     0

 35 38  0  0  0  0  0  0  0  0999 V2000
   -6.0523    5.6432    0.0000 F   0  0  0  0  0  0  0  0  0
   -5.3378    5.2307    0.0000 C   0  0  0  0  0  0  0  0  0
   -5.7503    4.5163    0.0000 F   0  0  0  0  0  0  0  0  0
   -4.9253    5.9452    0.0000 F   0  0  0  0  0  0  0  0  0
   -4.6233    4.8182    0.0000 C   0  0  0  0  0  0  0  0  0
   -3.9089    5.2307    0.0000 N   0  0  0  0  0  0  0  0  0
   -3.1944    4.8182    0.0000 C   0  0  0  0  0  0  0  0  0
   -3.1944    3.9932    0.0000 N   0  0  0  0  0  0  0  0  0
   -3.9089    3.5807    0.0000 C   0  0  0  0  0  0  0  0  0
   -3.9089    2.7557    0.0000 N   0  0  0  0  0  0  0  0  0
   -3.1944    2.3432    0.0000 C   0  0  0  0  0  0  0  0  0
   -3.1944    1.5182    0.0000 C   0  0  0  0  0  0  0  0  0
   -3.9089    1.1057    0.0000 N   0  0  0  0  0  0  0  0  0
   -4.6233    1.5182    0.0000 C   0  0  0  0  0  0  0  0  0
   -4.6233    2.3432    0.0000 C   0  0  0  0  0  0  0  0  0
   -3.9089    0.2807    0.0000 C   0  0  0  0  0  0  0  0  0
   -3.1944   -0.1318    0.0000 C   0  0  0  0  0  0  0  0  0
   -3.1944   -0.9568    0.0000 C   0  0  0  0  0  0  0  0  0
   -2.4799   -1.3693    0.0000 C   0  0  0  0  0  0  0  0  0
   -2.4799   -2.1943    0.0000 N   0  0  0  0  0  0  0  0  0
   -1.7654   -2.6068    0.0000 C   0  0  0  0  0  0  0  0  0
   -1.7654   -3.4318    0.0000 C   0  0  0  0  0  0  0  0  0
   -2.4799   -3.8443    0.0000 C   0  0  0  0  0  0  0  0  0
   -3.1944   -3.4318    0.0000 N   0  0  0  0  0  0  0  0  0
   -3.1944   -2.6068    0.0000 C   0  0  0  0  0  0  0  0  0
   -3.9089   -2.1943    0.0000 O   0  0  0  0  0  0  0  0  0
   -2.4799   -4.6693    0.0000 N   0  0  0  0  0  0  0  0  0
   -1.8965   -5.2526    0.0000 C   0  0  0  0  0  0  0  0  0
   -2.4799   -5.8360    0.0000 C   0  0  0  0  0  0  0  0  0
   -3.0633   -5.2526    0.0000 C   0  0  0  0  0  0  0  0  0
   -4.6233    3.9932    0.0000 C   0  0  0  0  0  0  0  0  0
   -2.4799    5.2307    0.0000 C   0  0  0  0  0  0  0  0  0
   -1.7654    5.6432    0.0000 C   0  0  0  0  0  0  0  0  0
   -2.0674    4.5163    0.0000 C   0  0  0  0  0  0  0  0  0
   -2.8924    5.9452    0.0000 C   0  0  0  0  0  0  0  0  0
  1  2  1  0  0  0  0
  2  3  1  0  0  0  0
  2  4  1  0  0  0  0
  2  5  1  0  0  0  0
  5  6  4  0  0  0  0
  5 31  4  0  0  0  0
  6  7  4  0  0  0  0
  7  8  4  0  0  0  0
  7 32  1  0  0  0  0
  8  9  4  0  0  0  0
  9 10  1  0  0  0  0
  9 31  4  0  0  0  0
 10 11  1  0  0  0  0
 10 15  1  0  0  0  0
 11 12  1  0  0  0  0
 12 13  1  0  0  0  0
 13 14  1  0  0  0  0
 13 16  1  0  0  0  0
 14 15  1  0  0  0  0
 16 17  1  0  0  0  0
 17 18  1  0  0  0  0
 18 19  1  0  0  0  0
 19 20  1  0  0  0  0
 20 21  1  0  0  0  0
 20 25  1  0  0  0  0
 21 22  2  0  0  0  0
 22 23  1  0  0  0  0
 23 24  2  0  0  0  0
 23 27  1  0  0  0  0
 24 25  1  0  0  0  0
 25 26  2  0  0  0  0
 27 28  1  0  0  0  0
 27 30  1  0  0  0  0
 28 29  1  0  0  0  0
 29 30  1  0  0  0  0
 32 33  1  0  0  0  0
 32 34  1  0  0  0  0
 32 35  1  0  0  0  0
M  END
>  <Name_Molregno>
336693

>  <DOPAMINE D2>
7.09

>  <DOPAMINE D3>
8.36

$$$$
336694
  Marvin  02231216192D 0   1.00000     0.00000     0

 37 40  0  0  0  0  0  0  0  0999 V2000
   -0.7214    6.1540    0.0000 F   0  0  0  0  0  0  0  0  0
   -0.7214    5.3290    0.0000 C   0  0  0  0  0  0  0  0  0
   -1.5464    5.3290    0.0000 F   0  0  0  0  0  0  0  0  0
    0.1036    5.3290    0.0000 F   0  0  0  0  0  0  0  0  0
   -0.7214    4.5040    0.0000 C   0  0  0  0  0  0  0  0  0
   -0.0070    4.0915    0.0000 N   0  0  0  0  0  0  0  0  0
   -0.0070    3.2665    0.0000 C   0  0  0  0  0  0  0  0  0
   -0.7214    2.8540    0.0000 N   0  0  0  0  0  0  0  0  0
   -1.4359    3.2665    0.0000 C   0  0  0  0  0  0  0  0  0
   -2.1504    2.8540    0.0000 N   0  0  0  0  0  0  0  0  0
   -2.1504    2.0290    0.0000 C   0  0  0  0  0  0  0  0  0
   -2.8648    1.6165    0.0000 C   0  0  0  0  0  0  0  0  0
   -3.5793    2.0290    0.0000 N   0  0  0  0  0  0  0  0  0
   -3.5793    2.8540    0.0000 C   0  0  0  0  0  0  0  0  0
   -2.8648    3.2665    0.0000 C   0  0  0  0  0  0  0  0  0
   -4.2938    1.6165    0.0000 C   0  0  0  0  0  0  0  0  0
   -4.2938    0.7915    0.0000 C   0  0  0  0  0  0  0  0  0
   -5.0083    0.3790    0.0000 C   0  0  0  0  0  0  0  0  0
   -5.0083   -0.4460    0.0000 C   0  0  0  0  0  0  0  0  0
   -5.7227   -0.8585    0.0000 N   0  0  0  0  0  0  0  0  0
   -5.7227   -1.6835    0.0000 C   0  0  0  0  0  0  0  0  0
   -6.4372   -2.0960    0.0000 C   0  0  0  0  0  0  0  0  0
   -7.1517   -1.6835    0.0000 C   0  0  0  0  0  0  0  0  0
   -7.1517   -0.8585    0.0000 N   0  0  0  0  0  0  0  0  0
   -6.4372   -0.4460    0.0000 C   0  0  0  0  0  0  0  0  0
   -6.4372    0.3790    0.0000 O   0  0  0  0  0  0  0  0  0
   -7.8661   -2.0960    0.0000 N   0  0  0  0  0  0  0  0  0
   -7.8661   -2.9210    0.0000 C   0  0  0  0  0  0  0  0  0
   -8.5806   -3.3335    0.0000 C   0  0  0  0  0  0  0  0  0
   -9.2951   -2.9210    0.0000 C   0  0  0  0  0  0  0  0  0
   -9.2951   -2.0960    0.0000 C   0  0  0  0  0  0  0  0  0
   -8.5806   -1.6835    0.0000 C   0  0  0  0  0  0  0  0  0
   -1.4359    4.0915    0.0000 C   0  0  0  0  0  0  0  0  0
    0.7075    2.8540    0.0000 C   0  0  0  0  0  0  0  0  0
    1.4220    2.4415    0.0000 C   0  0  0  0  0  0  0  0  0
    0.2950    2.1395    0.0000 C   0  0  0  0  0  0  0  0  0
    1.1200    3.5685    0.0000 C   0  0  0  0  0  0  0  0  0
  1  2  1  0  0  0  0
  2  3  1  0  0  0  0
  2  4  1  0  0  0  0
  2  5  1  0  0  0  0
  5  6  4  0  0  0  0
  5 33  4  0  0  0  0
  6  7  4  0  0  0  0
  7  8  4  0  0  0  0
  7 34  1  0  0  0  0
  8  9  4  0  0  0  0
  9 10  1  0  0  0  0
  9 33  4  0  0  0  0
 10 11  1  0  0  0  0
 10 15  1  0  0  0  0
 11 12  1  0  0  0  0
 12 13  1  0  0  0  0
 13 14  1  0  0  0  0
 13 16  1  0  0  0  0
 14 15  1  0  0  0  0
 16 17  1  0  0  0  0
 17 18  1  0  0  0  0
 18 19  1  0  0  0  0
 19 20  1  0  0  0  0
 20 21  1  0  0  0  0
 20 25  1  0  0  0  0
 21 22  2  0  0  0  0
 22 23  1  0  0  0  0
 23 24  2  0  0  0  0
 23 27  1  0  0  0  0
 24 25  1  0  0  0  0
 25 26  2  0  0  0  0
 27 28  1  0  0  0  0
 27 32  1  0  0  0  0
 28 29  1  0  0  0  0
 29 30  1  0  0  0  0
 30 31  1  0  0  0  0
 31 32  1  0  0  0  0
 34 35  1  0  0  0  0
 34 36  1  0  0  0  0
 34 37  1  0  0  0  0
M  END
>  <Name_Molregno>
336694

>  <DOPAMINE D2>
7.05

>  <DOPAMINE D3>
8.47

$$$$
336721
  Marvin  02231216192D 0   1.00000     0.00000     0

 31 33  0  0  0  0  0  0  0  0999 V2000
   -0.0674    1.5080    0.0000 S   0  0  0  0  0  0  0  0  0
    0.6470    1.9205    0.0000 C   0  0  0  0  0  0  0  0  0
    1.3615    1.5080    0.0000 C   0  0  0  0  0  0  0  0  0
    2.0760    1.9205    0.0000 C   0  0  0  0  0  0  0  0  0
    2.7904    1.5080    0.0000 N   0  0  0  0  0  0  0  0  0
    3.5049    1.9205    0.0000 C   0  0  0  0  0  0  0  0  0
    4.2194    1.5080    0.0000 C   0  0  0  0  0  0  0  0  0
    4.2194    0.6830    0.0000 N   0  0  0  0  0  0  0  0  0
    3.5049    0.2705    0.0000 C   0  0  0  0  0  0  0  0  0
    2.7904    0.6830    0.0000 C   0  0  0  0  0  0  0  0  0
    4.9339    0.2705    0.0000 C   0  0  0  0  0  0  0  0  0
    5.6483    0.6830    0.0000 N   0  0  0  0  0  0  0  0  0
    6.3628    0.2705    0.0000 C   0  0  0  0  0  0  0  0  0
    6.3628   -0.5545    0.0000 N   0  0  0  0  0  0  0  0  0
    5.6483   -0.9670    0.0000 C   0  0  0  0  0  0  0  0  0
    4.9339   -0.5545    0.0000 C   0  0  0  0  0  0  0  0  0
    5.6483   -1.7920    0.0000 C   0  0  0  0  0  0  0  0  0
    5.6483   -2.6170    0.0000 F   0  0  0  0  0  0  0  0  0
    6.4733   -1.7920    0.0000 F   0  0  0  0  0  0  0  0  0
    4.8233   -1.7920    0.0000 F   0  0  0  0  0  0  0  0  0
    7.0773    0.6830    0.0000 C   0  0  0  0  0  0  0  0  0
    7.7917    1.0955    0.0000 C   0  0  0  0  0  0  0  0  0
    7.4898   -0.0315    0.0000 C   0  0  0  0  0  0  0  0  0
    6.6648    1.3974    0.0000 C   0  0  0  0  0  0  0  0  0
   -0.7819    1.9205    0.0000 C   0  0  0  0  0  0  0  0  0
   -1.4964    1.5080    0.0000 N   0  0  0  0  0  0  0  0  0
   -2.2109    1.9205    0.0000 C   0  0  0  0  0  0  0  0  0
   -2.9253    1.5080    0.0000 O   0  0  0  0  0  0  0  0  0
   -2.2109    2.7455    0.0000 C   0  0  0  0  0  0  0  0  0
   -1.4964    3.1580    0.0000 C   0  0  0  0  0  0  0  0  0
   -0.7819    2.7455    0.0000 N   0  0  0  0  0  0  0  0  0
  1  2  1  0  0  0  0
  1 25  1  0  0  0  0
  2  3  1  0  0  0  0
  3  4  1  0  0  0  0
  4  5  1  0  0  0  0
  5  6  1  0  0  0  0
  5 10  1  0  0  0  0
  6  7  1  0  0  0  0
  7  8  1  0  0  0  0
  8  9  1  0  0  0  0
  8 11  1  0  0  0  0
  9 10  1  0  0  0  0
 11 12  4  0  0  0  0
 11 16  4  0  0  0  0
 12 13  4  0  0  0  0
 13 14  4  0  0  0  0
 13 21  1  0  0  0  0
 14 15  4  0  0  0  0
 15 16  4  0  0  0  0
 15 17  1  0  0  0  0
 17 18  1  0  0  0  0
 17 19  1  0  0  0  0
 17 20  1  0  0  0  0
 21 22  1  0  0  0  0
 21 23  1  0  0  0  0
 21 24  1  0  0  0  0
 25 26  4  0  0  0  0
 25 31  4  0  0  0  0
 26 27  4  0  0  0  0
 27 28  1  0  0  0  0
 27 29  4  0  0  0  0
 29 30  4  0  0  0  0
 30 31  4  0  0  0  0
M  END
>  <Name_Molregno>
336721

>  <DOPAMINE D2>
6.45

>  <DOPAMINE D3>
8.54

$$$$
336727
  Marvin  02231216192D 0   1.00000     0.00000     0

 33 35  0  0  0  0  0  0  0  0999 V2000
   -7.8866    0.9793    0.0000 F   0  0  0  0  0  0  0  0  0
   -7.1721    1.3918    0.0000 C   0  0  0  0  0  0  0  0  0
   -6.7596    0.6773    0.0000 F   0  0  0  0  0  0  0  0  0
   -7.5846    2.1062    0.0000 F   0  0  0  0  0  0  0  0  0
   -6.4576    1.8043    0.0000 C   0  0  0  0  0  0  0  0  0
   -6.4576    2.6293    0.0000 N   0  0  0  0  0  0  0  0  0
   -5.7432    3.0418    0.0000 C   0  0  0  0  0  0  0  0  0
   -5.0287    2.6293    0.0000 N   0  0  0  0  0  0  0  0  0
   -5.0287    1.8043    0.0000 C   0  0  0  0  0  0  0  0  0
   -4.3142    1.3918    0.0000 N   0  0  0  0  0  0  0  0  0
   -3.5997    1.8043    0.0000 C   0  0  0  0  0  0  0  0  0
   -2.8853    1.3918    0.0000 C   0  0  0  0  0  0  0  0  0
   -2.8853    0.5668    0.0000 N   0  0  0  0  0  0  0  0  0
   -3.5997    0.1543    0.0000 C   0  0  0  0  0  0  0  0  0
   -4.3142    0.5668    0.0000 C   0  0  0  0  0  0  0  0  0
   -2.1708    0.1543    0.0000 C   0  0  0  0  0  0  0  0  0
   -1.4563    0.5668    0.0000 C   0  0  0  0  0  0  0  0  0
   -0.7419    0.1543    0.0000 C   0  0  0  0  0  0  0  0  0
   -0.0274    0.5668    0.0000 C   0  0  0  0  0  0  0  0  0
    0.6871    0.1543    0.0000 N   0  0  0  0  0  0  0  0  0
    1.4016    0.5668    0.0000 C   0  0  0  0  0  0  0  0  0
    2.1160    0.1543    0.0000 C   0  0  0  0  0  0  0  0  0
    2.8305    0.5668    0.0000 C   0  0  0  0  0  0  0  0  0
    2.1160   -0.6707    0.0000 C   0  0  0  0  0  0  0  0  0
    2.8305   -1.0832    0.0000 O   0  0  0  0  0  0  0  0  0
    1.4016   -1.0832    0.0000 N   0  0  0  0  0  0  0  0  0
    0.6871   -0.6707    0.0000 C   0  0  0  0  0  0  0  0  0
   -0.0274   -1.0832    0.0000 O   0  0  0  0  0  0  0  0  0
   -5.7432    1.3918    0.0000 C   0  0  0  0  0  0  0  0  0
   -5.7432    3.8668    0.0000 C   0  0  0  0  0  0  0  0  0
   -5.7432    4.6918    0.0000 C   0  0  0  0  0  0  0  0  0
   -4.9182    3.8668    0.0000 C   0  0  0  0  0  0  0  0  0
   -6.5682    3.8668    0.0000 C   0  0  0  0  0  0  0  0  0
  1  2  1  0  0  0  0
  2  3  1  0  0  0  0
  2  4  1  0  0  0  0
  2  5  1  0  0  0  0
  5  6  4  0  0  0  0
  5 29  4  0  0  0  0
  6  7  4  0  0  0  0
  7  8  4  0  0  0  0
  7 30  1  0  0  0  0
  8  9  4  0  0  0  0
  9 10  1  0  0  0  0
  9 29  4  0  0  0  0
 10 11  1  0  0  0  0
 10 15  1  0  0  0  0
 11 12  1  0  0  0  0
 12 13  1  0  0  0  0
 13 14  1  0  0  0  0
 13 16  1  0  0  0  0
 14 15  1  0  0  0  0
 16 17  1  0  0  0  0
 17 18  1  0  0  0  0
 18 19  1  0  0  0  0
 19 20  1  0  0  0  0
 20 21  1  0  0  0  0
 20 27  1  0  0  0  0
 21 22  2  0  0  0  0
 22 23  1  0  0  0  0
 22 24  1  0  0  0  0
 24 25  2  0  0  0  0
 24 26  1  0  0  0  0
 26 27  1  0  0  0  0
 27 28  2  0  0  0  0
 30 31  1  0  0  0  0
 30 32  1  0  0  0  0
 30 33  1  0  0  0  0
M  END
>  <Name_Molregno>
336727

>  <DOPAMINE D2>
6.49

>  <DOPAMINE D3>
8.89

$$$$
336802
  Marvin  02231216192D 0   1.00000     0.00000     0

 37 40  0  0  0  0  0  0  0  0999 V2000
   -0.7214    6.1540    0.0000 F   0  0  0  0  0  0  0  0  0
   -0.7214    5.3290    0.0000 C   0  0  0  0  0  0  0  0  0
   -1.5464    5.3290    0.0000 F   0  0  0  0  0  0  0  0  0
    0.1036    5.3290    0.0000 F   0  0  0  0  0  0  0  0  0
   -0.7214    4.5040    0.0000 C   0  0  0  0  0  0  0  0  0
   -0.0070    4.0915    0.0000 N   0  0  0  0  0  0  0  0  0
   -0.0070    3.2665    0.0000 C   0  0  0  0  0  0  0  0  0
   -0.7214    2.8540    0.0000 N   0  0  0  0  0  0  0  0  0
   -1.4359    3.2665    0.0000 C   0  0  0  0  0  0  0  0  0
   -2.1504    2.8540    0.0000 N   0  0  0  0  0  0  0  0  0
   -2.1504    2.0290    0.0000 C   0  0  0  0  0  0  0  0  0
   -2.8648    1.6165    0.0000 C   0  0  0  0  0  0  0  0  0
   -3.5793    2.0290    0.0000 N   0  0  0  0  0  0  0  0  0
   -3.5793    2.8540    0.0000 C   0  0  0  0  0  0  0  0  0
   -2.8648    3.2665    0.0000 C   0  0  0  0  0  0  0  0  0
   -4.2938    1.6165    0.0000 C   0  0  0  0  0  0  0  0  0
   -4.2938    0.7915    0.0000 C   0  0  0  0  0  0  0  0  0
   -5.0083    0.3790    0.0000 C   0  0  0  0  0  0  0  0  0
   -5.0083   -0.4460    0.0000 C   0  0  0  0  0  0  0  0  0
   -5.7227   -0.8585    0.0000 N   0  0  0  0  0  0  0  0  0
   -5.7227   -1.6835    0.0000 C   0  0  0  0  0  0  0  0  0
   -6.4372   -2.0960    0.0000 C   0  0  0  0  0  0  0  0  0
   -7.1517   -1.6835    0.0000 C   0  0  0  0  0  0  0  0  0
   -7.1517   -0.8585    0.0000 N   0  0  0  0  0  0  0  0  0
   -6.4372   -0.4460    0.0000 C   0  0  0  0  0  0  0  0  0
   -6.4372    0.3790    0.0000 O   0  0  0  0  0  0  0  0  0
   -7.8661   -2.0960    0.0000 C   0  0  0  0  0  0  0  0  0
   -7.8661   -2.9210    0.0000 C   0  0  0  0  0  0  0  0  0
   -8.5806   -3.3335    0.0000 C   0  0  0  0  0  0  0  0  0
   -9.2951   -2.9210    0.0000 C   0  0  0  0  0  0  0  0  0
   -9.2951   -2.0960    0.0000 C   0  0  0  0  0  0  0  0  0
   -8.5806   -1.6835    0.0000 C   0  0  0  0  0  0  0  0  0
   -1.4359    4.0915    0.0000 C   0  0  0  0  0  0  0  0  0
    0.7075    2.8540    0.0000 C   0  0  0  0  0  0  0  0  0
    1.4220    2.4415    0.0000 C   0  0  0  0  0  0  0  0  0
    0.2950    2.1395    0.0000 C   0  0  0  0  0  0  0  0  0
    1.1200    3.5685    0.0000 C   0  0  0  0  0  0  0  0  0
  1  2  1  0  0  0  0
  2  3  1  0  0  0  0
  2  4  1  0  0  0  0
  2  5  1  0  0  0  0
  5  6  4  0  0  0  0
  5 33  4  0  0  0  0
  6  7  4  0  0  0  0
  7  8  4  0  0  0  0
  7 34  1  0  0  0  0
  8  9  4  0  0  0  0
  9 10  1  0  0  0  0
  9 33  4  0  0  0  0
 10 11  1  0  0  0  0
 10 15  1  0  0  0  0
 11 12  1  0  0  0  0
 12 13  1  0  0  0  0
 13 14  1  0  0  0  0
 13 16  1  0  0  0  0
 14 15  1  0  0  0  0
 16 17  1  0  0  0  0
 17 18  1  0  0  0  0
 18 19  1  0  0  0  0
 19 20  1  0  0  0  0
 20 21  1  0  0  0  0
 20 25  1  0  0  0  0
 21 22  2  0  0  0  0
 22 23  1  0  0  0  0
 23 24  2  0  0  0  0
 23 27  1  0  0  0  0
 24 25  1  0  0  0  0
 25 26  2  0  0  0  0
 27 28  1  0  0  0  0
 27 32  1  0  0  0  0
 28 29  1  0  0  0  0
 29 30  1  0  0  0  0
 30 31  1  0  0  0  0
 31 32  1  0  0  0  0
 34 35  1  0  0  0  0
 34 36  1  0  0  0  0
 34 37  1  0  0  0  0
M  END
>  <Name_Molregno>
336802

>  <DOPAMINE D2>
6.69

>  <DOPAMINE D3>
8.67

$$$$
336839
  Marvin  02231216192D 0   1.00000     0.00000     0

 33 35  0  0  0  0  0  0  0  0999 V2000
  -11.0497   -1.0260    0.0000 Cl  0  0  0  0  0  0  0  0  0
  -10.3352   -1.4385    0.0000 C   0  0  0  0  0  0  0  0  0
   -9.6207   -1.0260    0.0000 C   0  0  0  0  0  0  0  0  0
   -8.9063   -1.4385    0.0000 N   0  0  0  0  0  0  0  0  0
   -8.1918   -1.0260    0.0000 C   0  0  0  0  0  0  0  0  0
   -7.4773   -1.4385    0.0000 C   0  0  0  0  0  0  0  0  0
   -6.7628   -1.0260    0.0000 C   0  0  0  0  0  0  0  0  0
   -6.0484   -1.4385    0.0000 C   0  0  0  0  0  0  0  0  0
   -5.3339   -1.0260    0.0000 N   0  0  0  0  0  0  0  0  0
   -5.3339   -0.2010    0.0000 C   0  0  0  0  0  0  0  0  0
   -4.6194    0.2115    0.0000 C   0  0  0  0  0  0  0  0  0
   -3.9050   -0.2010    0.0000 N   0  0  0  0  0  0  0  0  0
   -3.9050   -1.0260    0.0000 C   0  0  0  0  0  0  0  0  0
   -4.6194   -1.4385    0.0000 C   0  0  0  0  0  0  0  0  0
   -3.1905    0.2115    0.0000 C   0  0  0  0  0  0  0  0  0
   -3.1905    1.0365    0.0000 N   0  0  0  0  0  0  0  0  0
   -2.4760    1.4490    0.0000 C   0  0  0  0  0  0  0  0  0
   -1.7615    1.0365    0.0000 N   0  0  0  0  0  0  0  0  0
   -1.7615    0.2115    0.0000 C   0  0  0  0  0  0  0  0  0
   -2.4760   -0.2010    0.0000 C   0  0  0  0  0  0  0  0  0
   -1.0471   -0.2010    0.0000 C   0  0  0  0  0  0  0  0  0
   -0.3326   -0.6135    0.0000 F   0  0  0  0  0  0  0  0  0
   -0.6346    0.5135    0.0000 F   0  0  0  0  0  0  0  0  0
   -1.4596   -0.9154    0.0000 F   0  0  0  0  0  0  0  0  0
   -2.4760    2.2740    0.0000 C   0  0  0  0  0  0  0  0  0
   -2.4760    3.0990    0.0000 C   0  0  0  0  0  0  0  0  0
   -1.6510    2.2740    0.0000 C   0  0  0  0  0  0  0  0  0
   -3.3010    2.2740    0.0000 C   0  0  0  0  0  0  0  0  0
   -8.9063   -2.2635    0.0000 C   0  0  0  0  0  0  0  0  0
   -8.1918   -2.6760    0.0000 O   0  0  0  0  0  0  0  0  0
   -9.6207   -2.6760    0.0000 N   0  0  0  0  0  0  0  0  0
  -10.3352   -2.2635    0.0000 C   0  0  0  0  0  0  0  0  0
  -11.0497   -2.6760    0.0000 O   0  0  0  0  0  0  0  0  0
  1  2  1  0  0  0  0
  2  3  2  0  0  0  0
  2 32  1  0  0  0  0
  3  4  1  0  0  0  0
  4  5  1  0  0  0  0
  4 29  1  0  0  0  0
  5  6  1  0  0  0  0
  6  7  1  0  0  0  0
  7  8  1  0  0  0  0
  8  9  1  0  0  0  0
  9 10  1  0  0  0  0
  9 14  1  0  0  0  0
 10 11  1  0  0  0  0
 11 12  1  0  0  0  0
 12 13  1  0  0  0  0
 12 15  1  0  0  0  0
 13 14  1  0  0  0  0
 15 16  4  0  0  0  0
 15 20  4  0  0  0  0
 16 17  4  0  0  0  0
 17 18  4  0  0  0  0
 17 25  1  0  0  0  0
 18 19  4  0  0  0  0
 19 20  4  0  0  0  0
 19 21  1  0  0  0  0
 21 22  1  0  0  0  0
 21 23  1  0  0  0  0
 21 24  1  0  0  0  0
 25 26  1  0  0  0  0
 25 27  1  0  0  0  0
 25 28  1  0  0  0  0
 29 30  2  0  0  0  0
 29 31  1  0  0  0  0
 31 32  1  0  0  0  0
 32 33  2  0  0  0  0
M  END
>  <Name_Molregno>
336839

>  <DOPAMINE D2>
6.66

>  <DOPAMINE D3>
8.64

$$$$
336845
  Marvin  02231216192D 0   1.00000     0.00000     0

 36 38  0  0  0  0  0  0  0  0999 V2000
   -8.1837    3.7416    0.0000 F   0  0  0  0  0  0  0  0  0
   -8.1837    2.9166    0.0000 C   0  0  0  0  0  0  0  0  0
   -9.0087    2.9166    0.0000 F   0  0  0  0  0  0  0  0  0
   -7.3587    2.9166    0.0000 F   0  0  0  0  0  0  0  0  0
   -8.1837    2.0916    0.0000 C   0  0  0  0  0  0  0  0  0
   -7.4692    1.6791    0.0000 C   0  0  0  0  0  0  0  0  0
   -7.4692    0.8541    0.0000 N   0  0  0  0  0  0  0  0  0
   -6.7548    0.4416    0.0000 C   0  0  0  0  0  0  0  0  0
   -6.0403    0.8541    0.0000 C   0  0  0  0  0  0  0  0  0
   -5.3258    0.4416    0.0000 C   0  0  0  0  0  0  0  0  0
   -4.6114    0.8541    0.0000 C   0  0  0  0  0  0  0  0  0
   -3.8969    0.4416    0.0000 N   0  0  0  0  0  0  0  0  0
   -3.1824    0.8541    0.0000 C   0  0  0  0  0  0  0  0  0
   -2.4680    0.4416    0.0000 C   0  0  0  0  0  0  0  0  0
   -2.4680   -0.3834    0.0000 N   0  0  0  0  0  0  0  0  0
   -3.1824   -0.7959    0.0000 C   0  0  0  0  0  0  0  0  0
   -3.8969   -0.3834    0.0000 C   0  0  0  0  0  0  0  0  0
   -1.7535   -0.7959    0.0000 C   0  0  0  0  0  0  0  0  0
   -1.0390   -0.3834    0.0000 N   0  0  0  0  0  0  0  0  0
   -0.3245   -0.7959    0.0000 C   0  0  0  0  0  0  0  0  0
   -0.3245   -1.6209    0.0000 N   0  0  0  0  0  0  0  0  0
   -1.0390   -2.0334    0.0000 C   0  0  0  0  0  0  0  0  0
   -1.7535   -1.6209    0.0000 C   0  0  0  0  0  0  0  0  0
   -1.0390   -2.8584    0.0000 C   0  0  0  0  0  0  0  0  0
   -1.0390   -3.6834    0.0000 F   0  0  0  0  0  0  0  0  0
   -1.8640   -2.8584    0.0000 F   0  0  0  0  0  0  0  0  0
   -0.2140   -2.8584    0.0000 F   0  0  0  0  0  0  0  0  0
    0.3899   -0.3834    0.0000 C   0  0  0  0  0  0  0  0  0
    1.1044    0.0291    0.0000 C   0  0  0  0  0  0  0  0  0
    0.8024   -1.0979    0.0000 C   0  0  0  0  0  0  0  0  0
   -0.0226    0.3310    0.0000 C   0  0  0  0  0  0  0  0  0
   -8.1837    0.4416    0.0000 C   0  0  0  0  0  0  0  0  0
   -8.1837   -0.3834    0.0000 O   0  0  0  0  0  0  0  0  0
   -8.8982    0.8541    0.0000 N   0  0  0  0  0  0  0  0  0
   -8.8982    1.6791    0.0000 C   0  0  0  0  0  0  0  0  0
   -9.6127    2.0916    0.0000 O   0  0  0  0  0  0  0  0  0
  1  2  1  0  0  0  0
  2  3  1  0  0  0  0
  2  4  1  0  0  0  0
  2  5  1  0  0  0  0
  5  6  2  0  0  0  0
  5 35  1  0  0  0  0
  6  7  1  0  0  0  0
  7  8  1  0  0  0  0
  7 32  1  0  0  0  0
  8  9  1  0  0  0  0
  9 10  1  0  0  0  0
 10 11  1  0  0  0  0
 11 12  1  0  0  0  0
 12 13  1  0  0  0  0
 12 17  1  0  0  0  0
 13 14  1  0  0  0  0
 14 15  1  0  0  0  0
 15 16  1  0  0  0  0
 15 18  1  0  0  0  0
 16 17  1  0  0  0  0
 18 19  4  0  0  0  0
 18 23  4  0  0  0  0
 19 20  4  0  0  0  0
 20 21  4  0  0  0  0
 20 28  1  0  0  0  0
 21 22  4  0  0  0  0
 22 23  4  0  0  0  0
 22 24  1  0  0  0  0
 24 25  1  0  0  0  0
 24 26  1  0  0  0  0
 24 27  1  0  0  0  0
 28 29  1  0  0  0  0
 28 30  1  0  0  0  0
 28 31  1  0  0  0  0
 32 33  2  0  0  0  0
 32 34  1  0  0  0  0
 34 35  1  0  0  0  0
 35 36  2  0  0  0  0
M  END
>  <Name_Molregno>
336845

>  <DOPAMINE D2>
6.19

>  <DOPAMINE D3>
8.27

$$$$
336846
  Marvin  02231216192D 0   1.00000     0.00000     0

 34 36  0  0  0  0  0  0  0  0999 V2000
   -9.2684   -1.8731    0.0000 F   0  0  0  0  0  0  0  0  0
   -8.5539   -1.4606    0.0000 C   0  0  0  0  0  0  0  0  0
   -8.1414   -2.1750    0.0000 F   0  0  0  0  0  0  0  0  0
   -8.9664   -0.7461    0.0000 F   0  0  0  0  0  0  0  0  0
   -7.8395   -1.0481    0.0000 C   0  0  0  0  0  0  0  0  0
   -7.8395   -0.2231    0.0000 N   0  0  0  0  0  0  0  0  0
   -7.1250    0.1894    0.0000 C   0  0  0  0  0  0  0  0  0
   -6.4105   -0.2231    0.0000 N   0  0  0  0  0  0  0  0  0
   -6.4105   -1.0481    0.0000 C   0  0  0  0  0  0  0  0  0
   -5.6961   -1.4606    0.0000 N   0  0  0  0  0  0  0  0  0
   -4.9816   -1.0481    0.0000 C   0  0  0  0  0  0  0  0  0
   -4.2671   -1.4606    0.0000 C   0  0  0  0  0  0  0  0  0
   -4.2671   -2.2856    0.0000 N   0  0  0  0  0  0  0  0  0
   -4.9816   -2.6981    0.0000 C   0  0  0  0  0  0  0  0  0
   -5.6961   -2.2856    0.0000 C   0  0  0  0  0  0  0  0  0
   -3.5526   -2.6981    0.0000 C   0  0  0  0  0  0  0  0  0
   -2.8382   -2.2856    0.0000 C   0  0  0  0  0  0  0  0  0
   -2.1237   -2.6981    0.0000 C   0  0  0  0  0  0  0  0  0
   -1.4092   -2.2856    0.0000 C   0  0  0  0  0  0  0  0  0
   -0.6948   -2.6981    0.0000 N   0  0  0  0  0  0  0  0  0
    0.0197   -2.2856    0.0000 C   0  0  0  0  0  0  0  0  0
    0.7342   -2.6981    0.0000 C   0  0  0  0  0  0  0  0  0
    1.4487   -2.2856    0.0000 C   0  0  0  0  0  0  0  0  0
    2.1631   -1.8731    0.0000 N   0  0  0  0  0  0  0  0  0
    0.7342   -3.5231    0.0000 C   0  0  0  0  0  0  0  0  0
    1.4487   -3.9356    0.0000 O   0  0  0  0  0  0  0  0  0
    0.0197   -3.9356    0.0000 N   0  0  0  0  0  0  0  0  0
   -0.6948   -3.5231    0.0000 C   0  0  0  0  0  0  0  0  0
   -1.4092   -3.9356    0.0000 O   0  0  0  0  0  0  0  0  0
   -7.1250   -1.4606    0.0000 C   0  0  0  0  0  0  0  0  0
   -7.1250    1.0144    0.0000 C   0  0  0  0  0  0  0  0  0
   -7.1250    1.8394    0.0000 C   0  0  0  0  0  0  0  0  0
   -6.3000    1.0144    0.0000 C   0  0  0  0  0  0  0  0  0
   -7.9500    1.0144    0.0000 C   0  0  0  0  0  0  0  0  0
  1  2  1  0  0  0  0
  2  3  1  0  0  0  0
  2  4  1  0  0  0  0
  2  5  1  0  0  0  0
  5  6  4  0  0  0  0
  5 30  4  0  0  0  0
  6  7  4  0  0  0  0
  7  8  4  0  0  0  0
  7 31  1  0  0  0  0
  8  9  4  0  0  0  0
  9 10  1  0  0  0  0
  9 30  4  0  0  0  0
 10 11  1  0  0  0  0
 10 15  1  0  0  0  0
 11 12  1  0  0  0  0
 12 13  1  0  0  0  0
 13 14  1  0  0  0  0
 13 16  1  0  0  0  0
 14 15  1  0  0  0  0
 16 17  1  0  0  0  0
 17 18  1  0  0  0  0
 18 19  1  0  0  0  0
 19 20  1  0  0  0  0
 20 21  1  0  0  0  0
 20 28  1  0  0  0  0
 21 22  2  0  0  0  0
 22 23  1  0  0  0  0
 22 25  1  0  0  0  0
 23 24  3  0  0  0  0
 25 26  2  0  0  0  0
 25 27  1  0  0  0  0
 27 28  1  0  0  0  0
 28 29  2  0  0  0  0
 31 32  1  0  0  0  0
 31 33  1  0  0  0  0
 31 34  1  0  0  0  0
M  END
>  <Name_Molregno>
336846

>  <DOPAMINE D2>
6.33

>  <DOPAMINE D3>
8.32

$$$$
336886
  Marvin  02231216192D 0   1.00000     0.00000     0

 33 35  0  0  0  0  0  0  0  0999 V2000
   -7.8333    0.9838    0.0000 F   0  0  0  0  0  0  0  0  0
   -7.1189    1.3963    0.0000 C   0  0  0  0  0  0  0  0  0
   -6.7064    0.6818    0.0000 F   0  0  0  0  0  0  0  0  0
   -7.5314    2.1108    0.0000 F   0  0  0  0  0  0  0  0  0
   -6.4044    1.8088    0.0000 C   0  0  0  0  0  0  0  0  0
   -6.4044    2.6338    0.0000 N   0  0  0  0  0  0  0  0  0
   -5.6899    3.0463    0.0000 C   0  0  0  0  0  0  0  0  0
   -4.9754    2.6338    0.0000 N   0  0  0  0  0  0  0  0  0
   -4.9754    1.8088    0.0000 C   0  0  0  0  0  0  0  0  0
   -4.2610    1.3963    0.0000 N   0  0  0  0  0  0  0  0  0
   -3.5465    1.8088    0.0000 C   0  0  0  0  0  0  0  0  0
   -2.8320    1.3963    0.0000 C   0  0  0  0  0  0  0  0  0
   -2.8320    0.5713    0.0000 N   0  0  0  0  0  0  0  0  0
   -3.5465    0.1588    0.0000 C   0  0  0  0  0  0  0  0  0
   -4.2610    0.5713    0.0000 C   0  0  0  0  0  0  0  0  0
   -2.1176    0.1588    0.0000 C   0  0  0  0  0  0  0  0  0
   -1.4031    0.5713    0.0000 C   0  0  0  0  0  0  0  0  0
   -0.6886    0.1588    0.0000 C   0  0  0  0  0  0  0  0  0
    0.0259    0.5713    0.0000 C   0  0  0  0  0  0  0  0  0
    0.7403    0.1588    0.0000 N   0  0  0  0  0  0  0  0  0
    1.4548    0.5713    0.0000 C   0  0  0  0  0  0  0  0  0
    2.1693    0.1588    0.0000 C   0  0  0  0  0  0  0  0  0
    2.1693   -0.6662    0.0000 C   0  0  0  0  0  0  0  0  0
    2.8837   -1.0787    0.0000 O   0  0  0  0  0  0  0  0  0
    1.4548   -1.0787    0.0000 N   0  0  0  0  0  0  0  0  0
    1.4548   -1.9037    0.0000 C   0  0  0  0  0  0  0  0  0
    0.7403   -0.6662    0.0000 C   0  0  0  0  0  0  0  0  0
    0.0259   -1.0787    0.0000 O   0  0  0  0  0  0  0  0  0
   -5.6899    1.3963    0.0000 C   0  0  0  0  0  0  0  0  0
   -5.6899    3.8713    0.0000 C   0  0  0  0  0  0  0  0  0
   -5.6899    4.6963    0.0000 C   0  0  0  0  0  0  0  0  0
   -4.8649    3.8713    0.0000 C   0  0  0  0  0  0  0  0  0
   -6.5149    3.8713    0.0000 C   0  0  0  0  0  0  0  0  0
  1  2  1  0  0  0  0
  2  3  1  0  0  0  0
  2  4  1  0  0  0  0
  2  5  1  0  0  0  0
  5  6  4  0  0  0  0
  5 29  4  0  0  0  0
  6  7  4  0  0  0  0
  7  8  4  0  0  0  0
  7 30  1  0  0  0  0
  8  9  4  0  0  0  0
  9 10  1  0  0  0  0
  9 29  4  0  0  0  0
 10 11  1  0  0  0  0
 10 15  1  0  0  0  0
 11 12  1  0  0  0  0
 12 13  1  0  0  0  0
 13 14  1  0  0  0  0
 13 16  1  0  0  0  0
 14 15  1  0  0  0  0
 16 17  1  0  0  0  0
 17 18  1  0  0  0  0
 18 19  1  0  0  0  0
 19 20  1  0  0  0  0
 20 21  1  0  0  0  0
 20 27  1  0  0  0  0
 21 22  2  0  0  0  0
 22 23  1  0  0  0  0
 23 24  2  0  0  0  0
 23 25  1  0  0  0  0
 25 26  1  0  0  0  0
 25 27  1  0  0  0  0
 27 28  2  0  0  0  0
 30 31  1  0  0  0  0
 30 32  1  0  0  0  0
 30 33  1  0  0  0  0
M  END
>  <Name_Molregno>
336886

>  <DOPAMINE D2>
6.21

>  <DOPAMINE D3>
7.93

$$$$
336899
  Marvin  02231216192D 0   1.00000     0.00000     0

 34 36  0  0  0  0  0  0  0  0999 V2000
   -8.1640    0.9960    0.0000 F   0  0  0  0  0  0  0  0  0
   -7.4495    1.4085    0.0000 C   0  0  0  0  0  0  0  0  0
   -7.0370    0.6940    0.0000 F   0  0  0  0  0  0  0  0  0
   -7.8620    2.1229    0.0000 F   0  0  0  0  0  0  0  0  0
   -6.7350    1.8210    0.0000 C   0  0  0  0  0  0  0  0  0
   -6.7350    2.6460    0.0000 N   0  0  0  0  0  0  0  0  0
   -6.0206    3.0585    0.0000 C   0  0  0  0  0  0  0  0  0
   -5.3061    2.6460    0.0000 N   0  0  0  0  0  0  0  0  0
   -5.3061    1.8210    0.0000 C   0  0  0  0  0  0  0  0  0
   -4.5916    1.4085    0.0000 N   0  0  0  0  0  0  0  0  0
   -3.8771    1.8210    0.0000 C   0  0  0  0  0  0  0  0  0
   -3.1627    1.4085    0.0000 C   0  0  0  0  0  0  0  0  0
   -3.1627    0.5835    0.0000 N   0  0  0  0  0  0  0  0  0
   -3.8771    0.1710    0.0000 C   0  0  0  0  0  0  0  0  0
   -4.5916    0.5835    0.0000 C   0  0  0  0  0  0  0  0  0
   -2.4482    0.1710    0.0000 C   0  0  0  0  0  0  0  0  0
   -1.7337    0.5835    0.0000 C   0  0  0  0  0  0  0  0  0
   -1.0193    0.1710    0.0000 C   0  0  0  0  0  0  0  0  0
   -0.3048    0.5835    0.0000 C   0  0  0  0  0  0  0  0  0
    0.4097    0.1710    0.0000 N   0  0  0  0  0  0  0  0  0
    1.1241    0.5835    0.0000 C   0  0  0  0  0  0  0  0  0
    1.8386    0.1710    0.0000 C   0  0  0  0  0  0  0  0  0
    2.5531    0.5835    0.0000 C   0  0  0  0  0  0  0  0  0
    1.8386   -0.6540    0.0000 C   0  0  0  0  0  0  0  0  0
    2.5531   -1.0665    0.0000 O   0  0  0  0  0  0  0  0  0
    1.1241   -1.0665    0.0000 N   0  0  0  0  0  0  0  0  0
    1.1241   -1.8915    0.0000 C   0  0  0  0  0  0  0  0  0
    0.4097   -0.6540    0.0000 C   0  0  0  0  0  0  0  0  0
   -0.3048   -1.0665    0.0000 O   0  0  0  0  0  0  0  0  0
   -6.0206    1.4085    0.0000 C   0  0  0  0  0  0  0  0  0
   -6.0206    3.8835    0.0000 C   0  0  0  0  0  0  0  0  0
   -6.0206    4.7085    0.0000 C   0  0  0  0  0  0  0  0  0
   -5.1956    3.8835    0.0000 C   0  0  0  0  0  0  0  0  0
   -6.8456    3.8835    0.0000 C   0  0  0  0  0  0  0  0  0
  1  2  1  0  0  0  0
  2  3  1  0  0  0  0
  2  4  1  0  0  0  0
  2  5  1  0  0  0  0
  5  6  4  0  0  0  0
  5 30  4  0  0  0  0
  6  7  4  0  0  0  0
  7  8  4  0  0  0  0
  7 31  1  0  0  0  0
  8  9  4  0  0  0  0
  9 10  1  0  0  0  0
  9 30  4  0  0  0  0
 10 11  1  0  0  0  0
 10 15  1  0  0  0  0
 11 12  1  0  0  0  0
 12 13  1  0  0  0  0
 13 14  1  0  0  0  0
 13 16  1  0  0  0  0
 14 15  1  0  0  0  0
 16 17  1  0  0  0  0
 17 18  1  0  0  0  0
 18 19  1  0  0  0  0
 19 20  1  0  0  0  0
 20 21  1  0  0  0  0
 20 28  1  0  0  0  0
 21 22  2  0  0  0  0
 22 23  1  0  0  0  0
 22 24  1  0  0  0  0
 24 25  2  0  0  0  0
 24 26  1  0  0  0  0
 26 27  1  0  0  0  0
 26 28  1  0  0  0  0
 28 29  2  0  0  0  0
 31 32  1  0  0  0  0
 31 33  1  0  0  0  0
 31 34  1  0  0  0  0
M  END
>  <Name_Molregno>
336899

>  <DOPAMINE D2>
6.45

>  <DOPAMINE D3>
7.98

$$$$
336924
  Marvin  02231216192D 0   1.00000     0.00000     0

 34 36  0  0  0  0  0  0  0  0999 V2000
   -9.2353   -1.8721    0.0000 F   0  0  0  0  0  0  0  0  0
   -8.5208   -1.4596    0.0000 C   0  0  0  0  0  0  0  0  0
   -8.1083   -2.1741    0.0000 F   0  0  0  0  0  0  0  0  0
   -8.9333   -0.7451    0.0000 F   0  0  0  0  0  0  0  0  0
   -7.8064   -1.0471    0.0000 C   0  0  0  0  0  0  0  0  0
   -7.8064   -0.2221    0.0000 N   0  0  0  0  0  0  0  0  0
   -7.0919    0.1904    0.0000 C   0  0  0  0  0  0  0  0  0
   -6.3774   -0.2221    0.0000 N   0  0  0  0  0  0  0  0  0
   -6.3774   -1.0471    0.0000 C   0  0  0  0  0  0  0  0  0
   -5.6630   -1.4596    0.0000 N   0  0  0  0  0  0  0  0  0
   -4.9485   -1.0471    0.0000 C   0  0  0  0  0  0  0  0  0
   -4.2340   -1.4596    0.0000 C   0  0  0  0  0  0  0  0  0
   -4.2340   -2.2846    0.0000 N   0  0  0  0  0  0  0  0  0
   -4.9485   -2.6971    0.0000 C   0  0  0  0  0  0  0  0  0
   -5.6630   -2.2846    0.0000 C   0  0  0  0  0  0  0  0  0
   -3.5195   -2.6971    0.0000 C   0  0  0  0  0  0  0  0  0
   -2.8051   -2.2846    0.0000 C   0  0  0  0  0  0  0  0  0
   -2.0906   -2.6971    0.0000 C   0  0  0  0  0  0  0  0  0
   -1.3761   -2.2846    0.0000 C   0  0  0  0  0  0  0  0  0
   -0.6617   -2.6971    0.0000 N   0  0  0  0  0  0  0  0  0
    0.0528   -2.2846    0.0000 C   0  0  0  0  0  0  0  0  0
    0.7673   -2.6971    0.0000 C   0  0  0  0  0  0  0  0  0
    1.4818   -2.2846    0.0000 C   0  0  0  0  0  0  0  0  0
    2.1962   -2.6971    0.0000 C   0  0  0  0  0  0  0  0  0
    0.7673   -3.5221    0.0000 C   0  0  0  0  0  0  0  0  0
    1.4818   -3.9346    0.0000 O   0  0  0  0  0  0  0  0  0
    0.0528   -3.9346    0.0000 N   0  0  0  0  0  0  0  0  0
   -0.6617   -3.5221    0.0000 C   0  0  0  0  0  0  0  0  0
   -1.3761   -3.9346    0.0000 O   0  0  0  0  0  0  0  0  0
   -7.0919   -1.4596    0.0000 C   0  0  0  0  0  0  0  0  0
   -7.0919    1.0154    0.0000 C   0  0  0  0  0  0  0  0  0
   -7.0919    1.8404    0.0000 C   0  0  0  0  0  0  0  0  0
   -6.2669    1.0154    0.0000 C   0  0  0  0  0  0  0  0  0
   -7.9169    1.0154    0.0000 C   0  0  0  0  0  0  0  0  0
  1  2  1  0  0  0  0
  2  3  1  0  0  0  0
  2  4  1  0  0  0  0
  2  5  1  0  0  0  0
  5  6  4  0  0  0  0
  5 30  4  0  0  0  0
  6  7  4  0  0  0  0
  7  8  4  0  0  0  0
  7 31  1  0  0  0  0
  8  9  4  0  0  0  0
  9 10  1  0  0  0  0
  9 30  4  0  0  0  0
 10 11  1  0  0  0  0
 10 15  1  0  0  0  0
 11 12  1  0  0  0  0
 12 13  1  0  0  0  0
 13 14  1  0  0  0  0
 13 16  1  0  0  0  0
 14 15  1  0  0  0  0
 16 17  1  0  0  0  0
 17 18  1  0  0  0  0
 18 19  1  0  0  0  0
 19 20  1  0  0  0  0
 20 21  1  0  0  0  0
 20 28  1  0  0  0  0
 21 22  2  0  0  0  0
 22 23  1  0  0  0  0
 22 25  1  0  0  0  0
 23 24  1  0  0  0  0
 25 26  2  0  0  0  0
 25 27  1  0  0  0  0
 27 28  1  0  0  0  0
 28 29  2  0  0  0  0
 31 32  1  0  0  0  0
 31 33  1  0  0  0  0
 31 34  1  0  0  0  0
M  END
>  <Name_Molregno>
336924

>  <DOPAMINE D2>
6.83

>  <DOPAMINE D3>
8.77

$$$$
336925
  Marvin  02231216192D 0   1.00000     0.00000     0

 33 35  0  0  0  0  0  0  0  0999 V2000
  -11.0497   -1.0260    0.0000 F   0  0  0  0  0  0  0  0  0
  -10.3352   -1.4385    0.0000 C   0  0  0  0  0  0  0  0  0
   -9.6207   -1.0260    0.0000 C   0  0  0  0  0  0  0  0  0
   -8.9063   -1.4385    0.0000 N   0  0  0  0  0  0  0  0  0
   -8.1918   -1.0260    0.0000 C   0  0  0  0  0  0  0  0  0
   -7.4773   -1.4385    0.0000 C   0  0  0  0  0  0  0  0  0
   -6.7628   -1.0260    0.0000 C   0  0  0  0  0  0  0  0  0
   -6.0484   -1.4385    0.0000 C   0  0  0  0  0  0  0  0  0
   -5.3339   -1.0260    0.0000 N   0  0  0  0  0  0  0  0  0
   -5.3339   -0.2010    0.0000 C   0  0  0  0  0  0  0  0  0
   -4.6194    0.2115    0.0000 C   0  0  0  0  0  0  0  0  0
   -3.9050   -0.2010    0.0000 N   0  0  0  0  0  0  0  0  0
   -3.9050   -1.0260    0.0000 C   0  0  0  0  0  0  0  0  0
   -4.6194   -1.4385    0.0000 C   0  0  0  0  0  0  0  0  0
   -3.1905    0.2115    0.0000 C   0  0  0  0  0  0  0  0  0
   -3.1905    1.0365    0.0000 N   0  0  0  0  0  0  0  0  0
   -2.4760    1.4490    0.0000 C   0  0  0  0  0  0  0  0  0
   -1.7615    1.0365    0.0000 N   0  0  0  0  0  0  0  0  0
   -1.7615    0.2115    0.0000 C   0  0  0  0  0  0  0  0  0
   -2.4760   -0.2010    0.0000 C   0  0  0  0  0  0  0  0  0
   -1.0471   -0.2010    0.0000 C   0  0  0  0  0  0  0  0  0
   -0.3326   -0.6135    0.0000 F   0  0  0  0  0  0  0  0  0
   -0.6346    0.5135    0.0000 F   0  0  0  0  0  0  0  0  0
   -1.4596   -0.9154    0.0000 F   0  0  0  0  0  0  0  0  0
   -2.4760    2.2740    0.0000 C   0  0  0  0  0  0  0  0  0
   -2.4760    3.0990    0.0000 C   0  0  0  0  0  0  0  0  0
   -1.6510    2.2740    0.0000 C   0  0  0  0  0  0  0  0  0
   -3.3010    2.2740    0.0000 C   0  0  0  0  0  0  0  0  0
   -8.9063   -2.2635    0.0000 C   0  0  0  0  0  0  0  0  0
   -8.1918   -2.6760    0.0000 O   0  0  0  0  0  0  0  0  0
   -9.6207   -2.6760    0.0000 N   0  0  0  0  0  0  0  0  0
  -10.3352   -2.2635    0.0000 C   0  0  0  0  0  0  0  0  0
  -11.0497   -2.6760    0.0000 O   0  0  0  0  0  0  0  0  0
  1  2  1  0  0  0  0
  2  3  2  0  0  0  0
  2 32  1  0  0  0  0
  3  4  1  0  0  0  0
  4  5  1  0  0  0  0
  4 29  1  0  0  0  0
  5  6  1  0  0  0  0
  6  7  1  0  0  0  0
  7  8  1  0  0  0  0
  8  9  1  0  0  0  0
  9 10  1  0  0  0  0
  9 14  1  0  0  0  0
 10 11  1  0  0  0  0
 11 12  1  0  0  0  0
 12 13  1  0  0  0  0
 12 15  1  0  0  0  0
 13 14  1  0  0  0  0
 15 16  4  0  0  0  0
 15 20  4  0  0  0  0
 16 17  4  0  0  0  0
 17 18  4  0  0  0  0
 17 25  1  0  0  0  0
 18 19  4  0  0  0  0
 19 20  4  0  0  0  0
 19 21  1  0  0  0  0
 21 22  1  0  0  0  0
 21 23  1  0  0  0  0
 21 24  1  0  0  0  0
 25 26  1  0  0  0  0
 25 27  1  0  0  0  0
 25 28  1  0  0  0  0
 29 30  2  0  0  0  0
 29 31  1  0  0  0  0
 31 32  1  0  0  0  0
 32 33  2  0  0  0  0
M  END
>  <Name_Molregno>
336925

>  <DOPAMINE D2>
6.22

>  <DOPAMINE D3>
8.52

$$$$
337018
  Marvin  02231216192D 0   1.00000     0.00000     0

 32 34  0  0  0  0  0  0  0  0999 V2000
   -7.5357    0.9681    0.0000 F   0  0  0  0  0  0  0  0  0
   -6.8212    1.3806    0.0000 C   0  0  0  0  0  0  0  0  0
   -6.4087    0.6661    0.0000 F   0  0  0  0  0  0  0  0  0
   -7.2337    2.0950    0.0000 F   0  0  0  0  0  0  0  0  0
   -6.1067    1.7931    0.0000 C   0  0  0  0  0  0  0  0  0
   -6.1067    2.6181    0.0000 N   0  0  0  0  0  0  0  0  0
   -5.3923    3.0306    0.0000 C   0  0  0  0  0  0  0  0  0
   -4.6778    2.6181    0.0000 N   0  0  0  0  0  0  0  0  0
   -4.6778    1.7931    0.0000 C   0  0  0  0  0  0  0  0  0
   -3.9633    1.3806    0.0000 N   0  0  0  0  0  0  0  0  0
   -3.2489    1.7931    0.0000 C   0  0  0  0  0  0  0  0  0
   -2.5344    1.3806    0.0000 C   0  0  0  0  0  0  0  0  0
   -2.5344    0.5556    0.0000 N   0  0  0  0  0  0  0  0  0
   -3.2489    0.1431    0.0000 C   0  0  0  0  0  0  0  0  0
   -3.9633    0.5556    0.0000 C   0  0  0  0  0  0  0  0  0
   -1.8199    0.1431    0.0000 C   0  0  0  0  0  0  0  0  0
   -1.1054    0.5556    0.0000 C   0  0  0  0  0  0  0  0  0
   -0.3910    0.1431    0.0000 C   0  0  0  0  0  0  0  0  0
    0.3235    0.5556    0.0000 C   0  0  0  0  0  0  0  0  0
    1.0380    0.1431    0.0000 N   0  0  0  0  0  0  0  0  0
    1.7524    0.5556    0.0000 C   0  0  0  0  0  0  0  0  0
    2.4669    0.1431    0.0000 C   0  0  0  0  0  0  0  0  0
    2.4669   -0.6819    0.0000 C   0  0  0  0  0  0  0  0  0
    3.1814   -1.0944    0.0000 O   0  0  0  0  0  0  0  0  0
    1.7524   -1.0944    0.0000 N   0  0  0  0  0  0  0  0  0
    1.0380   -0.6819    0.0000 C   0  0  0  0  0  0  0  0  0
    0.3235   -1.0944    0.0000 O   0  0  0  0  0  0  0  0  0
   -5.3923    1.3806    0.0000 C   0  0  0  0  0  0  0  0  0
   -5.3923    3.8556    0.0000 C   0  0  0  0  0  0  0  0  0
   -5.3923    4.6806    0.0000 C   0  0  0  0  0  0  0  0  0
   -4.5673    3.8556    0.0000 C   0  0  0  0  0  0  0  0  0
   -6.2173    3.8556    0.0000 C   0  0  0  0  0  0  0  0  0
  1  2  1  0  0  0  0
  2  3  1  0  0  0  0
  2  4  1  0  0  0  0
  2  5  1  0  0  0  0
  5  6  4  0  0  0  0
  5 28  4  0  0  0  0
  6  7  4  0  0  0  0
  7  8  4  0  0  0  0
  7 29  1  0  0  0  0
  8  9  4  0  0  0  0
  9 10  1  0  0  0  0
  9 28  4  0  0  0  0
 10 11  1  0  0  0  0
 10 15  1  0  0  0  0
 11 12  1  0  0  0  0
 12 13  1  0  0  0  0
 13 14  1  0  0  0  0
 13 16  1  0  0  0  0
 14 15  1  0  0  0  0
 16 17  1  0  0  0  0
 17 18  1  0  0  0  0
 18 19  1  0  0  0  0
 19 20  1  0  0  0  0
 20 21  1  0  0  0  0
 20 26  1  0  0  0  0
 21 22  2  0  0  0  0
 22 23  1  0  0  0  0
 23 24  2  0  0  0  0
 23 25  1  0  0  0  0
 25 26  1  0  0  0  0
 26 27  2  0  0  0  0
 29 30  1  0  0  0  0
 29 31  1  0  0  0  0
 29 32  1  0  0  0  0
M  END
>  <Name_Molregno>
337018

>  <DOPAMINE D2>
6.71

>  <DOPAMINE D3>
8.72

$$$$
337087
  Marvin  02231216192D 0   1.00000     0.00000     0

 31 33  0  0  0  0  0  0  0  0999 V2000
   -6.8480    1.4325    0.0000 F   0  0  0  0  0  0  0  0  0
   -6.1335    1.8450    0.0000 C   0  0  0  0  0  0  0  0  0
   -5.7210    1.1306    0.0000 F   0  0  0  0  0  0  0  0  0
   -6.5460    2.5595    0.0000 F   0  0  0  0  0  0  0  0  0
   -5.4190    2.2575    0.0000 C   0  0  0  0  0  0  0  0  0
   -5.4190    3.0825    0.0000 N   0  0  0  0  0  0  0  0  0
   -4.7045    3.4950    0.0000 C   0  0  0  0  0  0  0  0  0
   -3.9901    3.0825    0.0000 N   0  0  0  0  0  0  0  0  0
   -3.9901    2.2575    0.0000 C   0  0  0  0  0  0  0  0  0
   -3.2756    1.8450    0.0000 N   0  0  0  0  0  0  0  0  0
   -2.5611    2.2575    0.0000 C   0  0  0  0  0  0  0  0  0
   -1.8467    1.8450    0.0000 C   0  0  0  0  0  0  0  0  0
   -1.8467    1.0200    0.0000 N   0  0  0  0  0  0  0  0  0
   -2.5611    0.6075    0.0000 C   0  0  0  0  0  0  0  0  0
   -3.2756    1.0200    0.0000 C   0  0  0  0  0  0  0  0  0
   -1.1322    0.6075    0.0000 C   0  0  0  0  0  0  0  0  0
   -0.4177    1.0200    0.0000 C   0  0  0  0  0  0  0  0  0
    0.2968    0.6075    0.0000 C   0  0  0  0  0  0  0  0  0
    1.0112    1.0200    0.0000 C   0  0  0  0  0  0  0  0  0
    1.7257    0.6075    0.0000 N   0  0  0  0  0  0  0  0  0
    2.4402    1.0200    0.0000 C   0  0  0  0  0  0  0  0  0
    3.1546    0.6075    0.0000 C   0  0  0  0  0  0  0  0  0
    3.1546   -0.2175    0.0000 C   0  0  0  0  0  0  0  0  0
    2.4402   -0.6300    0.0000 N   0  0  0  0  0  0  0  0  0
    1.7257   -0.2175    0.0000 C   0  0  0  0  0  0  0  0  0
    1.0112   -0.6300    0.0000 O   0  0  0  0  0  0  0  0  0
   -4.7045    1.8450    0.0000 C   0  0  0  0  0  0  0  0  0
   -4.7045    4.3200    0.0000 C   0  0  0  0  0  0  0  0  0
   -4.7045    5.1450    0.0000 C   0  0  0  0  0  0  0  0  0
   -3.8795    4.3200    0.0000 C   0  0  0  0  0  0  0  0  0
   -5.5295    4.3200    0.0000 C   0  0  0  0  0  0  0  0  0
  1  2  1  0  0  0  0
  2  3  1  0  0  0  0
  2  4  1  0  0  0  0
  2  5  1  0  0  0  0
  5  6  4  0  0  0  0
  5 27  4  0  0  0  0
  6  7  4  0  0  0  0
  7  8  4  0  0  0  0
  7 28  1  0  0  0  0
  8  9  4  0  0  0  0
  9 10  1  0  0  0  0
  9 27  4  0  0  0  0
 10 11  1  0  0  0  0
 10 15  1  0  0  0  0
 11 12  1  0  0  0  0
 12 13  1  0  0  0  0
 13 14  1  0  0  0  0
 13 16  1  0  0  0  0
 14 15  1  0  0  0  0
 16 17  1  0  0  0  0
 17 18  1  0  0  0  0
 18 19  1  0  0  0  0
 19 20  1  0  0  0  0
 20 21  1  0  0  0  0
 20 25  1  0  0  0  0
 21 22  2  0  0  0  0
 22 23  1  0  0  0  0
 23 24  2  0  0  0  0
 24 25  1  0  0  0  0
 25 26  2  0  0  0  0
 28 29  1  0  0  0  0
 28 30  1  0  0  0  0
 28 31  1  0  0  0  0
M  END
>  <Name_Molregno>
337087

>  <DOPAMINE D2>
6.35

>  <DOPAMINE D3>
7.89

$$$$
337293
  Marvin  02231216192D 0   1.00000     0.00000     0

 34 37  0  0  0  0  0  0  0  0999 V2000
   -5.8295    5.5024    0.0000 F   0  0  0  0  0  0  0  0  0
   -5.1150    5.0899    0.0000 C   0  0  0  0  0  0  0  0  0
   -5.5275    4.3755    0.0000 F   0  0  0  0  0  0  0  0  0
   -4.7025    5.8044    0.0000 F   0  0  0  0  0  0  0  0  0
   -4.4005    4.6774    0.0000 C   0  0  0  0  0  0  0  0  0
   -3.6861    5.0899    0.0000 N   0  0  0  0  0  0  0  0  0
   -2.9716    4.6774    0.0000 C   0  0  0  0  0  0  0  0  0
   -2.9716    3.8524    0.0000 N   0  0  0  0  0  0  0  0  0
   -3.6861    3.4399    0.0000 C   0  0  0  0  0  0  0  0  0
   -3.6861    2.6149    0.0000 N   0  0  0  0  0  0  0  0  0
   -2.9716    2.2024    0.0000 C   0  0  0  0  0  0  0  0  0
   -2.9716    1.3774    0.0000 C   0  0  0  0  0  0  0  0  0
   -3.6861    0.9649    0.0000 N   0  0  0  0  0  0  0  0  0
   -4.4005    1.3774    0.0000 C   0  0  0  0  0  0  0  0  0
   -4.4005    2.2024    0.0000 C   0  0  0  0  0  0  0  0  0
   -3.6861    0.1399    0.0000 C   0  0  0  0  0  0  0  0  0
   -2.9716   -0.2726    0.0000 C   0  0  0  0  0  0  0  0  0
   -2.9716   -1.0976    0.0000 C   0  0  0  0  0  0  0  0  0
   -2.2571   -1.5101    0.0000 C   0  0  0  0  0  0  0  0  0
   -2.2571   -2.3351    0.0000 N   0  0  0  0  0  0  0  0  0
   -1.5427   -2.7476    0.0000 C   0  0  0  0  0  0  0  0  0
   -1.5427   -3.5726    0.0000 C   0  0  0  0  0  0  0  0  0
   -2.2571   -3.9851    0.0000 C   0  0  0  0  0  0  0  0  0
   -2.9716   -3.5726    0.0000 N   0  0  0  0  0  0  0  0  0
   -2.9716   -2.7476    0.0000 C   0  0  0  0  0  0  0  0  0
   -3.6861   -2.3351    0.0000 O   0  0  0  0  0  0  0  0  0
   -2.2571   -4.8101    0.0000 C   0  0  0  0  0  0  0  0  0
   -1.8446   -5.5245    0.0000 C   0  0  0  0  0  0  0  0  0
   -2.6696   -5.5245    0.0000 C   0  0  0  0  0  0  0  0  0
   -4.4005    3.8524    0.0000 C   0  0  0  0  0  0  0  0  0
   -2.2571    5.0899    0.0000 C   0  0  0  0  0  0  0  0  0
   -1.5427    5.5024    0.0000 C   0  0  0  0  0  0  0  0  0
   -1.8446    4.3755    0.0000 C   0  0  0  0  0  0  0  0  0
   -2.6696    5.8044    0.0000 C   0  0  0  0  0  0  0  0  0
  1  2  1  0  0  0  0
  2  3  1  0  0  0  0
  2  4  1  0  0  0  0
  2  5  1  0  0  0  0
  5  6  4  0  0  0  0
  5 30  4  0  0  0  0
  6  7  4  0  0  0  0
  7  8  4  0  0  0  0
  7 31  1  0  0  0  0
  8  9  4  0  0  0  0
  9 10  1  0  0  0  0
  9 30  4  0  0  0  0
 10 11  1  0  0  0  0
 10 15  1  0  0  0  0
 11 12  1  0  0  0  0
 12 13  1  0  0  0  0
 13 14  1  0  0  0  0
 13 16  1  0  0  0  0
 14 15  1  0  0  0  0
 16 17  1  0  0  0  0
 17 18  1  0  0  0  0
 18 19  1  0  0  0  0
 19 20  1  0  0  0  0
 20 21  1  0  0  0  0
 20 25  1  0  0  0  0
 21 22  2  0  0  0  0
 22 23  1  0  0  0  0
 23 24  2  0  0  0  0
 23 27  1  0  0  0  0
 24 25  1  0  0  0  0
 25 26  2  0  0  0  0
 27 28  1  0  0  0  0
 27 29  1  0  0  0  0
 28 29  1  0  0  0  0
 31 32  1  0  0  0  0
 31 33  1  0  0  0  0
 31 34  1  0  0  0  0
M  END
>  <Name_Molregno>
337293

>  <DOPAMINE D2>
6.81

>  <DOPAMINE D3>
8.43

$$$$
337294
  Marvin  02231216192D 0   1.00000     0.00000     0

 35 38  0  0  0  0  0  0  0  0999 V2000
   -6.0523    5.6432    0.0000 F   0  0  0  0  0  0  0  0  0
   -5.3378    5.2307    0.0000 C   0  0  0  0  0  0  0  0  0
   -5.7503    4.5163    0.0000 F   0  0  0  0  0  0  0  0  0
   -4.9253    5.9452    0.0000 F   0  0  0  0  0  0  0  0  0
   -4.6233    4.8182    0.0000 C   0  0  0  0  0  0  0  0  0
   -3.9089    5.2307    0.0000 N   0  0  0  0  0  0  0  0  0
   -3.1944    4.8182    0.0000 C   0  0  0  0  0  0  0  0  0
   -3.1944    3.9932    0.0000 N   0  0  0  0  0  0  0  0  0
   -3.9089    3.5807    0.0000 C   0  0  0  0  0  0  0  0  0
   -3.9089    2.7557    0.0000 N   0  0  0  0  0  0  0  0  0
   -3.1944    2.3432    0.0000 C   0  0  0  0  0  0  0  0  0
   -3.1944    1.5182    0.0000 C   0  0  0  0  0  0  0  0  0
   -3.9089    1.1057    0.0000 N   0  0  0  0  0  0  0  0  0
   -4.6233    1.5182    0.0000 C   0  0  0  0  0  0  0  0  0
   -4.6233    2.3432    0.0000 C   0  0  0  0  0  0  0  0  0
   -3.9089    0.2807    0.0000 C   0  0  0  0  0  0  0  0  0
   -3.1944   -0.1318    0.0000 C   0  0  0  0  0  0  0  0  0
   -3.1944   -0.9568    0.0000 C   0  0  0  0  0  0  0  0  0
   -2.4799   -1.3693    0.0000 C   0  0  0  0  0  0  0  0  0
   -2.4799   -2.1943    0.0000 N   0  0  0  0  0  0  0  0  0
   -1.7654   -2.6068    0.0000 C   0  0  0  0  0  0  0  0  0
   -1.7654   -3.4318    0.0000 C   0  0  0  0  0  0  0  0  0
   -2.4799   -3.8443    0.0000 C   0  0  0  0  0  0  0  0  0
   -3.1944   -3.4318    0.0000 N   0  0  0  0  0  0  0  0  0
   -3.1944   -2.6068    0.0000 C   0  0  0  0  0  0  0  0  0
   -3.9089   -2.1943    0.0000 O   0  0  0  0  0  0  0  0  0
   -2.4799   -4.6693    0.0000 C   0  0  0  0  0  0  0  0  0
   -1.8965   -5.2526    0.0000 C   0  0  0  0  0  0  0  0  0
   -2.4799   -5.8360    0.0000 C   0  0  0  0  0  0  0  0  0
   -3.0633   -5.2526    0.0000 C   0  0  0  0  0  0  0  0  0
   -4.6233    3.9932    0.0000 C   0  0  0  0  0  0  0  0  0
   -2.4799    5.2307    0.0000 C   0  0  0  0  0  0  0  0  0
   -1.7654    5.6432    0.0000 C   0  0  0  0  0  0  0  0  0
   -2.0674    4.5163    0.0000 C   0  0  0  0  0  0  0  0  0
   -2.8924    5.9452    0.0000 C   0  0  0  0  0  0  0  0  0
  1  2  1  0  0  0  0
  2  3  1  0  0  0  0
  2  4  1  0  0  0  0
  2  5  1  0  0  0  0
  5  6  4  0  0  0  0
  5 31  4  0  0  0  0
  6  7  4  0  0  0  0
  7  8  4  0  0  0  0
  7 32  1  0  0  0  0
  8  9  4  0  0  0  0
  9 10  1  0  0  0  0
  9 31  4  0  0  0  0
 10 11  1  0  0  0  0
 10 15  1  0  0  0  0
 11 12  1  0  0  0  0
 12 13  1  0  0  0  0
 13 14  1  0  0  0  0
 13 16  1  0  0  0  0
 14 15  1  0  0  0  0
 16 17  1  0  0  0  0
 17 18  1  0  0  0  0
 18 19  1  0  0  0  0
 19 20  1  0  0  0  0
 20 21  1  0  0  0  0
 20 25  1  0  0  0  0
 21 22  2  0  0  0  0
 22 23  1  0  0  0  0
 23 24  2  0  0  0  0
 23 27  1  0  0  0  0
 24 25  1  0  0  0  0
 25 26  2  0  0  0  0
 27 28  1  0  0  0  0
 27 30  1  0  0  0  0
 28 29  1  0  0  0  0
 29 30  1  0  0  0  0
 32 33  1  0  0  0  0
 32 34  1  0  0  0  0
 32 35  1  0  0  0  0
M  END
>  <Name_Molregno>
337294

>  <DOPAMINE D2>
6.56

>  <DOPAMINE D3>
8.13

$$$$
337343
  Marvin  02231216192D 0   1.00000     0.00000     0

 34 36  0  0  0  0  0  0  0  0999 V2000
   -8.3228    1.1193    0.0000 F   0  0  0  0  0  0  0  0  0
   -7.6083    1.5318    0.0000 C   0  0  0  0  0  0  0  0  0
   -7.1958    0.8173    0.0000 F   0  0  0  0  0  0  0  0  0
   -8.0208    2.2463    0.0000 F   0  0  0  0  0  0  0  0  0
   -6.8938    1.9443    0.0000 C   0  0  0  0  0  0  0  0  0
   -6.8938    2.7693    0.0000 N   0  0  0  0  0  0  0  0  0
   -6.1793    3.1818    0.0000 C   0  0  0  0  0  0  0  0  0
   -5.4649    2.7693    0.0000 N   0  0  0  0  0  0  0  0  0
   -5.4649    1.9443    0.0000 C   0  0  0  0  0  0  0  0  0
   -4.7504    1.5318    0.0000 N   0  0  0  0  0  0  0  0  0
   -4.0359    1.9443    0.0000 C   0  0  0  0  0  0  0  0  0
   -3.3215    1.5318    0.0000 C   0  0  0  0  0  0  0  0  0
   -3.3215    0.7068    0.0000 N   0  0  0  0  0  0  0  0  0
   -4.0359    0.2943    0.0000 C   0  0  0  0  0  0  0  0  0
   -4.7504    0.7068    0.0000 C   0  0  0  0  0  0  0  0  0
   -2.6070    0.2943    0.0000 C   0  0  0  0  0  0  0  0  0
   -1.8925    0.7068    0.0000 C   0  0  0  0  0  0  0  0  0
   -1.1780    0.2943    0.0000 C   0  0  0  0  0  0  0  0  0
   -0.4636    0.7068    0.0000 C   0  0  0  0  0  0  0  0  0
    0.2509    0.2943    0.0000 N   0  0  0  0  0  0  0  0  0
    0.9654    0.7068    0.0000 C   0  0  0  0  0  0  0  0  0
    1.6798    0.2943    0.0000 C   0  0  0  0  0  0  0  0  0
    1.6798   -0.5307    0.0000 C   0  0  0  0  0  0  0  0  0
    2.3943   -0.9432    0.0000 O   0  0  0  0  0  0  0  0  0
    2.3943   -1.7682    0.0000 C   0  0  0  0  0  0  0  0  0
    3.1088   -2.1807    0.0000 C   0  0  0  0  0  0  0  0  0
    0.9654   -0.9432    0.0000 N   0  0  0  0  0  0  0  0  0
    0.2509   -0.5307    0.0000 C   0  0  0  0  0  0  0  0  0
   -0.4636   -0.9432    0.0000 O   0  0  0  0  0  0  0  0  0
   -6.1793    1.5318    0.0000 C   0  0  0  0  0  0  0  0  0
   -6.1793    4.0068    0.0000 C   0  0  0  0  0  0  0  0  0
   -6.1793    4.8318    0.0000 C   0  0  0  0  0  0  0  0  0
   -5.3543    4.0068    0.0000 C   0  0  0  0  0  0  0  0  0
   -7.0043    4.0068    0.0000 C   0  0  0  0  0  0  0  0  0
  1  2  1  0  0  0  0
  2  3  1  0  0  0  0
  2  4  1  0  0  0  0
  2  5  1  0  0  0  0
  5  6  4  0  0  0  0
  5 30  4  0  0  0  0
  6  7  4  0  0  0  0
  7  8  4  0  0  0  0
  7 31  1  0  0  0  0
  8  9  4  0  0  0  0
  9 10  1  0  0  0  0
  9 30  4  0  0  0  0
 10 11  1  0  0  0  0
 10 15  1  0  0  0  0
 11 12  1  0  0  0  0
 12 13  1  0  0  0  0
 13 14  1  0  0  0  0
 13 16  1  0  0  0  0
 14 15  1  0  0  0  0
 16 17  1  0  0  0  0
 17 18  1  0  0  0  0
 18 19  1  0  0  0  0
 19 20  1  0  0  0  0
 20 21  1  0  0  0  0
 20 28  1  0  0  0  0
 21 22  2  0  0  0  0
 22 23  1  0  0  0  0
 23 24  1  0  0  0  0
 23 27  2  0  0  0  0
 24 25  1  0  0  0  0
 25 26  1  0  0  0  0
 27 28  1  0  0  0  0
 28 29  2  0  0  0  0
 31 32  1  0  0  0  0
 31 33  1  0  0  0  0
 31 34  1  0  0  0  0
M  END
>  <Name_Molregno>
337343

>  <DOPAMINE D2>
6.54

>  <DOPAMINE D3>
8.13

$$$$
337352
  Marvin  02231216192D 0   1.00000     0.00000     0

 32 34  0  0  0  0  0  0  0  0999 V2000
   -7.5357    0.9681    0.0000 F   0  0  0  0  0  0  0  0  0
   -6.8212    1.3806    0.0000 C   0  0  0  0  0  0  0  0  0
   -6.4087    0.6661    0.0000 F   0  0  0  0  0  0  0  0  0
   -7.2337    2.0950    0.0000 F   0  0  0  0  0  0  0  0  0
   -6.1067    1.7931    0.0000 C   0  0  0  0  0  0  0  0  0
   -6.1067    2.6181    0.0000 N   0  0  0  0  0  0  0  0  0
   -5.3923    3.0306    0.0000 C   0  0  0  0  0  0  0  0  0
   -4.6778    2.6181    0.0000 N   0  0  0  0  0  0  0  0  0
   -4.6778    1.7931    0.0000 C   0  0  0  0  0  0  0  0  0
   -3.9633    1.3806    0.0000 N   0  0  0  0  0  0  0  0  0
   -3.2489    1.7931    0.0000 C   0  0  0  0  0  0  0  0  0
   -2.5344    1.3806    0.0000 C   0  0  0  0  0  0  0  0  0
   -2.5344    0.5556    0.0000 N   0  0  0  0  0  0  0  0  0
   -3.2489    0.1431    0.0000 C   0  0  0  0  0  0  0  0  0
   -3.9633    0.5556    0.0000 C   0  0  0  0  0  0  0  0  0
   -1.8199    0.1431    0.0000 C   0  0  0  0  0  0  0  0  0
   -1.1054    0.5556    0.0000 C   0  0  0  0  0  0  0  0  0
   -0.3910    0.1431    0.0000 C   0  0  0  0  0  0  0  0  0
    0.3235    0.5556    0.0000 C   0  0  0  0  0  0  0  0  0
    1.0380    0.1431    0.0000 N   0  0  0  0  0  0  0  0  0
    1.7524    0.5556    0.0000 C   0  0  0  0  0  0  0  0  0
    2.4669    0.1431    0.0000 C   0  0  0  0  0  0  0  0  0
    2.4669   -0.6819    0.0000 C   0  0  0  0  0  0  0  0  0
    1.7524   -1.0944    0.0000 N   0  0  0  0  0  0  0  0  0
    1.0380   -0.6819    0.0000 C   0  0  0  0  0  0  0  0  0
    0.3235   -1.0944    0.0000 O   0  0  0  0  0  0  0  0  0
    3.1814   -1.0944    0.0000 C   0  0  0  0  0  0  0  0  0
   -5.3923    1.3806    0.0000 C   0  0  0  0  0  0  0  0  0
   -5.3923    3.8556    0.0000 C   0  0  0  0  0  0  0  0  0
   -5.3923    4.6806    0.0000 C   0  0  0  0  0  0  0  0  0
   -4.5673    3.8556    0.0000 C   0  0  0  0  0  0  0  0  0
   -6.2173    3.8556    0.0000 C   0  0  0  0  0  0  0  0  0
  1  2  1  0  0  0  0
  2  3  1  0  0  0  0
  2  4  1  0  0  0  0
  2  5  1  0  0  0  0
  5  6  4  0  0  0  0
  5 28  4  0  0  0  0
  6  7  4  0  0  0  0
  7  8  4  0  0  0  0
  7 29  1  0  0  0  0
  8  9  4  0  0  0  0
  9 10  1  0  0  0  0
  9 28  4  0  0  0  0
 10 11  1  0  0  0  0
 10 15  1  0  0  0  0
 11 12  1  0  0  0  0
 12 13  1  0  0  0  0
 13 14  1  0  0  0  0
 13 16  1  0  0  0  0
 14 15  1  0  0  0  0
 16 17  1  0  0  0  0
 17 18  1  0  0  0  0
 18 19  1  0  0  0  0
 19 20  1  0  0  0  0
 20 21  1  0  0  0  0
 20 25  1  0  0  0  0
 21 22  2  0  0  0  0
 22 23  1  0  0  0  0
 23 24  2  0  0  0  0
 23 27  1  0  0  0  0
 24 25  1  0  0  0  0
 25 26  2  0  0  0  0
 29 30  1  0  0  0  0
 29 31  1  0  0  0  0
 29 32  1  0  0  0  0
M  END
>  <Name_Molregno>
337352

>  <DOPAMINE D2>
6.51

>  <DOPAMINE D3>
8.36

$$$$
337353
  Marvin  02231216192D 0   1.00000     0.00000     0

 35 37  0  0  0  0  0  0  0  0999 V2000
   -8.6437    1.0599    0.0000 F   0  0  0  0  0  0  0  0  0
   -7.9292    1.4724    0.0000 C   0  0  0  0  0  0  0  0  0
   -7.5167    0.7579    0.0000 F   0  0  0  0  0  0  0  0  0
   -8.3417    2.1868    0.0000 F   0  0  0  0  0  0  0  0  0
   -7.2148    1.8849    0.0000 C   0  0  0  0  0  0  0  0  0
   -7.2148    2.7099    0.0000 N   0  0  0  0  0  0  0  0  0
   -6.5003    3.1224    0.0000 C   0  0  0  0  0  0  0  0  0
   -5.7858    2.7099    0.0000 N   0  0  0  0  0  0  0  0  0
   -5.7858    1.8849    0.0000 C   0  0  0  0  0  0  0  0  0
   -5.0713    1.4724    0.0000 N   0  0  0  0  0  0  0  0  0
   -4.3569    1.8849    0.0000 C   0  0  0  0  0  0  0  0  0
   -3.6424    1.4724    0.0000 C   0  0  0  0  0  0  0  0  0
   -3.6424    0.6474    0.0000 N   0  0  0  0  0  0  0  0  0
   -4.3569    0.2349    0.0000 C   0  0  0  0  0  0  0  0  0
   -5.0713    0.6474    0.0000 C   0  0  0  0  0  0  0  0  0
   -2.9279    0.2349    0.0000 C   0  0  0  0  0  0  0  0  0
   -2.2135    0.6474    0.0000 C   0  0  0  0  0  0  0  0  0
   -1.4990    0.2349    0.0000 C   0  0  0  0  0  0  0  0  0
   -0.7845    0.6474    0.0000 C   0  0  0  0  0  0  0  0  0
   -0.0700    0.2349    0.0000 N   0  0  0  0  0  0  0  0  0
    0.6444    0.6474    0.0000 C   0  0  0  0  0  0  0  0  0
    1.3589    0.2349    0.0000 C   0  0  0  0  0  0  0  0  0
    1.3589   -0.5901    0.0000 C   0  0  0  0  0  0  0  0  0
    0.6444   -1.0026    0.0000 N   0  0  0  0  0  0  0  0  0
   -0.0700   -0.5901    0.0000 C   0  0  0  0  0  0  0  0  0
   -0.7845   -1.0026    0.0000 O   0  0  0  0  0  0  0  0  0
    2.0734   -1.0026    0.0000 C   0  0  0  0  0  0  0  0  0
    2.7878   -1.4151    0.0000 C   0  0  0  0  0  0  0  0  0
    1.6609   -1.7171    0.0000 C   0  0  0  0  0  0  0  0  0
    2.4859   -0.2882    0.0000 C   0  0  0  0  0  0  0  0  0
   -6.5003    1.4724    0.0000 C   0  0  0  0  0  0  0  0  0
   -6.5003    3.9474    0.0000 C   0  0  0  0  0  0  0  0  0
   -6.5003    4.7724    0.0000 C   0  0  0  0  0  0  0  0  0
   -5.6753    3.9474    0.0000 C   0  0  0  0  0  0  0  0  0
   -7.3253    3.9474    0.0000 C   0  0  0  0  0  0  0  0  0
  1  2  1  0  0  0  0
  2  3  1  0  0  0  0
  2  4  1  0  0  0  0
  2  5  1  0  0  0  0
  5  6  4  0  0  0  0
  5 31  4  0  0  0  0
  6  7  4  0  0  0  0
  7  8  4  0  0  0  0
  7 32  1  0  0  0  0
  8  9  4  0  0  0  0
  9 10  1  0  0  0  0
  9 31  4  0  0  0  0
 10 11  1  0  0  0  0
 10 15  1  0  0  0  0
 11 12  1  0  0  0  0
 12 13  1  0  0  0  0
 13 14  1  0  0  0  0
 13 16  1  0  0  0  0
 14 15  1  0  0  0  0
 16 17  1  0  0  0  0
 17 18  1  0  0  0  0
 18 19  1  0  0  0  0
 19 20  1  0  0  0  0
 20 21  1  0  0  0  0
 20 25  1  0  0  0  0
 21 22  2  0  0  0  0
 22 23  1  0  0  0  0
 23 24  2  0  0  0  0
 23 27  1  0  0  0  0
 24 25  1  0  0  0  0
 25 26  2  0  0  0  0
 27 28  1  0  0  0  0
 27 29  1  0  0  0  0
 27 30  1  0  0  0  0
 32 33  1  0  0  0  0
 32 34  1  0  0  0  0
 32 35  1  0  0  0  0
M  END
>  <Name_Molregno>
337353

>  <DOPAMINE D2>
6.67

>  <DOPAMINE D3>
8.59

$$$$
337908
  Marvin  02231216192D 0   1.00000     0.00000     0

 34 37  0  0  0  0  0  0  0  0999 V2000
   -4.4869   -2.5510    0.0000 F   0  0  0  0  0  0  0  0  0
   -4.4869   -1.7260    0.0000 C   0  0  0  0  0  0  0  0  0
   -3.6619   -1.7260    0.0000 F   0  0  0  0  0  0  0  0  0
   -5.3119   -1.7260    0.0000 F   0  0  0  0  0  0  0  0  0
   -4.4869   -0.9010    0.0000 C   0  0  0  0  0  0  0  0  0
   -5.2013   -0.4885    0.0000 N   0  0  0  0  0  0  0  0  0
   -5.2013    0.3365    0.0000 C   0  0  0  0  0  0  0  0  0
   -4.4869    0.7490    0.0000 N   0  0  0  0  0  0  0  0  0
   -3.7724    0.3365    0.0000 C   0  0  0  0  0  0  0  0  0
   -3.0579    0.7490    0.0000 N   0  0  0  0  0  0  0  0  0
   -3.0579    1.5740    0.0000 C   0  0  0  0  0  0  0  0  0
   -2.3435    1.9865    0.0000 C   0  0  0  0  0  0  0  0  0
   -1.6290    1.5740    0.0000 N   0  0  0  0  0  0  0  0  0
   -1.6290    0.7490    0.0000 C   0  0  0  0  0  0  0  0  0
   -2.3435    0.3365    0.0000 C   0  0  0  0  0  0  0  0  0
   -0.9145    1.9865    0.0000 C   0  0  0  0  0  0  0  0  0
   -0.9145    2.8115    0.0000 C   0  0  0  0  0  0  0  0  0
   -0.2000    3.2240    0.0000 C   0  0  0  0  0  0  0  0  0
   -0.2000    4.0490    0.0000 N   0  0  0  0  0  0  0  0  0
    0.5144    4.4615    0.0000 C   0  0  0  0  0  0  0  0  0
    0.5144    5.2865    0.0000 C   0  0  0  0  0  0  0  0  0
   -0.2000    5.6990    0.0000 C   0  0  0  0  0  0  0  0  0
   -0.9145    5.2865    0.0000 C   0  0  0  0  0  0  0  0  0
   -0.9145    4.4615    0.0000 C   0  0  0  0  0  0  0  0  0
   -1.6290    4.0490    0.0000 O   0  0  0  0  0  0  0  0  0
    1.2289    5.6990    0.0000 C   0  0  0  0  0  0  0  0  0
    1.9434    5.2865    0.0000 C   0  0  0  0  0  0  0  0  0
    1.9434    4.4615    0.0000 C   0  0  0  0  0  0  0  0  0
    1.2289    4.0490    0.0000 C   0  0  0  0  0  0  0  0  0
   -3.7724   -0.4885    0.0000 C   0  0  0  0  0  0  0  0  0
   -5.9158    0.7490    0.0000 C   0  0  0  0  0  0  0  0  0
   -6.6303    1.1615    0.0000 C   0  0  0  0  0  0  0  0  0
   -5.5033    1.4635    0.0000 C   0  0  0  0  0  0  0  0  0
   -6.3283    0.0346    0.0000 C   0  0  0  0  0  0  0  0  0
  1  2  1  0  0  0  0
  2  3  1  0  0  0  0
  2  4  1  0  0  0  0
  2  5  1  0  0  0  0
  5  6  4  0  0  0  0
  5 30  4  0  0  0  0
  6  7  4  0  0  0  0
  7  8  4  0  0  0  0
  7 31  1  0  0  0  0
  8  9  4  0  0  0  0
  9 10  1  0  0  0  0
  9 30  4  0  0  0  0
 10 11  1  0  0  0  0
 10 15  1  0  0  0  0
 11 12  1  0  0  0  0
 12 13  1  0  0  0  0
 13 14  1  0  0  0  0
 13 16  1  0  0  0  0
 14 15  1  0  0  0  0
 16 17  1  0  0  0  0
 17 18  1  0  0  0  0
 18 19  1  0  0  0  0
 19 20  1  0  0  0  0
 19 24  1  0  0  0  0
 20 21  4  0  0  0  0
 20 29  4  0  0  0  0
 21 22  1  0  0  0  0
 21 26  4  0  0  0  0
 22 23  1  0  0  0  0
 23 24  1  0  0  0  0
 24 25  2  0  0  0  0
 26 27  4  0  0  0  0
 27 28  4  0  0  0  0
 28 29  4  0  0  0  0
 31 32  1  0  0  0  0
 31 33  1  0  0  0  0
 31 34  1  0  0  0  0
M  END
>  <Name_Molregno>
337908

>  <DOPAMINE D3>
7.03

$$$$
337918
  Marvin  02231216192D 0   1.00000     0.00000     0

 35 38  0  0  0  0  0  0  0  0999 V2000
   -1.7191   -3.3830    0.0000 F   0  0  0  0  0  0  0  0  0
   -2.4336   -2.9705    0.0000 C   0  0  0  0  0  0  0  0  0
   -2.0211   -2.2560    0.0000 F   0  0  0  0  0  0  0  0  0
   -2.8461   -3.6849    0.0000 F   0  0  0  0  0  0  0  0  0
   -3.1481   -2.5580    0.0000 C   0  0  0  0  0  0  0  0  0
   -3.8626   -2.9705    0.0000 N   0  0  0  0  0  0  0  0  0
   -4.5770   -2.5580    0.0000 C   0  0  0  0  0  0  0  0  0
   -4.5770   -1.7330    0.0000 N   0  0  0  0  0  0  0  0  0
   -3.8626   -1.3205    0.0000 C   0  0  0  0  0  0  0  0  0
   -3.8626   -0.4955    0.0000 N   0  0  0  0  0  0  0  0  0
   -4.5770   -0.0830    0.0000 C   0  0  0  0  0  0  0  0  0
   -4.5770    0.7420    0.0000 C   0  0  0  0  0  0  0  0  0
   -3.8626    1.1545    0.0000 N   0  0  0  0  0  0  0  0  0
   -3.1481    0.7420    0.0000 C   0  0  0  0  0  0  0  0  0
   -3.1481   -0.0830    0.0000 C   0  0  0  0  0  0  0  0  0
   -3.8626    1.9795    0.0000 C   0  0  0  0  0  0  0  0  0
   -3.1481    2.3920    0.0000 C   0  0  0  0  0  0  0  0  0
   -3.1481    3.2170    0.0000 C   0  0  0  0  0  0  0  0  0
   -2.4336    3.6295    0.0000 C   0  0  0  0  0  0  0  0  0
   -2.4336    4.4545    0.0000 N   0  0  0  0  0  0  0  0  0
   -1.7191    4.8670    0.0000 C   0  0  0  0  0  0  0  0  0
   -1.7191    5.6920    0.0000 C   0  0  0  0  0  0  0  0  0
   -2.4336    6.1045    0.0000 C   0  0  0  0  0  0  0  0  0
   -3.1481    5.6920    0.0000 C   0  0  0  0  0  0  0  0  0
   -3.1481    4.8670    0.0000 C   0  0  0  0  0  0  0  0  0
   -3.8626    4.4545    0.0000 O   0  0  0  0  0  0  0  0  0
   -1.0047    6.1045    0.0000 C   0  0  0  0  0  0  0  0  0
   -0.2902    5.6920    0.0000 C   0  0  0  0  0  0  0  0  0
   -0.2902    4.8670    0.0000 C   0  0  0  0  0  0  0  0  0
   -1.0047    4.4545    0.0000 C   0  0  0  0  0  0  0  0  0
   -3.1481   -1.7330    0.0000 C   0  0  0  0  0  0  0  0  0
   -5.2915   -2.9705    0.0000 C   0  0  0  0  0  0  0  0  0
   -6.0060   -3.3830    0.0000 C   0  0  0  0  0  0  0  0  0
   -5.7040   -2.2560    0.0000 C   0  0  0  0  0  0  0  0  0
   -4.8790   -3.6849    0.0000 C   0  0  0  0  0  0  0  0  0
  1  2  1  0  0  0  0
  2  3  1  0  0  0  0
  2  4  1  0  0  0  0
  2  5  1  0  0  0  0
  5  6  4  0  0  0  0
  5 31  4  0  0  0  0
  6  7  4  0  0  0  0
  7  8  4  0  0  0  0
  7 32  1  0  0  0  0
  8  9  4  0  0  0  0
  9 10  1  0  0  0  0
  9 31  4  0  0  0  0
 10 11  1  0  0  0  0
 10 15  1  0  0  0  0
 11 12  1  0  0  0  0
 12 13  1  0  0  0  0
 13 14  1  0  0  0  0
 13 16  1  0  0  0  0
 14 15  1  0  0  0  0
 16 17  1  0  0  0  0
 17 18  1  0  0  0  0
 18 19  1  0  0  0  0
 19 20  1  0  0  0  0
 20 21  1  0  0  0  0
 20 25  1  0  0  0  0
 21 22  4  0  0  0  0
 21 30  4  0  0  0  0
 22 23  1  0  0  0  0
 22 27  4  0  0  0  0
 23 24  1  0  0  0  0
 24 25  1  0  0  0  0
 25 26  2  0  0  0  0
 27 28  4  0  0  0  0
 28 29  4  0  0  0  0
 29 30  4  0  0  0  0
 32 33  1  0  0  0  0
 32 34  1  0  0  0  0
 32 35  1  0  0  0  0
M  END
>  <Name_Molregno>
337918

>  <DOPAMINE D2>
6.9

>  <DOPAMINE D3>
8.47

$$$$
338031
  Marvin  02231216192D 0   1.00000     0.00000     0

 36 39  0  0  0  0  0  0  0  0999 V2000
   -2.5701    0.3057    0.0000 F   0  0  0  0  0  0  0  0  0
   -2.5701   -0.5193    0.0000 C   0  0  0  0  0  0  0  0  0
   -3.3951   -0.5193    0.0000 F   0  0  0  0  0  0  0  0  0
   -1.7451   -0.5193    0.0000 F   0  0  0  0  0  0  0  0  0
   -2.5701   -1.3443    0.0000 C   0  0  0  0  0  0  0  0  0
   -1.8556   -1.7568    0.0000 N   0  0  0  0  0  0  0  0  0
   -1.8556   -2.5818    0.0000 C   0  0  0  0  0  0  0  0  0
   -2.5701   -2.9943    0.0000 N   0  0  0  0  0  0  0  0  0
   -3.2846   -2.5818    0.0000 C   0  0  0  0  0  0  0  0  0
   -3.9990   -2.9943    0.0000 N   0  0  0  0  0  0  0  0  0
   -3.9990   -3.8193    0.0000 C   0  0  0  0  0  0  0  0  0
   -4.7135   -4.2318    0.0000 C   0  0  0  0  0  0  0  0  0
   -5.4280   -3.8193    0.0000 N   0  0  0  0  0  0  0  0  0
   -5.4280   -2.9943    0.0000 C   0  0  0  0  0  0  0  0  0
   -4.7135   -2.5818    0.0000 C   0  0  0  0  0  0  0  0  0
   -6.1424   -4.2318    0.0000 C   0  0  0  0  0  0  0  0  0
   -6.8569   -3.8193    0.0000 C   0  0  0  0  0  0  0  0  0
   -6.8569   -2.9943    0.0000 C   0  0  0  0  0  0  0  0  0
   -6.1424   -2.5818    0.0000 C   0  0  0  0  0  0  0  0  0
   -6.1424   -1.7568    0.0000 N   0  0  0  0  0  0  0  0  0
   -5.4280   -1.3443    0.0000 C   0  0  0  0  0  0  0  0  0
   -5.4280   -0.5193    0.0000 C   0  0  0  0  0  0  0  0  0
   -6.1424   -0.1068    0.0000 C   0  0  0  0  0  0  0  0  0
   -6.8569   -0.5193    0.0000 C   0  0  0  0  0  0  0  0  0
   -6.8569   -1.3443    0.0000 C   0  0  0  0  0  0  0  0  0
   -7.5714   -1.7568    0.0000 O   0  0  0  0  0  0  0  0  0
   -4.7135   -0.1068    0.0000 C   0  0  0  0  0  0  0  0  0
   -3.9990   -0.5193    0.0000 C   0  0  0  0  0  0  0  0  0
   -3.9990   -1.3443    0.0000 C   0  0  0  0  0  0  0  0  0
   -4.7135   -1.7568    0.0000 C   0  0  0  0  0  0  0  0  0
   -7.5714   -2.5818    0.0000 C   0  0  0  0  0  0  0  0  0
   -3.2846   -1.7568    0.0000 C   0  0  0  0  0  0  0  0  0
   -1.1412   -2.9943    0.0000 C   0  0  0  0  0  0  0  0  0
   -0.4267   -3.4068    0.0000 C   0  0  0  0  0  0  0  0  0
   -1.5537   -3.7088    0.0000 C   0  0  0  0  0  0  0  0  0
   -0.7287   -2.2798    0.0000 C   0  0  0  0  0  0  0  0  0
  1  2  1  0  0  0  0
  2  3  1  0  0  0  0
  2  4  1  0  0  0  0
  2  5  1  0  0  0  0
  5  6  4  0  0  0  0
  5 32  4  0  0  0  0
  6  7  4  0  0  0  0
  7  8  4  0  0  0  0
  7 33  1  0  0  0  0
  8  9  4  0  0  0  0
  9 10  1  0  0  0  0
  9 32  4  0  0  0  0
 10 11  1  0  0  0  0
 10 15  1  0  0  0  0
 11 12  1  0  0  0  0
 12 13  1  0  0  0  0
 13 14  1  0  0  0  0
 13 16  1  0  0  0  0
 14 15  1  0  0  0  0
 16 17  1  0  0  0  0
 17 18  2  0  0  0  0
 18 19  1  0  0  0  0
 18 31  1  0  0  0  0
 19 20  1  0  0  0  0
 20 21  1  0  0  0  0
 20 25  1  0  0  0  0
 21 22  4  0  0  0  0
 21 30  4  0  0  0  0
 22 23  1  0  0  0  0
 22 27  4  0  0  0  0
 23 24  1  0  0  0  0
 24 25  1  0  0  0  0
 25 26  2  0  0  0  0
 27 28  4  0  0  0  0
 28 29  4  0  0  0  0
 29 30  4  0  0  0  0
 33 34  1  0  0  0  0
 33 35  1  0  0  0  0
 33 36  1  0  0  0  0
M  END
>  <Name_Molregno>
338031

>  <DOPAMINE D2>
6.17

>  <DOPAMINE D3>
7.23

$$$$
338038
  Marvin  02231216192D 0   1.00000     0.00000     0

 36 39  0  0  1  0  0  0  0  0999 V2000
   -1.3348   -2.5108    0.0000 F   0  0  0  0  0  0  0  0  0
   -2.0492   -2.0983    0.0000 C   0  0  0  0  0  0  0  0  0
   -1.6367   -1.3839    0.0000 F   0  0  0  0  0  0  0  0  0
   -2.4617   -2.8128    0.0000 F   0  0  0  0  0  0  0  0  0
   -2.7637   -1.6858    0.0000 C   0  0  0  0  0  0  0  0  0
   -3.4782   -2.0983    0.0000 N   0  0  0  0  0  0  0  0  0
   -4.1926   -1.6858    0.0000 C   0  0  0  0  0  0  0  0  0
   -4.1926   -0.8608    0.0000 N   0  0  0  0  0  0  0  0  0
   -3.4782   -0.4483    0.0000 C   0  0  0  0  0  0  0  0  0
   -3.4782    0.3767    0.0000 N   0  0  0  0  0  0  0  0  0
   -4.1926    0.7892    0.0000 C   0  0  0  0  0  0  0  0  0
   -4.1926    1.6142    0.0000 C   0  0  0  0  0  0  0  0  0
   -3.4782    2.0267    0.0000 N   0  0  0  0  0  0  0  0  0
   -2.7637    1.6142    0.0000 C   0  0  0  0  0  0  0  0  0
   -2.7637    0.7892    0.0000 C   0  0  0  0  0  0  0  0  0
   -3.4782    2.8517    0.0000 C   0  0  0  0  0  0  0  0  0
   -2.7637    3.2642    0.0000 C   0  0  0  0  0  0  0  0  0
   -2.7637    4.0892    0.0000 C   0  0  0  0  0  0  0  0  0
   -2.0492    4.5017    0.0000 C   0  0  0  0  0  0  0  0  0
   -2.0492    5.3267    0.0000 N   0  0  0  0  0  0  0  0  0
   -1.3348    5.7392    0.0000 C   0  0  0  0  0  0  0  0  0
   -1.3348    6.5642    0.0000 C   0  0  0  0  0  0  0  0  0
   -2.0492    6.9767    0.0000 C   0  0  0  0  0  0  0  0  0
   -2.7637    6.5642    0.0000 C   0  0  0  0  0  0  0  0  0
   -2.7637    5.7392    0.0000 C   0  0  0  0  0  0  0  0  0
   -3.4782    5.3267    0.0000 O   0  0  0  0  0  0  0  0  0
   -0.6203    6.9767    0.0000 C   0  0  0  0  0  0  0  0  0
    0.0942    6.5642    0.0000 C   0  0  0  0  0  0  0  0  0
    0.0942    5.7392    0.0000 C   0  0  0  0  0  0  0  0  0
   -0.6203    5.3267    0.0000 C   0  0  0  0  0  0  0  0  0
   -3.4782    4.5017    0.0000 C   0  0  0  0  0  0  0  0  0
   -2.7637   -0.8608    0.0000 C   0  0  0  0  0  0  0  0  0
   -4.9071   -2.0983    0.0000 C   0  0  0  0  0  0  0  0  0
   -5.6216   -2.5108    0.0000 C   0  0  0  0  0  0  0  0  0
   -5.3196   -1.3839    0.0000 C   0  0  0  0  0  0  0  0  0
   -4.4946   -2.8128    0.0000 C   0  0  0  0  0  0  0  0  0
  1  2  1  0  0  0  0
  2  3  1  0  0  0  0
  2  4  1  0  0  0  0
  2  5  1  0  0  0  0
  5  6  4  0  0  0  0
  5 32  4  0  0  0  0
  6  7  4  0  0  0  0
  7  8  4  0  0  0  0
  7 33  1  0  0  0  0
  8  9  4  0  0  0  0
  9 10  1  0  0  0  0
  9 32  4  0  0  0  0
 10 11  1  0  0  0  0
 10 15  1  0  0  0  0
 11 12  1  0  0  0  0
 12 13  1  0  0  0  0
 13 14  1  0  0  0  0
 13 16  1  0  0  0  0
 14 15  1  0  0  0  0
 16 17  1  0  0  0  0
 17 18  1  0  0  0  0
 18 19  1  0  0  0  0
 18 31  1  0  0  0  0
 19 20  1  0  0  0  0
 20 21  1  0  0  0  0
 20 25  1  0  0  0  0
 21 22  4  0  0  0  0
 21 30  4  0  0  0  0
 22 23  1  0  0  0  0
 22 27  4  0  0  0  0
 23 24  1  0  0  0  0
 24 25  1  0  0  0  0
 25 26  2  0  0  0  0
 27 28  4  0  0  0  0
 28 29  4  0  0  0  0
 29 30  4  0  0  0  0
 33 34  1  0  0  0  0
 33 35  1  0  0  0  0
 33 36  1  0  0  0  0
M  END
>  <Name_Molregno>
338038

>  <DOPAMINE D2>
6.58

>  <DOPAMINE D3>
7.19

$$$$
338058
  Marvin  02231216192D 0   1.00000     0.00000     0

 36 39  0  0  1  0  0  0  0  0999 V2000
   -2.7477   -5.8487    0.0000 F   0  0  0  0  0  0  0  0  0
   -3.4622   -5.4362    0.0000 C   0  0  0  0  0  0  0  0  0
   -3.0497   -4.7218    0.0000 F   0  0  0  0  0  0  0  0  0
   -3.8747   -6.1507    0.0000 F   0  0  0  0  0  0  0  0  0
   -4.1766   -5.0237    0.0000 C   0  0  0  0  0  0  0  0  0
   -4.8911   -5.4362    0.0000 N   0  0  0  0  0  0  0  0  0
   -5.6056   -5.0237    0.0000 C   0  0  0  0  0  0  0  0  0
   -5.6056   -4.1988    0.0000 N   0  0  0  0  0  0  0  0  0
   -4.8911   -3.7863    0.0000 C   0  0  0  0  0  0  0  0  0
   -4.8911   -2.9613    0.0000 N   0  0  0  0  0  0  0  0  0
   -5.6056   -2.5487    0.0000 C   0  0  0  0  0  0  0  0  0
   -5.6056   -1.7237    0.0000 C   0  0  0  0  0  0  0  0  0
   -4.8911   -1.3112    0.0000 N   0  0  0  0  0  0  0  0  0
   -4.1766   -1.7238    0.0000 C   0  0  0  0  0  0  0  0  0
   -4.1766   -2.5488    0.0000 C   0  0  0  0  0  0  0  0  0
   -4.8911   -0.4863    0.0000 C   0  0  0  0  0  0  0  0  0
   -4.1766   -0.0738    0.0000 C   0  0  0  0  0  0  0  0  0
   -4.1766    0.7512    0.0000 C   0  0  0  0  0  0  0  0  0
   -3.4622    1.1637    0.0000 C   0  0  0  0  0  0  0  0  0
   -3.4622    1.9887    0.0000 N   0  0  0  0  0  0  0  0  0
   -2.7477    2.4012    0.0000 C   0  0  0  0  0  0  0  0  0
   -2.7477    3.2262    0.0000 C   0  0  0  0  0  0  0  0  0
   -3.4622    3.6387    0.0000 C   0  0  0  0  0  0  0  0  0
   -4.1766    3.2262    0.0000 C   0  0  0  0  0  0  0  0  0
   -4.1766    2.4012    0.0000 C   0  0  0  0  0  0  0  0  0
   -4.8911    1.9888    0.0000 O   0  0  0  0  0  0  0  0  0
   -2.0332    3.6387    0.0000 C   0  0  0  0  0  0  0  0  0
   -1.3187    3.2262    0.0000 C   0  0  0  0  0  0  0  0  0
   -1.3187    2.4012    0.0000 C   0  0  0  0  0  0  0  0  0
   -2.0332    1.9887    0.0000 C   0  0  0  0  0  0  0  0  0
   -5.6056   -0.0737    0.0000 C   0  0  0  0  0  0  0  0  0
   -4.1766   -4.1987    0.0000 C   0  0  0  0  0  0  0  0  0
   -6.3200   -5.4362    0.0000 C   0  0  0  0  0  0  0  0  0
   -7.0345   -5.8487    0.0000 C   0  0  0  0  0  0  0  0  0
   -6.7325   -4.7218    0.0000 C   0  0  0  0  0  0  0  0  0
   -5.9075   -6.1507    0.0000 C   0  0  0  0  0  0  0  0  0
  1  2  1  0  0  0  0
  2  3  1  0  0  0  0
  2  4  1  0  0  0  0
  2  5  1  0  0  0  0
  5  6  4  0  0  0  0
  5 32  4  0  0  0  0
  6  7  4  0  0  0  0
  7  8  4  0  0  0  0
  7 33  1  0  0  0  0
  8  9  4  0  0  0  0
  9 10  1  0  0  0  0
  9 32  4  0  0  0  0
 10 11  1  0  0  0  0
 10 15  1  0  0  0  0
 11 12  1  0  0  0  0
 12 13  1  0  0  0  0
 13 14  1  0  0  0  0
 13 16  1  0  0  0  0
 14 15  1  0  0  0  0
 16 17  1  0  0  0  0
 16 31  1  0  0  0  0
 17 18  1  0  0  0  0
 18 19  1  0  0  0  0
 19 20  1  0  0  0  0
 20 21  1  0  0  0  0
 20 25  1  0  0  0  0
 21 22  4  0  0  0  0
 21 30  4  0  0  0  0
 22 23  1  0  0  0  0
 22 27  4  0  0  0  0
 23 24  1  0  0  0  0
 24 25  1  0  0  0  0
 25 26  2  0  0  0  0
 27 28  4  0  0  0  0
 28 29  4  0  0  0  0
 29 30  4  0  0  0  0
 33 34  1  0  0  0  0
 33 35  1  0  0  0  0
 33 36  1  0  0  0  0
M  END
>  <Name_Molregno>
338058

>  <DOPAMINE D2>
6.54

>  <DOPAMINE D3>
7.65

$$$$
338059
  Marvin  02231216192D 0   1.00000     0.00000     0

 35 38  0  0  0  0  0  0  0  0999 V2000
   -1.7191   -3.3830    0.0000 F   0  0  0  0  0  0  0  0  0
   -2.4336   -2.9705    0.0000 C   0  0  0  0  0  0  0  0  0
   -2.0211   -2.2560    0.0000 F   0  0  0  0  0  0  0  0  0
   -2.8461   -3.6849    0.0000 F   0  0  0  0  0  0  0  0  0
   -3.1481   -2.5580    0.0000 C   0  0  0  0  0  0  0  0  0
   -3.8626   -2.9705    0.0000 N   0  0  0  0  0  0  0  0  0
   -4.5770   -2.5580    0.0000 C   0  0  0  0  0  0  0  0  0
   -4.5770   -1.7330    0.0000 N   0  0  0  0  0  0  0  0  0
   -3.8626   -1.3205    0.0000 C   0  0  0  0  0  0  0  0  0
   -3.8626   -0.4955    0.0000 N   0  0  0  0  0  0  0  0  0
   -4.5770   -0.0830    0.0000 C   0  0  0  0  0  0  0  0  0
   -4.5770    0.7420    0.0000 C   0  0  0  0  0  0  0  0  0
   -3.8626    1.1545    0.0000 N   0  0  0  0  0  0  0  0  0
   -3.1481    0.7420    0.0000 C   0  0  0  0  0  0  0  0  0
   -3.1481   -0.0830    0.0000 C   0  0  0  0  0  0  0  0  0
   -3.8626    1.9795    0.0000 C   0  0  0  0  0  0  0  0  0
   -3.1481    2.3920    0.0000 C   0  0  0  0  0  0  0  0  0
   -3.1481    3.2170    0.0000 C   0  0  0  0  0  0  0  0  0
   -2.4336    3.6295    0.0000 C   0  0  0  0  0  0  0  0  0
   -2.4336    4.4545    0.0000 N   0  0  0  0  0  0  0  0  0
   -1.7191    4.8670    0.0000 C   0  0  0  0  0  0  0  0  0
   -1.7191    5.6920    0.0000 C   0  0  0  0  0  0  0  0  0
   -2.4336    6.1045    0.0000 O   0  0  0  0  0  0  0  0  0
   -3.1481    5.6920    0.0000 C   0  0  0  0  0  0  0  0  0
   -3.1481    4.8670    0.0000 C   0  0  0  0  0  0  0  0  0
   -3.8626    4.4545    0.0000 O   0  0  0  0  0  0  0  0  0
   -1.0047    6.1045    0.0000 C   0  0  0  0  0  0  0  0  0
   -0.2902    5.6920    0.0000 C   0  0  0  0  0  0  0  0  0
   -0.2902    4.8670    0.0000 C   0  0  0  0  0  0  0  0  0
   -1.0047    4.4545    0.0000 C   0  0  0  0  0  0  0  0  0
   -3.1481   -1.7330    0.0000 C   0  0  0  0  0  0  0  0  0
   -5.2915   -2.9705    0.0000 C   0  0  0  0  0  0  0  0  0
   -6.0060   -3.3830    0.0000 C   0  0  0  0  0  0  0  0  0
   -5.7040   -2.2560    0.0000 C   0  0  0  0  0  0  0  0  0
   -4.8790   -3.6849    0.0000 C   0  0  0  0  0  0  0  0  0
  1  2  1  0  0  0  0
  2  3  1  0  0  0  0
  2  4  1  0  0  0  0
  2  5  1  0  0  0  0
  5  6  4  0  0  0  0
  5 31  4  0  0  0  0
  6  7  4  0  0  0  0
  7  8  4  0  0  0  0
  7 32  1  0  0  0  0
  8  9  4  0  0  0  0
  9 10  1  0  0  0  0
  9 31  4  0  0  0  0
 10 11  1  0  0  0  0
 10 15  1  0  0  0  0
 11 12  1  0  0  0  0
 12 13  1  0  0  0  0
 13 14  1  0  0  0  0
 13 16  1  0  0  0  0
 14 15  1  0  0  0  0
 16 17  1  0  0  0  0
 17 18  1  0  0  0  0
 18 19  1  0  0  0  0
 19 20  1  0  0  0  0
 20 21  1  0  0  0  0
 20 25  1  0  0  0  0
 21 22  4  0  0  0  0
 21 30  4  0  0  0  0
 22 23  1  0  0  0  0
 22 27  4  0  0  0  0
 23 24  1  0  0  0  0
 24 25  1  0  0  0  0
 25 26  2  0  0  0  0
 27 28  4  0  0  0  0
 28 29  4  0  0  0  0
 29 30  4  0  0  0  0
 32 33  1  0  0  0  0
 32 34  1  0  0  0  0
 32 35  1  0  0  0  0
M  END
>  <Name_Molregno>
338059

>  <DOPAMINE D2>
6.45

>  <DOPAMINE D3>
7.92

$$$$
338129
  Marvin  02231216192D 0   1.00000     0.00000     0

 36 39  0  0  0  0  0  0  0  0999 V2000
   -0.7557    0.0487    0.0000 F   0  0  0  0  0  0  0  0  0
   -0.0412    0.4612    0.0000 C   0  0  0  0  0  0  0  0  0
    0.3713   -0.2533    0.0000 F   0  0  0  0  0  0  0  0  0
   -0.4537    1.1757    0.0000 F   0  0  0  0  0  0  0  0  0
    0.6732    0.8737    0.0000 C   0  0  0  0  0  0  0  0  0
    0.6732    1.6987    0.0000 N   0  0  0  0  0  0  0  0  0
    1.3877    2.1112    0.0000 C   0  0  0  0  0  0  0  0  0
    2.1022    1.6987    0.0000 N   0  0  0  0  0  0  0  0  0
    2.1022    0.8737    0.0000 C   0  0  0  0  0  0  0  0  0
    2.8166    0.4612    0.0000 N   0  0  0  0  0  0  0  0  0
    3.5311    0.8737    0.0000 C   0  0  0  0  0  0  0  0  0
    4.2456    0.4612    0.0000 C   0  0  0  0  0  0  0  0  0
    4.2456   -0.3638    0.0000 N   0  0  0  0  0  0  0  0  0
    3.5311   -0.7763    0.0000 C   0  0  0  0  0  0  0  0  0
    2.8166   -0.3638    0.0000 C   0  0  0  0  0  0  0  0  0
    4.9600   -0.7763    0.0000 C   0  0  0  0  0  0  0  0  0
    5.6745   -0.3638    0.0000 C   0  0  0  0  0  0  0  0  0
    6.3890   -0.7763    0.0000 C   0  0  0  0  0  0  0  0  0
    7.1035   -0.3638    0.0000 C   0  0  0  0  0  0  0  0  0
    7.8179   -0.7763    0.0000 C   0  0  0  0  0  0  0  0  0
    8.5324   -0.3638    0.0000 N   0  0  0  0  0  0  0  0  0
    9.2469   -0.7763    0.0000 C   0  0  0  0  0  0  0  0  0
    9.9613   -0.3638    0.0000 C   0  0  0  0  0  0  0  0  0
    9.9613    0.4612    0.0000 C   0  0  0  0  0  0  0  0  0
    9.2469    0.8737    0.0000 C   0  0  0  0  0  0  0  0  0
    8.5324    0.4612    0.0000 C   0  0  0  0  0  0  0  0  0
    7.8179    0.8737    0.0000 O   0  0  0  0  0  0  0  0  0
   10.6758   -0.7763    0.0000 C   0  0  0  0  0  0  0  0  0
   10.6758   -1.6013    0.0000 C   0  0  0  0  0  0  0  0  0
    9.9613   -2.0138    0.0000 C   0  0  0  0  0  0  0  0  0
    9.2469   -1.6013    0.0000 C   0  0  0  0  0  0  0  0  0
    1.3877    0.4612    0.0000 C   0  0  0  0  0  0  0  0  0
    1.3877    2.9362    0.0000 C   0  0  0  0  0  0  0  0  0
    1.3877    3.7612    0.0000 C   0  0  0  0  0  0  0  0  0
    2.2127    2.9362    0.0000 C   0  0  0  0  0  0  0  0  0
    0.5627    2.9362    0.0000 C   0  0  0  0  0  0  0  0  0
  1  2  1  0  0  0  0
  2  3  1  0  0  0  0
  2  4  1  0  0  0  0
  2  5  1  0  0  0  0
  5  6  4  0  0  0  0
  5 32  4  0  0  0  0
  6  7  4  0  0  0  0
  7  8  4  0  0  0  0
  7 33  1  0  0  0  0
  8  9  4  0  0  0  0
  9 10  1  0  0  0  0
  9 32  4  0  0  0  0
 10 11  1  0  0  0  0
 10 15  1  0  0  0  0
 11 12  1  0  0  0  0
 12 13  1  0  0  0  0
 13 14  1  0  0  0  0
 13 16  1  0  0  0  0
 14 15  1  0  0  0  0
 16 17  1  0  0  0  0
 17 18  1  0  0  0  0
 18 19  1  0  0  0  0
 19 20  1  0  0  0  0
 20 21  1  0  0  0  0
 21 22  1  0  0  0  0
 21 26  1  0  0  0  0
 22 23  4  0  0  0  0
 22 31  4  0  0  0  0
 23 24  1  0  0  0  0
 23 28  4  0  0  0  0
 24 25  1  0  0  0  0
 25 26  1  0  0  0  0
 26 27  2  0  0  0  0
 28 29  4  0  0  0  0
 29 30  4  0  0  0  0
 30 31  4  0  0  0  0
 33 34  1  0  0  0  0
 33 35  1  0  0  0  0
 33 36  1  0  0  0  0
M  END
>  <Name_Molregno>
338129

>  <DOPAMINE D3>
5.39

$$$$
338130
  Marvin  02231216192D 0   1.00000     0.00000     0

 35 38  0  0  0  0  0  0  0  0999 V2000
   -7.9861    0.0467    0.0000 F   0  0  0  0  0  0  0  0  0
   -7.2716    0.4592    0.0000 C   0  0  0  0  0  0  0  0  0
   -6.8591   -0.2553    0.0000 F   0  0  0  0  0  0  0  0  0
   -7.6841    1.1737    0.0000 F   0  0  0  0  0  0  0  0  0
   -6.5571    0.8717    0.0000 C   0  0  0  0  0  0  0  0  0
   -6.5571    1.6967    0.0000 N   0  0  0  0  0  0  0  0  0
   -5.8427    2.1092    0.0000 C   0  0  0  0  0  0  0  0  0
   -5.1282    1.6967    0.0000 N   0  0  0  0  0  0  0  0  0
   -5.1282    0.8717    0.0000 C   0  0  0  0  0  0  0  0  0
   -4.4137    0.4592    0.0000 N   0  0  0  0  0  0  0  0  0
   -3.6993    0.8717    0.0000 C   0  0  0  0  0  0  0  0  0
   -2.9848    0.4592    0.0000 C   0  0  0  0  0  0  0  0  0
   -2.9848   -0.3658    0.0000 N   0  0  0  0  0  0  0  0  0
   -3.6993   -0.7783    0.0000 C   0  0  0  0  0  0  0  0  0
   -4.4137   -0.3658    0.0000 C   0  0  0  0  0  0  0  0  0
   -2.2703   -0.7783    0.0000 C   0  0  0  0  0  0  0  0  0
   -1.5558   -0.3658    0.0000 C   0  0  0  0  0  0  0  0  0
   -0.8414   -0.7783    0.0000 C   0  0  0  0  0  0  0  0  0
   -0.1269   -0.3658    0.0000 C   0  0  0  0  0  0  0  0  0
   -0.1269    0.4592    0.0000 N   0  0  0  0  0  0  0  0  0
    0.5876    0.8717    0.0000 C   0  0  0  0  0  0  0  0  0
    0.5876    1.6967    0.0000 C   0  0  0  0  0  0  0  0  0
   -0.1269    2.1092    0.0000 C   0  0  0  0  0  0  0  0  0
   -0.8414    1.6967    0.0000 C   0  0  0  0  0  0  0  0  0
   -0.8414    0.8717    0.0000 C   0  0  0  0  0  0  0  0  0
   -1.5558    0.4592    0.0000 O   0  0  0  0  0  0  0  0  0
    1.3020    2.1092    0.0000 C   0  0  0  0  0  0  0  0  0
    2.0165    1.6967    0.0000 C   0  0  0  0  0  0  0  0  0
    2.0165    0.8717    0.0000 C   0  0  0  0  0  0  0  0  0
    1.3020    0.4592    0.0000 C   0  0  0  0  0  0  0  0  0
   -5.8427    0.4592    0.0000 C   0  0  0  0  0  0  0  0  0
   -5.8427    2.9342    0.0000 C   0  0  0  0  0  0  0  0  0
   -5.8427    3.7592    0.0000 C   0  0  0  0  0  0  0  0  0
   -5.0177    2.9342    0.0000 C   0  0  0  0  0  0  0  0  0
   -6.6677    2.9342    0.0000 C   0  0  0  0  0  0  0  0  0
  1  2  1  0  0  0  0
  2  3  1  0  0  0  0
  2  4  1  0  0  0  0
  2  5  1  0  0  0  0
  5  6  4  0  0  0  0
  5 31  4  0  0  0  0
  6  7  4  0  0  0  0
  7  8  4  0  0  0  0
  7 32  1  0  0  0  0
  8  9  4  0  0  0  0
  9 10  1  0  0  0  0
  9 31  4  0  0  0  0
 10 11  1  0  0  0  0
 10 15  1  0  0  0  0
 11 12  1  0  0  0  0
 12 13  1  0  0  0  0
 13 14  1  0  0  0  0
 13 16  1  0  0  0  0
 14 15  1  0  0  0  0
 16 17  1  0  0  0  0
 17 18  2  0  0  0  0
 18 19  1  0  0  0  0
 19 20  1  0  0  0  0
 20 21  1  0  0  0  0
 20 25  1  0  0  0  0
 21 22  4  0  0  0  0
 21 30  4  0  0  0  0
 22 23  1  0  0  0  0
 22 27  4  0  0  0  0
 23 24  1  0  0  0  0
 24 25  1  0  0  0  0
 25 26  2  0  0  0  0
 27 28  4  0  0  0  0
 28 29  4  0  0  0  0
 29 30  4  0  0  0  0
 32 33  1  0  0  0  0
 32 34  1  0  0  0  0
 32 35  1  0  0  0  0
M  END
>  <Name_Molregno>
338130

>  <DOPAMINE D2>
6.6

>  <DOPAMINE D3>
8.04

$$$$
338194
  Marvin  02231216192D 0   1.00000     0.00000     0

 41 44  0  0  0  0  0  0  0  0999 V2000
    7.1950   -5.7268    0.0000 F   0  0  0  0  0  0  0  0  0
    6.5903   -5.1656    0.0000 C   0  0  0  0  0  0  0  0  0
    7.1514   -4.5609    0.0000 F   0  0  0  0  0  0  0  0  0
    6.0291   -5.7704    0.0000 F   0  0  0  0  0  0  0  0  0
    5.9855   -4.6045    0.0000 C   0  0  0  0  0  0  0  0  0
    5.1972   -4.8477    0.0000 N   0  0  0  0  0  0  0  0  0
    4.5924   -4.2865    0.0000 C   0  0  0  0  0  0  0  0  0
    4.7760   -3.4822    0.0000 N   0  0  0  0  0  0  0  0  0
    5.5643   -3.2390    0.0000 C   0  0  0  0  0  0  0  0  0
    5.7479   -2.4347    0.0000 N   0  0  0  0  0  0  0  0  0
    5.1431   -1.8736    0.0000 C   0  0  0  0  0  0  0  0  0
    5.3267   -1.0692    0.0000 C   0  0  0  0  0  0  0  0  0
    6.1151   -0.8261    0.0000 N   0  0  0  0  0  0  0  0  0
    6.7198   -1.3872    0.0000 C   0  0  0  0  0  0  0  0  0
    6.5362   -2.1915    0.0000 C   0  0  0  0  0  0  0  0  0
    6.2986   -0.0218    0.0000 C   0  0  0  0  0  0  0  0  0
    5.6939    0.5394    0.0000 C   0  0  0  0  0  0  0  0  0
    5.8775    1.3437    0.0000 C   0  0  0  0  0  0  0  0  0
    5.2727    1.9048    0.0000 C   0  0  0  0  0  0  0  0  0
    5.4563    2.7092    0.0000 N   0  0  0  0  0  0  0  0  0
    4.8113    3.2235    0.0000 C   0  0  0  0  0  0  0  0  0
    4.8113    4.0485    0.0000 C   0  0  0  0  0  0  0  0  0
    4.0968    4.4610    0.0000 C   0  0  0  0  0  0  0  0  0
    3.3823    4.0485    0.0000 C   0  0  0  0  0  0  0  0  0
    2.6678    4.4610    0.0000 O   0  0  0  0  0  0  0  0  0
    2.6678    5.2860    0.0000 C   0  0  0  0  0  0  0  0  0
    3.3823    3.2235    0.0000 C   0  0  0  0  0  0  0  0  0
    2.6678    2.8110    0.0000 O   0  0  0  0  0  0  0  0  0
    2.6678    1.9860    0.0000 C   0  0  0  0  0  0  0  0  0
    4.0968    2.8110    0.0000 C   0  0  0  0  0  0  0  0  0
    5.4563    4.5629    0.0000 C   0  0  0  0  0  0  0  0  0
    5.2727    5.3672    0.0000 O   0  0  0  0  0  0  0  0  0
    6.2606    4.3793    0.0000 C   0  0  0  0  0  0  0  0  0
    6.6185    3.6360    0.0000 C   0  0  0  0  0  0  0  0  0
    6.2606    2.8927    0.0000 C   0  0  0  0  0  0  0  0  0
    6.7750    2.2477    0.0000 O   0  0  0  0  0  0  0  0  0
    6.1691   -3.8002    0.0000 C   0  0  0  0  0  0  0  0  0
    3.8040   -4.5297    0.0000 C   0  0  0  0  0  0  0  0  0
    3.0157   -4.7729    0.0000 C   0  0  0  0  0  0  0  0  0
    3.5609   -3.7413    0.0000 C   0  0  0  0  0  0  0  0  0
    4.0472   -5.3180    0.0000 C   0  0  0  0  0  0  0  0  0
  1  2  1  0  0  0  0
  2  3  1  0  0  0  0
  2  4  1  0  0  0  0
  2  5  1  0  0  0  0
  5  6  4  0  0  0  0
  5 37  4  0  0  0  0
  6  7  4  0  0  0  0
  7  8  4  0  0  0  0
  7 38  1  0  0  0  0
  8  9  4  0  0  0  0
  9 10  1  0  0  0  0
  9 37  4  0  0  0  0
 10 11  1  0  0  0  0
 10 15  1  0  0  0  0
 11 12  1  0  0  0  0
 12 13  1  0  0  0  0
 13 14  1  0  0  0  0
 13 16  1  0  0  0  0
 14 15  1  0  0  0  0
 16 17  1  0  0  0  0
 17 18  1  0  0  0  0
 18 19  1  0  0  0  0
 19 20  1  0  0  0  0
 20 21  1  0  0  0  0
 20 35  1  0  0  0  0
 21 22  4  0  0  0  0
 21 30  4  0  0  0  0
 22 23  4  0  0  0  0
 22 31  1  0  0  0  0
 23 24  4  0  0  0  0
 24 25  1  0  0  0  0
 24 27  4  0  0  0  0
 25 26  1  0  0  0  0
 27 28  1  0  0  0  0
 27 30  4  0  0  0  0
 28 29  1  0  0  0  0
 31 32  2  0  0  0  0
 31 33  1  0  0  0  0
 33 34  1  0  0  0  0
 34 35  1  0  0  0  0
 35 36  2  0  0  0  0
 38 39  1  0  0  0  0
 38 40  1  0  0  0  0
 38 41  1  0  0  0  0
M  END
>  <Name_Molregno>
338194

>  <DOPAMINE D2>
6.33

>  <DOPAMINE D3>
8.35

$$$$
338195
  Marvin  02231216192D 0   1.00000     0.00000     0

 33 35  0  0  0  0  0  0  0  0999 V2000
   -7.3925   -2.1842    0.0000 F   0  0  0  0  0  0  0  0  0
   -6.6780   -1.7717    0.0000 C   0  0  0  0  0  0  0  0  0
   -6.2655   -2.4862    0.0000 F   0  0  0  0  0  0  0  0  0
   -7.0905   -1.0572    0.0000 F   0  0  0  0  0  0  0  0  0
   -5.9636   -1.3592    0.0000 C   0  0  0  0  0  0  0  0  0
   -5.9636   -0.5342    0.0000 N   0  0  0  0  0  0  0  0  0
   -5.2491   -0.1217    0.0000 C   0  0  0  0  0  0  0  0  0
   -4.5346   -0.5342    0.0000 N   0  0  0  0  0  0  0  0  0
   -4.5346   -1.3592    0.0000 C   0  0  0  0  0  0  0  0  0
   -3.8202   -1.7717    0.0000 N   0  0  0  0  0  0  0  0  0
   -3.1057   -1.3592    0.0000 C   0  0  0  0  0  0  0  0  0
   -2.3912   -1.7717    0.0000 C   0  0  0  0  0  0  0  0  0
   -2.3912   -2.5967    0.0000 N   0  0  0  0  0  0  0  0  0
   -3.1057   -3.0092    0.0000 C   0  0  0  0  0  0  0  0  0
   -3.8202   -2.5967    0.0000 C   0  0  0  0  0  0  0  0  0
   -1.6767   -3.0092    0.0000 C   0  0  0  0  0  0  0  0  0
   -0.9623   -2.5967    0.0000 C   0  0  0  0  0  0  0  0  0
   -0.2478   -3.0092    0.0000 C   0  0  0  0  0  0  0  0  0
    0.4667   -2.5967    0.0000 C   0  0  0  0  0  0  0  0  0
    1.1811   -3.0092    0.0000 N   0  0  0  0  0  0  0  0  0
    1.8628   -2.5445    0.0000 C   0  0  0  0  0  0  0  0  0
    2.6511   -2.7876    0.0000 C   0  0  0  0  0  0  0  0  0
    2.9525   -3.5556    0.0000 C   0  0  0  0  0  0  0  0  0
    3.7752   -3.6173    0.0000 O   0  0  0  0  0  0  0  0  0
    2.5400   -4.2701    0.0000 C   0  0  0  0  0  0  0  0  0
    1.7242   -4.3930    0.0000 C   0  0  0  0  0  0  0  0  0
    1.1195   -3.8319    0.0000 C   0  0  0  0  0  0  0  0  0
    0.3515   -4.1333    0.0000 O   0  0  0  0  0  0  0  0  0
   -5.2491   -1.7717    0.0000 C   0  0  0  0  0  0  0  0  0
   -5.2491    0.7033    0.0000 C   0  0  0  0  0  0  0  0  0
   -5.2491    1.5283    0.0000 C   0  0  0  0  0  0  0  0  0
   -4.4241    0.7033    0.0000 C   0  0  0  0  0  0  0  0  0
   -6.0741    0.7033    0.0000 C   0  0  0  0  0  0  0  0  0
  1  2  1  0  0  0  0
  2  3  1  0  0  0  0
  2  4  1  0  0  0  0
  2  5  1  0  0  0  0
  5  6  4  0  0  0  0
  5 29  4  0  0  0  0
  6  7  4  0  0  0  0
  7  8  4  0  0  0  0
  7 30  1  0  0  0  0
  8  9  4  0  0  0  0
  9 10  1  0  0  0  0
  9 29  4  0  0  0  0
 10 11  1  0  0  0  0
 10 15  1  0  0  0  0
 11 12  1  0  0  0  0
 12 13  1  0  0  0  0
 13 14  1  0  0  0  0
 13 16  1  0  0  0  0
 14 15  1  0  0  0  0
 16 17  1  0  0  0  0
 17 18  1  0  0  0  0
 18 19  1  0  0  0  0
 19 20  1  0  0  0  0
 20 21  1  0  0  0  0
 20 27  1  0  0  0  0
 21 22  1  0  0  0  0
 22 23  1  0  0  0  0
 23 24  2  0  0  0  0
 23 25  1  0  0  0  0
 25 26  1  0  0  0  0
 26 27  1  0  0  0  0
 27 28  2  0  0  0  0
 30 31  1  0  0  0  0
 30 32  1  0  0  0  0
 30 33  1  0  0  0  0
M  END
>  <Name_Molregno>
338195

>  <DOPAMINE D2>
7.19

>  <DOPAMINE D3>
8.41

$$$$
338202
  Marvin  02231216192D 0   1.00000     0.00000     0

 37 40  0  0  0  0  0  0  0  0999 V2000
   -1.1863   -6.9859    0.0000 F   0  0  0  0  0  0  0  0  0
   -1.7910   -6.4247    0.0000 C   0  0  0  0  0  0  0  0  0
   -1.2299   -5.8199    0.0000 F   0  0  0  0  0  0  0  0  0
   -2.3522   -7.0295    0.0000 F   0  0  0  0  0  0  0  0  0
   -2.3958   -5.8636    0.0000 C   0  0  0  0  0  0  0  0  0
   -3.1841   -6.1067    0.0000 N   0  0  0  0  0  0  0  0  0
   -3.7889   -5.5456    0.0000 C   0  0  0  0  0  0  0  0  0
   -3.6053   -4.7413    0.0000 N   0  0  0  0  0  0  0  0  0
   -2.8170   -4.4981    0.0000 C   0  0  0  0  0  0  0  0  0
   -2.6334   -3.6938    0.0000 N   0  0  0  0  0  0  0  0  0
   -3.2382   -3.1327    0.0000 C   0  0  0  0  0  0  0  0  0
   -3.0546   -2.3283    0.0000 C   0  0  0  0  0  0  0  0  0
   -2.2662   -2.0852    0.0000 N   0  0  0  0  0  0  0  0  0
   -1.6615   -2.6463    0.0000 C   0  0  0  0  0  0  0  0  0
   -1.8451   -3.4506    0.0000 C   0  0  0  0  0  0  0  0  0
   -2.0827   -1.2808    0.0000 C   0  0  0  0  0  0  0  0  0
   -2.6874   -0.7197    0.0000 C   0  0  0  0  0  0  0  0  0
   -2.5039    0.0846    0.0000 C   0  0  0  0  0  0  0  0  0
   -3.1086    0.6458    0.0000 C   0  0  0  0  0  0  0  0  0
   -2.9250    1.4501    0.0000 N   0  0  0  0  0  0  0  0  0
   -3.5701    1.9644    0.0000 C   0  0  0  0  0  0  0  0  0
   -3.5701    2.7894    0.0000 C   0  0  0  0  0  0  0  0  0
   -4.2845    3.2019    0.0000 C   0  0  0  0  0  0  0  0  0
   -4.9990    2.7894    0.0000 C   0  0  0  0  0  0  0  0  0
   -4.9990    1.9644    0.0000 C   0  0  0  0  0  0  0  0  0
   -4.2845    1.5519    0.0000 C   0  0  0  0  0  0  0  0  0
   -2.9250    3.3038    0.0000 C   0  0  0  0  0  0  0  0  0
   -3.1086    4.1081    0.0000 O   0  0  0  0  0  0  0  0  0
   -2.1207    3.1202    0.0000 C   0  0  0  0  0  0  0  0  0
   -1.7628    2.3769    0.0000 C   0  0  0  0  0  0  0  0  0
   -2.1207    1.6336    0.0000 C   0  0  0  0  0  0  0  0  0
   -1.6064    0.9886    0.0000 O   0  0  0  0  0  0  0  0  0
   -2.2122   -5.0593    0.0000 C   0  0  0  0  0  0  0  0  0
   -4.5773   -5.7888    0.0000 C   0  0  0  0  0  0  0  0  0
   -5.3656   -6.0319    0.0000 C   0  0  0  0  0  0  0  0  0
   -4.8204   -5.0004    0.0000 C   0  0  0  0  0  0  0  0  0
   -4.3341   -6.5771    0.0000 C   0  0  0  0  0  0  0  0  0
  1  2  1  0  0  0  0
  2  3  1  0  0  0  0
  2  4  1  0  0  0  0
  2  5  1  0  0  0  0
  5  6  4  0  0  0  0
  5 33  4  0  0  0  0
  6  7  4  0  0  0  0
  7  8  4  0  0  0  0
  7 34  1  0  0  0  0
  8  9  4  0  0  0  0
  9 10  1  0  0  0  0
  9 33  4  0  0  0  0
 10 11  1  0  0  0  0
 10 15  1  0  0  0  0
 11 12  1  0  0  0  0
 12 13  1  0  0  0  0
 13 14  1  0  0  0  0
 13 16  1  0  0  0  0
 14 15  1  0  0  0  0
 16 17  1  0  0  0  0
 17 18  1  0  0  0  0
 18 19  1  0  0  0  0
 19 20  1  0  0  0  0
 20 21  1  0  0  0  0
 20 31  1  0  0  0  0
 21 22  4  0  0  0  0
 21 26  4  0  0  0  0
 22 23  4  0  0  0  0
 22 27  1  0  0  0  0
 23 24  4  0  0  0  0
 24 25  4  0  0  0  0
 25 26  4  0  0  0  0
 27 28  2  0  0  0  0
 27 29  1  0  0  0  0
 29 30  1  0  0  0  0
 30 31  1  0  0  0  0
 31 32  2  0  0  0  0
 34 35  1  0  0  0  0
 34 36  1  0  0  0  0
 34 37  1  0  0  0  0
M  END
>  <Name_Molregno>
338202

>  <DOPAMINE D2>
6.61

>  <DOPAMINE D3>
9.1

$$$$
338235
  Marvin  02231216192D 0   1.00000     0.00000     0

 37 40  0  0  0  0  0  0  0  0999 V2000
   -1.1566   -6.9469    0.0000 F   0  0  0  0  0  0  0  0  0
   -1.7613   -6.3858    0.0000 C   0  0  0  0  0  0  0  0  0
   -1.2002   -5.7810    0.0000 F   0  0  0  0  0  0  0  0  0
   -2.3225   -6.9905    0.0000 F   0  0  0  0  0  0  0  0  0
   -2.3661   -5.8246    0.0000 C   0  0  0  0  0  0  0  0  0
   -3.1545   -6.0678    0.0000 N   0  0  0  0  0  0  0  0  0
   -3.7592   -5.5066    0.0000 C   0  0  0  0  0  0  0  0  0
   -3.5756   -4.7023    0.0000 N   0  0  0  0  0  0  0  0  0
   -2.7873   -4.4592    0.0000 C   0  0  0  0  0  0  0  0  0
   -2.6037   -3.6548    0.0000 N   0  0  0  0  0  0  0  0  0
   -3.2085   -3.0937    0.0000 C   0  0  0  0  0  0  0  0  0
   -3.0249   -2.2894    0.0000 C   0  0  0  0  0  0  0  0  0
   -2.2366   -2.0462    0.0000 N   0  0  0  0  0  0  0  0  0
   -1.6318   -2.6073    0.0000 C   0  0  0  0  0  0  0  0  0
   -1.8154   -3.4117    0.0000 C   0  0  0  0  0  0  0  0  0
   -2.0530   -1.2419    0.0000 C   0  0  0  0  0  0  0  0  0
   -2.6577   -0.6807    0.0000 C   0  0  0  0  0  0  0  0  0
   -2.4742    0.1236    0.0000 C   0  0  0  0  0  0  0  0  0
   -3.0789    0.6847    0.0000 C   0  0  0  0  0  0  0  0  0
   -2.8953    1.4890    0.0000 N   0  0  0  0  0  0  0  0  0
   -3.5404    2.0034    0.0000 C   0  0  0  0  0  0  0  0  0
   -3.5404    2.8284    0.0000 C   0  0  0  0  0  0  0  0  0
   -2.8953    3.3428    0.0000 C   0  0  0  0  0  0  0  0  0
   -2.0910    3.1592    0.0000 C   0  0  0  0  0  0  0  0  0
   -1.7331    2.4159    0.0000 C   0  0  0  0  0  0  0  0  0
   -2.0910    1.6726    0.0000 C   0  0  0  0  0  0  0  0  0
   -1.5767    1.0276    0.0000 O   0  0  0  0  0  0  0  0  0
   -4.2548    3.2409    0.0000 C   0  0  0  0  0  0  0  0  0
   -4.2548    4.0659    0.0000 O   0  0  0  0  0  0  0  0  0
   -4.9693    2.8284    0.0000 C   0  0  0  0  0  0  0  0  0
   -4.9693    2.0034    0.0000 C   0  0  0  0  0  0  0  0  0
   -4.2548    1.5909    0.0000 C   0  0  0  0  0  0  0  0  0
   -2.1825   -5.0203    0.0000 C   0  0  0  0  0  0  0  0  0
   -4.5476   -5.7498    0.0000 C   0  0  0  0  0  0  0  0  0
   -5.3359   -5.9930    0.0000 C   0  0  0  0  0  0  0  0  0
   -4.7907   -4.9615    0.0000 C   0  0  0  0  0  0  0  0  0
   -4.3044   -6.5382    0.0000 C   0  0  0  0  0  0  0  0  0
  1  2  1  0  0  0  0
  2  3  1  0  0  0  0
  2  4  1  0  0  0  0
  2  5  1  0  0  0  0
  5  6  4  0  0  0  0
  5 33  4  0  0  0  0
  6  7  4  0  0  0  0
  7  8  4  0  0  0  0
  7 34  1  0  0  0  0
  8  9  4  0  0  0  0
  9 10  1  0  0  0  0
  9 33  4  0  0  0  0
 10 11  1  0  0  0  0
 10 15  1  0  0  0  0
 11 12  1  0  0  0  0
 12 13  1  0  0  0  0
 13 14  1  0  0  0  0
 13 16  1  0  0  0  0
 14 15  1  0  0  0  0
 16 17  1  0  0  0  0
 17 18  1  0  0  0  0
 18 19  1  0  0  0  0
 19 20  1  0  0  0  0
 20 21  1  0  0  0  0
 20 26  1  0  0  0  0
 21 22  4  0  0  0  0
 21 32  4  0  0  0  0
 22 23  1  0  0  0  0
 22 28  4  0  0  0  0
 23 24  1  0  0  0  0
 24 25  1  0  0  0  0
 25 26  1  0  0  0  0
 26 27  2  0  0  0  0
 28 29  1  0  0  0  0
 28 30  4  0  0  0  0
 30 31  4  0  0  0  0
 31 32  4  0  0  0  0
 34 35  1  0  0  0  0
 34 36  1  0  0  0  0
 34 37  1  0  0  0  0
M  END
>  <Name_Molregno>
338235

>  <DOPAMINE D2>
7.03

>  <DOPAMINE D3>
8.6

$$$$
338412
  Marvin  02231216192D 0   1.00000     0.00000     0

 38 41  0  0  0  0  0  0  0  0999 V2000
    6.7942   -5.2054    0.0000 F   0  0  0  0  0  0  0  0  0
    6.1894   -4.6443    0.0000 C   0  0  0  0  0  0  0  0  0
    6.7506   -4.0395    0.0000 F   0  0  0  0  0  0  0  0  0
    5.6283   -5.2490    0.0000 F   0  0  0  0  0  0  0  0  0
    5.5847   -4.0831    0.0000 C   0  0  0  0  0  0  0  0  0
    4.7963   -4.3263    0.0000 N   0  0  0  0  0  0  0  0  0
    4.1916   -3.7651    0.0000 C   0  0  0  0  0  0  0  0  0
    4.3751   -2.9608    0.0000 N   0  0  0  0  0  0  0  0  0
    5.1635   -2.7177    0.0000 C   0  0  0  0  0  0  0  0  0
    5.3471   -1.9133    0.0000 N   0  0  0  0  0  0  0  0  0
    4.7423   -1.3522    0.0000 C   0  0  0  0  0  0  0  0  0
    4.9259   -0.5479    0.0000 C   0  0  0  0  0  0  0  0  0
    5.7142   -0.3047    0.0000 N   0  0  0  0  0  0  0  0  0
    6.3190   -0.8658    0.0000 C   0  0  0  0  0  0  0  0  0
    6.1354   -1.6702    0.0000 C   0  0  0  0  0  0  0  0  0
    5.8978    0.4996    0.0000 C   0  0  0  0  0  0  0  0  0
    5.2930    1.0608    0.0000 C   0  0  0  0  0  0  0  0  0
    5.4766    1.8651    0.0000 C   0  0  0  0  0  0  0  0  0
    4.8718    2.4262    0.0000 C   0  0  0  0  0  0  0  0  0
    5.0554    3.2305    0.0000 N   0  0  0  0  0  0  0  0  0
    4.4104    3.7449    0.0000 C   0  0  0  0  0  0  0  0  0
    4.4104    4.5699    0.0000 C   0  0  0  0  0  0  0  0  0
    5.0554    5.0843    0.0000 C   0  0  0  0  0  0  0  0  0
    5.8597    4.9007    0.0000 C   0  0  0  0  0  0  0  0  0
    6.2177    4.1574    0.0000 C   0  0  0  0  0  0  0  0  0
    5.8597    3.4141    0.0000 C   0  0  0  0  0  0  0  0  0
    6.3741    2.7691    0.0000 O   0  0  0  0  0  0  0  0  0
    3.6959    4.9824    0.0000 C   0  0  0  0  0  0  0  0  0
    3.6959    5.8074    0.0000 O   0  0  0  0  0  0  0  0  0
    2.9815    6.2199    0.0000 C   0  0  0  0  0  0  0  0  0
    2.9815    4.5699    0.0000 C   0  0  0  0  0  0  0  0  0
    2.9815    3.7449    0.0000 C   0  0  0  0  0  0  0  0  0
    3.6959    3.3324    0.0000 C   0  0  0  0  0  0  0  0  0
    5.7683   -3.2788    0.0000 C   0  0  0  0  0  0  0  0  0
    3.4032   -4.0083    0.0000 C   0  0  0  0  0  0  0  0  0
    2.6149   -4.2515    0.0000 C   0  0  0  0  0  0  0  0  0
    3.1600   -3.2200    0.0000 C   0  0  0  0  0  0  0  0  0
    3.6464   -4.7967    0.0000 C   0  0  0  0  0  0  0  0  0
  1  2  1  0  0  0  0
  2  3  1  0  0  0  0
  2  4  1  0  0  0  0
  2  5  1  0  0  0  0
  5  6  4  0  0  0  0
  5 34  4  0  0  0  0
  6  7  4  0  0  0  0
  7  8  4  0  0  0  0
  7 35  1  0  0  0  0
  8  9  4  0  0  0  0
  9 10  1  0  0  0  0
  9 34  4  0  0  0  0
 10 11  1  0  0  0  0
 10 15  1  0  0  0  0
 11 12  1  0  0  0  0
 12 13  1  0  0  0  0
 13 14  1  0  0  0  0
 13 16  1  0  0  0  0
 14 15  1  0  0  0  0
 16 17  1  0  0  0  0
 17 18  1  0  0  0  0
 18 19  1  0  0  0  0
 19 20  1  0  0  0  0
 20 21  1  0  0  0  0
 20 26  1  0  0  0  0
 21 22  4  0  0  0  0
 21 33  4  0  0  0  0
 22 23  1  0  0  0  0
 22 28  4  0  0  0  0
 23 24  1  0  0  0  0
 24 25  1  0  0  0  0
 25 26  1  0  0  0  0
 26 27  2  0  0  0  0
 28 29  1  0  0  0  0
 28 31  4  0  0  0  0
 29 30  1  0  0  0  0
 31 32  4  0  0  0  0
 32 33  4  0  0  0  0
 35 36  1  0  0  0  0
 35 37  1  0  0  0  0
 35 38  1  0  0  0  0
M  END
>  <Name_Molregno>
338412

>  <DOPAMINE D2>
6.61

>  <DOPAMINE D3>
8

$$$$
338413
  Marvin  02231216192D 0   1.00000     0.00000     0

 35 38  0  0  0  0  0  0  0  0999 V2000
   -1.7191   -3.3830    0.0000 F   0  0  0  0  0  0  0  0  0
   -2.4336   -2.9705    0.0000 C   0  0  0  0  0  0  0  0  0
   -2.0211   -2.2560    0.0000 F   0  0  0  0  0  0  0  0  0
   -2.8461   -3.6849    0.0000 F   0  0  0  0  0  0  0  0  0
   -3.1481   -2.5580    0.0000 C   0  0  0  0  0  0  0  0  0
   -3.8626   -2.9705    0.0000 N   0  0  0  0  0  0  0  0  0
   -4.5770   -2.5580    0.0000 C   0  0  0  0  0  0  0  0  0
   -4.5770   -1.7330    0.0000 N   0  0  0  0  0  0  0  0  0
   -3.8626   -1.3205    0.0000 C   0  0  0  0  0  0  0  0  0
   -3.8626   -0.4955    0.0000 N   0  0  0  0  0  0  0  0  0
   -4.5770   -0.0830    0.0000 C   0  0  0  0  0  0  0  0  0
   -4.5770    0.7420    0.0000 C   0  0  0  0  0  0  0  0  0
   -3.8626    1.1545    0.0000 N   0  0  0  0  0  0  0  0  0
   -3.1481    0.7420    0.0000 C   0  0  0  0  0  0  0  0  0
   -3.1481   -0.0830    0.0000 C   0  0  0  0  0  0  0  0  0
   -3.8626    1.9795    0.0000 C   0  0  0  0  0  0  0  0  0
   -3.1481    2.3920    0.0000 C   0  0  0  0  0  0  0  0  0
   -3.1481    3.2170    0.0000 C   0  0  0  0  0  0  0  0  0
   -2.4336    3.6295    0.0000 C   0  0  0  0  0  0  0  0  0
   -2.4336    4.4545    0.0000 N   0  0  0  0  0  0  0  0  0
   -1.7191    4.8670    0.0000 C   0  0  0  0  0  0  0  0  0
   -1.7191    5.6920    0.0000 C   0  0  0  0  0  0  0  0  0
   -2.4336    6.1045    0.0000 C   0  0  0  0  0  0  0  0  0
   -3.1481    5.6920    0.0000 C   0  0  0  0  0  0  0  0  0
   -3.1481    4.8670    0.0000 C   0  0  0  0  0  0  0  0  0
   -3.8626    4.4545    0.0000 O   0  0  0  0  0  0  0  0  0
   -1.0047    6.1045    0.0000 C   0  0  0  0  0  0  0  0  0
   -0.2902    5.6920    0.0000 C   0  0  0  0  0  0  0  0  0
   -0.2902    4.8670    0.0000 C   0  0  0  0  0  0  0  0  0
   -1.0047    4.4545    0.0000 C   0  0  0  0  0  0  0  0  0
   -3.1481   -1.7330    0.0000 C   0  0  0  0  0  0  0  0  0
   -5.2915   -2.9705    0.0000 C   0  0  0  0  0  0  0  0  0
   -6.0060   -3.3830    0.0000 C   0  0  0  0  0  0  0  0  0
   -5.7040   -2.2560    0.0000 C   0  0  0  0  0  0  0  0  0
   -4.8790   -3.6849    0.0000 C   0  0  0  0  0  0  0  0  0
  1  2  1  0  0  0  0
  2  3  1  0  0  0  0
  2  4  1  0  0  0  0
  2  5  1  0  0  0  0
  5  6  4  0  0  0  0
  5 31  4  0  0  0  0
  6  7  4  0  0  0  0
  7  8  4  0  0  0  0
  7 32  1  0  0  0  0
  8  9  4  0  0  0  0
  9 10  1  0  0  0  0
  9 31  4  0  0  0  0
 10 11  1  0  0  0  0
 10 15  1  0  0  0  0
 11 12  1  0  0  0  0
 12 13  1  0  0  0  0
 13 14  1  0  0  0  0
 13 16  1  0  0  0  0
 14 15  1  0  0  0  0
 16 17  1  0  0  0  0
 17 18  1  0  0  0  0
 18 19  1  0  0  0  0
 19 20  1  0  0  0  0
 20 21  1  0  0  0  0
 20 25  1  0  0  0  0
 21 22  4  0  0  0  0
 21 30  4  0  0  0  0
 22 23  1  0  0  0  0
 22 27  4  0  0  0  0
 23 24  2  0  0  0  0
 24 25  1  0  0  0  0
 25 26  2  0  0  0  0
 27 28  4  0  0  0  0
 28 29  4  0  0  0  0
 29 30  4  0  0  0  0
 32 33  1  0  0  0  0
 32 34  1  0  0  0  0
 32 35  1  0  0  0  0
M  END
>  <Name_Molregno>
338413

>  <DOPAMINE D2>
6.82

>  <DOPAMINE D3>
7.95

$$$$
338423
  Marvin  02231216192D 0   1.00000     0.00000     0

 36 39  0  0  0  0  0  0  0  0999 V2000
   -1.4773   -2.6290    0.0000 F   0  0  0  0  0  0  0  0  0
   -2.1918   -2.2165    0.0000 C   0  0  0  0  0  0  0  0  0
   -1.7793   -1.5020    0.0000 F   0  0  0  0  0  0  0  0  0
   -2.6043   -2.9310    0.0000 F   0  0  0  0  0  0  0  0  0
   -2.9062   -1.8040    0.0000 C   0  0  0  0  0  0  0  0  0
   -3.6207   -2.2165    0.0000 N   0  0  0  0  0  0  0  0  0
   -4.3352   -1.8040    0.0000 C   0  0  0  0  0  0  0  0  0
   -4.3352   -0.9790    0.0000 N   0  0  0  0  0  0  0  0  0
   -3.6207   -0.5665    0.0000 C   0  0  0  0  0  0  0  0  0
   -3.6207    0.2585    0.0000 N   0  0  0  0  0  0  0  0  0
   -4.3352    0.6710    0.0000 C   0  0  0  0  0  0  0  0  0
   -4.3352    1.4960    0.0000 C   0  0  0  0  0  0  0  0  0
   -3.6207    1.9085    0.0000 N   0  0  0  0  0  0  0  0  0
   -2.9062    1.4960    0.0000 C   0  0  0  0  0  0  0  0  0
   -2.9062    0.6710    0.0000 C   0  0  0  0  0  0  0  0  0
   -3.6207    2.7335    0.0000 C   0  0  0  0  0  0  0  0  0
   -2.9062    3.1460    0.0000 C   0  0  0  0  0  0  0  0  0
   -2.9062    3.9710    0.0000 C   0  0  0  0  0  0  0  0  0
   -2.1918    4.3835    0.0000 C   0  0  0  0  0  0  0  0  0
   -2.1918    5.2085    0.0000 N   0  0  0  0  0  0  0  0  0
   -1.4773    5.6210    0.0000 C   0  0  0  0  0  0  0  0  0
   -1.4773    6.4460    0.0000 C   0  0  0  0  0  0  0  0  0
   -0.7628    6.8585    0.0000 C   0  0  0  0  0  0  0  0  0
   -0.0484    6.4460    0.0000 C   0  0  0  0  0  0  0  0  0
   -0.0484    5.6210    0.0000 C   0  0  0  0  0  0  0  0  0
   -0.7628    5.2085    0.0000 C   0  0  0  0  0  0  0  0  0
   -2.1918    6.8585    0.0000 C   0  0  0  0  0  0  0  0  0
   -2.1918    7.6835    0.0000 O   0  0  0  0  0  0  0  0  0
   -2.9062    6.4460    0.0000 C   0  0  0  0  0  0  0  0  0
   -2.9062    5.6210    0.0000 C   0  0  0  0  0  0  0  0  0
   -3.6207    5.2085    0.0000 O   0  0  0  0  0  0  0  0  0
   -2.9062   -0.9790    0.0000 C   0  0  0  0  0  0  0  0  0
   -5.0496   -2.2165    0.0000 C   0  0  0  0  0  0  0  0  0
   -5.7641   -2.6290    0.0000 C   0  0  0  0  0  0  0  0  0
   -5.4621   -1.5020    0.0000 C   0  0  0  0  0  0  0  0  0
   -4.6371   -2.9310    0.0000 C   0  0  0  0  0  0  0  0  0
  1  2  1  0  0  0  0
  2  3  1  0  0  0  0
  2  4  1  0  0  0  0
  2  5  1  0  0  0  0
  5  6  4  0  0  0  0
  5 32  4  0  0  0  0
  6  7  4  0  0  0  0
  7  8  4  0  0  0  0
  7 33  1  0  0  0  0
  8  9  4  0  0  0  0
  9 10  1  0  0  0  0
  9 32  4  0  0  0  0
 10 11  1  0  0  0  0
 10 15  1  0  0  0  0
 11 12  1  0  0  0  0
 12 13  1  0  0  0  0
 13 14  1  0  0  0  0
 13 16  1  0  0  0  0
 14 15  1  0  0  0  0
 16 17  1  0  0  0  0
 17 18  1  0  0  0  0
 18 19  1  0  0  0  0
 19 20  1  0  0  0  0
 20 21  1  0  0  0  0
 20 30  1  0  0  0  0
 21 22  4  0  0  0  0
 21 26  4  0  0  0  0
 22 23  4  0  0  0  0
 22 27  1  0  0  0  0
 23 24  4  0  0  0  0
 24 25  4  0  0  0  0
 25 26  4  0  0  0  0
 27 28  2  0  0  0  0
 27 29  1  0  0  0  0
 29 30  1  0  0  0  0
 30 31  2  0  0  0  0
 33 34  1  0  0  0  0
 33 35  1  0  0  0  0
 33 36  1  0  0  0  0
M  END
>  <Name_Molregno>
338423

>  <DOPAMINE D2>
6.85

>  <DOPAMINE D3>
7.4

$$$$
338430
  Marvin  02231216192D 0   1.00000     0.00000     0

 36 39  0  0  0  0  0  0  0  0999 V2000
   -1.0239   -6.8248    0.0000 F   0  0  0  0  0  0  0  0  0
   -1.6286   -6.2636    0.0000 C   0  0  0  0  0  0  0  0  0
   -1.0675   -5.6589    0.0000 F   0  0  0  0  0  0  0  0  0
   -2.1898   -6.8684    0.0000 F   0  0  0  0  0  0  0  0  0
   -2.2334   -5.7025    0.0000 C   0  0  0  0  0  0  0  0  0
   -3.0217   -5.9457    0.0000 N   0  0  0  0  0  0  0  0  0
   -3.6265   -5.3845    0.0000 C   0  0  0  0  0  0  0  0  0
   -3.4429   -4.5802    0.0000 N   0  0  0  0  0  0  0  0  0
   -2.6546   -4.3370    0.0000 C   0  0  0  0  0  0  0  0  0
   -2.4710   -3.5327    0.0000 N   0  0  0  0  0  0  0  0  0
   -3.0758   -2.9716    0.0000 C   0  0  0  0  0  0  0  0  0
   -2.8922   -2.1673    0.0000 C   0  0  0  0  0  0  0  0  0
   -2.1039   -1.9241    0.0000 N   0  0  0  0  0  0  0  0  0
   -1.4991   -2.4852    0.0000 C   0  0  0  0  0  0  0  0  0
   -1.6827   -3.2895    0.0000 C   0  0  0  0  0  0  0  0  0
   -1.9203   -1.1198    0.0000 C   0  0  0  0  0  0  0  0  0
   -2.5250   -0.5586    0.0000 C   0  0  0  0  0  0  0  0  0
   -2.3415    0.2457    0.0000 C   0  0  0  0  0  0  0  0  0
   -2.9462    0.8068    0.0000 C   0  0  0  0  0  0  0  0  0
   -2.7626    1.6111    0.0000 N   0  0  0  0  0  0  0  0  0
   -3.4077    2.1255    0.0000 C   0  0  0  0  0  0  0  0  0
   -3.4077    2.9505    0.0000 C   0  0  0  0  0  0  0  0  0
   -2.7626    3.4649    0.0000 C   0  0  0  0  0  0  0  0  0
   -1.9583    3.2813    0.0000 C   0  0  0  0  0  0  0  0  0
   -1.6004    2.5380    0.0000 C   0  0  0  0  0  0  0  0  0
   -1.9583    1.7947    0.0000 C   0  0  0  0  0  0  0  0  0
   -1.4440    1.1497    0.0000 O   0  0  0  0  0  0  0  0  0
   -4.1221    3.3630    0.0000 C   0  0  0  0  0  0  0  0  0
   -4.8366    2.9505    0.0000 C   0  0  0  0  0  0  0  0  0
   -4.8366    2.1255    0.0000 C   0  0  0  0  0  0  0  0  0
   -4.1221    1.7130    0.0000 C   0  0  0  0  0  0  0  0  0
   -2.0498   -4.8982    0.0000 C   0  0  0  0  0  0  0  0  0
   -4.4149   -5.6277    0.0000 C   0  0  0  0  0  0  0  0  0
   -5.2032   -5.8709    0.0000 C   0  0  0  0  0  0  0  0  0
   -4.6580   -4.8393    0.0000 C   0  0  0  0  0  0  0  0  0
   -4.1717   -6.4160    0.0000 C   0  0  0  0  0  0  0  0  0
  1  2  1  0  0  0  0
  2  3  1  0  0  0  0
  2  4  1  0  0  0  0
  2  5  1  0  0  0  0
  5  6  4  0  0  0  0
  5 32  4  0  0  0  0
  6  7  4  0  0  0  0
  7  8  4  0  0  0  0
  7 33  1  0  0  0  0
  8  9  4  0  0  0  0
  9 10  1  0  0  0  0
  9 32  4  0  0  0  0
 10 11  1  0  0  0  0
 10 15  1  0  0  0  0
 11 12  1  0  0  0  0
 12 13  1  0  0  0  0
 13 14  1  0  0  0  0
 13 16  1  0  0  0  0
 14 15  1  0  0  0  0
 16 17  1  0  0  0  0
 17 18  1  0  0  0  0
 18 19  1  0  0  0  0
 19 20  1  0  0  0  0
 20 21  1  0  0  0  0
 20 26  1  0  0  0  0
 21 22  4  0  0  0  0
 21 31  4  0  0  0  0
 22 23  1  0  0  0  0
 22 28  4  0  0  0  0
 23 24  1  0  0  0  0
 24 25  1  0  0  0  0
 25 26  1  0  0  0  0
 26 27  2  0  0  0  0
 28 29  4  0  0  0  0
 29 30  4  0  0  0  0
 30 31  4  0  0  0  0
 33 34  1  0  0  0  0
 33 35  1  0  0  0  0
 33 36  1  0  0  0  0
M  END
>  <Name_Molregno>
338430

>  <DOPAMINE D2>
6.93

>  <DOPAMINE D3>
7.77

$$$$
338431
  Marvin  02231216192D 0   1.00000     0.00000     0

 36 39  0  0  0  0  0  0  0  0999 V2000
    5.2731    5.6084    0.0000 S   0  0  0  0  0  0  0  0  0
    6.0774    5.4249    0.0000 C   0  0  0  0  0  0  0  0  0
    6.4354    4.6816    0.0000 C   0  0  0  0  0  0  0  0  0
    6.0774    3.9383    0.0000 C   0  0  0  0  0  0  0  0  0
    6.5918    3.2932    0.0000 O   0  0  0  0  0  0  0  0  0
    5.2731    3.7547    0.0000 N   0  0  0  0  0  0  0  0  0
    4.6281    4.2691    0.0000 C   0  0  0  0  0  0  0  0  0
    4.6281    5.0941    0.0000 C   0  0  0  0  0  0  0  0  0
    3.9136    5.5066    0.0000 C   0  0  0  0  0  0  0  0  0
    3.1992    5.0941    0.0000 C   0  0  0  0  0  0  0  0  0
    3.1992    4.2691    0.0000 C   0  0  0  0  0  0  0  0  0
    3.9136    3.8566    0.0000 C   0  0  0  0  0  0  0  0  0
    5.0895    2.9504    0.0000 C   0  0  0  0  0  0  0  0  0
    5.6943    2.3892    0.0000 C   0  0  0  0  0  0  0  0  0
    5.5107    1.5849    0.0000 C   0  0  0  0  0  0  0  0  0
    6.1155    1.0238    0.0000 C   0  0  0  0  0  0  0  0  0
    5.9319    0.2194    0.0000 N   0  0  0  0  0  0  0  0  0
    6.5367   -0.3417    0.0000 C   0  0  0  0  0  0  0  0  0
    6.3531   -1.1460    0.0000 C   0  0  0  0  0  0  0  0  0
    5.5648   -1.3892    0.0000 N   0  0  0  0  0  0  0  0  0
    4.9600   -0.8280    0.0000 C   0  0  0  0  0  0  0  0  0
    5.1436   -0.0237    0.0000 C   0  0  0  0  0  0  0  0  0
    5.3812   -2.1935    0.0000 C   0  0  0  0  0  0  0  0  0
    5.9860   -2.7546    0.0000 N   0  0  0  0  0  0  0  0  0
    5.8024   -3.5590    0.0000 C   0  0  0  0  0  0  0  0  0
    5.0140   -3.8021    0.0000 N   0  0  0  0  0  0  0  0  0
    4.4093   -3.2410    0.0000 C   0  0  0  0  0  0  0  0  0
    4.5928   -2.4367    0.0000 C   0  0  0  0  0  0  0  0  0
    3.6209   -3.4842    0.0000 C   0  0  0  0  0  0  0  0  0
    2.8326   -3.7273    0.0000 F   0  0  0  0  0  0  0  0  0
    3.3777   -2.6958    0.0000 F   0  0  0  0  0  0  0  0  0
    3.8641   -4.2725    0.0000 F   0  0  0  0  0  0  0  0  0
    6.4071   -4.1201    0.0000 C   0  0  0  0  0  0  0  0  0
    7.0119   -4.6812    0.0000 C   0  0  0  0  0  0  0  0  0
    5.8460   -4.7249    0.0000 C   0  0  0  0  0  0  0  0  0
    6.9683   -3.5153    0.0000 C   0  0  0  0  0  0  0  0  0
  1  2  1  0  0  0  0
  1  8  1  0  0  0  0
  2  3  1  0  0  0  0
  3  4  1  0  0  0  0
  4  5  2  0  0  0  0
  4  6  1  0  0  0  0
  6  7  1  0  0  0  0
  6 13  1  0  0  0  0
  7  8  4  0  0  0  0
  7 12  4  0  0  0  0
  8  9  4  0  0  0  0
  9 10  4  0  0  0  0
 10 11  4  0  0  0  0
 11 12  4  0  0  0  0
 13 14  1  0  0  0  0
 14 15  1  0  0  0  0
 15 16  1  0  0  0  0
 16 17  1  0  0  0  0
 17 18  1  0  0  0  0
 17 22  1  0  0  0  0
 18 19  1  0  0  0  0
 19 20  1  0  0  0  0
 20 21  1  0  0  0  0
 20 23  1  0  0  0  0
 21 22  1  0  0  0  0
 23 24  4  0  0  0  0
 23 28  4  0  0  0  0
 24 25  4  0  0  0  0
 25 26  4  0  0  0  0
 25 33  1  0  0  0  0
 26 27  4  0  0  0  0
 27 28  4  0  0  0  0
 27 29  1  0  0  0  0
 29 30  1  0  0  0  0
 29 31  1  0  0  0  0
 29 32  1  0  0  0  0
 33 34  1  0  0  0  0
 33 35  1  0  0  0  0
 33 36  1  0  0  0  0
M  END
>  <Name_Molregno>
338431

>  <DOPAMINE D2>
7.08

>  <DOPAMINE D3>
8.02

$$$$
338453
  Marvin  02231216192D 0   1.00000     0.00000     0

 35 38  0  0  0  0  0  0  0  0999 V2000
   -7.5034   -5.2277    0.0000 F   0  0  0  0  0  0  0  0  0
   -7.5034   -4.4027    0.0000 C   0  0  0  0  0  0  0  0  0
   -6.6784   -4.4027    0.0000 F   0  0  0  0  0  0  0  0  0
   -8.3284   -4.4027    0.0000 F   0  0  0  0  0  0  0  0  0
   -7.5034   -3.5777    0.0000 C   0  0  0  0  0  0  0  0  0
   -8.2179   -3.1652    0.0000 N   0  0  0  0  0  0  0  0  0
   -8.2179   -2.3402    0.0000 C   0  0  0  0  0  0  0  0  0
   -7.5034   -1.9277    0.0000 N   0  0  0  0  0  0  0  0  0
   -6.7889   -2.3402    0.0000 C   0  0  0  0  0  0  0  0  0
   -6.0745   -1.9277    0.0000 N   0  0  0  0  0  0  0  0  0
   -6.0745   -1.1027    0.0000 C   0  0  0  0  0  0  0  0  0
   -5.3600   -0.6902    0.0000 C   0  0  0  0  0  0  0  0  0
   -4.6455   -1.1027    0.0000 N   0  0  0  0  0  0  0  0  0
   -4.6455   -1.9277    0.0000 C   0  0  0  0  0  0  0  0  0
   -5.3600   -2.3402    0.0000 C   0  0  0  0  0  0  0  0  0
   -3.9310   -0.6902    0.0000 C   0  0  0  0  0  0  0  0  0
   -3.2166   -1.1027    0.0000 C   0  0  0  0  0  0  0  0  0
   -2.5021   -0.6902    0.0000 C   0  0  0  0  0  0  0  0  0
   -1.7876   -1.1027    0.0000 C   0  0  0  0  0  0  0  0  0
   -1.0732   -0.6902    0.0000 N   0  0  0  0  0  0  0  0  0
   -0.3587   -1.1027    0.0000 C   0  0  0  0  0  0  0  0  0
    0.3558   -0.6902    0.0000 C   0  0  0  0  0  0  0  0  0
    0.3558    0.1348    0.0000 C   0  0  0  0  0  0  0  0  0
   -0.3587    0.5473    0.0000 C   0  0  0  0  0  0  0  0  0
   -1.0732    0.1348    0.0000 C   0  0  0  0  0  0  0  0  0
   -1.7876    0.5473    0.0000 O   0  0  0  0  0  0  0  0  0
    1.0703    0.5473    0.0000 C   0  0  0  0  0  0  0  0  0
    1.7847    0.1348    0.0000 C   0  0  0  0  0  0  0  0  0
    1.7847   -0.6902    0.0000 C   0  0  0  0  0  0  0  0  0
    1.0703   -1.1027    0.0000 C   0  0  0  0  0  0  0  0  0
   -6.7889   -3.1652    0.0000 C   0  0  0  0  0  0  0  0  0
   -8.9323   -1.9277    0.0000 C   0  0  0  0  0  0  0  0  0
   -9.6468   -1.5152    0.0000 C   0  0  0  0  0  0  0  0  0
   -8.5198   -1.2132    0.0000 C   0  0  0  0  0  0  0  0  0
   -9.3448   -2.6422    0.0000 C   0  0  0  0  0  0  0  0  0
  1  2  1  0  0  0  0
  2  3  1  0  0  0  0
  2  4  1  0  0  0  0
  2  5  1  0  0  0  0
  5  6  4  0  0  0  0
  5 31  4  0  0  0  0
  6  7  4  0  0  0  0
  7  8  4  0  0  0  0
  7 32  1  0  0  0  0
  8  9  4  0  0  0  0
  9 10  1  0  0  0  0
  9 31  4  0  0  0  0
 10 11  1  0  0  0  0
 10 15  1  0  0  0  0
 11 12  1  0  0  0  0
 12 13  1  0  0  0  0
 13 14  1  0  0  0  0
 13 16  1  0  0  0  0
 14 15  1  0  0  0  0
 16 17  1  0  0  0  0
 17 18  1  0  0  0  0
 18 19  1  0  0  0  0
 19 20  1  0  0  0  0
 20 21  1  0  0  0  0
 20 25  1  0  0  0  0
 21 22  1  0  0  0  0
 22 23  4  0  0  0  0
 22 30  4  0  0  0  0
 23 24  1  0  0  0  0
 23 27  4  0  0  0  0
 24 25  1  0  0  0  0
 25 26  2  0  0  0  0
 27 28  4  0  0  0  0
 28 29  4  0  0  0  0
 29 30  4  0  0  0  0
 32 33  1  0  0  0  0
 32 34  1  0  0  0  0
 32 35  1  0  0  0  0
M  END
>  <Name_Molregno>
338453

>  <DOPAMINE D3>
6.53

$$$$
340961
  Marvin  02231216192D 0   1.00000     0.00000     0

 21 23  0  0  0  0  0  0  0  0999 V2000
    0.3310   -1.6397    0.0000 Cl  0  0  0  0  0  0  0  0  0
    1.0454   -1.2272    0.0000 C   0  0  0  0  0  0  0  0  0
    1.0454   -0.4022    0.0000 C   0  0  0  0  0  0  0  0  0
    1.7599    0.0103    0.0000 C   0  0  0  0  0  0  0  0  0
    1.7599    0.8353    0.0000 C   0  0  0  0  0  0  0  0  0
    2.4744    1.2478    0.0000 C   0  0  0  0  0  0  0  0  0
    3.1889    0.8353    0.0000 N   0  0  0  0  0  0  0  0  0
    3.9033    1.2478    0.0000 C   0  0  0  0  0  0  0  0  0
    4.6178    0.8353    0.0000 C   0  0  0  0  0  0  0  0  0
    4.6178    0.0103    0.0000 C   0  0  0  0  0  0  0  0  0
    3.9033   -0.4022    0.0000 C   0  0  0  0  0  0  0  0  0
    3.1889    0.0103    0.0000 C   0  0  0  0  0  0  0  0  0
    2.4744   -0.4022    0.0000 C   0  0  0  0  0  0  0  0  0
    2.4744   -1.2272    0.0000 C   0  0  0  0  0  0  0  0  0
    1.7599   -1.6397    0.0000 C   0  0  0  0  0  0  0  0  0
    1.7599   -2.4647    0.0000 O   0  0  0  0  0  0  0  0  0
    3.9033   -1.2272    0.0000 C   0  0  0  0  0  0  0  0  0
    4.6178   -1.6397    0.0000 C   0  0  0  0  0  0  0  0  0
    5.3323   -1.2272    0.0000 C   0  0  0  0  0  0  0  0  0
    5.3323   -0.4022    0.0000 C   0  0  0  0  0  0  0  0  0
    2.7039    0.1678    0.0000 C   0  0  0  0  0  0  0  0  0
  1  2  1  0  0  0  0
  2  3  4  0  0  0  0
  2 15  4  0  0  0  0
  3  4  4  0  0  0  0
  4  5  1  0  0  0  0
  4 13  4  0  0  0  0
  5  6  1  0  0  0  0
  6  7  1  0  0  0  0
  7  8  1  0  0  0  0
  7 21  1  0  0  0  0
  8  9  1  0  0  0  0
  9 10  1  0  0  0  0
 10 11  4  0  0  0  0
 10 20  4  0  0  0  0
 11 12  1  0  0  0  0
 11 17  4  0  0  0  0
 12 13  1  0  0  0  0
 13 14  4  0  0  0  0
 14 15  4  0  0  0  0
 15 16  1  0  0  0  0
 17 18  4  0  0  0  0
 18 19  4  0  0  0  0
 19 20  4  0  0  0  0
M  END
>  <Name_Molregno>
340961

>  <DOPAMINE D1>
8.24

>  <DOPAMINE D2>
8.51

>  <DOPAMINE D3>
7.56

>  <DOPAMINE D5>
8.41

$$$$
341251
  Marvin  02231216192D 0   1.00000     0.00000     0

 20 22  0  0  0  0  0  0  0  0999 V2000
    1.6040    0.1461    0.0000 O   0  0  0  0  0  0  0  0  0
    0.8896   -0.2664    0.0000 C   0  0  0  0  0  0  0  0  0
    0.8896   -1.0914    0.0000 C   0  0  0  0  0  0  0  0  0
    1.6040   -1.5039    0.0000 C   0  0  0  0  0  0  0  0  0
    2.3185   -1.0914    0.0000 C   0  0  0  0  0  0  0  0  0
    3.0330   -1.5039    0.0000 C   0  0  0  0  0  0  0  0  0
    3.0330   -2.3289    0.0000 C   0  0  0  0  0  0  0  0  0
    2.3185   -2.7414    0.0000 C   0  0  0  0  0  0  0  0  0
    1.6040   -2.3289    0.0000 N   0  0  0  0  0  0  0  0  0
    0.8896   -2.7414    0.0000 C   0  0  0  0  0  0  0  0  0
    0.1751   -2.3289    0.0000 C   0  0  0  0  0  0  0  0  0
    0.1751   -1.5039    0.0000 C   0  0  0  0  0  0  0  0  0
   -0.5394   -1.0914    0.0000 C   0  0  0  0  0  0  0  0  0
   -0.5394   -0.2664    0.0000 C   0  0  0  0  0  0  0  0  0
    0.1751    0.1461    0.0000 C   0  0  0  0  0  0  0  0  0
    1.1191   -1.6615    0.0000 C   0  0  0  0  0  0  0  0  0
    3.7475   -1.0914    0.0000 C   0  0  0  0  0  0  0  0  0
    3.7475   -0.2664    0.0000 C   0  0  0  0  0  0  0  0  0
    3.0330    0.1461    0.0000 C   0  0  0  0  0  0  0  0  0
    2.3185   -0.2664    0.0000 C   0  0  0  0  0  0  0  0  0
  1  2  1  0  0  0  0
  2  3  4  0  0  0  0
  2 15  4  0  0  0  0
  3  4  1  0  0  0  0
  3 12  4  0  0  0  0
  4  5  1  0  0  0  0
  5  6  4  0  0  0  0
  5 20  4  0  0  0  0
  6  7  1  0  0  0  0
  6 17  4  0  0  0  0
  7  8  1  0  0  0  0
  8  9  1  0  0  0  0
  9 10  1  0  0  0  0
  9 16  1  0  0  0  0
 10 11  1  0  0  0  0
 11 12  1  0  0  0  0
 12 13  4  0  0  0  0
 13 14  4  0  0  0  0
 14 15  4  0  0  0  0
 17 18  4  0  0  0  0
 18 19  4  0  0  0  0
 19 20  4  0  0  0  0
M  END
>  <Name_Molregno>
341251

>  <DOPAMINE D1>
7.63

>  <DOPAMINE D2>
7.59

>  <DOPAMINE D3>
6.67

>  <DOPAMINE D5>
7.98

$$$$
341293
  Marvin  02231216192D 0   1.00000     0.00000     0

 21 23  0  0  0  0  0  0  0  0999 V2000
   -1.4484    0.1191    0.0000 O   0  0  0  0  0  0  0  0  0
   -1.4484    0.9441    0.0000 C   0  0  0  0  0  0  0  0  0
   -2.1629   -0.2934    0.0000 C   0  0  0  0  0  0  0  0  0
   -2.1629   -1.1184    0.0000 C   0  0  0  0  0  0  0  0  0
   -1.4484   -1.5309    0.0000 C   0  0  0  0  0  0  0  0  0
   -0.7339   -1.1184    0.0000 C   0  0  0  0  0  0  0  0  0
   -0.0195   -1.5309    0.0000 C   0  0  0  0  0  0  0  0  0
   -0.0195   -2.3559    0.0000 C   0  0  0  0  0  0  0  0  0
   -0.7339   -2.7684    0.0000 C   0  0  0  0  0  0  0  0  0
   -1.4484   -2.3559    0.0000 N   0  0  0  0  0  0  0  0  0
   -2.1629   -2.7684    0.0000 C   0  0  0  0  0  0  0  0  0
   -2.8774   -2.3559    0.0000 C   0  0  0  0  0  0  0  0  0
   -2.8774   -1.5309    0.0000 C   0  0  0  0  0  0  0  0  0
   -3.5918   -1.1184    0.0000 C   0  0  0  0  0  0  0  0  0
   -3.5918   -0.2934    0.0000 C   0  0  0  0  0  0  0  0  0
   -2.8774    0.1191    0.0000 C   0  0  0  0  0  0  0  0  0
   -1.9333   -1.6885    0.0000 C   0  0  0  0  0  0  0  0  0
    0.6950   -1.1184    0.0000 C   0  0  0  0  0  0  0  0  0
    0.6950   -0.2934    0.0000 C   0  0  0  0  0  0  0  0  0
   -0.0195    0.1191    0.0000 C   0  0  0  0  0  0  0  0  0
   -0.7339   -0.2934    0.0000 C   0  0  0  0  0  0  0  0  0
  1  2  1  0  0  0  0
  1  3  1  0  0  0  0
  3  4  4  0  0  0  0
  3 16  4  0  0  0  0
  4  5  1  0  0  0  0
  4 13  4  0  0  0  0
  5  6  1  0  0  0  0
  6  7  4  0  0  0  0
  6 21  4  0  0  0  0
  7  8  1  0  0  0  0
  7 18  4  0  0  0  0
  8  9  1  0  0  0  0
  9 10  1  0  0  0  0
 10 11  1  0  0  0  0
 10 17  1  0  0  0  0
 11 12  1  0  0  0  0
 12 13  1  0  0  0  0
 13 14  4  0  0  0  0
 14 15  4  0  0  0  0
 15 16  4  0  0  0  0
 18 19  4  0  0  0  0
 19 20  4  0  0  0  0
 20 21  4  0  0  0  0
M  END
>  <Name_Molregno>
341293

>  <DOPAMINE D1>
7.77

>  <DOPAMINE D2>
7.1

>  <DOPAMINE D3>
5.74

>  <DOPAMINE D5>
7.26

$$$$
341318
  Marvin  02231216192D 0   1.00000     0.00000     0

 21 23  0  0  0  0  0  0  0  0999 V2000
    0.3270   -0.4954    0.0000 O   0  0  0  0  0  0  0  0  0
    1.0414   -0.0829    0.0000 C   0  0  0  0  0  0  0  0  0
    1.0414    0.7421    0.0000 C   0  0  0  0  0  0  0  0  0
    1.7559    1.1546    0.0000 C   0  0  0  0  0  0  0  0  0
    1.7559    1.9796    0.0000 C   0  0  0  0  0  0  0  0  0
    2.4704    2.3921    0.0000 C   0  0  0  0  0  0  0  0  0
    3.1849    1.9796    0.0000 N   0  0  0  0  0  0  0  0  0
    3.8993    2.3921    0.0000 C   0  0  0  0  0  0  0  0  0
    4.6138    1.9796    0.0000 C   0  0  0  0  0  0  0  0  0
    4.6138    1.1546    0.0000 C   0  0  0  0  0  0  0  0  0
    5.3283    0.7421    0.0000 C   0  0  0  0  0  0  0  0  0
    5.3283   -0.0829    0.0000 C   0  0  0  0  0  0  0  0  0
    6.0427   -0.4954    0.0000 O   0  0  0  0  0  0  0  0  0
    4.6138   -0.4954    0.0000 C   0  0  0  0  0  0  0  0  0
    3.8993   -0.0829    0.0000 C   0  0  0  0  0  0  0  0  0
    3.8993    0.7421    0.0000 C   0  0  0  0  0  0  0  0  0
    3.1849    1.1546    0.0000 C   0  0  0  0  0  0  0  0  0
    2.4704    0.7421    0.0000 C   0  0  0  0  0  0  0  0  0
    2.4704   -0.0829    0.0000 C   0  0  0  0  0  0  0  0  0
    1.7559   -0.4954    0.0000 C   0  0  0  0  0  0  0  0  0
    2.6999    1.3121    0.0000 C   0  0  0  0  0  0  0  0  0
  1  2  1  0  0  0  0
  2  3  4  0  0  0  0
  2 20  4  0  0  0  0
  3  4  4  0  0  0  0
  4  5  1  0  0  0  0
  4 18  4  0  0  0  0
  5  6  1  0  0  0  0
  6  7  1  0  0  0  0
  7  8  1  0  0  0  0
  7 21  1  0  0  0  0
  8  9  1  0  0  0  0
  9 10  1  0  0  0  0
 10 11  4  0  0  0  0
 10 16  4  0  0  0  0
 11 12  4  0  0  0  0
 12 13  1  0  0  0  0
 12 14  4  0  0  0  0
 14 15  4  0  0  0  0
 15 16  4  0  0  0  0
 16 17  1  0  0  0  0
 17 18  1  0  0  0  0
 18 19  4  0  0  0  0
 19 20  4  0  0  0  0
M  END
>  <Name_Molregno>
341318

>  <DOPAMINE D1>
8.59

>  <DOPAMINE D2>
7.47

>  <DOPAMINE D3>
6.47

>  <DOPAMINE D5>
9.02

$$$$
341319
  Marvin  02231216192D 0   1.00000     0.00000     0

 23 25  0  0  0  0  0  0  0  0999 V2000
   -6.0296   -0.4982    0.0000 O   0  0  0  0  0  0  0  0  0
   -6.0296   -1.3232    0.0000 C   0  0  0  0  0  0  0  0  0
   -5.3152   -0.0857    0.0000 C   0  0  0  0  0  0  0  0  0
   -5.3152    0.7393    0.0000 C   0  0  0  0  0  0  0  0  0
   -4.6007    1.1518    0.0000 C   0  0  0  0  0  0  0  0  0
   -4.6007    1.9768    0.0000 C   0  0  0  0  0  0  0  0  0
   -3.8862    2.3893    0.0000 C   0  0  0  0  0  0  0  0  0
   -3.1717    1.9768    0.0000 N   0  0  0  0  0  0  0  0  0
   -2.4573    2.3893    0.0000 C   0  0  0  0  0  0  0  0  0
   -1.7428    1.9768    0.0000 C   0  0  0  0  0  0  0  0  0
   -1.7428    1.1518    0.0000 C   0  0  0  0  0  0  0  0  0
   -1.0283    0.7393    0.0000 C   0  0  0  0  0  0  0  0  0
   -1.0283   -0.0857    0.0000 C   0  0  0  0  0  0  0  0  0
   -0.3139   -0.4982    0.0000 O   0  0  0  0  0  0  0  0  0
    0.4006   -0.0857    0.0000 C   0  0  0  0  0  0  0  0  0
   -1.7428   -0.4982    0.0000 C   0  0  0  0  0  0  0  0  0
   -2.4573   -0.0857    0.0000 C   0  0  0  0  0  0  0  0  0
   -2.4573    0.7393    0.0000 C   0  0  0  0  0  0  0  0  0
   -3.1717    1.1518    0.0000 C   0  0  0  0  0  0  0  0  0
   -3.8862    0.7393    0.0000 C   0  0  0  0  0  0  0  0  0
   -3.8862   -0.0857    0.0000 C   0  0  0  0  0  0  0  0  0
   -4.6007   -0.4982    0.0000 C   0  0  0  0  0  0  0  0  0
   -3.6567    1.3093    0.0000 C   0  0  0  0  0  0  0  0  0
  1  2  1  0  0  0  0
  1  3  1  0  0  0  0
  3  4  4  0  0  0  0
  3 22  4  0  0  0  0
  4  5  4  0  0  0  0
  5  6  1  0  0  0  0
  5 20  4  0  0  0  0
  6  7  1  0  0  0  0
  7  8  1  0  0  0  0
  8  9  1  0  0  0  0
  8 23  1  0  0  0  0
  9 10  1  0  0  0  0
 10 11  1  0  0  0  0
 11 12  4  0  0  0  0
 11 18  4  0  0  0  0
 12 13  4  0  0  0  0
 13 14  1  0  0  0  0
 13 16  4  0  0  0  0
 14 15  1  0  0  0  0
 16 17  4  0  0  0  0
 17 18  4  0  0  0  0
 18 19  1  0  0  0  0
 19 20  1  0  0  0  0
 20 21  4  0  0  0  0
 21 22  4  0  0  0  0
M  END
>  <Name_Molregno>
341319

>  <DOPAMINE D1>
7.8

>  <DOPAMINE D2>
8.7

>  <DOPAMINE D3>
6.99

>  <DOPAMINE D5>
7.92

$$$$
341495
  Marvin  02231216192D 0   1.00000     0.00000     0

 21 23  0  0  0  0  0  0  0  0999 V2000
   -5.4665   -0.7767    0.0000 O   0  0  0  0  0  0  0  0  0
   -5.4665   -1.6017    0.0000 C   0  0  0  0  0  0  0  0  0
   -4.7520   -0.3642    0.0000 C   0  0  0  0  0  0  0  0  0
   -4.7520    0.4608    0.0000 C   0  0  0  0  0  0  0  0  0
   -4.0375    0.8733    0.0000 C   0  0  0  0  0  0  0  0  0
   -4.0375    1.6983    0.0000 C   0  0  0  0  0  0  0  0  0
   -3.3231    2.1108    0.0000 C   0  0  0  0  0  0  0  0  0
   -2.6086    1.6983    0.0000 N   0  0  0  0  0  0  0  0  0
   -1.8941    2.1108    0.0000 C   0  0  0  0  0  0  0  0  0
   -1.1796    1.6983    0.0000 C   0  0  0  0  0  0  0  0  0
   -1.1796    0.8733    0.0000 C   0  0  0  0  0  0  0  0  0
   -1.8941    0.4608    0.0000 C   0  0  0  0  0  0  0  0  0
   -2.6086    0.8733    0.0000 C   0  0  0  0  0  0  0  0  0
   -3.3231    0.4608    0.0000 C   0  0  0  0  0  0  0  0  0
   -3.3231   -0.3642    0.0000 C   0  0  0  0  0  0  0  0  0
   -4.0375   -0.7767    0.0000 C   0  0  0  0  0  0  0  0  0
   -1.8941   -0.3642    0.0000 C   0  0  0  0  0  0  0  0  0
   -1.1796   -0.7767    0.0000 C   0  0  0  0  0  0  0  0  0
   -0.4652   -0.3642    0.0000 C   0  0  0  0  0  0  0  0  0
   -0.4652    0.4608    0.0000 C   0  0  0  0  0  0  0  0  0
   -3.0935    1.0309    0.0000 C   0  0  0  0  0  0  0  0  0
  1  2  1  0  0  0  0
  1  3  1  0  0  0  0
  3  4  4  0  0  0  0
  3 16  4  0  0  0  0
  4  5  4  0  0  0  0
  5  6  1  0  0  0  0
  5 14  4  0  0  0  0
  6  7  1  0  0  0  0
  7  8  1  0  0  0  0
  8  9  1  0  0  0  0
  8 21  1  0  0  0  0
  9 10  1  0  0  0  0
 10 11  1  0  0  0  0
 11 12  4  0  0  0  0
 11 20  4  0  0  0  0
 12 13  1  0  0  0  0
 12 17  4  0  0  0  0
 13 14  1  0  0  0  0
 14 15  4  0  0  0  0
 15 16  4  0  0  0  0
 17 18  4  0  0  0  0
 18 19  4  0  0  0  0
 19 20  4  0  0  0  0
M  END
>  <Name_Molregno>
341495

>  <DOPAMINE D1>
7.58

>  <DOPAMINE D2>
8.16

>  <DOPAMINE D3>
7.12

>  <DOPAMINE D4>
7.36

>  <DOPAMINE D5>
7.53

$$$$
341497
  Marvin  02231216192D 0   1.00000     0.00000     0

 21 23  0  0  0  0  0  0  0  0999 V2000
   -4.7162   -0.5690    0.0000 Cl  0  0  0  0  0  0  0  0  0
   -4.0017   -0.9815    0.0000 C   0  0  0  0  0  0  0  0  0
   -3.2872   -0.5690    0.0000 C   0  0  0  0  0  0  0  0  0
   -3.2872    0.2560    0.0000 C   0  0  0  0  0  0  0  0  0
   -2.5727    0.6685    0.0000 C   0  0  0  0  0  0  0  0  0
   -1.8583    0.2560    0.0000 N   0  0  0  0  0  0  0  0  0
   -1.1438    0.6685    0.0000 C   0  0  0  0  0  0  0  0  0
   -0.4293    0.2560    0.0000 C   0  0  0  0  0  0  0  0  0
   -0.4293   -0.5690    0.0000 C   0  0  0  0  0  0  0  0  0
   -1.1438   -0.9815    0.0000 C   0  0  0  0  0  0  0  0  0
   -1.8583   -0.5690    0.0000 C   0  0  0  0  0  0  0  0  0
   -2.5727   -0.9815    0.0000 C   0  0  0  0  0  0  0  0  0
   -2.5727   -1.8065    0.0000 C   0  0  0  0  0  0  0  0  0
   -3.2872   -2.2190    0.0000 C   0  0  0  0  0  0  0  0  0
   -4.0017   -1.8065    0.0000 C   0  0  0  0  0  0  0  0  0
   -4.7162   -2.2190    0.0000 O   0  0  0  0  0  0  0  0  0
   -1.1438   -1.8065    0.0000 C   0  0  0  0  0  0  0  0  0
   -0.4293   -2.2190    0.0000 C   0  0  0  0  0  0  0  0  0
    0.2851   -1.8065    0.0000 C   0  0  0  0  0  0  0  0  0
    0.2851   -0.9815    0.0000 C   0  0  0  0  0  0  0  0  0
   -2.3432   -0.4114    0.0000 C   0  0  0  0  0  0  0  0  0
  1  2  1  0  0  0  0
  2  3  4  0  0  0  0
  2 15  4  0  0  0  0
  3  4  1  0  0  0  0
  3 12  4  0  0  0  0
  4  5  1  0  0  0  0
  5  6  1  0  0  0  0
  6  7  1  0  0  0  0
  6 21  1  0  0  0  0
  7  8  1  0  0  0  0
  8  9  1  0  0  0  0
  9 10  4  0  0  0  0
  9 20  4  0  0  0  0
 10 11  1  0  0  0  0
 10 17  4  0  0  0  0
 11 12  1  0  0  0  0
 12 13  4  0  0  0  0
 13 14  4  0  0  0  0
 14 15  4  0  0  0  0
 15 16  1  0  0  0  0
 17 18  4  0  0  0  0
 18 19  4  0  0  0  0
 19 20  4  0  0  0  0
M  END
>  <Name_Molregno>
341497

>  <DOPAMINE D1>
9.17

>  <DOPAMINE D2>
8.35

>  <DOPAMINE D3>
7.61

>  <DOPAMINE D4>
7.73

>  <DOPAMINE D5>
10.26

$$$$
341800
  Marvin  02231216192D 0   1.00000     0.00000     0

 20 22  0  0  0  0  0  0  0  0999 V2000
    0.9629    0.2847    0.0000 O   0  0  0  0  0  0  0  0  0
    0.9629   -0.5403    0.0000 C   0  0  0  0  0  0  0  0  0
    1.6773   -0.9528    0.0000 C   0  0  0  0  0  0  0  0  0
    1.6773   -1.7778    0.0000 C   0  0  0  0  0  0  0  0  0
    2.3918   -2.1903    0.0000 C   0  0  0  0  0  0  0  0  0
    3.1063   -1.7778    0.0000 C   0  0  0  0  0  0  0  0  0
    3.8208   -2.1903    0.0000 C   0  0  0  0  0  0  0  0  0
    3.8208   -3.0153    0.0000 C   0  0  0  0  0  0  0  0  0
    3.1063   -3.4278    0.0000 C   0  0  0  0  0  0  0  0  0
    2.3918   -3.0153    0.0000 N   0  0  0  0  0  0  0  0  0
    1.6773   -3.4278    0.0000 C   0  0  0  0  0  0  0  0  0
    0.9629   -3.0153    0.0000 C   0  0  0  0  0  0  0  0  0
    0.9629   -2.1903    0.0000 C   0  0  0  0  0  0  0  0  0
    0.2484   -1.7778    0.0000 C   0  0  0  0  0  0  0  0  0
    0.2484   -0.9528    0.0000 C   0  0  0  0  0  0  0  0  0
    1.9069   -2.3479    0.0000 C   0  0  0  0  0  0  0  0  0
    4.5352   -1.7778    0.0000 C   0  0  0  0  0  0  0  0  0
    4.5352   -0.9528    0.0000 C   0  0  0  0  0  0  0  0  0
    3.8208   -0.5403    0.0000 C   0  0  0  0  0  0  0  0  0
    3.1063   -0.9528    0.0000 C   0  0  0  0  0  0  0  0  0
  1  2  1  0  0  0  0
  2  3  4  0  0  0  0
  2 15  4  0  0  0  0
  3  4  4  0  0  0  0
  4  5  1  0  0  0  0
  4 13  4  0  0  0  0
  5  6  1  0  0  0  0
  6  7  4  0  0  0  0
  6 20  4  0  0  0  0
  7  8  1  0  0  0  0
  7 17  4  0  0  0  0
  8  9  1  0  0  0  0
  9 10  1  0  0  0  0
 10 11  1  0  0  0  0
 10 16  1  0  0  0  0
 11 12  1  0  0  0  0
 12 13  1  0  0  0  0
 13 14  4  0  0  0  0
 14 15  4  0  0  0  0
 17 18  4  0  0  0  0
 18 19  4  0  0  0  0
 19 20  4  0  0  0  0
M  END
>  <Name_Molregno>
341800

>  <DOPAMINE D1>
8.32

>  <DOPAMINE D2>
7.57

>  <DOPAMINE D3>
6.53

>  <DOPAMINE D5>
7.4

$$$$
341801
  Marvin  02231216192D 0   1.00000     0.00000     0

 21 23  0  0  0  0  0  0  0  0999 V2000
   -3.3819    0.2489    0.0000 O   0  0  0  0  0  0  0  0  0
   -4.0964    0.6614    0.0000 C   0  0  0  0  0  0  0  0  0
   -3.3819   -0.5761    0.0000 C   0  0  0  0  0  0  0  0  0
   -2.6674   -0.9886    0.0000 C   0  0  0  0  0  0  0  0  0
   -2.6674   -1.8136    0.0000 C   0  0  0  0  0  0  0  0  0
   -1.9530   -2.2261    0.0000 C   0  0  0  0  0  0  0  0  0
   -1.2385   -1.8136    0.0000 C   0  0  0  0  0  0  0  0  0
   -0.5240   -2.2261    0.0000 C   0  0  0  0  0  0  0  0  0
   -0.5240   -3.0511    0.0000 C   0  0  0  0  0  0  0  0  0
   -1.2385   -3.4636    0.0000 C   0  0  0  0  0  0  0  0  0
   -1.9530   -3.0511    0.0000 N   0  0  0  0  0  0  0  0  0
   -2.6674   -3.4636    0.0000 C   0  0  0  0  0  0  0  0  0
   -3.3819   -3.0511    0.0000 C   0  0  0  0  0  0  0  0  0
   -3.3819   -2.2261    0.0000 C   0  0  0  0  0  0  0  0  0
   -4.0964   -1.8136    0.0000 C   0  0  0  0  0  0  0  0  0
   -4.0964   -0.9886    0.0000 C   0  0  0  0  0  0  0  0  0
   -2.4379   -2.3837    0.0000 C   0  0  0  0  0  0  0  0  0
    0.1904   -1.8136    0.0000 C   0  0  0  0  0  0  0  0  0
    0.1904   -0.9886    0.0000 C   0  0  0  0  0  0  0  0  0
   -0.5240   -0.5761    0.0000 C   0  0  0  0  0  0  0  0  0
   -1.2385   -0.9886    0.0000 C   0  0  0  0  0  0  0  0  0
  1  2  1  0  0  0  0
  1  3  1  0  0  0  0
  3  4  4  0  0  0  0
  3 16  4  0  0  0  0
  4  5  4  0  0  0  0
  5  6  1  0  0  0  0
  5 14  4  0  0  0  0
  6  7  1  0  0  0  0
  7  8  4  0  0  0  0
  7 21  4  0  0  0  0
  8  9  1  0  0  0  0
  8 18  4  0  0  0  0
  9 10  1  0  0  0  0
 10 11  1  0  0  0  0
 11 12  1  0  0  0  0
 11 17  1  0  0  0  0
 12 13  1  0  0  0  0
 13 14  1  0  0  0  0
 14 15  4  0  0  0  0
 15 16  4  0  0  0  0
 18 19  4  0  0  0  0
 19 20  4  0  0  0  0
 20 21  4  0  0  0  0
M  END
>  <Name_Molregno>
341801

>  <DOPAMINE D1>
6.67

>  <DOPAMINE D2>
7.44

>  <DOPAMINE D3>
6.82

>  <DOPAMINE D5>
5.98

$$$$
341802
  Marvin  02231216192D 0   1.00000     0.00000     0

 23 25  0  0  0  0  0  0  0  0999 V2000
    1.4741   -0.1428    0.0000 Cl  0  0  0  0  0  0  0  0  0
    0.7597   -0.5553    0.0000 C   0  0  0  0  0  0  0  0  0
    0.7597   -1.3803    0.0000 C   0  0  0  0  0  0  0  0  0
    1.4741   -1.7928    0.0000 C   0  0  0  0  0  0  0  0  0
    2.1886   -1.3803    0.0000 C   0  0  0  0  0  0  0  0  0
    2.9031   -1.7928    0.0000 C   0  0  0  0  0  0  0  0  0
    2.9031   -2.6178    0.0000 C   0  0  0  0  0  0  0  0  0
    2.1886   -3.0303    0.0000 C   0  0  0  0  0  0  0  0  0
    1.4741   -2.6178    0.0000 N   0  0  0  0  0  0  0  0  0
    0.7597   -3.0303    0.0000 C   0  0  0  0  0  0  0  0  0
    0.0452   -2.6178    0.0000 C   0  0  0  0  0  0  0  0  0
    0.0452   -1.7928    0.0000 C   0  0  0  0  0  0  0  0  0
   -0.6693   -1.3803    0.0000 C   0  0  0  0  0  0  0  0  0
   -0.6693   -0.5553    0.0000 C   0  0  0  0  0  0  0  0  0
   -1.3838   -0.1428    0.0000 Cl  0  0  0  0  0  0  0  0  0
    0.0452   -0.1428    0.0000 C   0  0  0  0  0  0  0  0  0
    0.0452    0.6822    0.0000 O   0  0  0  0  0  0  0  0  0
   -0.6693    1.0947    0.0000 C   0  0  0  0  0  0  0  0  0
    0.9892   -1.9504    0.0000 C   0  0  0  0  0  0  0  0  0
    3.6175   -1.3803    0.0000 C   0  0  0  0  0  0  0  0  0
    3.6175   -0.5553    0.0000 C   0  0  0  0  0  0  0  0  0
    2.9031   -0.1428    0.0000 C   0  0  0  0  0  0  0  0  0
    2.1886   -0.5553    0.0000 C   0  0  0  0  0  0  0  0  0
  1  2  1  0  0  0  0
  2  3  4  0  0  0  0
  2 16  4  0  0  0  0
  3  4  1  0  0  0  0
  3 12  4  0  0  0  0
  4  5  1  0  0  0  0
  5  6  4  0  0  0  0
  5 23  4  0  0  0  0
  6  7  1  0  0  0  0
  6 20  4  0  0  0  0
  7  8  1  0  0  0  0
  8  9  1  0  0  0  0
  9 10  1  0  0  0  0
  9 19  1  0  0  0  0
 10 11  1  0  0  0  0
 11 12  1  0  0  0  0
 12 13  4  0  0  0  0
 13 14  4  0  0  0  0
 14 15  1  0  0  0  0
 14 16  4  0  0  0  0
 16 17  1  0  0  0  0
 17 18  1  0  0  0  0
 20 21  4  0  0  0  0
 21 22  4  0  0  0  0
 22 23  4  0  0  0  0
M  END
>  <Name_Molregno>
341802

>  <DOPAMINE D1>
7.53

>  <DOPAMINE D2>
7.64

>  <DOPAMINE D3>
6.38

>  <DOPAMINE D5>
7.23

$$$$
341811
  Marvin  02231216192D 0   1.00000     0.00000     0

 21 23  0  0  0  0  0  0  0  0999 V2000
    1.5417    0.0772    0.0000 Cl  0  0  0  0  0  0  0  0  0
    0.8272   -0.3353    0.0000 C   0  0  0  0  0  0  0  0  0
    0.8272   -1.1603    0.0000 C   0  0  0  0  0  0  0  0  0
    1.5417   -1.5728    0.0000 C   0  0  0  0  0  0  0  0  0
    2.2562   -1.1603    0.0000 C   0  0  0  0  0  0  0  0  0
    2.9706   -1.5728    0.0000 C   0  0  0  0  0  0  0  0  0
    2.9706   -2.3978    0.0000 C   0  0  0  0  0  0  0  0  0
    2.2562   -2.8103    0.0000 C   0  0  0  0  0  0  0  0  0
    1.5417   -2.3978    0.0000 N   0  0  0  0  0  0  0  0  0
    0.8272   -2.8103    0.0000 C   0  0  0  0  0  0  0  0  0
    0.1128   -2.3978    0.0000 C   0  0  0  0  0  0  0  0  0
    0.1128   -1.5728    0.0000 C   0  0  0  0  0  0  0  0  0
   -0.6017   -1.1603    0.0000 C   0  0  0  0  0  0  0  0  0
   -0.6017   -0.3353    0.0000 C   0  0  0  0  0  0  0  0  0
    0.1128    0.0772    0.0000 C   0  0  0  0  0  0  0  0  0
    0.1128    0.9022    0.0000 O   0  0  0  0  0  0  0  0  0
    1.0568   -1.7304    0.0000 C   0  0  0  0  0  0  0  0  0
    3.6851   -1.1603    0.0000 C   0  0  0  0  0  0  0  0  0
    3.6851   -0.3353    0.0000 C   0  0  0  0  0  0  0  0  0
    2.9706    0.0772    0.0000 C   0  0  0  0  0  0  0  0  0
    2.2562   -0.3353    0.0000 C   0  0  0  0  0  0  0  0  0
  1  2  1  0  0  0  0
  2  3  4  0  0  0  0
  2 15  4  0  0  0  0
  3  4  1  0  0  0  0
  3 12  4  0  0  0  0
  4  5  1  0  0  0  0
  5  6  4  0  0  0  0
  5 21  4  0  0  0  0
  6  7  1  0  0  0  0
  6 18  4  0  0  0  0
  7  8  1  0  0  0  0
  8  9  1  0  0  0  0
  9 10  1  0  0  0  0
  9 17  1  0  0  0  0
 10 11  1  0  0  0  0
 11 12  1  0  0  0  0
 12 13  4  0  0  0  0
 13 14  4  0  0  0  0
 14 15  4  0  0  0  0
 15 16  1  0  0  0  0
 18 19  4  0  0  0  0
 19 20  4  0  0  0  0
 20 21  4  0  0  0  0
M  END
>  <Name_Molregno>
341811

>  <DOPAMINE D1>
8.76

>  <DOPAMINE D2>
9.45

>  <DOPAMINE D3>
8.73

>  <DOPAMINE D5>
8.91

$$$$
343559
  Marvin  02231216192D 0   1.00000     0.00000     0

 35 37  0  0  0  0  0  0  0  0999 V2000
   -0.5506    2.6370    0.0000 F   0  0  0  0  0  0  0  0  0
    0.1639    2.2245    0.0000 C   0  0  0  0  0  0  0  0  0
   -0.2486    1.5100    0.0000 F   0  0  0  0  0  0  0  0  0
    0.5764    2.9389    0.0000 F   0  0  0  0  0  0  0  0  0
    0.8784    1.8120    0.0000 C   0  0  0  0  0  0  0  0  0
    1.5928    2.2245    0.0000 C   0  0  0  0  0  0  0  0  0
    2.3073    1.8120    0.0000 C   0  0  0  0  0  0  0  0  0
    3.0218    2.2245    0.0000 O   0  0  0  0  0  0  0  0  0
    2.3073    0.9870    0.0000 N   0  0  0  0  0  0  0  0  0
    1.5928    0.5745    0.0000 C   0  0  0  0  0  0  0  0  0
    0.8784    0.9870    0.0000 C   0  0  0  0  0  0  0  0  0
    3.0218    0.5745    0.0000 C   0  0  0  0  0  0  0  0  0
    3.7363    0.9870    0.0000 C   0  0  0  0  0  0  0  0  0
    4.4507    0.5745    0.0000 C   0  0  0  0  0  0  0  0  0
    5.1652    0.9870    0.0000 C   0  0  0  0  0  0  0  0  0
    5.8797    0.5745    0.0000 N   0  0  0  0  0  0  0  0  0
    6.5941    0.9870    0.0000 C   0  0  0  0  0  0  0  0  0
    7.3086    0.5745    0.0000 C   0  0  0  0  0  0  0  0  0
    7.3086   -0.2505    0.0000 N   0  0  0  0  0  0  0  0  0
    6.5941   -0.6630    0.0000 C   0  0  0  0  0  0  0  0  0
    5.8797   -0.2505    0.0000 C   0  0  0  0  0  0  0  0  0
    8.0231   -0.6630    0.0000 C   0  0  0  0  0  0  0  0  0
    8.7375   -0.2505    0.0000 N   0  0  0  0  0  0  0  0  0
    9.4520   -0.6630    0.0000 C   0  0  0  0  0  0  0  0  0
    9.4520   -1.4880    0.0000 N   0  0  0  0  0  0  0  0  0
    8.7375   -1.9005    0.0000 C   0  0  0  0  0  0  0  0  0
    8.0231   -1.4880    0.0000 C   0  0  0  0  0  0  0  0  0
    8.7375   -2.7255    0.0000 C   0  0  0  0  0  0  0  0  0
    8.7375   -3.5505    0.0000 F   0  0  0  0  0  0  0  0  0
    7.9125   -2.7255    0.0000 F   0  0  0  0  0  0  0  0  0
    9.5625   -2.7255    0.0000 F   0  0  0  0  0  0  0  0  0
   10.1665   -0.2505    0.0000 C   0  0  0  0  0  0  0  0  0
   10.8810    0.1620    0.0000 C   0  0  0  0  0  0  0  0  0
   10.5790   -0.9650    0.0000 C   0  0  0  0  0  0  0  0  0
    9.7540    0.4639    0.0000 C   0  0  0  0  0  0  0  0  0
  1  2  1  0  0  0  0
  2  3  1  0  0  0  0
  2  4  1  0  0  0  0
  2  5  1  0  0  0  0
  5  6  2  0  0  0  0
  5 11  1  0  0  0  0
  6  7  1  0  0  0  0
  7  8  2  0  0  0  0
  7  9  1  0  0  0  0
  9 10  1  0  0  0  0
  9 12  1  0  0  0  0
 10 11  2  0  0  0  0
 12 13  1  0  0  0  0
 13 14  1  0  0  0  0
 14 15  1  0  0  0  0
 15 16  1  0  0  0  0
 16 17  1  0  0  0  0
 16 21  1  0  0  0  0
 17 18  1  0  0  0  0
 18 19  1  0  0  0  0
 19 20  1  0  0  0  0
 19 22  1  0  0  0  0
 20 21  1  0  0  0  0
 22 23  4  0  0  0  0
 22 27  4  0  0  0  0
 23 24  4  0  0  0  0
 24 25  4  0  0  0  0
 24 32  1  0  0  0  0
 25 26  4  0  0  0  0
 26 27  4  0  0  0  0
 26 28  1  0  0  0  0
 28 29  1  0  0  0  0
 28 30  1  0  0  0  0
 28 31  1  0  0  0  0
 32 33  1  0  0  0  0
 32 34  1  0  0  0  0
 32 35  1  0  0  0  0
M  END
>  <Name_Molregno>
343559

>  <DOPAMINE D2>
6.64

>  <DOPAMINE D3>
7.94

$$$$
343574
  Marvin  02231216192D 0   1.00000     0.00000     0

 35 37  0  0  0  0  0  0  0  0999 V2000
   -9.1221    0.7822    0.0000 F   0  0  0  0  0  0  0  0  0
   -8.4076    1.1947    0.0000 C   0  0  0  0  0  0  0  0  0
   -7.9951    0.4803    0.0000 F   0  0  0  0  0  0  0  0  0
   -8.8201    1.9092    0.0000 F   0  0  0  0  0  0  0  0  0
   -7.6932    1.6072    0.0000 C   0  0  0  0  0  0  0  0  0
   -7.6932    2.4322    0.0000 N   0  0  0  0  0  0  0  0  0
   -6.9787    2.8447    0.0000 C   0  0  0  0  0  0  0  0  0
   -6.2642    2.4322    0.0000 N   0  0  0  0  0  0  0  0  0
   -6.2642    1.6072    0.0000 C   0  0  0  0  0  0  0  0  0
   -5.5497    1.1947    0.0000 N   0  0  0  0  0  0  0  0  0
   -4.8353    1.6072    0.0000 C   0  0  0  0  0  0  0  0  0
   -4.1208    1.1947    0.0000 C   0  0  0  0  0  0  0  0  0
   -4.1208    0.3697    0.0000 N   0  0  0  0  0  0  0  0  0
   -4.8353   -0.0428    0.0000 C   0  0  0  0  0  0  0  0  0
   -5.5497    0.3697    0.0000 C   0  0  0  0  0  0  0  0  0
   -3.4063   -0.0428    0.0000 C   0  0  0  0  0  0  0  0  0
   -2.6919    0.3697    0.0000 C   0  0  0  0  0  0  0  0  0
   -1.9774   -0.0428    0.0000 C   0  0  0  0  0  0  0  0  0
   -1.2629    0.3697    0.0000 C   0  0  0  0  0  0  0  0  0
   -0.5485   -0.0428    0.0000 N   0  0  0  0  0  0  0  0  0
    0.1660    0.3697    0.0000 C   0  0  0  0  0  0  0  0  0
    0.1660    1.1947    0.0000 O   0  0  0  0  0  0  0  0  0
    0.8805   -0.0428    0.0000 N   0  0  0  0  0  0  0  0  0
    1.5950    0.3697    0.0000 C   0  0  0  0  0  0  0  0  0
    2.3094   -0.0428    0.0000 C   0  0  0  0  0  0  0  0  0
    3.0239    0.3697    0.0000 C   0  0  0  0  0  0  0  0  0
    3.7384   -0.0428    0.0000 C   0  0  0  0  0  0  0  0  0
    3.7384   -0.8678    0.0000 C   0  0  0  0  0  0  0  0  0
    3.0239   -1.2803    0.0000 C   0  0  0  0  0  0  0  0  0
    2.3094   -0.8678    0.0000 C   0  0  0  0  0  0  0  0  0
   -6.9787    1.1947    0.0000 C   0  0  0  0  0  0  0  0  0
   -6.9787    3.6697    0.0000 C   0  0  0  0  0  0  0  0  0
   -6.9787    4.4947    0.0000 C   0  0  0  0  0  0  0  0  0
   -6.1537    3.6697    0.0000 C   0  0  0  0  0  0  0  0  0
   -7.8037    3.6697    0.0000 C   0  0  0  0  0  0  0  0  0
  1  2  1  0  0  0  0
  2  3  1  0  0  0  0
  2  4  1  0  0  0  0
  2  5  1  0  0  0  0
  5  6  4  0  0  0  0
  5 31  4  0  0  0  0
  6  7  4  0  0  0  0
  7  8  4  0  0  0  0
  7 32  1  0  0  0  0
  8  9  4  0  0  0  0
  9 10  1  0  0  0  0
  9 31  4  0  0  0  0
 10 11  1  0  0  0  0
 10 15  1  0  0  0  0
 11 12  1  0  0  0  0
 12 13  1  0  0  0  0
 13 14  1  0  0  0  0
 13 16  1  0  0  0  0
 14 15  1  0  0  0  0
 16 17  1  0  0  0  0
 17 18  1  0  0  0  0
 18 19  1  0  0  0  0
 19 20  1  0  0  0  0
 20 21  1  0  0  0  0
 21 22  2  0  0  0  0
 21 23  1  0  0  0  0
 23 24  1  0  0  0  0
 24 25  1  0  0  0  0
 25 26  1  0  0  0  0
 25 30  1  0  0  0  0
 26 27  1  0  0  0  0
 27 28  1  0  0  0  0
 28 29  1  0  0  0  0
 29 30  1  0  0  0  0
 32 33  1  0  0  0  0
 32 34  1  0  0  0  0
 32 35  1  0  0  0  0
M  END
>  <Name_Molregno>
343574

>  <DOPAMINE D2>
6.83

>  <DOPAMINE D3>
8.37

$$$$
343721
  Marvin  02231216192D 0   1.00000     0.00000     0

 35 37  0  0  0  0  0  0  0  0999 V2000
   -0.1976   -0.5819    0.0000 F   0  0  0  0  0  0  0  0  0
    0.5168   -0.1694    0.0000 C   0  0  0  0  0  0  0  0  0
    0.9293   -0.8838    0.0000 F   0  0  0  0  0  0  0  0  0
    0.1043    0.5451    0.0000 F   0  0  0  0  0  0  0  0  0
    1.2313    0.2431    0.0000 C   0  0  0  0  0  0  0  0  0
    1.2313    1.0681    0.0000 C   0  0  0  0  0  0  0  0  0
    1.9458    1.4806    0.0000 C   0  0  0  0  0  0  0  0  0
    2.6602    1.0681    0.0000 C   0  0  0  0  0  0  0  0  0
    2.6602    0.2431    0.0000 N   0  0  0  0  0  0  0  0  0
    3.3747   -0.1694    0.0000 C   0  0  0  0  0  0  0  0  0
    4.0892    0.2431    0.0000 C   0  0  0  0  0  0  0  0  0
    4.8037   -0.1694    0.0000 C   0  0  0  0  0  0  0  0  0
    5.5181    0.2431    0.0000 C   0  0  0  0  0  0  0  0  0
    6.2326   -0.1694    0.0000 N   0  0  0  0  0  0  0  0  0
    6.9471    0.2431    0.0000 C   0  0  0  0  0  0  0  0  0
    7.6615   -0.1694    0.0000 C   0  0  0  0  0  0  0  0  0
    7.6615   -0.9944    0.0000 N   0  0  0  0  0  0  0  0  0
    6.9471   -1.4069    0.0000 C   0  0  0  0  0  0  0  0  0
    6.2326   -0.9944    0.0000 C   0  0  0  0  0  0  0  0  0
    8.3760   -1.4069    0.0000 C   0  0  0  0  0  0  0  0  0
    9.0905   -0.9944    0.0000 N   0  0  0  0  0  0  0  0  0
    9.8050   -1.4069    0.0000 C   0  0  0  0  0  0  0  0  0
    9.8050   -2.2319    0.0000 N   0  0  0  0  0  0  0  0  0
    9.0905   -2.6444    0.0000 C   0  0  0  0  0  0  0  0  0
    8.3760   -2.2319    0.0000 C   0  0  0  0  0  0  0  0  0
    9.0905   -3.4694    0.0000 C   0  0  0  0  0  0  0  0  0
    9.0905   -4.2944    0.0000 F   0  0  0  0  0  0  0  0  0
    8.2655   -3.4694    0.0000 F   0  0  0  0  0  0  0  0  0
    9.9155   -3.4694    0.0000 F   0  0  0  0  0  0  0  0  0
   10.5194   -0.9944    0.0000 C   0  0  0  0  0  0  0  0  0
   11.2339   -0.5819    0.0000 C   0  0  0  0  0  0  0  0  0
   10.9319   -1.7088    0.0000 C   0  0  0  0  0  0  0  0  0
   10.1069   -0.2799    0.0000 C   0  0  0  0  0  0  0  0  0
    1.9458   -0.1694    0.0000 C   0  0  0  0  0  0  0  0  0
    1.9458   -0.9944    0.0000 O   0  0  0  0  0  0  0  0  0
  1  2  1  0  0  0  0
  2  3  1  0  0  0  0
  2  4  1  0  0  0  0
  2  5  1  0  0  0  0
  5  6  2  0  0  0  0
  5 34  1  0  0  0  0
  6  7  1  0  0  0  0
  7  8  2  0  0  0  0
  8  9  1  0  0  0  0
  9 10  1  0  0  0  0
  9 34  1  0  0  0  0
 10 11  1  0  0  0  0
 11 12  1  0  0  0  0
 12 13  1  0  0  0  0
 13 14  1  0  0  0  0
 14 15  1  0  0  0  0
 14 19  1  0  0  0  0
 15 16  1  0  0  0  0
 16 17  1  0  0  0  0
 17 18  1  0  0  0  0
 17 20  1  0  0  0  0
 18 19  1  0  0  0  0
 20 21  4  0  0  0  0
 20 25  4  0  0  0  0
 21 22  4  0  0  0  0
 22 23  4  0  0  0  0
 22 30  1  0  0  0  0
 23 24  4  0  0  0  0
 24 25  4  0  0  0  0
 24 26  1  0  0  0  0
 26 27  1  0  0  0  0
 26 28  1  0  0  0  0
 26 29  1  0  0  0  0
 30 31  1  0  0  0  0
 30 32  1  0  0  0  0
 30 33  1  0  0  0  0
 34 35  2  0  0  0  0
M  END
>  <Name_Molregno>
343721

>  <DOPAMINE D2>
6.39

>  <DOPAMINE D3>
8.03

$$$$
343729
  Marvin  02231216192D 0   1.00000     0.00000     0

 37 39  0  0  0  0  0  0  0  0999 V2000
   -9.1949   -0.8348    0.0000 F   0  0  0  0  0  0  0  0  0
   -8.6548   -0.2111    0.0000 C   0  0  0  0  0  0  0  0  0
   -8.0312   -0.7512    0.0000 F   0  0  0  0  0  0  0  0  0
   -9.2785    0.3290    0.0000 F   0  0  0  0  0  0  0  0  0
   -8.1147    0.4125    0.0000 C   0  0  0  0  0  0  0  0  0
   -8.3848    1.1921    0.0000 N   0  0  0  0  0  0  0  0  0
   -7.8447    1.8157    0.0000 C   0  0  0  0  0  0  0  0  0
   -7.0346    1.6598    0.0000 N   0  0  0  0  0  0  0  0  0
   -6.7645    0.8803    0.0000 C   0  0  0  0  0  0  0  0  0
   -5.9544    0.7243    0.0000 N   0  0  0  0  0  0  0  0  0
   -5.4143    1.3480    0.0000 C   0  0  0  0  0  0  0  0  0
   -4.6042    1.1921    0.0000 C   0  0  0  0  0  0  0  0  0
   -4.3341    0.4125    0.0000 N   0  0  0  0  0  0  0  0  0
   -4.8742   -0.2111    0.0000 C   0  0  0  0  0  0  0  0  0
   -5.6843   -0.0552    0.0000 C   0  0  0  0  0  0  0  0  0
   -3.5240    0.2566    0.0000 C   0  0  0  0  0  0  0  0  0
   -2.9839    0.8803    0.0000 C   0  0  0  0  0  0  0  0  0
   -2.1738    0.7243    0.0000 C   0  0  0  0  0  0  0  0  0
   -1.6337    1.3480    0.0000 C   0  0  0  0  0  0  0  0  0
   -0.8235    1.1921    0.0000 N   0  0  0  0  0  0  0  0  0
   -0.2834    1.8157    0.0000 C   0  0  0  0  0  0  0  0  0
   -0.5535    2.5953    0.0000 O   0  0  0  0  0  0  0  0  0
    0.5267    1.6598    0.0000 N   0  0  0  0  0  0  0  0  0
    1.0668    2.2834    0.0000 C   0  0  0  0  0  0  0  0  0
    1.8769    2.1275    0.0000 C   0  0  0  0  0  0  0  0  0
    2.4170    2.7512    0.0000 C   0  0  0  0  0  0  0  0  0
    3.2271    2.5953    0.0000 C   0  0  0  0  0  0  0  0  0
    3.4972    1.8157    0.0000 C   0  0  0  0  0  0  0  0  0
    2.9571    1.1921    0.0000 C   0  0  0  0  0  0  0  0  0
    2.1470    1.3480    0.0000 C   0  0  0  0  0  0  0  0  0
    0.7967    0.8803    0.0000 C   0  0  0  0  0  0  0  0  0
    0.2566    0.2566    0.0000 C   0  0  0  0  0  0  0  0  0
   -7.3046    0.2566    0.0000 C   0  0  0  0  0  0  0  0  0
   -8.1147    2.5953    0.0000 C   0  0  0  0  0  0  0  0  0
   -8.3848    3.3748    0.0000 C   0  0  0  0  0  0  0  0  0
   -7.3352    2.8653    0.0000 C   0  0  0  0  0  0  0  0  0
   -8.8943    2.3252    0.0000 C   0  0  0  0  0  0  0  0  0
  1  2  1  0  0  0  0
  2  3  1  0  0  0  0
  2  4  1  0  0  0  0
  2  5  1  0  0  0  0
  5  6  4  0  0  0  0
  5 33  4  0  0  0  0
  6  7  4  0  0  0  0
  7  8  4  0  0  0  0
  7 34  1  0  0  0  0
  8  9  4  0  0  0  0
  9 10  1  0  0  0  0
  9 33  4  0  0  0  0
 10 11  1  0  0  0  0
 10 15  1  0  0  0  0
 11 12  1  0  0  0  0
 12 13  1  0  0  0  0
 13 14  1  0  0  0  0
 13 16  1  0  0  0  0
 14 15  1  0  0  0  0
 16 17  1  0  0  0  0
 17 18  1  0  0  0  0
 18 19  1  0  0  0  0
 19 20  1  0  0  0  0
 20 21  1  0  0  0  0
 21 22  2  0  0  0  0
 21 23  1  0  0  0  0
 23 24  1  0  0  0  0
 23 31  1  0  0  0  0
 24 25  1  0  0  0  0
 25 26  4  0  0  0  0
 25 30  4  0  0  0  0
 26 27  4  0  0  0  0
 27 28  4  0  0  0  0
 28 29  4  0  0  0  0
 29 30  4  0  0  0  0
 31 32  1  0  0  0  0
 34 35  1  0  0  0  0
 34 36  1  0  0  0  0
 34 37  1  0  0  0  0
M  END
>  <Name_Molregno>
343729

>  <DOPAMINE D2>
6.67

>  <DOPAMINE D3>
8.08

$$$$
343733
  Marvin  02231216192D 0   1.00000     0.00000     0

 35 37  0  0  0  0  0  0  0  0999 V2000
   -9.1221    0.7822    0.0000 F   0  0  0  0  0  0  0  0  0
   -8.4076    1.1947    0.0000 C   0  0  0  0  0  0  0  0  0
   -7.9951    0.4803    0.0000 F   0  0  0  0  0  0  0  0  0
   -8.8201    1.9092    0.0000 F   0  0  0  0  0  0  0  0  0
   -7.6932    1.6072    0.0000 C   0  0  0  0  0  0  0  0  0
   -7.6932    2.4322    0.0000 N   0  0  0  0  0  0  0  0  0
   -6.9787    2.8447    0.0000 C   0  0  0  0  0  0  0  0  0
   -6.2642    2.4322    0.0000 N   0  0  0  0  0  0  0  0  0
   -6.2642    1.6072    0.0000 C   0  0  0  0  0  0  0  0  0
   -5.5497    1.1947    0.0000 N   0  0  0  0  0  0  0  0  0
   -4.8353    1.6072    0.0000 C   0  0  0  0  0  0  0  0  0
   -4.1208    1.1947    0.0000 C   0  0  0  0  0  0  0  0  0
   -4.1208    0.3697    0.0000 N   0  0  0  0  0  0  0  0  0
   -4.8353   -0.0428    0.0000 C   0  0  0  0  0  0  0  0  0
   -5.5497    0.3697    0.0000 C   0  0  0  0  0  0  0  0  0
   -3.4063   -0.0428    0.0000 C   0  0  0  0  0  0  0  0  0
   -2.6919    0.3697    0.0000 C   0  0  0  0  0  0  0  0  0
   -1.9774   -0.0428    0.0000 C   0  0  0  0  0  0  0  0  0
   -1.2629    0.3697    0.0000 C   0  0  0  0  0  0  0  0  0
   -0.5485   -0.0428    0.0000 C   0  0  0  0  0  0  0  0  0
    0.1660    0.3697    0.0000 C   0  0  0  0  0  0  0  0  0
    0.1660    1.1947    0.0000 O   0  0  0  0  0  0  0  0  0
    0.8805   -0.0428    0.0000 N   0  0  0  0  0  0  0  0  0
    1.5950    0.3697    0.0000 C   0  0  0  0  0  0  0  0  0
    2.3094   -0.0428    0.0000 C   0  0  0  0  0  0  0  0  0
    3.0239    0.3697    0.0000 C   0  0  0  0  0  0  0  0  0
    3.7384   -0.0428    0.0000 C   0  0  0  0  0  0  0  0  0
    3.7384   -0.8678    0.0000 C   0  0  0  0  0  0  0  0  0
    3.0239   -1.2803    0.0000 C   0  0  0  0  0  0  0  0  0
    2.3094   -0.8678    0.0000 C   0  0  0  0  0  0  0  0  0
   -6.9787    1.1947    0.0000 C   0  0  0  0  0  0  0  0  0
   -6.9787    3.6697    0.0000 C   0  0  0  0  0  0  0  0  0
   -6.9787    4.4947    0.0000 C   0  0  0  0  0  0  0  0  0
   -6.1537    3.6697    0.0000 C   0  0  0  0  0  0  0  0  0
   -7.8037    3.6697    0.0000 C   0  0  0  0  0  0  0  0  0
  1  2  1  0  0  0  0
  2  3  1  0  0  0  0
  2  4  1  0  0  0  0
  2  5  1  0  0  0  0
  5  6  4  0  0  0  0
  5 31  4  0  0  0  0
  6  7  4  0  0  0  0
  7  8  4  0  0  0  0
  7 32  1  0  0  0  0
  8  9  4  0  0  0  0
  9 10  1  0  0  0  0
  9 31  4  0  0  0  0
 10 11  1  0  0  0  0
 10 15  1  0  0  0  0
 11 12  1  0  0  0  0
 12 13  1  0  0  0  0
 13 14  1  0  0  0  0
 13 16  1  0  0  0  0
 14 15  1  0  0  0  0
 16 17  1  0  0  0  0
 17 18  1  0  0  0  0
 18 19  1  0  0  0  0
 19 20  1  0  0  0  0
 20 21  1  0  0  0  0
 21 22  2  0  0  0  0
 21 23  1  0  0  0  0
 23 24  1  0  0  0  0
 24 25  1  0  0  0  0
 25 26  4  0  0  0  0
 25 30  4  0  0  0  0
 26 27  4  0  0  0  0
 27 28  4  0  0  0  0
 28 29  4  0  0  0  0
 29 30  4  0  0  0  0
 32 33  1  0  0  0  0
 32 34  1  0  0  0  0
 32 35  1  0  0  0  0
M  END
>  <Name_Molregno>
343733

>  <DOPAMINE D2>
6.76

>  <DOPAMINE D3>
8.21

$$$$
343770
  Marvin  02231216192D 0   1.00000     0.00000     0

 37 40  0  0  0  0  0  0  0  0999 V2000
   -0.7214    6.1540    0.0000 F   0  0  0  0  0  0  0  0  0
   -0.7214    5.3290    0.0000 C   0  0  0  0  0  0  0  0  0
   -1.5464    5.3290    0.0000 F   0  0  0  0  0  0  0  0  0
    0.1036    5.3290    0.0000 F   0  0  0  0  0  0  0  0  0
   -0.7214    4.5040    0.0000 C   0  0  0  0  0  0  0  0  0
   -0.0070    4.0915    0.0000 N   0  0  0  0  0  0  0  0  0
   -0.0070    3.2665    0.0000 C   0  0  0  0  0  0  0  0  0
   -0.7214    2.8540    0.0000 N   0  0  0  0  0  0  0  0  0
   -1.4359    3.2665    0.0000 C   0  0  0  0  0  0  0  0  0
   -2.1504    2.8540    0.0000 N   0  0  0  0  0  0  0  0  0
   -2.1504    2.0290    0.0000 C   0  0  0  0  0  0  0  0  0
   -2.8648    1.6165    0.0000 C   0  0  0  0  0  0  0  0  0
   -3.5793    2.0290    0.0000 N   0  0  0  0  0  0  0  0  0
   -3.5793    2.8540    0.0000 C   0  0  0  0  0  0  0  0  0
   -2.8648    3.2665    0.0000 C   0  0  0  0  0  0  0  0  0
   -4.2938    1.6165    0.0000 C   0  0  0  0  0  0  0  0  0
   -4.2938    0.7915    0.0000 C   0  0  0  0  0  0  0  0  0
   -5.0083    0.3790    0.0000 C   0  0  0  0  0  0  0  0  0
   -5.0083   -0.4460    0.0000 C   0  0  0  0  0  0  0  0  0
   -5.7227   -0.8585    0.0000 N   0  0  0  0  0  0  0  0  0
   -5.7227   -1.6835    0.0000 C   0  0  0  0  0  0  0  0  0
   -6.4372   -2.0960    0.0000 C   0  0  0  0  0  0  0  0  0
   -7.1517   -1.6835    0.0000 C   0  0  0  0  0  0  0  0  0
   -7.1517   -0.8585    0.0000 C   0  0  0  0  0  0  0  0  0
   -6.4372   -0.4460    0.0000 C   0  0  0  0  0  0  0  0  0
   -6.4372    0.3790    0.0000 O   0  0  0  0  0  0  0  0  0
   -7.8661   -2.0960    0.0000 C   0  0  0  0  0  0  0  0  0
   -7.8661   -2.9210    0.0000 C   0  0  0  0  0  0  0  0  0
   -8.5806   -3.3335    0.0000 C   0  0  0  0  0  0  0  0  0
   -9.2951   -2.9210    0.0000 C   0  0  0  0  0  0  0  0  0
   -9.2951   -2.0960    0.0000 C   0  0  0  0  0  0  0  0  0
   -8.5806   -1.6835    0.0000 C   0  0  0  0  0  0  0  0  0
   -1.4359    4.0915    0.0000 C   0  0  0  0  0  0  0  0  0
    0.7075    2.8540    0.0000 C   0  0  0  0  0  0  0  0  0
    1.4220    2.4415    0.0000 C   0  0  0  0  0  0  0  0  0
    0.2950    2.1395    0.0000 C   0  0  0  0  0  0  0  0  0
    1.1200    3.5685    0.0000 C   0  0  0  0  0  0  0  0  0
  1  2  1  0  0  0  0
  2  3  1  0  0  0  0
  2  4  1  0  0  0  0
  2  5  1  0  0  0  0
  5  6  4  0  0  0  0
  5 33  4  0  0  0  0
  6  7  4  0  0  0  0
  7  8  4  0  0  0  0
  7 34  1  0  0  0  0
  8  9  4  0  0  0  0
  9 10  1  0  0  0  0
  9 33  4  0  0  0  0
 10 11  1  0  0  0  0
 10 15  1  0  0  0  0
 11 12  1  0  0  0  0
 12 13  1  0  0  0  0
 13 14  1  0  0  0  0
 13 16  1  0  0  0  0
 14 15  1  0  0  0  0
 16 17  1  0  0  0  0
 17 18  1  0  0  0  0
 18 19  1  0  0  0  0
 19 20  1  0  0  0  0
 20 21  1  0  0  0  0
 20 25  1  0  0  0  0
 21 22  2  0  0  0  0
 22 23  1  0  0  0  0
 23 24  2  0  0  0  0
 23 27  1  0  0  0  0
 24 25  1  0  0  0  0
 25 26  2  0  0  0  0
 27 28  4  0  0  0  0
 27 32  4  0  0  0  0
 28 29  4  0  0  0  0
 29 30  4  0  0  0  0
 30 31  4  0  0  0  0
 31 32  4  0  0  0  0
 34 35  1  0  0  0  0
 34 36  1  0  0  0  0
 34 37  1  0  0  0  0
M  END
>  <Name_Molregno>
343770

>  <DOPAMINE D2>
6.28

>  <DOPAMINE D3>
8.1

$$$$
343771
  Marvin  02231216192D 0   1.00000     0.00000     0

 33 35  0  0  0  0  0  0  0  0999 V2000
   -5.3434   -1.4944    0.0000 F   0  0  0  0  0  0  0  0  0
   -5.3434   -0.6694    0.0000 C   0  0  0  0  0  0  0  0  0
   -4.5184   -0.6694    0.0000 F   0  0  0  0  0  0  0  0  0
   -6.1684   -0.6694    0.0000 F   0  0  0  0  0  0  0  0  0
   -5.3434    0.1556    0.0000 C   0  0  0  0  0  0  0  0  0
   -6.0579    0.5681    0.0000 N   0  0  0  0  0  0  0  0  0
   -6.0579    1.3931    0.0000 C   0  0  0  0  0  0  0  0  0
   -5.3434    1.8056    0.0000 N   0  0  0  0  0  0  0  0  0
   -4.6289    1.3931    0.0000 C   0  0  0  0  0  0  0  0  0
   -3.9144    1.8056    0.0000 N   0  0  0  0  0  0  0  0  0
   -3.9144    2.6306    0.0000 C   0  0  0  0  0  0  0  0  0
   -3.2000    3.0431    0.0000 C   0  0  0  0  0  0  0  0  0
   -2.4855    2.6306    0.0000 N   0  0  0  0  0  0  0  0  0
   -2.4855    1.8056    0.0000 C   0  0  0  0  0  0  0  0  0
   -3.2000    1.3931    0.0000 C   0  0  0  0  0  0  0  0  0
   -1.7710    3.0431    0.0000 C   0  0  0  0  0  0  0  0  0
   -1.0566    2.6306    0.0000 C   0  0  0  0  0  0  0  0  0
   -0.3421    3.0431    0.0000 C   0  0  0  0  0  0  0  0  0
    0.3724    2.6306    0.0000 C   0  0  0  0  0  0  0  0  0
    1.0869    3.0431    0.0000 N   0  0  0  0  0  0  0  0  0
    1.0869    3.8681    0.0000 C   0  0  0  0  0  0  0  0  0
    1.8013    4.2806    0.0000 C   0  0  0  0  0  0  0  0  0
    2.5158    3.8681    0.0000 C   0  0  0  0  0  0  0  0  0
    2.5158    3.0431    0.0000 C   0  0  0  0  0  0  0  0  0
    3.2303    2.6306    0.0000 O   0  0  0  0  0  0  0  0  0
    3.9447    3.0431    0.0000 C   0  0  0  0  0  0  0  0  0
    1.8013    2.6306    0.0000 C   0  0  0  0  0  0  0  0  0
    1.8013    1.8056    0.0000 O   0  0  0  0  0  0  0  0  0
   -4.6289    0.5681    0.0000 C   0  0  0  0  0  0  0  0  0
   -6.7723    1.8056    0.0000 C   0  0  0  0  0  0  0  0  0
   -7.4868    2.2181    0.0000 C   0  0  0  0  0  0  0  0  0
   -6.3598    2.5200    0.0000 C   0  0  0  0  0  0  0  0  0
   -7.1848    1.0911    0.0000 C   0  0  0  0  0  0  0  0  0
  1  2  1  0  0  0  0
  2  3  1  0  0  0  0
  2  4  1  0  0  0  0
  2  5  1  0  0  0  0
  5  6  4  0  0  0  0
  5 29  4  0  0  0  0
  6  7  4  0  0  0  0
  7  8  4  0  0  0  0
  7 30  1  0  0  0  0
  8  9  4  0  0  0  0
  9 10  1  0  0  0  0
  9 29  4  0  0  0  0
 10 11  1  0  0  0  0
 10 15  1  0  0  0  0
 11 12  1  0  0  0  0
 12 13  1  0  0  0  0
 13 14  1  0  0  0  0
 13 16  1  0  0  0  0
 14 15  1  0  0  0  0
 16 17  1  0  0  0  0
 17 18  1  0  0  0  0
 18 19  1  0  0  0  0
 19 20  1  0  0  0  0
 20 21  1  0  0  0  0
 20 27  1  0  0  0  0
 21 22  2  0  0  0  0
 22 23  1  0  0  0  0
 23 24  2  0  0  0  0
 24 25  1  0  0  0  0
 24 27  1  0  0  0  0
 25 26  1  0  0  0  0
 27 28  2  0  0  0  0
 30 31  1  0  0  0  0
 30 32  1  0  0  0  0
 30 33  1  0  0  0  0
M  END
>  <Name_Molregno>
343771

>  <DOPAMINE D2>
6.77

>  <DOPAMINE D3>
8.66

$$$$
343777
  Marvin  02231216192D 0   1.00000     0.00000     0

 32 34  0  0  0  0  0  0  0  0999 V2000
   -8.4820   -1.8139    0.0000 F   0  0  0  0  0  0  0  0  0
   -7.7676   -1.4014    0.0000 C   0  0  0  0  0  0  0  0  0
   -7.3551   -2.1159    0.0000 F   0  0  0  0  0  0  0  0  0
   -8.1801   -0.6870    0.0000 F   0  0  0  0  0  0  0  0  0
   -7.0531   -0.9889    0.0000 C   0  0  0  0  0  0  0  0  0
   -7.0531   -0.1639    0.0000 N   0  0  0  0  0  0  0  0  0
   -6.3386    0.2486    0.0000 C   0  0  0  0  0  0  0  0  0
   -5.6241   -0.1639    0.0000 N   0  0  0  0  0  0  0  0  0
   -5.6241   -0.9889    0.0000 C   0  0  0  0  0  0  0  0  0
   -4.9097   -1.4014    0.0000 N   0  0  0  0  0  0  0  0  0
   -4.1952   -0.9889    0.0000 C   0  0  0  0  0  0  0  0  0
   -3.4807   -1.4014    0.0000 C   0  0  0  0  0  0  0  0  0
   -3.4807   -2.2264    0.0000 N   0  0  0  0  0  0  0  0  0
   -4.1952   -2.6389    0.0000 C   0  0  0  0  0  0  0  0  0
   -4.9097   -2.2264    0.0000 C   0  0  0  0  0  0  0  0  0
   -2.7663   -2.6389    0.0000 C   0  0  0  0  0  0  0  0  0
   -2.0518   -2.2264    0.0000 C   0  0  0  0  0  0  0  0  0
   -1.3373   -2.6389    0.0000 C   0  0  0  0  0  0  0  0  0
   -0.6228   -2.2264    0.0000 C   0  0  0  0  0  0  0  0  0
    0.0916   -2.6389    0.0000 N   0  0  0  0  0  0  0  0  0
    0.8061   -2.2264    0.0000 C   0  0  0  0  0  0  0  0  0
    1.5206   -2.6389    0.0000 C   0  0  0  0  0  0  0  0  0
    1.5206   -3.4639    0.0000 C   0  0  0  0  0  0  0  0  0
    0.8061   -3.8764    0.0000 C   0  0  0  0  0  0  0  0  0
    0.8061   -4.7014    0.0000 C   0  0  0  0  0  0  0  0  0
    0.0916   -3.4639    0.0000 C   0  0  0  0  0  0  0  0  0
   -0.6228   -3.8764    0.0000 O   0  0  0  0  0  0  0  0  0
   -6.3386   -1.4014    0.0000 C   0  0  0  0  0  0  0  0  0
   -6.3386    1.0736    0.0000 C   0  0  0  0  0  0  0  0  0
   -6.3386    1.8986    0.0000 C   0  0  0  0  0  0  0  0  0
   -5.5136    1.0736    0.0000 C   0  0  0  0  0  0  0  0  0
   -7.1636    1.0736    0.0000 C   0  0  0  0  0  0  0  0  0
  1  2  1  0  0  0  0
  2  3  1  0  0  0  0
  2  4  1  0  0  0  0
  2  5  1  0  0  0  0
  5  6  4  0  0  0  0
  5 28  4  0  0  0  0
  6  7  4  0  0  0  0
  7  8  4  0  0  0  0
  7 29  1  0  0  0  0
  8  9  4  0  0  0  0
  9 10  1  0  0  0  0
  9 28  4  0  0  0  0
 10 11  1  0  0  0  0
 10 15  1  0  0  0  0
 11 12  1  0  0  0  0
 12 13  1  0  0  0  0
 13 14  1  0  0  0  0
 13 16  1  0  0  0  0
 14 15  1  0  0  0  0
 16 17  1  0  0  0  0
 17 18  1  0  0  0  0
 18 19  1  0  0  0  0
 19 20  1  0  0  0  0
 20 21  1  0  0  0  0
 20 26  1  0  0  0  0
 21 22  2  0  0  0  0
 22 23  1  0  0  0  0
 23 24  2  0  0  0  0
 24 25  1  0  0  0  0
 24 26  1  0  0  0  0
 26 27  2  0  0  0  0
 29 30  1  0  0  0  0
 29 31  1  0  0  0  0
 29 32  1  0  0  0  0
M  END
>  <Name_Molregno>
343777

>  <DOPAMINE D2>
6.77

>  <DOPAMINE D3>
8.64

$$$$
343778
  Marvin  02231216192D 0   1.00000     0.00000     0

 36 38  0  0  0  0  0  0  0  0999 V2000
    1.2903   -3.1819    0.0000 F   0  0  0  0  0  0  0  0  0
    1.2903   -2.3569    0.0000 C   0  0  0  0  0  0  0  0  0
    2.1153   -2.3569    0.0000 F   0  0  0  0  0  0  0  0  0
    0.4653   -2.3569    0.0000 F   0  0  0  0  0  0  0  0  0
    1.2903   -1.5319    0.0000 C   0  0  0  0  0  0  0  0  0
    0.5758   -1.1194    0.0000 N   0  0  0  0  0  0  0  0  0
    0.5758   -0.2944    0.0000 C   0  0  0  0  0  0  0  0  0
    1.2903    0.1181    0.0000 N   0  0  0  0  0  0  0  0  0
    2.0048   -0.2944    0.0000 C   0  0  0  0  0  0  0  0  0
    2.7193    0.1181    0.0000 N   0  0  0  0  0  0  0  0  0
    2.7193    0.9431    0.0000 C   0  0  0  0  0  0  0  0  0
    3.4337    1.3556    0.0000 C   0  0  0  0  0  0  0  0  0
    4.1482    0.9431    0.0000 N   0  0  0  0  0  0  0  0  0
    4.1482    0.1181    0.0000 C   0  0  0  0  0  0  0  0  0
    3.4337   -0.2944    0.0000 C   0  0  0  0  0  0  0  0  0
    4.8627    1.3556    0.0000 C   0  0  0  0  0  0  0  0  0
    5.5771    0.9431    0.0000 C   0  0  0  0  0  0  0  0  0
    6.2916    1.3556    0.0000 C   0  0  0  0  0  0  0  0  0
    7.0061    0.9431    0.0000 C   0  0  0  0  0  0  0  0  0
    7.7206    1.3556    0.0000 N   0  0  0  0  0  0  0  0  0
    8.4350    0.9431    0.0000 C   0  0  0  0  0  0  0  0  0
    8.4350    0.1181    0.0000 O   0  0  0  0  0  0  0  0  0
    9.1495    1.3556    0.0000 N   0  0  0  0  0  0  0  0  0
    9.8640    0.9431    0.0000 C   0  0  0  0  0  0  0  0  0
   10.5784    1.3556    0.0000 C   0  0  0  0  0  0  0  0  0
   11.2929    0.9431    0.0000 C   0  0  0  0  0  0  0  0  0
   12.0074    1.3556    0.0000 C   0  0  0  0  0  0  0  0  0
   12.7218    0.9431    0.0000 C   0  0  0  0  0  0  0  0  0
   12.7218    0.1181    0.0000 C   0  0  0  0  0  0  0  0  0
   12.0074   -0.2944    0.0000 C   0  0  0  0  0  0  0  0  0
   11.2929    0.1181    0.0000 C   0  0  0  0  0  0  0  0  0
    2.0048   -1.1194    0.0000 C   0  0  0  0  0  0  0  0  0
   -0.1386    0.1181    0.0000 C   0  0  0  0  0  0  0  0  0
   -0.8531    0.5306    0.0000 C   0  0  0  0  0  0  0  0  0
    0.2739    0.8326    0.0000 C   0  0  0  0  0  0  0  0  0
   -0.5511   -0.5963    0.0000 C   0  0  0  0  0  0  0  0  0
  1  2  1  0  0  0  0
  2  3  1  0  0  0  0
  2  4  1  0  0  0  0
  2  5  1  0  0  0  0
  5  6  4  0  0  0  0
  5 32  4  0  0  0  0
  6  7  4  0  0  0  0
  7  8  4  0  0  0  0
  7 33  1  0  0  0  0
  8  9  4  0  0  0  0
  9 10  1  0  0  0  0
  9 32  4  0  0  0  0
 10 11  1  0  0  0  0
 10 15  1  0  0  0  0
 11 12  1  0  0  0  0
 12 13  1  0  0  0  0
 13 14  1  0  0  0  0
 13 16  1  0  0  0  0
 14 15  1  0  0  0  0
 16 17  1  0  0  0  0
 17 18  1  0  0  0  0
 18 19  1  0  0  0  0
 19 20  1  0  0  0  0
 20 21  1  0  0  0  0
 21 22  2  0  0  0  0
 21 23  1  0  0  0  0
 23 24  1  0  0  0  0
 24 25  1  0  0  0  0
 25 26  1  0  0  0  0
 26 27  4  0  0  0  0
 26 31  4  0  0  0  0
 27 28  4  0  0  0  0
 28 29  4  0  0  0  0
 29 30  4  0  0  0  0
 30 31  4  0  0  0  0
 33 34  1  0  0  0  0
 33 35  1  0  0  0  0
 33 36  1  0  0  0  0
M  END
>  <Name_Molregno>
343778

>  <DOPAMINE D2>
6.63

>  <DOPAMINE D3>
8.14

$$$$
343784
  Marvin  02231216192D 0   1.00000     0.00000     0

 32 33  0  0  0  0  0  0  0  0999 V2000
   -6.5806   -3.3088    0.0000 F   0  0  0  0  0  0  0  0  0
   -6.3106   -2.5293    0.0000 C   0  0  0  0  0  0  0  0  0
   -5.5310   -2.7993    0.0000 F   0  0  0  0  0  0  0  0  0
   -7.0901   -2.2592    0.0000 F   0  0  0  0  0  0  0  0  0
   -6.0405   -1.7497    0.0000 C   0  0  0  0  0  0  0  0  0
   -6.5806   -1.1261    0.0000 N   0  0  0  0  0  0  0  0  0
   -6.3106   -0.3465    0.0000 C   0  0  0  0  0  0  0  0  0
   -5.5004   -0.1906    0.0000 N   0  0  0  0  0  0  0  0  0
   -4.9604   -0.8143    0.0000 C   0  0  0  0  0  0  0  0  0
   -4.1502   -0.6583    0.0000 N   0  0  0  0  0  0  0  0  0
   -3.8802    0.1212    0.0000 C   0  0  0  0  0  0  0  0  0
   -3.0700    0.2771    0.0000 C   0  0  0  0  0  0  0  0  0
   -2.5300   -0.3465    0.0000 N   0  0  0  0  0  0  0  0  0
   -2.8000   -1.1261    0.0000 C   0  0  0  0  0  0  0  0  0
   -3.6101   -1.2820    0.0000 C   0  0  0  0  0  0  0  0  0
   -1.7198   -0.1906    0.0000 C   0  0  0  0  0  0  0  0  0
   -1.1797   -0.8143    0.0000 C   0  0  0  0  0  0  0  0  0
   -0.3696   -0.6583    0.0000 C   0  0  0  0  0  0  0  0  0
    0.1705   -1.2820    0.0000 C   0  0  0  0  0  0  0  0  0
    0.9806   -1.1261    0.0000 N   0  0  0  0  0  0  0  0  0
    1.5207   -1.7497    0.0000 C   0  0  0  0  0  0  0  0  0
    1.2507   -2.5293    0.0000 O   0  0  0  0  0  0  0  0  0
    2.3309   -1.5938    0.0000 N   0  0  0  0  0  0  0  0  0
    2.8709   -2.2175    0.0000 C   0  0  0  0  0  0  0  0  0
    3.6811   -2.0615    0.0000 C   0  0  0  0  0  0  0  0  0
    2.6009   -0.8143    0.0000 C   0  0  0  0  0  0  0  0  0
    3.4110   -0.6583    0.0000 C   0  0  0  0  0  0  0  0  0
   -5.2304   -1.5938    0.0000 C   0  0  0  0  0  0  0  0  0
   -6.8507    0.2771    0.0000 C   0  0  0  0  0  0  0  0  0
   -7.3908    0.9008    0.0000 C   0  0  0  0  0  0  0  0  0
   -6.2270    0.8172    0.0000 C   0  0  0  0  0  0  0  0  0
   -7.4743   -0.2630    0.0000 C   0  0  0  0  0  0  0  0  0
  1  2  1  0  0  0  0
  2  3  1  0  0  0  0
  2  4  1  0  0  0  0
  2  5  1  0  0  0  0
  5  6  4  0  0  0  0
  5 28  4  0  0  0  0
  6  7  4  0  0  0  0
  7  8  4  0  0  0  0
  7 29  1  0  0  0  0
  8  9  4  0  0  0  0
  9 10  1  0  0  0  0
  9 28  4  0  0  0  0
 10 11  1  0  0  0  0
 10 15  1  0  0  0  0
 11 12  1  0  0  0  0
 12 13  1  0  0  0  0
 13 14  1  0  0  0  0
 13 16  1  0  0  0  0
 14 15  1  0  0  0  0
 16 17  1  0  0  0  0
 17 18  1  0  0  0  0
 18 19  1  0  0  0  0
 19 20  1  0  0  0  0
 20 21  1  0  0  0  0
 21 22  2  0  0  0  0
 21 23  1  0  0  0  0
 23 24  1  0  0  0  0
 23 26  1  0  0  0  0
 24 25  1  0  0  0  0
 26 27  1  0  0  0  0
 29 30  1  0  0  0  0
 29 31  1  0  0  0  0
 29 32  1  0  0  0  0
M  END
>  <Name_Molregno>
343784

>  <DOPAMINE D2>
7.76

>  <DOPAMINE D3>
9.05

$$$$
344075
  Marvin  02231216192D 0   1.00000     0.00000     0

 32 34  0  0  0  0  0  0  0  0999 V2000
   -7.5357    0.9681    0.0000 F   0  0  0  0  0  0  0  0  0
   -6.8212    1.3806    0.0000 C   0  0  0  0  0  0  0  0  0
   -6.4087    0.6661    0.0000 F   0  0  0  0  0  0  0  0  0
   -7.2337    2.0950    0.0000 F   0  0  0  0  0  0  0  0  0
   -6.1067    1.7931    0.0000 C   0  0  0  0  0  0  0  0  0
   -6.1067    2.6181    0.0000 N   0  0  0  0  0  0  0  0  0
   -5.3923    3.0306    0.0000 C   0  0  0  0  0  0  0  0  0
   -4.6778    2.6181    0.0000 N   0  0  0  0  0  0  0  0  0
   -4.6778    1.7931    0.0000 C   0  0  0  0  0  0  0  0  0
   -3.9633    1.3806    0.0000 N   0  0  0  0  0  0  0  0  0
   -3.2489    1.7931    0.0000 C   0  0  0  0  0  0  0  0  0
   -2.5344    1.3806    0.0000 C   0  0  0  0  0  0  0  0  0
   -2.5344    0.5556    0.0000 N   0  0  0  0  0  0  0  0  0
   -3.2489    0.1431    0.0000 C   0  0  0  0  0  0  0  0  0
   -3.9633    0.5556    0.0000 C   0  0  0  0  0  0  0  0  0
   -1.8199    0.1431    0.0000 C   0  0  0  0  0  0  0  0  0
   -1.1054    0.5556    0.0000 C   0  0  0  0  0  0  0  0  0
   -0.3910    0.1431    0.0000 C   0  0  0  0  0  0  0  0  0
    0.3235    0.5556    0.0000 C   0  0  0  0  0  0  0  0  0
    1.0380    0.1431    0.0000 N   0  0  0  0  0  0  0  0  0
    1.7524    0.5556    0.0000 C   0  0  0  0  0  0  0  0  0
    2.4669    0.1431    0.0000 C   0  0  0  0  0  0  0  0  0
    2.4669   -0.6819    0.0000 C   0  0  0  0  0  0  0  0  0
    3.1814   -1.0944    0.0000 O   0  0  0  0  0  0  0  0  0
    1.7524   -1.0944    0.0000 C   0  0  0  0  0  0  0  0  0
    1.0380   -0.6819    0.0000 C   0  0  0  0  0  0  0  0  0
    0.3235   -1.0944    0.0000 O   0  0  0  0  0  0  0  0  0
   -5.3923    1.3806    0.0000 C   0  0  0  0  0  0  0  0  0
   -5.3923    3.8556    0.0000 C   0  0  0  0  0  0  0  0  0
   -5.3923    4.6806    0.0000 C   0  0  0  0  0  0  0  0  0
   -4.5673    3.8556    0.0000 C   0  0  0  0  0  0  0  0  0
   -6.2173    3.8556    0.0000 C   0  0  0  0  0  0  0  0  0
  1  2  1  0  0  0  0
  2  3  1  0  0  0  0
  2  4  1  0  0  0  0
  2  5  1  0  0  0  0
  5  6  4  0  0  0  0
  5 28  4  0  0  0  0
  6  7  4  0  0  0  0
  7  8  4  0  0  0  0
  7 29  1  0  0  0  0
  8  9  4  0  0  0  0
  9 10  1  0  0  0  0
  9 28  4  0  0  0  0
 10 11  1  0  0  0  0
 10 15  1  0  0  0  0
 11 12  1  0  0  0  0
 12 13  1  0  0  0  0
 13 14  1  0  0  0  0
 13 16  1  0  0  0  0
 14 15  1  0  0  0  0
 16 17  1  0  0  0  0
 17 18  1  0  0  0  0
 18 19  1  0  0  0  0
 19 20  1  0  0  0  0
 20 21  1  0  0  0  0
 20 26  1  0  0  0  0
 21 22  2  0  0  0  0
 22 23  1  0  0  0  0
 23 24  1  0  0  0  0
 23 25  2  0  0  0  0
 25 26  1  0  0  0  0
 26 27  2  0  0  0  0
 29 30  1  0  0  0  0
 29 31  1  0  0  0  0
 29 32  1  0  0  0  0
M  END
>  <Name_Molregno>
344075

>  <DOPAMINE D2>
7.59

>  <DOPAMINE D3>
8.96

$$$$
344082
  Marvin  02231216192D 0   1.00000     0.00000     0

 35 37  0  0  0  0  0  0  0  0999 V2000
   -0.5506    2.6370    0.0000 F   0  0  0  0  0  0  0  0  0
    0.1639    2.2245    0.0000 C   0  0  0  0  0  0  0  0  0
   -0.2486    1.5100    0.0000 F   0  0  0  0  0  0  0  0  0
    0.5764    2.9389    0.0000 F   0  0  0  0  0  0  0  0  0
    0.8784    1.8120    0.0000 C   0  0  0  0  0  0  0  0  0
    1.5928    2.2245    0.0000 N   0  0  0  0  0  0  0  0  0
    2.3073    1.8120    0.0000 C   0  0  0  0  0  0  0  0  0
    3.0218    2.2245    0.0000 O   0  0  0  0  0  0  0  0  0
    2.3073    0.9870    0.0000 N   0  0  0  0  0  0  0  0  0
    1.5928    0.5745    0.0000 C   0  0  0  0  0  0  0  0  0
    0.8784    0.9870    0.0000 C   0  0  0  0  0  0  0  0  0
    3.0218    0.5745    0.0000 C   0  0  0  0  0  0  0  0  0
    3.7363    0.9870    0.0000 C   0  0  0  0  0  0  0  0  0
    4.4507    0.5745    0.0000 C   0  0  0  0  0  0  0  0  0
    5.1652    0.9870    0.0000 C   0  0  0  0  0  0  0  0  0
    5.8797    0.5745    0.0000 N   0  0  0  0  0  0  0  0  0
    6.5941    0.9870    0.0000 C   0  0  0  0  0  0  0  0  0
    7.3086    0.5745    0.0000 C   0  0  0  0  0  0  0  0  0
    7.3086   -0.2505    0.0000 N   0  0  0  0  0  0  0  0  0
    6.5941   -0.6630    0.0000 C   0  0  0  0  0  0  0  0  0
    5.8797   -0.2505    0.0000 C   0  0  0  0  0  0  0  0  0
    8.0231   -0.6630    0.0000 C   0  0  0  0  0  0  0  0  0
    8.7375   -0.2505    0.0000 N   0  0  0  0  0  0  0  0  0
    9.4520   -0.6630    0.0000 C   0  0  0  0  0  0  0  0  0
    9.4520   -1.4880    0.0000 N   0  0  0  0  0  0  0  0  0
    8.7375   -1.9005    0.0000 C   0  0  0  0  0  0  0  0  0
    8.0231   -1.4880    0.0000 C   0  0  0  0  0  0  0  0  0
    8.7375   -2.7255    0.0000 C   0  0  0  0  0  0  0  0  0
    8.7375   -3.5505    0.0000 F   0  0  0  0  0  0  0  0  0
    7.9125   -2.7255    0.0000 F   0  0  0  0  0  0  0  0  0
    9.5625   -2.7255    0.0000 F   0  0  0  0  0  0  0  0  0
   10.1665   -0.2505    0.0000 C   0  0  0  0  0  0  0  0  0
   10.8810    0.1620    0.0000 C   0  0  0  0  0  0  0  0  0
   10.5790   -0.9650    0.0000 C   0  0  0  0  0  0  0  0  0
    9.7540    0.4639    0.0000 C   0  0  0  0  0  0  0  0  0
  1  2  1  0  0  0  0
  2  3  1  0  0  0  0
  2  4  1  0  0  0  0
  2  5  1  0  0  0  0
  5  6  2  0  0  0  0
  5 11  1  0  0  0  0
  6  7  1  0  0  0  0
  7  8  2  0  0  0  0
  7  9  1  0  0  0  0
  9 10  1  0  0  0  0
  9 12  1  0  0  0  0
 10 11  2  0  0  0  0
 12 13  1  0  0  0  0
 13 14  1  0  0  0  0
 14 15  1  0  0  0  0
 15 16  1  0  0  0  0
 16 17  1  0  0  0  0
 16 21  1  0  0  0  0
 17 18  1  0  0  0  0
 18 19  1  0  0  0  0
 19 20  1  0  0  0  0
 19 22  1  0  0  0  0
 20 21  1  0  0  0  0
 22 23  4  0  0  0  0
 22 27  4  0  0  0  0
 23 24  4  0  0  0  0
 24 25  4  0  0  0  0
 24 32  1  0  0  0  0
 25 26  4  0  0  0  0
 26 27  4  0  0  0  0
 26 28  1  0  0  0  0
 28 29  1  0  0  0  0
 28 30  1  0  0  0  0
 28 31  1  0  0  0  0
 32 33  1  0  0  0  0
 32 34  1  0  0  0  0
 32 35  1  0  0  0  0
M  END
>  <Name_Molregno>
344082

>  <DOPAMINE D2>
6.03

>  <DOPAMINE D3>
7.84

$$$$
344083
  Marvin  02231216192D 0   1.00000     0.00000     0

 32 34  0  0  0  0  0  0  0  0999 V2000
   -8.4598   -1.9389    0.0000 F   0  0  0  0  0  0  0  0  0
   -7.7453   -1.5264    0.0000 C   0  0  0  0  0  0  0  0  0
   -7.3328   -2.2409    0.0000 F   0  0  0  0  0  0  0  0  0
   -8.1578   -0.8119    0.0000 F   0  0  0  0  0  0  0  0  0
   -7.0308   -1.1139    0.0000 C   0  0  0  0  0  0  0  0  0
   -7.0308   -0.2889    0.0000 N   0  0  0  0  0  0  0  0  0
   -6.3164    0.1236    0.0000 C   0  0  0  0  0  0  0  0  0
   -5.6019   -0.2889    0.0000 N   0  0  0  0  0  0  0  0  0
   -5.6019   -1.1139    0.0000 C   0  0  0  0  0  0  0  0  0
   -4.8874   -1.5264    0.0000 N   0  0  0  0  0  0  0  0  0
   -4.1730   -1.1139    0.0000 C   0  0  0  0  0  0  0  0  0
   -3.4585   -1.5264    0.0000 C   0  0  0  0  0  0  0  0  0
   -3.4585   -2.3514    0.0000 N   0  0  0  0  0  0  0  0  0
   -4.1730   -2.7639    0.0000 C   0  0  0  0  0  0  0  0  0
   -4.8874   -2.3514    0.0000 C   0  0  0  0  0  0  0  0  0
   -2.7440   -2.7639    0.0000 C   0  0  0  0  0  0  0  0  0
   -2.0295   -2.3514    0.0000 C   0  0  0  0  0  0  0  0  0
   -1.3151   -2.7639    0.0000 C   0  0  0  0  0  0  0  0  0
   -0.6006   -2.3514    0.0000 C   0  0  0  0  0  0  0  0  0
    0.1139   -2.7639    0.0000 N   0  0  0  0  0  0  0  0  0
    0.8283   -2.3514    0.0000 C   0  0  0  0  0  0  0  0  0
    1.5428   -2.7639    0.0000 C   0  0  0  0  0  0  0  0  0
    1.5428   -3.5889    0.0000 C   0  0  0  0  0  0  0  0  0
    0.8283   -4.0014    0.0000 C   0  0  0  0  0  0  0  0  0
    0.1139   -3.5889    0.0000 C   0  0  0  0  0  0  0  0  0
   -0.6006   -4.0014    0.0000 O   0  0  0  0  0  0  0  0  0
    0.8283   -1.5264    0.0000 C   0  0  0  0  0  0  0  0  0
   -6.3164   -1.5264    0.0000 C   0  0  0  0  0  0  0  0  0
   -6.3164    0.9486    0.0000 C   0  0  0  0  0  0  0  0  0
   -6.3164    1.7736    0.0000 C   0  0  0  0  0  0  0  0  0
   -5.4914    0.9486    0.0000 C   0  0  0  0  0  0  0  0  0
   -7.1414    0.9486    0.0000 C   0  0  0  0  0  0  0  0  0
  1  2  1  0  0  0  0
  2  3  1  0  0  0  0
  2  4  1  0  0  0  0
  2  5  1  0  0  0  0
  5  6  4  0  0  0  0
  5 28  4  0  0  0  0
  6  7  4  0  0  0  0
  7  8  4  0  0  0  0
  7 29  1  0  0  0  0
  8  9  4  0  0  0  0
  9 10  1  0  0  0  0
  9 28  4  0  0  0  0
 10 11  1  0  0  0  0
 10 15  1  0  0  0  0
 11 12  1  0  0  0  0
 12 13  1  0  0  0  0
 13 14  1  0  0  0  0
 13 16  1  0  0  0  0
 14 15  1  0  0  0  0
 16 17  1  0  0  0  0
 17 18  1  0  0  0  0
 18 19  1  0  0  0  0
 19 20  1  0  0  0  0
 20 21  1  0  0  0  0
 20 25  1  0  0  0  0
 21 22  2  0  0  0  0
 21 27  1  0  0  0  0
 22 23  1  0  0  0  0
 23 24  2  0  0  0  0
 24 25  1  0  0  0  0
 25 26  2  0  0  0  0
 29 30  1  0  0  0  0
 29 31  1  0  0  0  0
 29 32  1  0  0  0  0
M  END
>  <Name_Molregno>
344083

>  <DOPAMINE D2>
6.71

>  <DOPAMINE D3>
7.92

$$$$
344088
  Marvin  02231216192D 0   1.00000     0.00000     0

 32 33  0  0  0  0  0  0  0  0999 V2000
   -0.7482    0.0351    0.0000 F   0  0  0  0  0  0  0  0  0
   -0.0338    0.4476    0.0000 C   0  0  0  0  0  0  0  0  0
    0.3787   -0.2668    0.0000 F   0  0  0  0  0  0  0  0  0
   -0.4463    1.1621    0.0000 F   0  0  0  0  0  0  0  0  0
    0.6807    0.8601    0.0000 C   0  0  0  0  0  0  0  0  0
    0.6807    1.6851    0.0000 N   0  0  0  0  0  0  0  0  0
    1.3952    2.0976    0.0000 C   0  0  0  0  0  0  0  0  0
    2.1096    1.6851    0.0000 N   0  0  0  0  0  0  0  0  0
    2.1096    0.8601    0.0000 C   0  0  0  0  0  0  0  0  0
    2.8241    0.4476    0.0000 N   0  0  0  0  0  0  0  0  0
    3.5386    0.8601    0.0000 C   0  0  0  0  0  0  0  0  0
    4.2530    0.4476    0.0000 C   0  0  0  0  0  0  0  0  0
    4.2530   -0.3774    0.0000 N   0  0  0  0  0  0  0  0  0
    3.5386   -0.7899    0.0000 C   0  0  0  0  0  0  0  0  0
    2.8241   -0.3774    0.0000 C   0  0  0  0  0  0  0  0  0
    4.9675   -0.7899    0.0000 C   0  0  0  0  0  0  0  0  0
    5.6820   -0.3774    0.0000 C   0  0  0  0  0  0  0  0  0
    6.3965   -0.7899    0.0000 C   0  0  0  0  0  0  0  0  0
    7.1109   -0.3774    0.0000 C   0  0  0  0  0  0  0  0  0
    7.8254   -0.7899    0.0000 N   0  0  0  0  0  0  0  0  0
    8.5399   -0.3774    0.0000 C   0  0  0  0  0  0  0  0  0
    8.5399    0.4476    0.0000 O   0  0  0  0  0  0  0  0  0
    9.2543   -0.7899    0.0000 N   0  0  0  0  0  0  0  0  0
    9.9688   -0.3774    0.0000 C   0  0  0  0  0  0  0  0  0
   10.6833    0.0351    0.0000 C   0  0  0  0  0  0  0  0  0
   10.3813   -1.0918    0.0000 C   0  0  0  0  0  0  0  0  0
    9.5563    0.3371    0.0000 C   0  0  0  0  0  0  0  0  0
    1.3952    0.4476    0.0000 C   0  0  0  0  0  0  0  0  0
    1.3952    2.9226    0.0000 C   0  0  0  0  0  0  0  0  0
    1.3952    3.7476    0.0000 C   0  0  0  0  0  0  0  0  0
    2.2202    2.9226    0.0000 C   0  0  0  0  0  0  0  0  0
    0.5702    2.9226    0.0000 C   0  0  0  0  0  0  0  0  0
  1  2  1  0  0  0  0
  2  3  1  0  0  0  0
  2  4  1  0  0  0  0
  2  5  1  0  0  0  0
  5  6  4  0  0  0  0
  5 28  4  0  0  0  0
  6  7  4  0  0  0  0
  7  8  4  0  0  0  0
  7 29  1  0  0  0  0
  8  9  4  0  0  0  0
  9 10  1  0  0  0  0
  9 28  4  0  0  0  0
 10 11  1  0  0  0  0
 10 15  1  0  0  0  0
 11 12  1  0  0  0  0
 12 13  1  0  0  0  0
 13 14  1  0  0  0  0
 13 16  1  0  0  0  0
 14 15  1  0  0  0  0
 16 17  1  0  0  0  0
 17 18  1  0  0  0  0
 18 19  1  0  0  0  0
 19 20  1  0  0  0  0
 20 21  1  0  0  0  0
 21 22  2  0  0  0  0
 21 23  1  0  0  0  0
 23 24  1  0  0  0  0
 24 25  1  0  0  0  0
 24 26  1  0  0  0  0
 24 27  1  0  0  0  0
 29 30  1  0  0  0  0
 29 31  1  0  0  0  0
 29 32  1  0  0  0  0
M  END
>  <Name_Molregno>
344088

>  <DOPAMINE D2>
7.18

>  <DOPAMINE D3>
8.4

$$$$
344089
  Marvin  02231216192D 0   1.00000     0.00000     0

 33 34  0  0  0  0  0  0  0  0999 V2000
   -5.7457   -5.0989    0.0000 F   0  0  0  0  0  0  0  0  0
   -5.7457   -4.2739    0.0000 C   0  0  0  0  0  0  0  0  0
   -4.9207   -4.2739    0.0000 F   0  0  0  0  0  0  0  0  0
   -6.5707   -4.2739    0.0000 F   0  0  0  0  0  0  0  0  0
   -5.7457   -3.4489    0.0000 C   0  0  0  0  0  0  0  0  0
   -6.4602   -3.0364    0.0000 N   0  0  0  0  0  0  0  0  0
   -6.4602   -2.2114    0.0000 C   0  0  0  0  0  0  0  0  0
   -5.7457   -1.7989    0.0000 N   0  0  0  0  0  0  0  0  0
   -5.0313   -2.2114    0.0000 C   0  0  0  0  0  0  0  0  0
   -4.3168   -1.7989    0.0000 N   0  0  0  0  0  0  0  0  0
   -4.3168   -0.9739    0.0000 C   0  0  0  0  0  0  0  0  0
   -3.6023   -0.5614    0.0000 C   0  0  0  0  0  0  0  0  0
   -2.8878   -0.9739    0.0000 N   0  0  0  0  0  0  0  0  0
   -2.8878   -1.7989    0.0000 C   0  0  0  0  0  0  0  0  0
   -3.6023   -2.2114    0.0000 C   0  0  0  0  0  0  0  0  0
   -2.1734   -0.5614    0.0000 C   0  0  0  0  0  0  0  0  0
   -1.4589   -0.9739    0.0000 C   0  0  0  0  0  0  0  0  0
   -0.7444   -0.5614    0.0000 C   0  0  0  0  0  0  0  0  0
   -0.0300   -0.9739    0.0000 C   0  0  0  0  0  0  0  0  0
    0.6845   -0.5614    0.0000 N   0  0  0  0  0  0  0  0  0
    1.3990   -0.9739    0.0000 C   0  0  0  0  0  0  0  0  0
    1.3990   -1.7989    0.0000 O   0  0  0  0  0  0  0  0  0
    2.1134   -0.5614    0.0000 N   0  0  0  0  0  0  0  0  0
    2.8279   -0.9739    0.0000 C   0  0  0  0  0  0  0  0  0
    3.5424   -0.5614    0.0000 C   0  0  0  0  0  0  0  0  0
    4.2569   -0.1489    0.0000 C   0  0  0  0  0  0  0  0  0
    3.9549   -1.2759    0.0000 C   0  0  0  0  0  0  0  0  0
    3.1299    0.1531    0.0000 C   0  0  0  0  0  0  0  0  0
   -5.0313   -3.0364    0.0000 C   0  0  0  0  0  0  0  0  0
   -7.1747   -1.7989    0.0000 C   0  0  0  0  0  0  0  0  0
   -7.8891   -1.3864    0.0000 C   0  0  0  0  0  0  0  0  0
   -6.7622   -1.0844    0.0000 C   0  0  0  0  0  0  0  0  0
   -7.5872   -2.5134    0.0000 C   0  0  0  0  0  0  0  0  0
  1  2  1  0  0  0  0
  2  3  1  0  0  0  0
  2  4  1  0  0  0  0
  2  5  1  0  0  0  0
  5  6  4  0  0  0  0
  5 29  4  0  0  0  0
  6  7  4  0  0  0  0
  7  8  4  0  0  0  0
  7 30  1  0  0  0  0
  8  9  4  0  0  0  0
  9 10  1  0  0  0  0
  9 29  4  0  0  0  0
 10 11  1  0  0  0  0
 10 15  1  0  0  0  0
 11 12  1  0  0  0  0
 12 13  1  0  0  0  0
 13 14  1  0  0  0  0
 13 16  1  0  0  0  0
 14 15  1  0  0  0  0
 16 17  1  0  0  0  0
 17 18  1  0  0  0  0
 18 19  1  0  0  0  0
 19 20  1  0  0  0  0
 20 21  1  0  0  0  0
 21 22  2  0  0  0  0
 21 23  1  0  0  0  0
 23 24  1  0  0  0  0
 24 25  1  0  0  0  0
 25 26  1  0  0  0  0
 25 27  1  0  0  0  0
 25 28  1  0  0  0  0
 30 31  1  0  0  0  0
 30 32  1  0  0  0  0
 30 33  1  0  0  0  0
M  END
>  <Name_Molregno>
344089

>  <DOPAMINE D2>
7.04

>  <DOPAMINE D3>
8.26

$$$$
344134
  Marvin  02231216192D 0   1.00000     0.00000     0

 35 37  0  0  0  0  0  0  0  0999 V2000
   -0.8746   -1.4689    0.0000 F   0  0  0  0  0  0  0  0  0
   -0.1601   -1.0564    0.0000 C   0  0  0  0  0  0  0  0  0
    0.2524   -1.7709    0.0000 F   0  0  0  0  0  0  0  0  0
   -0.5726   -0.3420    0.0000 F   0  0  0  0  0  0  0  0  0
    0.5543   -0.6439    0.0000 C   0  0  0  0  0  0  0  0  0
    0.5543    0.1811    0.0000 N   0  0  0  0  0  0  0  0  0
    1.2688    0.5936    0.0000 C   0  0  0  0  0  0  0  0  0
    1.9833    0.1811    0.0000 N   0  0  0  0  0  0  0  0  0
    1.9833   -0.6439    0.0000 C   0  0  0  0  0  0  0  0  0
    2.6978   -1.0564    0.0000 N   0  0  0  0  0  0  0  0  0
    3.4122   -0.6439    0.0000 C   0  0  0  0  0  0  0  0  0
    4.1267   -1.0564    0.0000 C   0  0  0  0  0  0  0  0  0
    4.1267   -1.8814    0.0000 N   0  0  0  0  0  0  0  0  0
    3.4122   -2.2939    0.0000 C   0  0  0  0  0  0  0  0  0
    2.6978   -1.8814    0.0000 C   0  0  0  0  0  0  0  0  0
    4.8412   -2.2939    0.0000 C   0  0  0  0  0  0  0  0  0
    5.5556   -1.8814    0.0000 C   0  0  0  0  0  0  0  0  0
    6.2701   -2.2939    0.0000 C   0  0  0  0  0  0  0  0  0
    6.9846   -1.8814    0.0000 C   0  0  0  0  0  0  0  0  0
    7.6991   -2.2939    0.0000 N   0  0  0  0  0  0  0  0  0
    8.4135   -1.8814    0.0000 C   0  0  0  0  0  0  0  0  0
    8.4135   -1.0564    0.0000 O   0  0  0  0  0  0  0  0  0
    9.1280   -2.2939    0.0000 C   0  0  0  0  0  0  0  0  0
    9.8425   -1.8814    0.0000 C   0  0  0  0  0  0  0  0  0
   10.5569   -2.2939    0.0000 C   0  0  0  0  0  0  0  0  0
   11.2714   -1.8814    0.0000 C   0  0  0  0  0  0  0  0  0
   11.9859   -2.2939    0.0000 C   0  0  0  0  0  0  0  0  0
   11.9859   -3.1189    0.0000 C   0  0  0  0  0  0  0  0  0
   11.2714   -3.5314    0.0000 C   0  0  0  0  0  0  0  0  0
   10.5569   -3.1189    0.0000 C   0  0  0  0  0  0  0  0  0
    1.2688   -1.0564    0.0000 C   0  0  0  0  0  0  0  0  0
    1.2688    1.4186    0.0000 C   0  0  0  0  0  0  0  0  0
    1.2688    2.2436    0.0000 C   0  0  0  0  0  0  0  0  0
    2.0938    1.4186    0.0000 C   0  0  0  0  0  0  0  0  0
    0.4438    1.4186    0.0000 C   0  0  0  0  0  0  0  0  0
  1  2  1  0  0  0  0
  2  3  1  0  0  0  0
  2  4  1  0  0  0  0
  2  5  1  0  0  0  0
  5  6  4  0  0  0  0
  5 31  4  0  0  0  0
  6  7  4  0  0  0  0
  7  8  4  0  0  0  0
  7 32  1  0  0  0  0
  8  9  4  0  0  0  0
  9 10  1  0  0  0  0
  9 31  4  0  0  0  0
 10 11  1  0  0  0  0
 10 15  1  0  0  0  0
 11 12  1  0  0  0  0
 12 13  1  0  0  0  0
 13 14  1  0  0  0  0
 13 16  1  0  0  0  0
 14 15  1  0  0  0  0
 16 17  1  0  0  0  0
 17 18  1  0  0  0  0
 18 19  1  0  0  0  0
 19 20  1  0  0  0  0
 20 21  1  0  0  0  0
 21 22  2  0  0  0  0
 21 23  1  0  0  0  0
 23 24  1  0  0  0  0
 24 25  1  0  0  0  0
 25 26  4  0  0  0  0
 25 30  4  0  0  0  0
 26 27  4  0  0  0  0
 27 28  4  0  0  0  0
 28 29  4  0  0  0  0
 29 30  4  0  0  0  0
 32 33  1  0  0  0  0
 32 34  1  0  0  0  0
 32 35  1  0  0  0  0
M  END
>  <Name_Molregno>
344134

>  <DOPAMINE D2>
6.61

>  <DOPAMINE D3>
8.8

$$$$
344141
  Marvin  02231216192D 0   1.00000     0.00000     0

 34 36  0  0  0  0  0  0  0  0999 V2000
    1.3365   -2.9280    0.0000 F   0  0  0  0  0  0  0  0  0
    1.3365   -2.1030    0.0000 C   0  0  0  0  0  0  0  0  0
    2.1615   -2.1030    0.0000 F   0  0  0  0  0  0  0  0  0
    0.5115   -2.1030    0.0000 F   0  0  0  0  0  0  0  0  0
    1.3365   -1.2780    0.0000 C   0  0  0  0  0  0  0  0  0
    0.6220   -0.8655    0.0000 N   0  0  0  0  0  0  0  0  0
    0.6220   -0.0405    0.0000 C   0  0  0  0  0  0  0  0  0
    1.3365    0.3720    0.0000 N   0  0  0  0  0  0  0  0  0
    2.0510   -0.0405    0.0000 C   0  0  0  0  0  0  0  0  0
    2.7654    0.3720    0.0000 N   0  0  0  0  0  0  0  0  0
    2.7654    1.1970    0.0000 C   0  0  0  0  0  0  0  0  0
    3.4799    1.6095    0.0000 C   0  0  0  0  0  0  0  0  0
    4.1944    1.1970    0.0000 N   0  0  0  0  0  0  0  0  0
    4.1944    0.3720    0.0000 C   0  0  0  0  0  0  0  0  0
    3.4799   -0.0405    0.0000 C   0  0  0  0  0  0  0  0  0
    4.9089    1.6095    0.0000 C   0  0  0  0  0  0  0  0  0
    5.6233    1.1970    0.0000 C   0  0  0  0  0  0  0  0  0
    6.3378    1.6095    0.0000 C   0  0  0  0  0  0  0  0  0
    7.0523    1.1970    0.0000 C   0  0  0  0  0  0  0  0  0
    7.7667    1.6095    0.0000 N   0  0  0  0  0  0  0  0  0
    8.4812    1.1970    0.0000 C   0  0  0  0  0  0  0  0  0
    8.4812    0.3720    0.0000 O   0  0  0  0  0  0  0  0  0
    9.1957    1.6095    0.0000 N   0  0  0  0  0  0  0  0  0
    9.9101    1.1970    0.0000 C   0  0  0  0  0  0  0  0  0
   10.6246    1.6095    0.0000 C   0  0  0  0  0  0  0  0  0
   11.3391    1.1970    0.0000 C   0  0  0  0  0  0  0  0  0
   11.3391    0.3720    0.0000 C   0  0  0  0  0  0  0  0  0
   10.6246   -0.0405    0.0000 C   0  0  0  0  0  0  0  0  0
    9.9101    0.3720    0.0000 C   0  0  0  0  0  0  0  0  0
    2.0510   -0.8655    0.0000 C   0  0  0  0  0  0  0  0  0
   -0.0924    0.3720    0.0000 C   0  0  0  0  0  0  0  0  0
   -0.8069    0.7845    0.0000 C   0  0  0  0  0  0  0  0  0
    0.3201    1.0865    0.0000 C   0  0  0  0  0  0  0  0  0
   -0.5049   -0.3425    0.0000 C   0  0  0  0  0  0  0  0  0
  1  2  1  0  0  0  0
  2  3  1  0  0  0  0
  2  4  1  0  0  0  0
  2  5  1  0  0  0  0
  5  6  4  0  0  0  0
  5 30  4  0  0  0  0
  6  7  4  0  0  0  0
  7  8  4  0  0  0  0
  7 31  1  0  0  0  0
  8  9  4  0  0  0  0
  9 10  1  0  0  0  0
  9 30  4  0  0  0  0
 10 11  1  0  0  0  0
 10 15  1  0  0  0  0
 11 12  1  0  0  0  0
 12 13  1  0  0  0  0
 13 14  1  0  0  0  0
 13 16  1  0  0  0  0
 14 15  1  0  0  0  0
 16 17  1  0  0  0  0
 17 18  1  0  0  0  0
 18 19  1  0  0  0  0
 19 20  1  0  0  0  0
 20 21  1  0  0  0  0
 21 22  2  0  0  0  0
 21 23  1  0  0  0  0
 23 24  1  0  0  0  0
 24 25  4  0  0  0  0
 24 29  4  0  0  0  0
 25 26  4  0  0  0  0
 26 27  4  0  0  0  0
 27 28  4  0  0  0  0
 28 29  4  0  0  0  0
 31 32  1  0  0  0  0
 31 33  1  0  0  0  0
 31 34  1  0  0  0  0
M  END
>  <Name_Molregno>
344141

>  <DOPAMINE D2>
7.23

>  <DOPAMINE D3>
8.49

$$$$
344147
  Marvin  02231216192D 0   1.00000     0.00000     0

 35 37  0  0  0  0  0  0  0  0999 V2000
  -10.2935    1.5200    0.0000 F   0  0  0  0  0  0  0  0  0
   -9.5790    1.9325    0.0000 C   0  0  0  0  0  0  0  0  0
   -9.1665    1.2180    0.0000 F   0  0  0  0  0  0  0  0  0
   -9.9915    2.6469    0.0000 F   0  0  0  0  0  0  0  0  0
   -8.8646    2.3450    0.0000 C   0  0  0  0  0  0  0  0  0
   -8.8646    3.1700    0.0000 C   0  0  0  0  0  0  0  0  0
   -8.1501    3.5825    0.0000 C   0  0  0  0  0  0  0  0  0
   -7.4356    3.1700    0.0000 C   0  0  0  0  0  0  0  0  0
   -6.7212    3.5825    0.0000 O   0  0  0  0  0  0  0  0  0
   -7.4356    2.3450    0.0000 N   0  0  0  0  0  0  0  0  0
   -8.1501    1.9325    0.0000 C   0  0  0  0  0  0  0  0  0
   -6.7212    1.9325    0.0000 C   0  0  0  0  0  0  0  0  0
   -6.0067    2.3450    0.0000 C   0  0  0  0  0  0  0  0  0
   -5.2922    1.9325    0.0000 C   0  0  0  0  0  0  0  0  0
   -4.5777    2.3450    0.0000 C   0  0  0  0  0  0  0  0  0
   -3.8633    1.9325    0.0000 N   0  0  0  0  0  0  0  0  0
   -3.1488    2.3450    0.0000 C   0  0  0  0  0  0  0  0  0
   -2.4343    1.9325    0.0000 C   0  0  0  0  0  0  0  0  0
   -2.4343    1.1075    0.0000 N   0  0  0  0  0  0  0  0  0
   -3.1488    0.6950    0.0000 C   0  0  0  0  0  0  0  0  0
   -3.8633    1.1075    0.0000 C   0  0  0  0  0  0  0  0  0
   -1.7199    0.6950    0.0000 C   0  0  0  0  0  0  0  0  0
   -1.0054    1.1075    0.0000 N   0  0  0  0  0  0  0  0  0
   -0.2909    0.6950    0.0000 C   0  0  0  0  0  0  0  0  0
   -0.2909   -0.1300    0.0000 N   0  0  0  0  0  0  0  0  0
   -1.0054   -0.5425    0.0000 C   0  0  0  0  0  0  0  0  0
   -1.7199   -0.1300    0.0000 C   0  0  0  0  0  0  0  0  0
   -1.0054   -1.3675    0.0000 C   0  0  0  0  0  0  0  0  0
   -1.0054   -2.1925    0.0000 F   0  0  0  0  0  0  0  0  0
   -1.8304   -1.3675    0.0000 F   0  0  0  0  0  0  0  0  0
   -0.1804   -1.3675    0.0000 F   0  0  0  0  0  0  0  0  0
    0.4235    1.1075    0.0000 C   0  0  0  0  0  0  0  0  0
    1.1380    1.5200    0.0000 C   0  0  0  0  0  0  0  0  0
    0.8360    0.3930    0.0000 C   0  0  0  0  0  0  0  0  0
    0.0110    1.8219    0.0000 C   0  0  0  0  0  0  0  0  0
  1  2  1  0  0  0  0
  2  3  1  0  0  0  0
  2  4  1  0  0  0  0
  2  5  1  0  0  0  0
  5  6  1  0  0  0  0
  5 11  2  0  0  0  0
  6  7  2  0  0  0  0
  7  8  1  0  0  0  0
  8  9  2  0  0  0  0
  8 10  1  0  0  0  0
 10 11  1  0  0  0  0
 10 12  1  0  0  0  0
 12 13  1  0  0  0  0
 13 14  1  0  0  0  0
 14 15  1  0  0  0  0
 15 16  1  0  0  0  0
 16 17  1  0  0  0  0
 16 21  1  0  0  0  0
 17 18  1  0  0  0  0
 18 19  1  0  0  0  0
 19 20  1  0  0  0  0
 19 22  1  0  0  0  0
 20 21  1  0  0  0  0
 22 23  4  0  0  0  0
 22 27  4  0  0  0  0
 23 24  4  0  0  0  0
 24 25  4  0  0  0  0
 24 32  1  0  0  0  0
 25 26  4  0  0  0  0
 26 27  4  0  0  0  0
 26 28  1  0  0  0  0
 28 29  1  0  0  0  0
 28 30  1  0  0  0  0
 28 31  1  0  0  0  0
 32 33  1  0  0  0  0
 32 34  1  0  0  0  0
 32 35  1  0  0  0  0
M  END
>  <Name_Molregno>
344147

>  <DOPAMINE D2>
6.4

>  <DOPAMINE D3>
7.45

$$$$
344157
  Marvin  02231216192D 0   1.00000     0.00000     0

 32 34  0  0  0  0  0  0  0  0999 V2000
   -7.5357    0.9681    0.0000 F   0  0  0  0  0  0  0  0  0
   -6.8212    1.3806    0.0000 C   0  0  0  0  0  0  0  0  0
   -6.4087    0.6661    0.0000 F   0  0  0  0  0  0  0  0  0
   -7.2337    2.0950    0.0000 F   0  0  0  0  0  0  0  0  0
   -6.1067    1.7931    0.0000 C   0  0  0  0  0  0  0  0  0
   -6.1067    2.6181    0.0000 N   0  0  0  0  0  0  0  0  0
   -5.3923    3.0306    0.0000 C   0  0  0  0  0  0  0  0  0
   -4.6778    2.6181    0.0000 N   0  0  0  0  0  0  0  0  0
   -4.6778    1.7931    0.0000 C   0  0  0  0  0  0  0  0  0
   -3.9633    1.3806    0.0000 N   0  0  0  0  0  0  0  0  0
   -3.2489    1.7931    0.0000 C   0  0  0  0  0  0  0  0  0
   -2.5344    1.3806    0.0000 C   0  0  0  0  0  0  0  0  0
   -2.5344    0.5556    0.0000 N   0  0  0  0  0  0  0  0  0
   -3.2489    0.1431    0.0000 C   0  0  0  0  0  0  0  0  0
   -3.9633    0.5556    0.0000 C   0  0  0  0  0  0  0  0  0
   -1.8199    0.1431    0.0000 C   0  0  0  0  0  0  0  0  0
   -1.1054    0.5556    0.0000 C   0  0  0  0  0  0  0  0  0
   -0.3910    0.1431    0.0000 C   0  0  0  0  0  0  0  0  0
    0.3235    0.5556    0.0000 C   0  0  0  0  0  0  0  0  0
    1.0380    0.1431    0.0000 N   0  0  0  0  0  0  0  0  0
    1.7524    0.5556    0.0000 C   0  0  0  0  0  0  0  0  0
    2.4669    0.1431    0.0000 C   0  0  0  0  0  0  0  0  0
    2.4669   -0.6819    0.0000 C   0  0  0  0  0  0  0  0  0
    1.7524   -1.0944    0.0000 C   0  0  0  0  0  0  0  0  0
    1.0380   -0.6819    0.0000 C   0  0  0  0  0  0  0  0  0
    0.3235   -1.0944    0.0000 O   0  0  0  0  0  0  0  0  0
    3.1814   -1.0944    0.0000 C   0  0  0  0  0  0  0  0  0
   -5.3923    1.3806    0.0000 C   0  0  0  0  0  0  0  0  0
   -5.3923    3.8556    0.0000 C   0  0  0  0  0  0  0  0  0
   -5.3923    4.6806    0.0000 C   0  0  0  0  0  0  0  0  0
   -4.5673    3.8556    0.0000 C   0  0  0  0  0  0  0  0  0
   -6.2173    3.8556    0.0000 C   0  0  0  0  0  0  0  0  0
  1  2  1  0  0  0  0
  2  3  1  0  0  0  0
  2  4  1  0  0  0  0
  2  5  1  0  0  0  0
  5  6  4  0  0  0  0
  5 28  4  0  0  0  0
  6  7  4  0  0  0  0
  7  8  4  0  0  0  0
  7 29  1  0  0  0  0
  8  9  4  0  0  0  0
  9 10  1  0  0  0  0
  9 28  4  0  0  0  0
 10 11  1  0  0  0  0
 10 15  1  0  0  0  0
 11 12  1  0  0  0  0
 12 13  1  0  0  0  0
 13 14  1  0  0  0  0
 13 16  1  0  0  0  0
 14 15  1  0  0  0  0
 16 17  1  0  0  0  0
 17 18  1  0  0  0  0
 18 19  1  0  0  0  0
 19 20  1  0  0  0  0
 20 21  1  0  0  0  0
 20 25  1  0  0  0  0
 21 22  2  0  0  0  0
 22 23  1  0  0  0  0
 23 24  2  0  0  0  0
 23 27  1  0  0  0  0
 24 25  1  0  0  0  0
 25 26  2  0  0  0  0
 29 30  1  0  0  0  0
 29 31  1  0  0  0  0
 29 32  1  0  0  0  0
M  END
>  <Name_Molregno>
344157

>  <DOPAMINE D2>
7.2

>  <DOPAMINE D3>
9.1

$$$$
344172
  Marvin  02231216192D 0   1.00000     0.00000     0

 32 34  0  0  0  0  0  0  0  0999 V2000
  -11.4184    0.2809    0.0000 Cl  0  0  0  0  0  0  0  0  0
  -10.7040    0.6934    0.0000 C   0  0  0  0  0  0  0  0  0
  -10.7040    1.5184    0.0000 C   0  0  0  0  0  0  0  0  0
   -9.9895    1.9309    0.0000 C   0  0  0  0  0  0  0  0  0
   -9.2750    1.5184    0.0000 C   0  0  0  0  0  0  0  0  0
   -8.5605    1.9309    0.0000 O   0  0  0  0  0  0  0  0  0
   -9.2750    0.6934    0.0000 N   0  0  0  0  0  0  0  0  0
   -9.9895    0.2809    0.0000 C   0  0  0  0  0  0  0  0  0
   -8.5605    0.2809    0.0000 C   0  0  0  0  0  0  0  0  0
   -7.8461    0.6934    0.0000 C   0  0  0  0  0  0  0  0  0
   -7.1316    0.2809    0.0000 C   0  0  0  0  0  0  0  0  0
   -6.4171    0.6934    0.0000 C   0  0  0  0  0  0  0  0  0
   -5.7027    0.2809    0.0000 N   0  0  0  0  0  0  0  0  0
   -4.9882    0.6934    0.0000 C   0  0  0  0  0  0  0  0  0
   -4.2737    0.2809    0.0000 C   0  0  0  0  0  0  0  0  0
   -4.2737   -0.5441    0.0000 N   0  0  0  0  0  0  0  0  0
   -4.9882   -0.9566    0.0000 C   0  0  0  0  0  0  0  0  0
   -5.7027   -0.5441    0.0000 C   0  0  0  0  0  0  0  0  0
   -3.5592   -0.9566    0.0000 C   0  0  0  0  0  0  0  0  0
   -2.8448   -0.5441    0.0000 N   0  0  0  0  0  0  0  0  0
   -2.1303   -0.9566    0.0000 C   0  0  0  0  0  0  0  0  0
   -2.1303   -1.7816    0.0000 N   0  0  0  0  0  0  0  0  0
   -2.8448   -2.1941    0.0000 C   0  0  0  0  0  0  0  0  0
   -3.5592   -1.7816    0.0000 C   0  0  0  0  0  0  0  0  0
   -2.8448   -3.0191    0.0000 C   0  0  0  0  0  0  0  0  0
   -2.8448   -3.8441    0.0000 F   0  0  0  0  0  0  0  0  0
   -3.6698   -3.0191    0.0000 F   0  0  0  0  0  0  0  0  0
   -2.0198   -3.0191    0.0000 F   0  0  0  0  0  0  0  0  0
   -1.4158   -0.5441    0.0000 C   0  0  0  0  0  0  0  0  0
   -0.7014   -0.1316    0.0000 C   0  0  0  0  0  0  0  0  0
   -1.0033   -1.2585    0.0000 C   0  0  0  0  0  0  0  0  0
   -1.8283    0.1704    0.0000 C   0  0  0  0  0  0  0  0  0
  1  2  1  0  0  0  0
  2  3  1  0  0  0  0
  2  8  2  0  0  0  0
  3  4  2  0  0  0  0
  4  5  1  0  0  0  0
  5  6  2  0  0  0  0
  5  7  1  0  0  0  0
  7  8  1  0  0  0  0
  7  9  1  0  0  0  0
  9 10  1  0  0  0  0
 10 11  1  0  0  0  0
 11 12  1  0  0  0  0
 12 13  1  0  0  0  0
 13 14  1  0  0  0  0
 13 18  1  0  0  0  0
 14 15  1  0  0  0  0
 15 16  1  0  0  0  0
 16 17  1  0  0  0  0
 16 19  1  0  0  0  0
 17 18  1  0  0  0  0
 19 20  4  0  0  0  0
 19 24  4  0  0  0  0
 20 21  4  0  0  0  0
 21 22  4  0  0  0  0
 21 29  1  0  0  0  0
 22 23  4  0  0  0  0
 23 24  4  0  0  0  0
 23 25  1  0  0  0  0
 25 26  1  0  0  0  0
 25 27  1  0  0  0  0
 25 28  1  0  0  0  0
 29 30  1  0  0  0  0
 29 31  1  0  0  0  0
 29 32  1  0  0  0  0
M  END
>  <Name_Molregno>
344172

>  <DOPAMINE D2>
6.89

>  <DOPAMINE D3>
7.49

$$$$
344371
  Marvin  02231216192D 0   1.00000     0.00000     0

 27 29  0  0  0  0  0  0  0  0999 V2000
   -8.3424    3.5017    0.0000 O   0  0  0  0  0  0  0  0  0
   -9.0569    3.9142    0.0000 C   0  0  0  0  0  0  0  0  0
   -8.3424    2.6767    0.0000 C   0  0  0  0  0  0  0  0  0
   -7.6279    2.2642    0.0000 C   0  0  0  0  0  0  0  0  0
   -7.6279    1.4392    0.0000 C   0  0  0  0  0  0  0  0  0
   -6.9134    1.0267    0.0000 N   0  0  0  0  0  0  0  0  0
   -6.1990    1.4392    0.0000 C   0  0  0  0  0  0  0  0  0
   -5.4845    1.0267    0.0000 C   0  0  0  0  0  0  0  0  0
   -5.4845    0.2017    0.0000 N   0  0  0  0  0  0  0  0  0
   -6.1990   -0.2108    0.0000 C   0  0  0  0  0  0  0  0  0
   -6.9134    0.2017    0.0000 C   0  0  0  0  0  0  0  0  0
   -4.7700   -0.2108    0.0000 C   0  0  0  0  0  0  0  0  0
   -4.0556    0.2017    0.0000 C   0  0  0  0  0  0  0  0  0
   -3.3411   -0.2108    0.0000 C   0  0  0  0  0  0  0  0  0
   -2.6266    0.2017    0.0000 C   0  0  0  0  0  0  0  0  0
   -1.9121   -0.2108    0.0000 N   0  0  0  0  0  0  0  0  0
   -1.1977    0.2017    0.0000 N   0  0  0  0  0  0  0  0  0
   -0.4832   -0.2108    0.0000 C   0  0  0  0  0  0  0  0  0
   -0.4832   -1.0358    0.0000 C   0  0  0  0  0  0  0  0  0
    0.2313   -1.4483    0.0000 O   0  0  0  0  0  0  0  0  0
   -1.1977   -1.4483    0.0000 N   0  0  0  0  0  0  0  0  0
   -1.1977   -2.2733    0.0000 C   0  0  0  0  0  0  0  0  0
   -1.9121   -1.0358    0.0000 C   0  0  0  0  0  0  0  0  0
   -2.6266   -1.4483    0.0000 O   0  0  0  0  0  0  0  0  0
   -8.3424    1.0267    0.0000 C   0  0  0  0  0  0  0  0  0
   -9.0569    1.4392    0.0000 C   0  0  0  0  0  0  0  0  0
   -9.0569    2.2642    0.0000 C   0  0  0  0  0  0  0  0  0
  1  2  1  0  0  0  0
  1  3  1  0  0  0  0
  3  4  4  0  0  0  0
  3 27  4  0  0  0  0
  4  5  4  0  0  0  0
  5  6  1  0  0  0  0
  5 25  4  0  0  0  0
  6  7  1  0  0  0  0
  6 11  1  0  0  0  0
  7  8  1  0  0  0  0
  8  9  1  0  0  0  0
  9 10  1  0  0  0  0
  9 12  1  0  0  0  0
 10 11  1  0  0  0  0
 12 13  1  0  0  0  0
 13 14  1  0  0  0  0
 14 15  1  0  0  0  0
 15 16  1  0  0  0  0
 16 17  1  0  0  0  0
 16 23  1  0  0  0  0
 17 18  2  0  0  0  0
 18 19  1  0  0  0  0
 19 20  2  0  0  0  0
 19 21  1  0  0  0  0
 21 22  1  0  0  0  0
 21 23  1  0  0  0  0
 23 24  2  0  0  0  0
 25 26  4  0  0  0  0
 26 27  4  0  0  0  0
M  END
>  <Name_Molregno>
344371

>  <5-HT1A>
8.96

>  <5-HT1B>
6.64

>  <5-HT1E>
5

>  <5-HT2A>
5.68

>  <5-HT3>
5

>  <5-HT5>
5

>  <5-HT6>
5

>  <5-HT7>
6.48

>  <Alpha-1A>
6.38

>  <Alpha-1B>
6.42

>  <Alpha-2A>
6.6

>  <Alpha-2C>
6.96

>  <DOPAMINE D2>
5.59

>  <DOPAMINE D3>
5

>  <DOPAMINE D4>
5

>  <DOPAMINE D5>
5

>  <Dopamine transporter>
5

>  <HISTAMINE H1>
6.08

>  <HISTAMINE H2>
5.67

>  <HISTAMINE H3>
5

>  <HISTAMINE H4>
5

>  <Norepinephrine transporter>
5

>  <Serotonin transporter>
5

$$$$
348204
  Marvin  02231216192D 0   1.00000     0.00000     0

 28 31  0  0  1  0  0  0  0  0999 V2000
   10.2950   -1.6307    0.0000 Cl  0  0  0  0  0  0  0  0  0
    9.4759   -1.5325    0.0000 C   0  0  0  0  0  0  0  0  0
    8.9812   -2.1928    0.0000 C   0  0  0  0  0  0  0  0  0
    8.1621   -2.0945    0.0000 C   0  0  0  0  0  0  0  0  0
    7.8376   -1.3360    0.0000 C   0  0  0  0  0  0  0  0  0
    8.3323   -0.6758    0.0000 C   0  0  0  0  0  0  0  0  0
    9.1514   -0.7740    0.0000 C   0  0  0  0  0  0  0  0  0
    7.0185   -1.2378    0.0000 C   0  0  0  0  0  0  0  0  0
    6.6925   -1.9956    0.0000 O   0  0  0  0  0  0  0  0  0
    6.8803   -0.4204    0.0000 C   0  0  0  0  0  0  0  0  0
    5.9515   -0.4359    0.0000 C   0  0  0  0  0  0  0  0  0
    5.3909    0.0040    0.0000 N   0  0  0  0  0  0  0  0  0
    5.5306   -0.8091    0.0000 C   0  0  0  0  0  0  0  0  0
    6.5023   -0.8091    0.0000 C   0  0  0  0  0  0  0  0  0
    5.0107   -1.5214    0.0000 C   0  0  0  0  0  0  0  0  0
    5.6310   -1.1445    0.0000 C   0  0  0  0  0  0  0  0  0
    4.9683    0.7126    0.0000 C   0  0  0  0  0  0  0  0  0
    4.1434    0.7008    0.0000 C   0  0  0  0  0  0  0  0  0
    3.7208    1.4094    0.0000 C   0  0  0  0  0  0  0  0  0
    2.8958    1.3977    0.0000 C   0  0  0  0  0  0  0  0  0
    2.4935    0.6774    0.0000 O   0  0  0  0  0  0  0  0  0
    2.4732    2.1062    0.0000 C   0  0  0  0  0  0  0  0  0
    1.6483    2.0945    0.0000 C   0  0  0  0  0  0  0  0  0
    1.2257    2.8030    0.0000 C   0  0  0  0  0  0  0  0  0
    1.6280    3.5233    0.0000 C   0  0  0  0  0  0  0  0  0
    1.2054    4.2318    0.0000 F   0  0  0  0  0  0  0  0  0
    2.4529    3.5350    0.0000 C   0  0  0  0  0  0  0  0  0
    2.8755    2.8265    0.0000 C   0  0  0  0  0  0  0  0  0
  1  2  1  0  0  0  0
  2  3  4  0  0  0  0
  2  7  4  0  0  0  0
  3  4  4  0  0  0  0
  4  5  4  0  0  0  0
  5  6  4  0  0  0  0
  5  8  1  0  0  0  0
  6  7  4  0  0  0  0
  8  9  1  0  0  0  0
  8 10  1  0  0  0  0
  8 14  1  0  0  0  0
 10 11  1  0  0  0  0
 11 12  1  0  0  0  0
 11 16  1  0  0  0  0
 12 13  1  0  0  0  0
 12 17  1  0  0  0  0
 13 14  1  0  0  0  0
 13 15  1  0  0  0  0
 15 16  1  0  0  0  0
 17 18  1  0  0  0  0
 18 19  1  0  0  0  0
 19 20  1  0  0  0  0
 20 21  2  0  0  0  0
 20 22  1  0  0  0  0
 22 23  4  0  0  0  0
 22 28  4  0  0  0  0
 23 24  4  0  0  0  0
 24 25  4  0  0  0  0
 25 26  1  0  0  0  0
 25 27  4  0  0  0  0
 27 28  4  0  0  0  0
M  END
>  <Name_Molregno>
348204

>  <5-HT1A>
7.56

>  <5-HT2A>
7.51

>  <5-HT2C>
6.06

>  <Alpha-1A>
7.41

>  <Alpha-1B>
7.37

>  <Alpha-2A>
5.55

>  <Alpha-2B>
6.29

>  <Alpha-2C>
6.85

>  <DOPAMINE D2>
8.8

>  <DOPAMINE D3>
8.29

>  <DOPAMINE D4>
8.28

>  <HISTAMINE H1>
5.06

$$$$
349093
  Marvin  02231216192D 0   1.00000     0.00000     0

 37 41  0  0  0  0  0  0  0  0999 V2000
  -10.5423   -1.1396    0.0000 O   0  0  0  0  0  0  0  0  0
  -11.1256   -1.7229    0.0000 C   0  0  0  0  0  0  0  0  0
  -10.7558   -0.3427    0.0000 C   0  0  0  0  0  0  0  0  0
  -11.5527   -0.1292    0.0000 C   0  0  0  0  0  0  0  0  0
  -11.7662    0.6677    0.0000 C   0  0  0  0  0  0  0  0  0
  -11.1828    1.2511    0.0000 C   0  0  0  0  0  0  0  0  0
  -10.3859    1.0376    0.0000 C   0  0  0  0  0  0  0  0  0
  -10.1724    0.2407    0.0000 C   0  0  0  0  0  0  0  0  0
   -9.3755    0.0271    0.0000 N   0  0  0  0  0  0  0  0  0
   -8.7922    0.6105    0.0000 C   0  0  0  0  0  0  0  0  0
   -7.9953    0.3970    0.0000 C   0  0  0  0  0  0  0  0  0
   -7.7818   -0.3999    0.0000 N   0  0  0  0  0  0  0  0  0
   -8.3651   -0.9833    0.0000 C   0  0  0  0  0  0  0  0  0
   -9.1620   -0.7697    0.0000 C   0  0  0  0  0  0  0  0  0
   -6.9849   -0.6134    0.0000 C   0  0  0  0  0  0  0  0  0
   -6.4015   -0.0301    0.0000 C   0  0  0  0  0  0  0  0  0
   -5.6046   -0.2436    0.0000 C   0  0  0  0  0  0  0  0  0
   -5.0213    0.3398    0.0000 C   0  0  0  0  0  0  0  0  0
   -4.2244    0.1262    0.0000 N   0  0  0  0  0  0  0  0  0
   -3.6410    0.7096    0.0000 C   0  0  0  0  0  0  0  0  0
   -3.8545    1.5065    0.0000 O   0  0  0  0  0  0  0  0  0
   -2.8441    0.4961    0.0000 C   0  0  0  0  0  0  0  0  0
   -2.4316    1.2105    0.0000 C   0  0  0  0  0  0  0  0  0
   -1.7171    1.6230    0.0000 C   0  0  0  0  0  0  0  0  0
   -0.8921    1.6230    0.0000 C   0  0  0  0  0  0  0  0  0
   -0.1777    1.2105    0.0000 C   0  0  0  0  0  0  0  0  0
    0.2348    0.4961    0.0000 C   0  0  0  0  0  0  0  0  0
    0.2348   -0.3289    0.0000 C   0  0  0  0  0  0  0  0  0
   -0.1777   -1.0434    0.0000 C   0  0  0  0  0  0  0  0  0
   -0.8921   -1.4559    0.0000 C   0  0  0  0  0  0  0  0  0
   -1.7171   -1.4559    0.0000 C   0  0  0  0  0  0  0  0  0
   -2.4316   -1.0434    0.0000 C   0  0  0  0  0  0  0  0  0
   -2.8441   -0.3289    0.0000 C   0  0  0  0  0  0  0  0  0
   -2.2438   -0.2921    0.0000 C   0  0  0  0  0  0  0  0  0
   -2.2438    0.4592    0.0000 C   0  0  0  0  0  0  0  0  0
   -0.3655   -0.2921    0.0000 C   0  0  0  0  0  0  0  0  0
   -0.3655    0.4592    0.0000 C   0  0  0  0  0  0  0  0  0
  1  2  1  0  0  0  0
  1  3  1  0  0  0  0
  3  4  4  0  0  0  0
  3  8  4  0  0  0  0
  4  5  4  0  0  0  0
  5  6  4  0  0  0  0
  6  7  4  0  0  0  0
  7  8  4  0  0  0  0
  8  9  1  0  0  0  0
  9 10  1  0  0  0  0
  9 14  1  0  0  0  0
 10 11  1  0  0  0  0
 11 12  1  0  0  0  0
 12 13  1  0  0  0  0
 12 15  1  0  0  0  0
 13 14  1  0  0  0  0
 15 16  1  0  0  0  0
 16 17  1  0  0  0  0
 17 18  1  0  0  0  0
 18 19  1  0  0  0  0
 19 20  1  0  0  0  0
 20 21  2  0  0  0  0
 20 22  1  0  0  0  0
 22 23  4  0  0  0  0
 22 33  4  0  0  0  0
 23 24  1  0  0  0  0
 23 35  4  0  0  0  0
 24 25  1  0  0  0  0
 25 26  1  0  0  0  0
 26 27  4  0  0  0  0
 26 37  4  0  0  0  0
 27 28  4  0  0  0  0
 28 29  4  0  0  0  0
 29 30  1  0  0  0  0
 29 36  4  0  0  0  0
 30 31  1  0  0  0  0
 31 32  1  0  0  0  0
 32 33  4  0  0  0  0
 32 34  4  0  0  0  0
 34 35  4  0  0  0  0
 36 37  4  0  0  0  0
M  END
>  <Name_Molregno>
349093

>  <5-HT1A>
7.42

>  <DOPAMINE D1>
6.24

>  <DOPAMINE D2>
7.98

>  <DOPAMINE D3>
9.12

>  <DOPAMINE D4>
8.15

$$$$
349190
  Marvin  02231216192D 0   1.00000     0.00000     0

 26 29  0  0  0  0  0  0  0  0999 V2000
   -5.5675    0.2994    0.0000 O   0  0  0  0  0  0  0  0  0
   -6.2820   -0.1131    0.0000 C   0  0  0  0  0  0  0  0  0
   -5.5675    1.1244    0.0000 C   0  0  0  0  0  0  0  0  0
   -6.2820    1.5369    0.0000 C   0  0  0  0  0  0  0  0  0
   -6.2820    2.3619    0.0000 C   0  0  0  0  0  0  0  0  0
   -5.5675    2.7744    0.0000 C   0  0  0  0  0  0  0  0  0
   -4.8531    2.3619    0.0000 C   0  0  0  0  0  0  0  0  0
   -4.8531    1.5369    0.0000 C   0  0  0  0  0  0  0  0  0
   -4.1386    1.1244    0.0000 N   0  0  0  0  0  0  0  0  0
   -3.4241    1.5369    0.0000 C   0  0  0  0  0  0  0  0  0
   -2.7096    1.1244    0.0000 C   0  0  0  0  0  0  0  0  0
   -2.7096    0.2994    0.0000 N   0  0  0  0  0  0  0  0  0
   -3.4241   -0.1131    0.0000 C   0  0  0  0  0  0  0  0  0
   -4.1386    0.2994    0.0000 C   0  0  0  0  0  0  0  0  0
   -1.9952   -0.1131    0.0000 C   0  0  0  0  0  0  0  0  0
   -1.9952   -0.9381    0.0000 C   0  0  0  0  0  0  0  0  0
   -1.3277   -1.4230    0.0000 C   0  0  0  0  0  0  0  0  0
   -1.5827   -2.2076    0.0000 N   0  0  0  0  0  0  0  0  0
   -2.4077   -2.2076    0.0000 N   0  0  0  0  0  0  0  0  0
   -2.6626   -1.4230    0.0000 C   0  0  0  0  0  0  0  0  0
   -1.0977   -2.8751    0.0000 C   0  0  0  0  0  0  0  0  0
   -0.2773   -2.7888    0.0000 C   0  0  0  0  0  0  0  0  0
    0.2077   -3.4563    0.0000 C   0  0  0  0  0  0  0  0  0
   -0.1279   -4.2099    0.0000 C   0  0  0  0  0  0  0  0  0
   -0.9484   -4.2962    0.0000 C   0  0  0  0  0  0  0  0  0
   -1.4333   -3.6287    0.0000 C   0  0  0  0  0  0  0  0  0
  1  2  1  0  0  0  0
  1  3  1  0  0  0  0
  3  4  4  0  0  0  0
  3  8  4  0  0  0  0
  4  5  4  0  0  0  0
  5  6  4  0  0  0  0
  6  7  4  0  0  0  0
  7  8  4  0  0  0  0
  8  9  1  0  0  0  0
  9 10  1  0  0  0  0
  9 14  1  0  0  0  0
 10 11  1  0  0  0  0
 11 12  1  0  0  0  0
 12 13  1  0  0  0  0
 12 15  1  0  0  0  0
 13 14  1  0  0  0  0
 15 16  1  0  0  0  0
 16 17  4  0  0  0  0
 16 20  4  0  0  0  0
 17 18  4  0  0  0  0
 18 19  4  0  0  0  0
 18 21  1  0  0  0  0
 19 20  4  0  0  0  0
 21 22  4  0  0  0  0
 21 26  4  0  0  0  0
 22 23  4  0  0  0  0
 23 24  4  0  0  0  0
 24 25  4  0  0  0  0
 25 26  4  0  0  0  0
M  END
>  <Name_Molregno>
349190

>  <DOPAMINE D2>
8.03

>  <DOPAMINE D3>
7.46

>  <DOPAMINE D4>
9.55

$$$$
349191
  Marvin  02231216192D 0   1.00000     0.00000     0

 25 28  0  0  0  0  0  0  0  0999 V2000
   -1.0353   -0.8203    0.0000 N   0  0  0  0  0  0  0  0  0
   -1.2902   -1.6049    0.0000 N   0  0  0  0  0  0  0  0  0
   -2.1152   -1.6049    0.0000 C   0  0  0  0  0  0  0  0  0
   -2.3702   -0.8203    0.0000 C   0  0  0  0  0  0  0  0  0
   -3.1548   -0.5654    0.0000 C   0  0  0  0  0  0  0  0  0
   -3.3263    0.2416    0.0000 N   0  0  0  0  0  0  0  0  0
   -4.1109    0.4965    0.0000 C   0  0  0  0  0  0  0  0  0
   -4.2825    1.3035    0.0000 C   0  0  0  0  0  0  0  0  0
   -3.6694    1.8556    0.0000 N   0  0  0  0  0  0  0  0  0
   -2.8848    1.6006    0.0000 C   0  0  0  0  0  0  0  0  0
   -2.7132    0.7936    0.0000 C   0  0  0  0  0  0  0  0  0
   -3.8409    2.6625    0.0000 C   0  0  0  0  0  0  0  0  0
   -4.6255    2.9175    0.0000 C   0  0  0  0  0  0  0  0  0
   -4.7971    3.7244    0.0000 C   0  0  0  0  0  0  0  0  0
   -4.1840    4.2765    0.0000 C   0  0  0  0  0  0  0  0  0
   -3.3993    4.0215    0.0000 C   0  0  0  0  0  0  0  0  0
   -3.2278    3.2146    0.0000 C   0  0  0  0  0  0  0  0  0
   -1.7027   -0.3354    0.0000 C   0  0  0  0  0  0  0  0  0
   -1.7027    0.4896    0.0000 C   0  0  0  0  0  0  0  0  0
   -0.8053   -2.2724    0.0000 C   0  0  0  0  0  0  0  0  0
    0.0152   -2.1861    0.0000 C   0  0  0  0  0  0  0  0  0
    0.5001   -2.8536    0.0000 C   0  0  0  0  0  0  0  0  0
    0.1645   -3.6072    0.0000 C   0  0  0  0  0  0  0  0  0
   -0.6559   -3.6935    0.0000 C   0  0  0  0  0  0  0  0  0
   -1.1409   -3.0260    0.0000 C   0  0  0  0  0  0  0  0  0
  1  2  4  0  0  0  0
  1 18  4  0  0  0  0
  2  3  4  0  0  0  0
  2 20  1  0  0  0  0
  3  4  4  0  0  0  0
  4  5  1  0  0  0  0
  4 18  4  0  0  0  0
  5  6  1  0  0  0  0
  6  7  1  0  0  0  0
  6 11  1  0  0  0  0
  7  8  1  0  0  0  0
  8  9  1  0  0  0  0
  9 10  1  0  0  0  0
  9 12  1  0  0  0  0
 10 11  1  0  0  0  0
 12 13  4  0  0  0  0
 12 17  4  0  0  0  0
 13 14  4  0  0  0  0
 14 15  4  0  0  0  0
 15 16  4  0  0  0  0
 16 17  4  0  0  0  0
 18 19  1  0  0  0  0
 20 21  4  0  0  0  0
 20 25  4  0  0  0  0
 21 22  4  0  0  0  0
 22 23  4  0  0  0  0
 23 24  4  0  0  0  0
 24 25  4  0  0  0  0
M  END
>  <Name_Molregno>
349191

>  <DOPAMINE D2>
7.22

>  <DOPAMINE D3>
6.44

>  <DOPAMINE D4>
9

$$$$
349222
  Marvin  02231216192D 0   1.00000     0.00000     0

 24 27  0  0  0  0  0  0  0  0999 V2000
    0.7533    1.9224    0.0000 N   0  0  0  0  0  0  0  0  0
    0.0388    2.3349    0.0000 C   0  0  0  0  0  0  0  0  0
    0.0388    3.1599    0.0000 C   0  0  0  0  0  0  0  0  0
    0.7533    3.5724    0.0000 C   0  0  0  0  0  0  0  0  0
    1.4678    3.1599    0.0000 N   0  0  0  0  0  0  0  0  0
    1.4678    2.3349    0.0000 C   0  0  0  0  0  0  0  0  0
    2.1822    1.9224    0.0000 N   0  0  0  0  0  0  0  0  0
    2.8967    2.3349    0.0000 C   0  0  0  0  0  0  0  0  0
    3.6112    1.9224    0.0000 C   0  0  0  0  0  0  0  0  0
    3.6112    1.0974    0.0000 N   0  0  0  0  0  0  0  0  0
    2.8967    0.6849    0.0000 C   0  0  0  0  0  0  0  0  0
    2.1822    1.0974    0.0000 C   0  0  0  0  0  0  0  0  0
    4.3257    0.6849    0.0000 C   0  0  0  0  0  0  0  0  0
    4.3257   -0.1401    0.0000 C   0  0  0  0  0  0  0  0  0
    4.9931   -0.6250    0.0000 C   0  0  0  0  0  0  0  0  0
    4.7382   -1.4097    0.0000 N   0  0  0  0  0  0  0  0  0
    3.9132   -1.4097    0.0000 N   0  0  0  0  0  0  0  0  0
    3.6582   -0.6250    0.0000 C   0  0  0  0  0  0  0  0  0
    5.2231   -2.0771    0.0000 C   0  0  0  0  0  0  0  0  0
    6.0436   -1.9909    0.0000 C   0  0  0  0  0  0  0  0  0
    6.5285   -2.6583    0.0000 C   0  0  0  0  0  0  0  0  0
    6.1929   -3.4120    0.0000 C   0  0  0  0  0  0  0  0  0
    5.3724   -3.4982    0.0000 C   0  0  0  0  0  0  0  0  0
    4.8875   -2.8308    0.0000 C   0  0  0  0  0  0  0  0  0
  1  2  4  0  0  0  0
  1  6  4  0  0  0  0
  2  3  4  0  0  0  0
  3  4  4  0  0  0  0
  4  5  4  0  0  0  0
  5  6  4  0  0  0  0
  6  7  1  0  0  0  0
  7  8  1  0  0  0  0
  7 12  1  0  0  0  0
  8  9  1  0  0  0  0
  9 10  1  0  0  0  0
 10 11  1  0  0  0  0
 10 13  1  0  0  0  0
 11 12  1  0  0  0  0
 13 14  1  0  0  0  0
 14 15  4  0  0  0  0
 14 18  4  0  0  0  0
 15 16  4  0  0  0  0
 16 17  4  0  0  0  0
 16 19  1  0  0  0  0
 17 18  4  0  0  0  0
 19 20  4  0  0  0  0
 19 24  4  0  0  0  0
 20 21  4  0  0  0  0
 21 22  4  0  0  0  0
 22 23  4  0  0  0  0
 23 24  4  0  0  0  0
M  END
>  <Name_Molregno>
349222

>  <DOPAMINE D2>
5.03

>  <DOPAMINE D3>
5.54

>  <DOPAMINE D4>
6.51

$$$$
349223
  Marvin  02231216192D 0   1.00000     0.00000     0

 25 28  0  0  0  0  0  0  0  0999 V2000
    1.1179   -2.1939    0.0000 N   0  0  0  0  0  0  0  0  0
    0.2929   -2.1939    0.0000 N   0  0  0  0  0  0  0  0  0
    0.0379   -1.4093    0.0000 C   0  0  0  0  0  0  0  0  0
   -0.7467   -1.1544    0.0000 C   0  0  0  0  0  0  0  0  0
    0.7054   -0.9244    0.0000 C   0  0  0  0  0  0  0  0  0
    1.3728   -1.4093    0.0000 C   0  0  0  0  0  0  0  0  0
    0.7054   -0.0994    0.0000 C   0  0  0  0  0  0  0  0  0
    1.4198    0.3131    0.0000 N   0  0  0  0  0  0  0  0  0
    1.4198    1.1381    0.0000 C   0  0  0  0  0  0  0  0  0
    2.1343    1.5506    0.0000 C   0  0  0  0  0  0  0  0  0
    2.8488    1.1381    0.0000 N   0  0  0  0  0  0  0  0  0
    2.8488    0.3131    0.0000 C   0  0  0  0  0  0  0  0  0
    2.1343   -0.0994    0.0000 C   0  0  0  0  0  0  0  0  0
    3.5633    1.5506    0.0000 C   0  0  0  0  0  0  0  0  0
    3.5633    2.3756    0.0000 C   0  0  0  0  0  0  0  0  0
    4.2777    2.7881    0.0000 C   0  0  0  0  0  0  0  0  0
    4.9922    2.3756    0.0000 C   0  0  0  0  0  0  0  0  0
    4.9922    1.5506    0.0000 C   0  0  0  0  0  0  0  0  0
    4.2777    1.1381    0.0000 C   0  0  0  0  0  0  0  0  0
   -0.1921   -2.8614    0.0000 C   0  0  0  0  0  0  0  0  0
    0.1435   -3.6150    0.0000 C   0  0  0  0  0  0  0  0  0
   -0.3414   -4.2825    0.0000 C   0  0  0  0  0  0  0  0  0
   -1.1619   -4.1962    0.0000 C   0  0  0  0  0  0  0  0  0
   -1.4975   -3.4426    0.0000 C   0  0  0  0  0  0  0  0  0
   -1.0125   -2.7751    0.0000 C   0  0  0  0  0  0  0  0  0
  1  2  4  0  0  0  0
  1  6  4  0  0  0  0
  2  3  4  0  0  0  0
  2 20  1  0  0  0  0
  3  4  1  0  0  0  0
  3  5  4  0  0  0  0
  5  6  4  0  0  0  0
  5  7  1  0  0  0  0
  7  8  1  0  0  0  0
  8  9  1  0  0  0  0
  8 13  1  0  0  0  0
  9 10  1  0  0  0  0
 10 11  1  0  0  0  0
 11 12  1  0  0  0  0
 11 14  1  0  0  0  0
 12 13  1  0  0  0  0
 14 15  4  0  0  0  0
 14 19  4  0  0  0  0
 15 16  4  0  0  0  0
 16 17  4  0  0  0  0
 17 18  4  0  0  0  0
 18 19  4  0  0  0  0
 20 21  4  0  0  0  0
 20 25  4  0  0  0  0
 21 22  4  0  0  0  0
 22 23  4  0  0  0  0
 23 24  4  0  0  0  0
 24 25  4  0  0  0  0
M  END
>  <Name_Molregno>
349223

>  <DOPAMINE D2>
6.33

>  <DOPAMINE D3>
6.49

>  <DOPAMINE D4>
8.28

$$$$
349345
  Marvin  02231216192D 0   1.00000     0.00000     0

 37 41  0  0  0  0  0  0  0  0999 V2000
    1.3466    3.6338    0.0000 Cl  0  0  0  0  0  0  0  0  0
    0.7633    3.0505    0.0000 C   0  0  0  0  0  0  0  0  0
    0.9768    2.2536    0.0000 C   0  0  0  0  0  0  0  0  0
    1.7737    2.0401    0.0000 N   0  0  0  0  0  0  0  0  0
    2.3570    2.6234    0.0000 C   0  0  0  0  0  0  0  0  0
    3.1539    2.4099    0.0000 C   0  0  0  0  0  0  0  0  0
    3.3675    1.6130    0.0000 N   0  0  0  0  0  0  0  0  0
    2.7841    1.0296    0.0000 C   0  0  0  0  0  0  0  0  0
    1.9872    1.2432    0.0000 C   0  0  0  0  0  0  0  0  0
    4.1643    1.3995    0.0000 C   0  0  0  0  0  0  0  0  0
    4.3779    0.6026    0.0000 C   0  0  0  0  0  0  0  0  0
    5.1748    0.3891    0.0000 C   0  0  0  0  0  0  0  0  0
    5.3883   -0.4078    0.0000 C   0  0  0  0  0  0  0  0  0
    6.1852   -0.6213    0.0000 N   0  0  0  0  0  0  0  0  0
    6.3987   -1.4182    0.0000 C   0  0  0  0  0  0  0  0  0
    5.8153   -2.0016    0.0000 O   0  0  0  0  0  0  0  0  0
    7.1956   -1.6318    0.0000 C   0  0  0  0  0  0  0  0  0
    7.6081   -0.9173    0.0000 C   0  0  0  0  0  0  0  0  0
    8.3226   -0.5048    0.0000 C   0  0  0  0  0  0  0  0  0
    9.1476   -0.5048    0.0000 C   0  0  0  0  0  0  0  0  0
    9.8620   -0.9173    0.0000 C   0  0  0  0  0  0  0  0  0
   10.2745   -1.6318    0.0000 C   0  0  0  0  0  0  0  0  0
   10.2745   -2.4568    0.0000 C   0  0  0  0  0  0  0  0  0
    9.8620   -3.1712    0.0000 C   0  0  0  0  0  0  0  0  0
    9.1476   -3.5837    0.0000 C   0  0  0  0  0  0  0  0  0
    8.3226   -3.5837    0.0000 C   0  0  0  0  0  0  0  0  0
    7.6081   -3.1712    0.0000 C   0  0  0  0  0  0  0  0  0
    7.1956   -2.4568    0.0000 C   0  0  0  0  0  0  0  0  0
    7.7959   -2.4199    0.0000 C   0  0  0  0  0  0  0  0  0
    7.7959   -1.6686    0.0000 C   0  0  0  0  0  0  0  0  0
    9.6742   -2.4199    0.0000 C   0  0  0  0  0  0  0  0  0
    9.6742   -1.6686    0.0000 C   0  0  0  0  0  0  0  0  0
    0.3934    1.6702    0.0000 C   0  0  0  0  0  0  0  0  0
   -0.4035    1.8838    0.0000 C   0  0  0  0  0  0  0  0  0
   -0.6170    2.6806    0.0000 C   0  0  0  0  0  0  0  0  0
   -0.0336    3.2640    0.0000 C   0  0  0  0  0  0  0  0  0
   -0.2472    4.0609    0.0000 Cl  0  0  0  0  0  0  0  0  0
  1  2  1  0  0  0  0
  2  3  4  0  0  0  0
  2 36  4  0  0  0  0
  3  4  1  0  0  0  0
  3 33  4  0  0  0  0
  4  5  1  0  0  0  0
  4  9  1  0  0  0  0
  5  6  1  0  0  0  0
  6  7  1  0  0  0  0
  7  8  1  0  0  0  0
  7 10  1  0  0  0  0
  8  9  1  0  0  0  0
 10 11  1  0  0  0  0
 11 12  1  0  0  0  0
 12 13  1  0  0  0  0
 13 14  1  0  0  0  0
 14 15  1  0  0  0  0
 15 16  2  0  0  0  0
 15 17  1  0  0  0  0
 17 18  4  0  0  0  0
 17 28  4  0  0  0  0
 18 19  1  0  0  0  0
 18 30  4  0  0  0  0
 19 20  1  0  0  0  0
 20 21  1  0  0  0  0
 21 22  4  0  0  0  0
 21 32  4  0  0  0  0
 22 23  4  0  0  0  0
 23 24  4  0  0  0  0
 24 25  1  0  0  0  0
 24 31  4  0  0  0  0
 25 26  1  0  0  0  0
 26 27  1  0  0  0  0
 27 28  4  0  0  0  0
 27 29  4  0  0  0  0
 29 30  4  0  0  0  0
 31 32  4  0  0  0  0
 33 34  4  0  0  0  0
 34 35  4  0  0  0  0
 35 36  4  0  0  0  0
 36 37  1  0  0  0  0
M  END
>  <Name_Molregno>
349345

>  <5-HT1A>
6.18

>  <DOPAMINE D1>
5.55

>  <DOPAMINE D2>
6.75

>  <DOPAMINE D3>
8.44

>  <DOPAMINE D4>
6.92

$$$$
349376
  Marvin  02231216192D 0   1.00000     0.00000     0

 41 45  0  0  0  0  0  0  0  0999 V2000
   -2.4600    1.8818    0.0000 O   0  0  0  0  0  0  0  0  0
   -2.7149    1.0971    0.0000 C   0  0  0  0  0  0  0  0  0
   -3.5399    1.0971    0.0000 C   0  0  0  0  0  0  0  0  0
   -3.7949    1.8818    0.0000 C   0  0  0  0  0  0  0  0  0
   -3.1274    2.3667    0.0000 C   0  0  0  0  0  0  0  0  0
   -3.1274    3.1917    0.0000 O   0  0  0  0  0  0  0  0  0
   -3.8419    3.6042    0.0000 C   0  0  0  0  0  0  0  0  0
   -4.5564    3.1917    0.0000 C   0  0  0  0  0  0  0  0  0
   -5.2709    3.6042    0.0000 C   0  0  0  0  0  0  0  0  0
   -5.2709    4.4292    0.0000 C   0  0  0  0  0  0  0  0  0
   -4.5564    4.8417    0.0000 C   0  0  0  0  0  0  0  0  0
   -3.8419    4.4292    0.0000 C   0  0  0  0  0  0  0  0  0
   -3.1274    4.8417    0.0000 C   0  0  0  0  0  0  0  0  0
   -6.0555    4.6841    0.0000 C   0  0  0  0  0  0  0  0  0
   -6.5404    4.0167    0.0000 C   0  0  0  0  0  0  0  0  0
   -6.0555    3.3492    0.0000 C   0  0  0  0  0  0  0  0  0
   -5.8924    2.5405    0.0000 C   0  0  0  0  0  0  0  0  0
   -6.6628    2.7908    0.0000 C   0  0  0  0  0  0  0  0  0
   -2.2300    0.4297    0.0000 C   0  0  0  0  0  0  0  0  0
   -2.5656   -0.3240    0.0000 O   0  0  0  0  0  0  0  0  0
   -1.4095    0.5159    0.0000 N   0  0  0  0  0  0  0  0  0
   -0.9246   -0.1515    0.0000 C   0  0  0  0  0  0  0  0  0
   -0.1041   -0.0653    0.0000 C   0  0  0  0  0  0  0  0  0
    0.2314    0.6884    0.0000 O   0  0  0  0  0  0  0  0  0
    1.0519    0.7746    0.0000 C   0  0  0  0  0  0  0  0  0
    0.3808   -0.7327    0.0000 N   0  0  0  0  0  0  0  0  0
    0.0452   -1.4864    0.0000 C   0  0  0  0  0  0  0  0  0
   -0.7753   -1.5726    0.0000 N   0  0  0  0  0  0  0  0  0
   -1.2602   -0.9052    0.0000 C   0  0  0  0  0  0  0  0  0
   -2.0807   -0.9914    0.0000 O   0  0  0  0  0  0  0  0  0
   -2.4162   -1.7451    0.0000 C   0  0  0  0  0  0  0  0  0
    0.5302   -2.1538    0.0000 N   0  0  0  0  0  0  0  0  0
    1.3506   -2.0676    0.0000 C   0  0  0  0  0  0  0  0  0
    1.8356   -2.7350    0.0000 C   0  0  0  0  0  0  0  0  0
    2.6560   -2.6488    0.0000 C   0  0  0  0  0  0  0  0  0
    3.1410   -3.3162    0.0000 N   0  0  0  0  0  0  0  0  0
    3.9614   -3.2300    0.0000 C   0  0  0  0  0  0  0  0  0
    4.4464   -3.8974    0.0000 C   0  0  0  0  0  0  0  0  0
    4.1108   -4.6511    0.0000 O   0  0  0  0  0  0  0  0  0
    3.2903   -4.7373    0.0000 C   0  0  0  0  0  0  0  0  0
    2.8054   -4.0699    0.0000 C   0  0  0  0  0  0  0  0  0
  1  2  4  0  0  0  0
  1  5  4  0  0  0  0
  2  3  4  0  0  0  0
  2 19  1  0  0  0  0
  3  4  4  0  0  0  0
  4  5  4  0  0  0  0
  5  6  1  0  0  0  0
  6  7  1  0  0  0  0
  7  8  4  0  0  0  0
  7 12  4  0  0  0  0
  8  9  4  0  0  0  0
  9 10  4  0  0  0  0
  9 16  1  0  0  0  0
 10 11  4  0  0  0  0
 10 14  1  0  0  0  0
 11 12  4  0  0  0  0
 12 13  1  0  0  0  0
 14 15  1  0  0  0  0
 15 16  1  0  0  0  0
 16 17  1  0  0  0  0
 16 18  1  0  0  0  0
 19 20  2  0  0  0  0
 19 21  1  0  0  0  0
 21 22  1  0  0  0  0
 22 23  4  0  0  0  0
 22 29  4  0  0  0  0
 23 24  1  0  0  0  0
 23 26  4  0  0  0  0
 24 25  1  0  0  0  0
 26 27  4  0  0  0  0
 27 28  4  0  0  0  0
 27 32  1  0  0  0  0
 28 29  4  0  0  0  0
 29 30  1  0  0  0  0
 30 31  1  0  0  0  0
 32 33  1  0  0  0  0
 33 34  1  0  0  0  0
 34 35  1  0  0  0  0
 35 36  1  0  0  0  0
 36 37  1  0  0  0  0
 36 41  1  0  0  0  0
 37 38  1  0  0  0  0
 38 39  1  0  0  0  0
 39 40  1  0  0  0  0
 40 41  1  0  0  0  0
M  END
>  <Name_Molregno>
349376

>  <5-HT2A>
6.23

>  <5-HT2C>
6.02

>  <5-HT7>
5.76

>  <DOPAMINE D1>
5.79

>  <DOPAMINE D3>
5.93

>  <DOPAMINE D4>
5.6

>  <Dopamine transporter>
5.74

>  <HISTAMINE H2>
5.91

>  <Muscarinic acetylcholine receptor M1>
5.39

>  <Muscarinic acetylcholine receptor M4>
5.43

>  <Norepinephrine transporter>
5.29

>  <Serotonin transporter>
5.84

$$$$
349377
  Marvin  02231216192D 0   1.00000     0.00000     0

 38 42  0  0  0  0  0  0  0  0999 V2000
   -0.1995   -1.5097    0.0000 Cl  0  0  0  0  0  0  0  0  0
    0.3839   -0.9263    0.0000 C   0  0  0  0  0  0  0  0  0
    0.1704   -0.1294    0.0000 C   0  0  0  0  0  0  0  0  0
    0.7537    0.4539    0.0000 C   0  0  0  0  0  0  0  0  0
    1.5506    0.2404    0.0000 C   0  0  0  0  0  0  0  0  0
    1.7642   -0.5565    0.0000 C   0  0  0  0  0  0  0  0  0
    2.5610   -0.7700    0.0000 N   0  0  0  0  0  0  0  0  0
    3.1444   -0.1867    0.0000 C   0  0  0  0  0  0  0  0  0
    3.9413   -0.4002    0.0000 C   0  0  0  0  0  0  0  0  0
    4.1548   -1.1971    0.0000 N   0  0  0  0  0  0  0  0  0
    3.5715   -1.7804    0.0000 C   0  0  0  0  0  0  0  0  0
    2.7746   -1.5669    0.0000 C   0  0  0  0  0  0  0  0  0
    4.9517   -1.4106    0.0000 C   0  0  0  0  0  0  0  0  0
    5.5351   -0.8272    0.0000 C   0  0  0  0  0  0  0  0  0
    6.3320   -1.0408    0.0000 C   0  0  0  0  0  0  0  0  0
    6.9153   -0.4574    0.0000 C   0  0  0  0  0  0  0  0  0
    7.7122   -0.6709    0.0000 N   0  0  0  0  0  0  0  0  0
    8.2956   -0.0876    0.0000 C   0  0  0  0  0  0  0  0  0
    8.0821    0.7093    0.0000 O   0  0  0  0  0  0  0  0  0
    9.0925   -0.3011    0.0000 C   0  0  0  0  0  0  0  0  0
    9.5050    0.4134    0.0000 C   0  0  0  0  0  0  0  0  0
   10.2194    0.8259    0.0000 C   0  0  0  0  0  0  0  0  0
   11.0444    0.8259    0.0000 C   0  0  0  0  0  0  0  0  0
   11.7589    0.4134    0.0000 C   0  0  0  0  0  0  0  0  0
   12.1714   -0.3011    0.0000 C   0  0  0  0  0  0  0  0  0
   12.1714   -1.1261    0.0000 C   0  0  0  0  0  0  0  0  0
   11.7589   -1.8406    0.0000 C   0  0  0  0  0  0  0  0  0
   11.0444   -2.2531    0.0000 C   0  0  0  0  0  0  0  0  0
   10.2194   -2.2531    0.0000 C   0  0  0  0  0  0  0  0  0
    9.5050   -1.8406    0.0000 C   0  0  0  0  0  0  0  0  0
    9.0925   -1.1261    0.0000 C   0  0  0  0  0  0  0  0  0
    9.6928   -1.0892    0.0000 C   0  0  0  0  0  0  0  0  0
    9.6928   -0.3379    0.0000 C   0  0  0  0  0  0  0  0  0
   11.5711   -1.0892    0.0000 C   0  0  0  0  0  0  0  0  0
   11.5711   -0.3379    0.0000 C   0  0  0  0  0  0  0  0  0
    1.1808   -1.1399    0.0000 C   0  0  0  0  0  0  0  0  0
    1.3943   -1.9367    0.0000 O   0  0  0  0  0  0  0  0  0
    2.1912   -2.1503    0.0000 C   0  0  0  0  0  0  0  0  0
  1  2  1  0  0  0  0
  2  3  4  0  0  0  0
  2 36  4  0  0  0  0
  3  4  4  0  0  0  0
  4  5  4  0  0  0  0
  5  6  4  0  0  0  0
  6  7  1  0  0  0  0
  6 36  4  0  0  0  0
  7  8  1  0  0  0  0
  7 12  1  0  0  0  0
  8  9  1  0  0  0  0
  9 10  1  0  0  0  0
 10 11  1  0  0  0  0
 10 13  1  0  0  0  0
 11 12  1  0  0  0  0
 13 14  1  0  0  0  0
 14 15  1  0  0  0  0
 15 16  1  0  0  0  0
 16 17  1  0  0  0  0
 17 18  1  0  0  0  0
 18 19  2  0  0  0  0
 18 20  1  0  0  0  0
 20 21  4  0  0  0  0
 20 31  4  0  0  0  0
 21 22  1  0  0  0  0
 21 33  4  0  0  0  0
 22 23  1  0  0  0  0
 23 24  1  0  0  0  0
 24 25  4  0  0  0  0
 24 35  4  0  0  0  0
 25 26  4  0  0  0  0
 26 27  4  0  0  0  0
 27 28  1  0  0  0  0
 27 34  4  0  0  0  0
 28 29  1  0  0  0  0
 29 30  1  0  0  0  0
 30 31  4  0  0  0  0
 30 32  4  0  0  0  0
 32 33  4  0  0  0  0
 34 35  4  0  0  0  0
 36 37  1  0  0  0  0
 37 38  1  0  0  0  0
M  END
>  <Name_Molregno>
349377

>  <5-HT1A>
7.66

>  <DOPAMINE D1>
6.01

>  <DOPAMINE D2>
7.47

>  <DOPAMINE D3>
9.34

>  <DOPAMINE D4>
7.48

$$$$
349451
  Marvin  02231216192D 0   1.00000     0.00000     0

 24 27  0  0  0  0  0  0  0  0999 V2000
    0.6013   -1.0708    0.0000 N   0  0  0  0  0  0  0  0  0
    0.3463   -1.8554    0.0000 N   0  0  0  0  0  0  0  0  0
   -0.4787   -1.8554    0.0000 N   0  0  0  0  0  0  0  0  0
   -0.7336   -1.0708    0.0000 C   0  0  0  0  0  0  0  0  0
   -0.0662   -0.5859    0.0000 C   0  0  0  0  0  0  0  0  0
   -0.0662    0.2391    0.0000 C   0  0  0  0  0  0  0  0  0
    0.6483    0.6516    0.0000 N   0  0  0  0  0  0  0  0  0
    0.6483    1.4766    0.0000 C   0  0  0  0  0  0  0  0  0
    1.3628    1.8891    0.0000 C   0  0  0  0  0  0  0  0  0
    2.0772    1.4766    0.0000 N   0  0  0  0  0  0  0  0  0
    2.0772    0.6516    0.0000 C   0  0  0  0  0  0  0  0  0
    1.3628    0.2391    0.0000 C   0  0  0  0  0  0  0  0  0
    2.7917    1.8891    0.0000 C   0  0  0  0  0  0  0  0  0
    2.7917    2.7141    0.0000 C   0  0  0  0  0  0  0  0  0
    3.5062    3.1266    0.0000 C   0  0  0  0  0  0  0  0  0
    4.2206    2.7141    0.0000 C   0  0  0  0  0  0  0  0  0
    4.2206    1.8891    0.0000 C   0  0  0  0  0  0  0  0  0
    3.5062    1.4766    0.0000 C   0  0  0  0  0  0  0  0  0
   -0.9636   -2.5228    0.0000 C   0  0  0  0  0  0  0  0  0
   -0.6281   -3.2765    0.0000 C   0  0  0  0  0  0  0  0  0
   -1.1130   -3.9440    0.0000 C   0  0  0  0  0  0  0  0  0
   -1.9335   -3.8577    0.0000 C   0  0  0  0  0  0  0  0  0
   -2.2690   -3.1040    0.0000 C   0  0  0  0  0  0  0  0  0
   -1.7841   -2.4366    0.0000 C   0  0  0  0  0  0  0  0  0
  1  2  4  0  0  0  0
  1  5  4  0  0  0  0
  2  3  4  0  0  0  0
  3  4  4  0  0  0  0
  3 19  1  0  0  0  0
  4  5  4  0  0  0  0
  5  6  1  0  0  0  0
  6  7  1  0  0  0  0
  7  8  1  0  0  0  0
  7 12  1  0  0  0  0
  8  9  1  0  0  0  0
  9 10  1  0  0  0  0
 10 11  1  0  0  0  0
 10 13  1  0  0  0  0
 11 12  1  0  0  0  0
 13 14  4  0  0  0  0
 13 18  4  0  0  0  0
 14 15  4  0  0  0  0
 15 16  4  0  0  0  0
 16 17  4  0  0  0  0
 17 18  4  0  0  0  0
 19 20  4  0  0  0  0
 19 24  4  0  0  0  0
 20 21  4  0  0  0  0
 21 22  4  0  0  0  0
 22 23  4  0  0  0  0
 23 24  4  0  0  0  0
M  END
>  <Name_Molregno>
349451

>  <DOPAMINE D2>
5.95

>  <DOPAMINE D3>
5.92

>  <DOPAMINE D4>
8

$$$$
349452
  Marvin  02231216192D 0   1.00000     0.00000     0

 26 29  0  0  0  0  0  0  0  0999 V2000
   -1.9892    3.5682    0.0000 O   0  0  0  0  0  0  0  0  0
   -1.9892    4.3932    0.0000 C   0  0  0  0  0  0  0  0  0
   -1.2747    3.1557    0.0000 C   0  0  0  0  0  0  0  0  0
   -0.5603    3.5682    0.0000 C   0  0  0  0  0  0  0  0  0
    0.1542    3.1557    0.0000 C   0  0  0  0  0  0  0  0  0
    0.1542    2.3307    0.0000 C   0  0  0  0  0  0  0  0  0
   -0.5603    1.9182    0.0000 C   0  0  0  0  0  0  0  0  0
   -1.2747    2.3307    0.0000 C   0  0  0  0  0  0  0  0  0
   -1.9892    1.9182    0.0000 N   0  0  0  0  0  0  0  0  0
   -1.9892    1.0932    0.0000 C   0  0  0  0  0  0  0  0  0
   -2.7037    0.6807    0.0000 C   0  0  0  0  0  0  0  0  0
   -3.4181    1.0932    0.0000 N   0  0  0  0  0  0  0  0  0
   -3.4181    1.9182    0.0000 C   0  0  0  0  0  0  0  0  0
   -2.7037    2.3307    0.0000 C   0  0  0  0  0  0  0  0  0
   -4.1326    0.6807    0.0000 C   0  0  0  0  0  0  0  0  0
   -4.1326   -0.1443    0.0000 C   0  0  0  0  0  0  0  0  0
   -3.4652   -0.6292    0.0000 N   0  0  0  0  0  0  0  0  0
   -3.7201   -1.4138    0.0000 N   0  0  0  0  0  0  0  0  0
   -4.5451   -1.4138    0.0000 N   0  0  0  0  0  0  0  0  0
   -4.8000   -0.6292    0.0000 C   0  0  0  0  0  0  0  0  0
   -5.0300   -2.0813    0.0000 C   0  0  0  0  0  0  0  0  0
   -4.6945   -2.8349    0.0000 C   0  0  0  0  0  0  0  0  0
   -5.1794   -3.5024    0.0000 C   0  0  0  0  0  0  0  0  0
   -5.9999   -3.4161    0.0000 C   0  0  0  0  0  0  0  0  0
   -6.3354   -2.6625    0.0000 C   0  0  0  0  0  0  0  0  0
   -5.8505   -1.9950    0.0000 C   0  0  0  0  0  0  0  0  0
  1  2  1  0  0  0  0
  1  3  1  0  0  0  0
  3  4  4  0  0  0  0
  3  8  4  0  0  0  0
  4  5  4  0  0  0  0
  5  6  4  0  0  0  0
  6  7  4  0  0  0  0
  7  8  4  0  0  0  0
  8  9  1  0  0  0  0
  9 10  1  0  0  0  0
  9 14  1  0  0  0  0
 10 11  1  0  0  0  0
 11 12  1  0  0  0  0
 12 13  1  0  0  0  0
 12 15  1  0  0  0  0
 13 14  1  0  0  0  0
 15 16  1  0  0  0  0
 16 17  4  0  0  0  0
 16 20  4  0  0  0  0
 17 18  4  0  0  0  0
 18 19  4  0  0  0  0
 19 20  4  0  0  0  0
 19 21  1  0  0  0  0
 21 22  4  0  0  0  0
 21 26  4  0  0  0  0
 22 23  4  0  0  0  0
 23 24  4  0  0  0  0
 24 25  4  0  0  0  0
 25 26  4  0  0  0  0
M  END
>  <Name_Molregno>
349452

>  <DOPAMINE D2>
7.06

>  <DOPAMINE D3>
6.47

>  <DOPAMINE D4>
8.57

$$$$
349535
  Marvin  02231216192D 0   1.00000     0.00000     0

 25 28  0  0  0  0  0  0  0  0999 V2000
    0.9453    2.4084    0.0000 F   0  0  0  0  0  0  0  0  0
    1.6598    1.9959    0.0000 C   0  0  0  0  0  0  0  0  0
    2.3742    2.4084    0.0000 C   0  0  0  0  0  0  0  0  0
    3.0887    1.9959    0.0000 C   0  0  0  0  0  0  0  0  0
    3.0887    1.1709    0.0000 C   0  0  0  0  0  0  0  0  0
    3.8032    0.7584    0.0000 N   0  0  0  0  0  0  0  0  0
    4.5177    1.1709    0.0000 C   0  0  0  0  0  0  0  0  0
    5.2321    0.7584    0.0000 C   0  0  0  0  0  0  0  0  0
    5.2321   -0.0666    0.0000 N   0  0  0  0  0  0  0  0  0
    4.5177   -0.4791    0.0000 C   0  0  0  0  0  0  0  0  0
    3.8032   -0.0666    0.0000 C   0  0  0  0  0  0  0  0  0
    5.9466   -0.4791    0.0000 C   0  0  0  0  0  0  0  0  0
    5.9466   -1.3041    0.0000 C   0  0  0  0  0  0  0  0  0
    6.6140   -1.7890    0.0000 C   0  0  0  0  0  0  0  0  0
    6.3591   -2.5736    0.0000 N   0  0  0  0  0  0  0  0  0
    5.5341   -2.5736    0.0000 N   0  0  0  0  0  0  0  0  0
    5.2792   -1.7890    0.0000 C   0  0  0  0  0  0  0  0  0
    6.8440   -3.2411    0.0000 C   0  0  0  0  0  0  0  0  0
    7.6645   -3.1548    0.0000 C   0  0  0  0  0  0  0  0  0
    8.1494   -3.8223    0.0000 C   0  0  0  0  0  0  0  0  0
    7.8139   -4.5759    0.0000 C   0  0  0  0  0  0  0  0  0
    6.9934   -4.6622    0.0000 C   0  0  0  0  0  0  0  0  0
    6.5085   -3.9947    0.0000 C   0  0  0  0  0  0  0  0  0
    2.3742    0.7584    0.0000 C   0  0  0  0  0  0  0  0  0
    1.6598    1.1709    0.0000 C   0  0  0  0  0  0  0  0  0
  1  2  1  0  0  0  0
  2  3  4  0  0  0  0
  2 25  4  0  0  0  0
  3  4  4  0  0  0  0
  4  5  4  0  0  0  0
  5  6  1  0  0  0  0
  5 24  4  0  0  0  0
  6  7  1  0  0  0  0
  6 11  1  0  0  0  0
  7  8  1  0  0  0  0
  8  9  1  0  0  0  0
  9 10  1  0  0  0  0
  9 12  1  0  0  0  0
 10 11  1  0  0  0  0
 12 13  1  0  0  0  0
 13 14  4  0  0  0  0
 13 17  4  0  0  0  0
 14 15  4  0  0  0  0
 15 16  4  0  0  0  0
 15 18  1  0  0  0  0
 16 17  4  0  0  0  0
 18 19  4  0  0  0  0
 18 23  4  0  0  0  0
 19 20  4  0  0  0  0
 20 21  4  0  0  0  0
 21 22  4  0  0  0  0
 22 23  4  0  0  0  0
 24 25  4  0  0  0  0
M  END
>  <Name_Molregno>
349535

>  <DOPAMINE D2>
6.37

>  <DOPAMINE D3>
6.27

>  <DOPAMINE D4>
8.54

$$$$
349570
  Marvin  02231216192D 0   1.00000     0.00000     0

 25 28  0  0  0  0  0  0  0  0999 V2000
   -5.8492    0.2937    0.0000 F   0  0  0  0  0  0  0  0  0
   -5.8492    1.1187    0.0000 C   0  0  0  0  0  0  0  0  0
   -6.5636    1.5312    0.0000 C   0  0  0  0  0  0  0  0  0
   -6.5636    2.3562    0.0000 C   0  0  0  0  0  0  0  0  0
   -5.8492    2.7687    0.0000 C   0  0  0  0  0  0  0  0  0
   -5.1347    2.3562    0.0000 C   0  0  0  0  0  0  0  0  0
   -5.1347    1.5312    0.0000 C   0  0  0  0  0  0  0  0  0
   -4.4202    1.1187    0.0000 N   0  0  0  0  0  0  0  0  0
   -3.7058    1.5312    0.0000 C   0  0  0  0  0  0  0  0  0
   -2.9913    1.1187    0.0000 C   0  0  0  0  0  0  0  0  0
   -2.9913    0.2937    0.0000 N   0  0  0  0  0  0  0  0  0
   -3.7058   -0.1188    0.0000 C   0  0  0  0  0  0  0  0  0
   -4.4202    0.2937    0.0000 C   0  0  0  0  0  0  0  0  0
   -2.2768   -0.1188    0.0000 C   0  0  0  0  0  0  0  0  0
   -2.2768   -0.9438    0.0000 C   0  0  0  0  0  0  0  0  0
   -1.6094   -1.4287    0.0000 C   0  0  0  0  0  0  0  0  0
   -1.8643   -2.2134    0.0000 N   0  0  0  0  0  0  0  0  0
   -2.6893   -2.2134    0.0000 N   0  0  0  0  0  0  0  0  0
   -2.9443   -1.4287    0.0000 C   0  0  0  0  0  0  0  0  0
   -1.3794   -2.8808    0.0000 C   0  0  0  0  0  0  0  0  0
   -0.5589   -2.7946    0.0000 C   0  0  0  0  0  0  0  0  0
   -0.0740   -3.4620    0.0000 C   0  0  0  0  0  0  0  0  0
   -0.4095   -4.2157    0.0000 C   0  0  0  0  0  0  0  0  0
   -1.2300   -4.3019    0.0000 C   0  0  0  0  0  0  0  0  0
   -1.7149   -3.6345    0.0000 C   0  0  0  0  0  0  0  0  0
  1  2  1  0  0  0  0
  2  3  4  0  0  0  0
  2  7  4  0  0  0  0
  3  4  4  0  0  0  0
  4  5  4  0  0  0  0
  5  6  4  0  0  0  0
  6  7  4  0  0  0  0
  7  8  1  0  0  0  0
  8  9  1  0  0  0  0
  8 13  1  0  0  0  0
  9 10  1  0  0  0  0
 10 11  1  0  0  0  0
 11 12  1  0  0  0  0
 11 14  1  0  0  0  0
 12 13  1  0  0  0  0
 14 15  1  0  0  0  0
 15 16  4  0  0  0  0
 15 19  4  0  0  0  0
 16 17  4  0  0  0  0
 17 18  4  0  0  0  0
 17 20  1  0  0  0  0
 18 19  4  0  0  0  0
 20 21  4  0  0  0  0
 20 25  4  0  0  0  0
 21 22  4  0  0  0  0
 22 23  4  0  0  0  0
 23 24  4  0  0  0  0
 24 25  4  0  0  0  0
M  END
>  <Name_Molregno>
349570

>  <DOPAMINE D2>
7.28

>  <DOPAMINE D3>
7.17

>  <DOPAMINE D4>
9.15

$$$$
349778
  Marvin  02231216192D 0   1.00000     0.00000     0

 37 41  0  0  0  0  0  0  0  0999 V2000
    1.3466    3.6338    0.0000 F   0  0  0  0  0  0  0  0  0
    0.7633    3.0505    0.0000 C   0  0  0  0  0  0  0  0  0
    0.9768    2.2536    0.0000 C   0  0  0  0  0  0  0  0  0
    1.7737    2.0401    0.0000 N   0  0  0  0  0  0  0  0  0
    2.3570    2.6234    0.0000 C   0  0  0  0  0  0  0  0  0
    3.1539    2.4099    0.0000 C   0  0  0  0  0  0  0  0  0
    3.3675    1.6130    0.0000 N   0  0  0  0  0  0  0  0  0
    2.7841    1.0296    0.0000 C   0  0  0  0  0  0  0  0  0
    1.9872    1.2432    0.0000 C   0  0  0  0  0  0  0  0  0
    4.1643    1.3995    0.0000 C   0  0  0  0  0  0  0  0  0
    4.3779    0.6026    0.0000 C   0  0  0  0  0  0  0  0  0
    5.1748    0.3891    0.0000 C   0  0  0  0  0  0  0  0  0
    5.3883   -0.4078    0.0000 C   0  0  0  0  0  0  0  0  0
    6.1852   -0.6213    0.0000 N   0  0  0  0  0  0  0  0  0
    6.3987   -1.4182    0.0000 C   0  0  0  0  0  0  0  0  0
    5.8153   -2.0016    0.0000 O   0  0  0  0  0  0  0  0  0
    7.1956   -1.6318    0.0000 C   0  0  0  0  0  0  0  0  0
    7.6081   -0.9173    0.0000 C   0  0  0  0  0  0  0  0  0
    8.3226   -0.5048    0.0000 C   0  0  0  0  0  0  0  0  0
    9.1476   -0.5048    0.0000 C   0  0  0  0  0  0  0  0  0
    9.8620   -0.9173    0.0000 C   0  0  0  0  0  0  0  0  0
   10.2745   -1.6318    0.0000 C   0  0  0  0  0  0  0  0  0
   10.2745   -2.4568    0.0000 C   0  0  0  0  0  0  0  0  0
    9.8620   -3.1712    0.0000 C   0  0  0  0  0  0  0  0  0
    9.1476   -3.5837    0.0000 C   0  0  0  0  0  0  0  0  0
    8.3226   -3.5837    0.0000 C   0  0  0  0  0  0  0  0  0
    7.6081   -3.1712    0.0000 C   0  0  0  0  0  0  0  0  0
    7.1956   -2.4568    0.0000 C   0  0  0  0  0  0  0  0  0
    7.7959   -2.4199    0.0000 C   0  0  0  0  0  0  0  0  0
    7.7959   -1.6686    0.0000 C   0  0  0  0  0  0  0  0  0
    9.6742   -2.4199    0.0000 C   0  0  0  0  0  0  0  0  0
    9.6742   -1.6686    0.0000 C   0  0  0  0  0  0  0  0  0
    0.3934    1.6702    0.0000 C   0  0  0  0  0  0  0  0  0
   -0.4035    1.8838    0.0000 C   0  0  0  0  0  0  0  0  0
   -0.6170    2.6806    0.0000 C   0  0  0  0  0  0  0  0  0
   -0.0336    3.2640    0.0000 C   0  0  0  0  0  0  0  0  0
   -0.2472    4.0609    0.0000 F   0  0  0  0  0  0  0  0  0
  1  2  1  0  0  0  0
  2  3  4  0  0  0  0
  2 36  4  0  0  0  0
  3  4  1  0  0  0  0
  3 33  4  0  0  0  0
  4  5  1  0  0  0  0
  4  9  1  0  0  0  0
  5  6  1  0  0  0  0
  6  7  1  0  0  0  0
  7  8  1  0  0  0  0
  7 10  1  0  0  0  0
  8  9  1  0  0  0  0
 10 11  1  0  0  0  0
 11 12  1  0  0  0  0
 12 13  1  0  0  0  0
 13 14  1  0  0  0  0
 14 15  1  0  0  0  0
 15 16  2  0  0  0  0
 15 17  1  0  0  0  0
 17 18  4  0  0  0  0
 17 28  4  0  0  0  0
 18 19  1  0  0  0  0
 18 30  4  0  0  0  0
 19 20  1  0  0  0  0
 20 21  1  0  0  0  0
 21 22  4  0  0  0  0
 21 32  4  0  0  0  0
 22 23  4  0  0  0  0
 23 24  4  0  0  0  0
 24 25  1  0  0  0  0
 24 31  4  0  0  0  0
 25 26  1  0  0  0  0
 26 27  1  0  0  0  0
 27 28  4  0  0  0  0
 27 29  4  0  0  0  0
 29 30  4  0  0  0  0
 31 32  4  0  0  0  0
 33 34  4  0  0  0  0
 34 35  4  0  0  0  0
 35 36  4  0  0  0  0
 36 37  1  0  0  0  0
M  END
>  <Name_Molregno>
349778

>  <5-HT1A>
6.54

>  <DOPAMINE D1>
6.24

>  <DOPAMINE D2>
7.19

>  <DOPAMINE D3>
8.72

>  <DOPAMINE D4>
7.74

$$$$
349935
  Marvin  02231216192D 0   1.00000     0.00000     0

 24 27  0  0  0  0  0  0  0  0999 V2000
    1.0936   -2.1604    0.0000 N   0  0  0  0  0  0  0  0  0
    0.2686   -2.1604    0.0000 N   0  0  0  0  0  0  0  0  0
    0.0136   -1.3757    0.0000 C   0  0  0  0  0  0  0  0  0
    0.6811   -0.8908    0.0000 C   0  0  0  0  0  0  0  0  0
    1.3485   -1.3757    0.0000 C   0  0  0  0  0  0  0  0  0
    0.6811   -0.0658    0.0000 C   0  0  0  0  0  0  0  0  0
    1.3955    0.3467    0.0000 N   0  0  0  0  0  0  0  0  0
    1.3955    1.1717    0.0000 C   0  0  0  0  0  0  0  0  0
    2.1100    1.5842    0.0000 C   0  0  0  0  0  0  0  0  0
    2.8245    1.1717    0.0000 C   0  0  0  0  0  0  0  0  0
    2.8245    0.3467    0.0000 C   0  0  0  0  0  0  0  0  0
    2.1100   -0.0658    0.0000 C   0  0  0  0  0  0  0  0  0
    3.5389    1.5842    0.0000 C   0  0  0  0  0  0  0  0  0
    3.5389    2.4092    0.0000 C   0  0  0  0  0  0  0  0  0
    4.2534    2.8217    0.0000 C   0  0  0  0  0  0  0  0  0
    4.9679    2.4092    0.0000 C   0  0  0  0  0  0  0  0  0
    4.9679    1.5842    0.0000 C   0  0  0  0  0  0  0  0  0
    4.2534    1.1717    0.0000 C   0  0  0  0  0  0  0  0  0
   -0.2164   -2.8278    0.0000 C   0  0  0  0  0  0  0  0  0
    0.1192   -3.5815    0.0000 C   0  0  0  0  0  0  0  0  0
   -0.3657   -4.2489    0.0000 C   0  0  0  0  0  0  0  0  0
   -1.1862   -4.1627    0.0000 C   0  0  0  0  0  0  0  0  0
   -1.5218   -3.4090    0.0000 C   0  0  0  0  0  0  0  0  0
   -1.0368   -2.7416    0.0000 C   0  0  0  0  0  0  0  0  0
  1  2  4  0  0  0  0
  1  5  4  0  0  0  0
  2  3  4  0  0  0  0
  2 19  1  0  0  0  0
  3  4  4  0  0  0  0
  4  5  4  0  0  0  0
  4  6  1  0  0  0  0
  6  7  1  0  0  0  0
  7  8  1  0  0  0  0
  7 12  1  0  0  0  0
  8  9  1  0  0  0  0
  9 10  1  0  0  0  0
 10 11  2  0  0  0  0
 10 13  1  0  0  0  0
 11 12  1  0  0  0  0
 13 14  4  0  0  0  0
 13 18  4  0  0  0  0
 14 15  4  0  0  0  0
 15 16  4  0  0  0  0
 16 17  4  0  0  0  0
 17 18  4  0  0  0  0
 19 20  4  0  0  0  0
 19 24  4  0  0  0  0
 20 21  4  0  0  0  0
 21 22  4  0  0  0  0
 22 23  4  0  0  0  0
 23 24  4  0  0  0  0
M  END
>  <Name_Molregno>
349935

>  <DOPAMINE D2>
7.49

>  <DOPAMINE D3>
7.48

>  <DOPAMINE D4>
9.23

$$$$
349936
  Marvin  02231216192D 0   1.00000     0.00000     0

 24 27  0  0  0  0  0  0  0  0999 V2000
   -5.6018   -3.3205    0.0000 N   0  0  0  0  0  0  0  0  0
   -4.9343   -2.8356    0.0000 N   0  0  0  0  0  0  0  0  0
   -4.2669   -3.3205    0.0000 C   0  0  0  0  0  0  0  0  0
   -4.5218   -4.1052    0.0000 C   0  0  0  0  0  0  0  0  0
   -5.3468   -4.1052    0.0000 C   0  0  0  0  0  0  0  0  0
   -4.9343   -2.0106    0.0000 C   0  0  0  0  0  0  0  0  0
   -5.6488   -1.5981    0.0000 C   0  0  0  0  0  0  0  0  0
   -5.6488   -0.7731    0.0000 C   0  0  0  0  0  0  0  0  0
   -4.9343   -0.3606    0.0000 C   0  0  0  0  0  0  0  0  0
   -4.2198   -0.7731    0.0000 C   0  0  0  0  0  0  0  0  0
   -4.2198   -1.5981    0.0000 C   0  0  0  0  0  0  0  0  0
   -4.9343    0.4644    0.0000 C   0  0  0  0  0  0  0  0  0
   -4.2198    0.8769    0.0000 N   0  0  0  0  0  0  0  0  0
   -4.2198    1.7019    0.0000 C   0  0  0  0  0  0  0  0  0
   -3.5054    2.1144    0.0000 C   0  0  0  0  0  0  0  0  0
   -2.7909    1.7019    0.0000 N   0  0  0  0  0  0  0  0  0
   -2.7909    0.8769    0.0000 C   0  0  0  0  0  0  0  0  0
   -3.5054    0.4644    0.0000 C   0  0  0  0  0  0  0  0  0
   -2.0764    2.1144    0.0000 C   0  0  0  0  0  0  0  0  0
   -2.0764    2.9394    0.0000 C   0  0  0  0  0  0  0  0  0
   -1.3620    3.3519    0.0000 C   0  0  0  0  0  0  0  0  0
   -0.6475    2.9394    0.0000 C   0  0  0  0  0  0  0  0  0
   -0.6475    2.1144    0.0000 C   0  0  0  0  0  0  0  0  0
   -1.3620    1.7019    0.0000 C   0  0  0  0  0  0  0  0  0
  1  2  4  0  0  0  0
  1  5  4  0  0  0  0
  2  3  4  0  0  0  0
  2  6  1  0  0  0  0
  3  4  4  0  0  0  0
  4  5  4  0  0  0  0
  6  7  4  0  0  0  0
  6 11  4  0  0  0  0
  7  8  4  0  0  0  0
  8  9  4  0  0  0  0
  9 10  4  0  0  0  0
  9 12  1  0  0  0  0
 10 11  4  0  0  0  0
 12 13  1  0  0  0  0
 13 14  1  0  0  0  0
 13 18  1  0  0  0  0
 14 15  1  0  0  0  0
 15 16  1  0  0  0  0
 16 17  1  0  0  0  0
 16 19  1  0  0  0  0
 17 18  1  0  0  0  0
 19 20  4  0  0  0  0
 19 24  4  0  0  0  0
 20 21  4  0  0  0  0
 21 22  4  0  0  0  0
 22 23  4  0  0  0  0
 23 24  4  0  0  0  0
M  END
>  <Name_Molregno>
349936

>  <DOPAMINE D2>
5.57

>  <DOPAMINE D3>
5.68

>  <DOPAMINE D4>
7.7

$$$$
349966
  Marvin  02231216192D 0   1.00000     0.00000     0

 24 27  0  0  0  0  0  0  0  0999 V2000
    0.6013   -1.0708    0.0000 N   0  0  0  0  0  0  0  0  0
    0.3463   -1.8554    0.0000 N   0  0  0  0  0  0  0  0  0
   -0.4787   -1.8554    0.0000 N   0  0  0  0  0  0  0  0  0
   -0.7336   -1.0708    0.0000 C   0  0  0  0  0  0  0  0  0
   -0.0662   -0.5859    0.0000 C   0  0  0  0  0  0  0  0  0
   -0.0662    0.2391    0.0000 C   0  0  0  0  0  0  0  0  0
    0.6483    0.6516    0.0000 N   0  0  0  0  0  0  0  0  0
    0.6483    1.4766    0.0000 C   0  0  0  0  0  0  0  0  0
    1.3628    1.8891    0.0000 C   0  0  0  0  0  0  0  0  0
    2.0772    1.4766    0.0000 C   0  0  0  0  0  0  0  0  0
    2.0772    0.6516    0.0000 C   0  0  0  0  0  0  0  0  0
    1.3628    0.2391    0.0000 C   0  0  0  0  0  0  0  0  0
    2.7917    1.8891    0.0000 C   0  0  0  0  0  0  0  0  0
    2.7917    2.7141    0.0000 C   0  0  0  0  0  0  0  0  0
    3.5062    3.1266    0.0000 C   0  0  0  0  0  0  0  0  0
    4.2206    2.7141    0.0000 C   0  0  0  0  0  0  0  0  0
    4.2206    1.8891    0.0000 C   0  0  0  0  0  0  0  0  0
    3.5062    1.4766    0.0000 C   0  0  0  0  0  0  0  0  0
   -0.9636   -2.5228    0.0000 C   0  0  0  0  0  0  0  0  0
   -0.6281   -3.2765    0.0000 C   0  0  0  0  0  0  0  0  0
   -1.1130   -3.9440    0.0000 C   0  0  0  0  0  0  0  0  0
   -1.9335   -3.8577    0.0000 C   0  0  0  0  0  0  0  0  0
   -2.2690   -3.1040    0.0000 C   0  0  0  0  0  0  0  0  0
   -1.7841   -2.4366    0.0000 C   0  0  0  0  0  0  0  0  0
  1  2  4  0  0  0  0
  1  5  4  0  0  0  0
  2  3  4  0  0  0  0
  3  4  4  0  0  0  0
  3 19  1  0  0  0  0
  4  5  4  0  0  0  0
  5  6  1  0  0  0  0
  6  7  1  0  0  0  0
  7  8  1  0  0  0  0
  7 12  1  0  0  0  0
  8  9  1  0  0  0  0
  9 10  1  0  0  0  0
 10 11  2  0  0  0  0
 10 13  1  0  0  0  0
 11 12  1  0  0  0  0
 13 14  4  0  0  0  0
 13 18  4  0  0  0  0
 14 15  4  0  0  0  0
 15 16  4  0  0  0  0
 16 17  4  0  0  0  0
 17 18  4  0  0  0  0
 19 20  4  0  0  0  0
 19 24  4  0  0  0  0
 20 21  4  0  0  0  0
 21 22  4  0  0  0  0
 22 23  4  0  0  0  0
 23 24  4  0  0  0  0
M  END
>  <Name_Molregno>
349966

>  <DOPAMINE D2>
6.81

>  <DOPAMINE D3>
7.03

>  <DOPAMINE D4>
8.49

$$$$
349977
  Marvin  02231216192D 0   1.00000     0.00000     0

 40 45  0  0  0  0  0  0  0  0999 V2000
    4.4297    0.9973    0.0000 O   0  0  0  0  0  0  0  0  0
    5.2143    0.7423    0.0000 C   0  0  0  0  0  0  0  0  0
    5.6268    1.4568    0.0000 C   0  0  0  0  0  0  0  0  0
    6.3413    1.8693    0.0000 C   0  0  0  0  0  0  0  0  0
    7.1663    1.8693    0.0000 C   0  0  0  0  0  0  0  0  0
    7.8808    1.4568    0.0000 C   0  0  0  0  0  0  0  0  0
    8.2933    0.7423    0.0000 C   0  0  0  0  0  0  0  0  0
    8.2933   -0.0827    0.0000 C   0  0  0  0  0  0  0  0  0
    7.8808   -0.7971    0.0000 C   0  0  0  0  0  0  0  0  0
    7.1663   -1.2096    0.0000 C   0  0  0  0  0  0  0  0  0
    6.3413   -1.2096    0.0000 C   0  0  0  0  0  0  0  0  0
    5.6268   -0.7971    0.0000 C   0  0  0  0  0  0  0  0  0
    5.2143   -0.0827    0.0000 C   0  0  0  0  0  0  0  0  0
    4.4297   -0.3376    0.0000 C   0  0  0  0  0  0  0  0  0
    3.9448    0.3298    0.0000 C   0  0  0  0  0  0  0  0  0
    3.1198    0.3298    0.0000 C   0  0  0  0  0  0  0  0  0
    2.7073    1.0443    0.0000 O   0  0  0  0  0  0  0  0  0
    2.7073   -0.3846    0.0000 N   0  0  0  0  0  0  0  0  0
    1.8823   -0.3846    0.0000 C   0  0  0  0  0  0  0  0  0
    1.4698   -1.0991    0.0000 C   0  0  0  0  0  0  0  0  0
    0.6448   -1.0991    0.0000 C   0  0  0  0  0  0  0  0  0
    0.2323   -1.8136    0.0000 C   0  0  0  0  0  0  0  0  0
   -0.5927   -1.8136    0.0000 N   0  0  0  0  0  0  0  0  0
   -1.0052   -2.5280    0.0000 C   0  0  0  0  0  0  0  0  0
   -1.8302   -2.5280    0.0000 C   0  0  0  0  0  0  0  0  0
   -2.2427   -1.8136    0.0000 N   0  0  0  0  0  0  0  0  0
   -1.8302   -1.0991    0.0000 C   0  0  0  0  0  0  0  0  0
   -1.0052   -1.0991    0.0000 C   0  0  0  0  0  0  0  0  0
   -3.0677   -1.8136    0.0000 C   0  0  0  0  0  0  0  0  0
   -3.4802   -2.5280    0.0000 C   0  0  0  0  0  0  0  0  0
   -4.3052   -2.5280    0.0000 C   0  0  0  0  0  0  0  0  0
   -4.7177   -1.8136    0.0000 C   0  0  0  0  0  0  0  0  0
   -4.3052   -1.0991    0.0000 C   0  0  0  0  0  0  0  0  0
   -3.4802   -1.0991    0.0000 C   0  0  0  0  0  0  0  0  0
   -3.0677   -0.3846    0.0000 O   0  0  0  0  0  0  0  0  0
   -3.4802    0.3298    0.0000 C   0  0  0  0  0  0  0  0  0
    5.8147   -0.0458    0.0000 C   0  0  0  0  0  0  0  0  0
    5.8147    0.7055    0.0000 C   0  0  0  0  0  0  0  0  0
    7.6930   -0.0458    0.0000 C   0  0  0  0  0  0  0  0  0
    7.6930    0.7055    0.0000 C   0  0  0  0  0  0  0  0  0
  1  2  4  0  0  0  0
  1 15  4  0  0  0  0
  2  3  4  0  0  0  0
  2 13  4  0  0  0  0
  3  4  1  0  0  0  0
  3 38  4  0  0  0  0
  4  5  1  0  0  0  0
  5  6  1  0  0  0  0
  6  7  4  0  0  0  0
  6 40  4  0  0  0  0
  7  8  4  0  0  0  0
  8  9  4  0  0  0  0
  9 10  1  0  0  0  0
  9 39  4  0  0  0  0
 10 11  1  0  0  0  0
 11 12  1  0  0  0  0
 12 13  4  0  0  0  0
 12 37  4  0  0  0  0
 13 14  4  0  0  0  0
 14 15  4  0  0  0  0
 15 16  1  0  0  0  0
 16 17  2  0  0  0  0
 16 18  1  0  0  0  0
 18 19  1  0  0  0  0
 19 20  1  0  0  0  0
 20 21  1  0  0  0  0
 21 22  1  0  0  0  0
 22 23  1  0  0  0  0
 23 24  1  0  0  0  0
 23 28  1  0  0  0  0
 24 25  1  0  0  0  0
 25 26  1  0  0  0  0
 26 27  1  0  0  0  0
 26 29  1  0  0  0  0
 27 28  1  0  0  0  0
 29 30  4  0  0  0  0
 29 34  4  0  0  0  0
 30 31  4  0  0  0  0
 31 32  4  0  0  0  0
 32 33  4  0  0  0  0
 33 34  4  0  0  0  0
 34 35  1  0  0  0  0
 35 36  1  0  0  0  0
 37 38  4  0  0  0  0
 39 40  4  0  0  0  0
M  END
>  <Name_Molregno>
349977

>  <5-HT1A>
6.72

>  <DOPAMINE D1>
6.11

>  <DOPAMINE D2>
6.92

>  <DOPAMINE D3>
7.8

>  <DOPAMINE D4>
6.85

$$$$
349999
  Marvin  02231216192D 0   1.00000     0.00000     0

 24 27  0  0  0  0  0  0  0  0999 V2000
    4.4577    1.0655    0.0000 N   0  0  0  0  0  0  0  0  0
    4.4577    1.8905    0.0000 C   0  0  0  0  0  0  0  0  0
    5.1721    2.3030    0.0000 C   0  0  0  0  0  0  0  0  0
    5.8866    1.8905    0.0000 C   0  0  0  0  0  0  0  0  0
    5.8866    1.0655    0.0000 C   0  0  0  0  0  0  0  0  0
    5.1721    0.6530    0.0000 C   0  0  0  0  0  0  0  0  0
    5.1721   -0.1720    0.0000 N   0  0  0  0  0  0  0  0  0
    5.8396   -0.6569    0.0000 N   0  0  0  0  0  0  0  0  0
    5.5846   -1.4415    0.0000 C   0  0  0  0  0  0  0  0  0
    4.7596   -1.4415    0.0000 C   0  0  0  0  0  0  0  0  0
    4.5047   -0.6569    0.0000 C   0  0  0  0  0  0  0  0  0
    4.2747   -2.1089    0.0000 C   0  0  0  0  0  0  0  0  0
    3.4542   -2.0227    0.0000 N   0  0  0  0  0  0  0  0  0
    2.9693   -2.6901    0.0000 C   0  0  0  0  0  0  0  0  0
    2.1488   -2.6039    0.0000 C   0  0  0  0  0  0  0  0  0
    1.8133   -1.8502    0.0000 N   0  0  0  0  0  0  0  0  0
    2.2982   -1.1828    0.0000 C   0  0  0  0  0  0  0  0  0
    3.1187   -1.2690    0.0000 C   0  0  0  0  0  0  0  0  0
    0.9928   -1.7640    0.0000 C   0  0  0  0  0  0  0  0  0
    0.5079   -2.4314    0.0000 C   0  0  0  0  0  0  0  0  0
   -0.3126   -2.3452    0.0000 C   0  0  0  0  0  0  0  0  0
   -0.6482   -1.5915    0.0000 C   0  0  0  0  0  0  0  0  0
   -0.1632   -0.9241    0.0000 C   0  0  0  0  0  0  0  0  0
    0.6572   -1.0103    0.0000 C   0  0  0  0  0  0  0  0  0
  1  2  4  0  0  0  0
  1  6  4  0  0  0  0
  2  3  4  0  0  0  0
  3  4  4  0  0  0  0
  4  5  4  0  0  0  0
  5  6  4  0  0  0  0
  6  7  1  0  0  0  0
  7  8  4  0  0  0  0
  7 11  4  0  0  0  0
  8  9  4  0  0  0  0
  9 10  4  0  0  0  0
 10 11  4  0  0  0  0
 10 12  1  0  0  0  0
 12 13  1  0  0  0  0
 13 14  1  0  0  0  0
 13 18  1  0  0  0  0
 14 15  1  0  0  0  0
 15 16  1  0  0  0  0
 16 17  1  0  0  0  0
 16 19  1  0  0  0  0
 17 18  1  0  0  0  0
 19 20  4  0  0  0  0
 19 24  4  0  0  0  0
 20 21  4  0  0  0  0
 21 22  4  0  0  0  0
 22 23  4  0  0  0  0
 23 24  4  0  0  0  0
M  END
>  <Name_Molregno>
349999

>  <DOPAMINE D2>
6.55

>  <DOPAMINE D3>
6.8

>  <DOPAMINE D4>
8.59

$$$$
350028
  Marvin  02231216192D 0   1.00000     0.00000     0

 26 29  0  0  0  0  0  0  0  0999 V2000
   -5.5675    0.2994    0.0000 O   0  0  0  0  0  0  0  0  0
   -6.2820   -0.1131    0.0000 C   0  0  0  0  0  0  0  0  0
   -5.5675    1.1244    0.0000 C   0  0  0  0  0  0  0  0  0
   -6.2820    1.5369    0.0000 C   0  0  0  0  0  0  0  0  0
   -6.2820    2.3619    0.0000 C   0  0  0  0  0  0  0  0  0
   -5.5675    2.7744    0.0000 C   0  0  0  0  0  0  0  0  0
   -4.8531    2.3619    0.0000 C   0  0  0  0  0  0  0  0  0
   -4.8531    1.5369    0.0000 C   0  0  0  0  0  0  0  0  0
   -4.1386    1.1244    0.0000 N   0  0  0  0  0  0  0  0  0
   -3.4241    1.5369    0.0000 C   0  0  0  0  0  0  0  0  0
   -2.7096    1.1244    0.0000 C   0  0  0  0  0  0  0  0  0
   -2.7096    0.2994    0.0000 N   0  0  0  0  0  0  0  0  0
   -3.4241   -0.1131    0.0000 C   0  0  0  0  0  0  0  0  0
   -4.1386    0.2994    0.0000 C   0  0  0  0  0  0  0  0  0
   -1.9952   -0.1131    0.0000 C   0  0  0  0  0  0  0  0  0
   -1.9952   -0.9381    0.0000 C   0  0  0  0  0  0  0  0  0
   -1.3277   -1.4230    0.0000 C   0  0  0  0  0  0  0  0  0
   -1.5827   -2.2076    0.0000 N   0  0  0  0  0  0  0  0  0
   -2.4077   -2.2076    0.0000 N   0  0  0  0  0  0  0  0  0
   -2.6626   -1.4230    0.0000 C   0  0  0  0  0  0  0  0  0
   -1.0977   -2.8751    0.0000 C   0  0  0  0  0  0  0  0  0
   -0.2773   -2.7888    0.0000 N   0  0  0  0  0  0  0  0  0
    0.2077   -3.4563    0.0000 C   0  0  0  0  0  0  0  0  0
   -0.1279   -4.2099    0.0000 C   0  0  0  0  0  0  0  0  0
   -0.9484   -4.2962    0.0000 C   0  0  0  0  0  0  0  0  0
   -1.4333   -3.6287    0.0000 C   0  0  0  0  0  0  0  0  0
  1  2  1  0  0  0  0
  1  3  1  0  0  0  0
  3  4  4  0  0  0  0
  3  8  4  0  0  0  0
  4  5  4  0  0  0  0
  5  6  4  0  0  0  0
  6  7  4  0  0  0  0
  7  8  4  0  0  0  0
  8  9  1  0  0  0  0
  9 10  1  0  0  0  0
  9 14  1  0  0  0  0
 10 11  1  0  0  0  0
 11 12  1  0  0  0  0
 12 13  1  0  0  0  0
 12 15  1  0  0  0  0
 13 14  1  0  0  0  0
 15 16  1  0  0  0  0
 16 17  4  0  0  0  0
 16 20  4  0  0  0  0
 17 18  4  0  0  0  0
 18 19  4  0  0  0  0
 18 21  1  0  0  0  0
 19 20  4  0  0  0  0
 21 22  4  0  0  0  0
 21 26  4  0  0  0  0
 22 23  4  0  0  0  0
 23 24  4  0  0  0  0
 24 25  4  0  0  0  0
 25 26  4  0  0  0  0
M  END
>  <Name_Molregno>
350028

>  <DOPAMINE D2>
7.44

>  <DOPAMINE D3>
7.14

>  <DOPAMINE D4>
9.36

$$$$
350029
  Marvin  02231216192D 0   1.00000     0.00000     0

 24 27  0  0  0  0  0  0  0  0999 V2000
    1.0936   -2.1604    0.0000 N   0  0  0  0  0  0  0  0  0
    0.2686   -2.1604    0.0000 N   0  0  0  0  0  0  0  0  0
    0.0136   -1.3757    0.0000 C   0  0  0  0  0  0  0  0  0
    0.6811   -0.8908    0.0000 C   0  0  0  0  0  0  0  0  0
    1.3485   -1.3757    0.0000 C   0  0  0  0  0  0  0  0  0
    0.6811   -0.0658    0.0000 C   0  0  0  0  0  0  0  0  0
    1.3955    0.3467    0.0000 N   0  0  0  0  0  0  0  0  0
    1.3955    1.1717    0.0000 C   0  0  0  0  0  0  0  0  0
    2.1100    1.5842    0.0000 C   0  0  0  0  0  0  0  0  0
    2.8245    1.1717    0.0000 N   0  0  0  0  0  0  0  0  0
    2.8245    0.3467    0.0000 C   0  0  0  0  0  0  0  0  0
    2.1100   -0.0658    0.0000 C   0  0  0  0  0  0  0  0  0
    3.5389    1.5842    0.0000 C   0  0  0  0  0  0  0  0  0
    3.5389    2.4092    0.0000 C   0  0  0  0  0  0  0  0  0
    4.2534    2.8217    0.0000 C   0  0  0  0  0  0  0  0  0
    4.9679    2.4092    0.0000 C   0  0  0  0  0  0  0  0  0
    4.9679    1.5842    0.0000 C   0  0  0  0  0  0  0  0  0
    4.2534    1.1717    0.0000 C   0  0  0  0  0  0  0  0  0
   -0.2164   -2.8278    0.0000 C   0  0  0  0  0  0  0  0  0
    0.1192   -3.5815    0.0000 C   0  0  0  0  0  0  0  0  0
   -0.3657   -4.2489    0.0000 C   0  0  0  0  0  0  0  0  0
   -1.1862   -4.1627    0.0000 C   0  0  0  0  0  0  0  0  0
   -1.5218   -3.4090    0.0000 C   0  0  0  0  0  0  0  0  0
   -1.0368   -2.7416    0.0000 C   0  0  0  0  0  0  0  0  0
  1  2  4  0  0  0  0
  1  5  4  0  0  0  0
  2  3  4  0  0  0  0
  2 19  1  0  0  0  0
  3  4  4  0  0  0  0
  4  5  4  0  0  0  0
  4  6  1  0  0  0  0
  6  7  1  0  0  0  0
  7  8  1  0  0  0  0
  7 12  1  0  0  0  0
  8  9  1  0  0  0  0
  9 10  1  0  0  0  0
 10 11  1  0  0  0  0
 10 13  1  0  0  0  0
 11 12  1  0  0  0  0
 13 14  4  0  0  0  0
 13 18  4  0  0  0  0
 14 15  4  0  0  0  0
 15 16  4  0  0  0  0
 16 17  4  0  0  0  0
 17 18  4  0  0  0  0
 19 20  4  0  0  0  0
 19 24  4  0  0  0  0
 20 21  4  0  0  0  0
 21 22  4  0  0  0  0
 22 23  4  0  0  0  0
 23 24  4  0  0  0  0
M  END
>  <Name_Molregno>
350029

>  <DOPAMINE D2>
6.94

>  <DOPAMINE D3>
6.85

>  <DOPAMINE D4>
9

$$$$
350057
  Marvin  02231216192D 0   1.00000     0.00000     0

 25 28  0  0  0  0  0  0  0  0999 V2000
    0.9453    2.4084    0.0000 Cl  0  0  0  0  0  0  0  0  0
    1.6598    1.9959    0.0000 C   0  0  0  0  0  0  0  0  0
    2.3742    2.4084    0.0000 C   0  0  0  0  0  0  0  0  0
    3.0887    1.9959    0.0000 C   0  0  0  0  0  0  0  0  0
    3.0887    1.1709    0.0000 C   0  0  0  0  0  0  0  0  0
    3.8032    0.7584    0.0000 N   0  0  0  0  0  0  0  0  0
    4.5177    1.1709    0.0000 C   0  0  0  0  0  0  0  0  0
    5.2321    0.7584    0.0000 C   0  0  0  0  0  0  0  0  0
    5.2321   -0.0666    0.0000 N   0  0  0  0  0  0  0  0  0
    4.5177   -0.4791    0.0000 C   0  0  0  0  0  0  0  0  0
    3.8032   -0.0666    0.0000 C   0  0  0  0  0  0  0  0  0
    5.9466   -0.4791    0.0000 C   0  0  0  0  0  0  0  0  0
    5.9466   -1.3041    0.0000 C   0  0  0  0  0  0  0  0  0
    6.6140   -1.7890    0.0000 C   0  0  0  0  0  0  0  0  0
    6.3591   -2.5736    0.0000 N   0  0  0  0  0  0  0  0  0
    5.5341   -2.5736    0.0000 N   0  0  0  0  0  0  0  0  0
    5.2792   -1.7890    0.0000 C   0  0  0  0  0  0  0  0  0
    6.8440   -3.2411    0.0000 C   0  0  0  0  0  0  0  0  0
    7.6645   -3.1548    0.0000 C   0  0  0  0  0  0  0  0  0
    8.1494   -3.8223    0.0000 C   0  0  0  0  0  0  0  0  0
    7.8139   -4.5759    0.0000 C   0  0  0  0  0  0  0  0  0
    6.9934   -4.6622    0.0000 C   0  0  0  0  0  0  0  0  0
    6.5085   -3.9947    0.0000 C   0  0  0  0  0  0  0  0  0
    2.3742    0.7584    0.0000 C   0  0  0  0  0  0  0  0  0
    1.6598    1.1709    0.0000 C   0  0  0  0  0  0  0  0  0
  1  2  1  0  0  0  0
  2  3  4  0  0  0  0
  2 25  4  0  0  0  0
  3  4  4  0  0  0  0
  4  5  4  0  0  0  0
  5  6  1  0  0  0  0
  5 24  4  0  0  0  0
  6  7  1  0  0  0  0
  6 11  1  0  0  0  0
  7  8  1  0  0  0  0
  8  9  1  0  0  0  0
  9 10  1  0  0  0  0
  9 12  1  0  0  0  0
 10 11  1  0  0  0  0
 12 13  1  0  0  0  0
 13 14  4  0  0  0  0
 13 17  4  0  0  0  0
 14 15  4  0  0  0  0
 15 16  4  0  0  0  0
 15 18  1  0  0  0  0
 16 17  4  0  0  0  0
 18 19  4  0  0  0  0
 18 23  4  0  0  0  0
 19 20  4  0  0  0  0
 20 21  4  0  0  0  0
 21 22  4  0  0  0  0
 22 23  4  0  0  0  0
 24 25  4  0  0  0  0
M  END
>  <Name_Molregno>
350057

>  <DOPAMINE D2>
5.6

>  <DOPAMINE D3>
5.72

>  <DOPAMINE D4>
8.54

$$$$
350714
  Marvin  02231216192D 0   1.00000     0.00000     0

 24 27  0  0  0  0  0  0  0  0999 V2000
    8.5261   -2.9246    0.0000 Cl  0  0  0  0  0  0  0  0  0
    7.8116   -2.5121    0.0000 C   0  0  0  0  0  0  0  0  0
    7.0972   -2.9246    0.0000 N   0  0  0  0  0  0  0  0  0
    6.3827   -2.5121    0.0000 N   0  0  0  0  0  0  0  0  0
    5.5981   -2.7670    0.0000 C   0  0  0  0  0  0  0  0  0
    5.1131   -2.0996    0.0000 C   0  0  0  0  0  0  0  0  0
    5.5981   -1.4321    0.0000 N   0  0  0  0  0  0  0  0  0
    6.3827   -1.6871    0.0000 C   0  0  0  0  0  0  0  0  0
    7.0972   -1.2746    0.0000 C   0  0  0  0  0  0  0  0  0
    7.8116   -1.6871    0.0000 C   0  0  0  0  0  0  0  0  0
    4.2881   -2.0996    0.0000 C   0  0  0  0  0  0  0  0  0
    3.8756   -1.3851    0.0000 N   0  0  0  0  0  0  0  0  0
    3.0506   -1.3851    0.0000 C   0  0  0  0  0  0  0  0  0
    2.6381   -0.6706    0.0000 C   0  0  0  0  0  0  0  0  0
    3.0506    0.0438    0.0000 N   0  0  0  0  0  0  0  0  0
    3.8756    0.0438    0.0000 C   0  0  0  0  0  0  0  0  0
    4.2881   -0.6706    0.0000 C   0  0  0  0  0  0  0  0  0
    2.6381    0.7583    0.0000 C   0  0  0  0  0  0  0  0  0
    1.8131    0.7583    0.0000 C   0  0  0  0  0  0  0  0  0
    1.4006    1.4728    0.0000 C   0  0  0  0  0  0  0  0  0
    1.8131    2.1872    0.0000 C   0  0  0  0  0  0  0  0  0
    1.4006    2.9017    0.0000 Cl  0  0  0  0  0  0  0  0  0
    2.6381    2.1872    0.0000 C   0  0  0  0  0  0  0  0  0
    3.0506    1.4728    0.0000 C   0  0  0  0  0  0  0  0  0
  1  2  1  0  0  0  0
  2  3  4  0  0  0  0
  2 10  4  0  0  0  0
  3  4  4  0  0  0  0
  4  5  4  0  0  0  0
  4  8  4  0  0  0  0
  5  6  4  0  0  0  0
  6  7  4  0  0  0  0
  6 11  1  0  0  0  0
  7  8  4  0  0  0  0
  8  9  4  0  0  0  0
  9 10  4  0  0  0  0
 11 12  1  0  0  0  0
 12 13  1  0  0  0  0
 12 17  1  0  0  0  0
 13 14  1  0  0  0  0
 14 15  1  0  0  0  0
 15 16  1  0  0  0  0
 15 18  1  0  0  0  0
 16 17  1  0  0  0  0
 18 19  4  0  0  0  0
 18 24  4  0  0  0  0
 19 20  4  0  0  0  0
 20 21  4  0  0  0  0
 21 22  1  0  0  0  0
 21 23  4  0  0  0  0
 23 24  4  0  0  0  0
M  END
>  <Name_Molregno>
350714

>  <DOPAMINE D2>
5.01

>  <DOPAMINE D3>
5.11

>  <DOPAMINE D4>
8.7

$$$$
350716
  Marvin  02231216192D 0   1.00000     0.00000     0

 26 29  0  0  0  0  0  0  0  0999 V2000
    6.1280   -1.0133    0.0000 Br  0  0  0  0  0  0  0  0  0
    6.1280   -1.8383    0.0000 C   0  0  0  0  0  0  0  0  0
    6.8424   -2.2508    0.0000 C   0  0  0  0  0  0  0  0  0
    6.8424   -3.0758    0.0000 C   0  0  0  0  0  0  0  0  0
    6.1280   -3.4883    0.0000 C   0  0  0  0  0  0  0  0  0
    5.4135   -3.0758    0.0000 N   0  0  0  0  0  0  0  0  0
    5.4135   -2.2508    0.0000 C   0  0  0  0  0  0  0  0  0
    4.6289   -1.9959    0.0000 N   0  0  0  0  0  0  0  0  0
    4.1439   -2.6633    0.0000 C   0  0  0  0  0  0  0  0  0
    4.6289   -3.3308    0.0000 C   0  0  0  0  0  0  0  0  0
    3.3189   -2.6633    0.0000 C   0  0  0  0  0  0  0  0  0
    2.9064   -1.9489    0.0000 N   0  0  0  0  0  0  0  0  0
    2.0814   -1.9489    0.0000 C   0  0  0  0  0  0  0  0  0
    1.6689   -1.2344    0.0000 C   0  0  0  0  0  0  0  0  0
    2.0814   -0.5199    0.0000 N   0  0  0  0  0  0  0  0  0
    2.9064   -0.5199    0.0000 C   0  0  0  0  0  0  0  0  0
    3.3189   -1.2344    0.0000 C   0  0  0  0  0  0  0  0  0
    1.6689    0.1946    0.0000 C   0  0  0  0  0  0  0  0  0
    0.8439    0.1946    0.0000 C   0  0  0  0  0  0  0  0  0
    0.4314    0.9090    0.0000 C   0  0  0  0  0  0  0  0  0
    0.8439    1.6235    0.0000 C   0  0  0  0  0  0  0  0  0
    1.6689    1.6235    0.0000 C   0  0  0  0  0  0  0  0  0
    2.0814    0.9090    0.0000 C   0  0  0  0  0  0  0  0  0
    2.9064    0.9090    0.0000 O   0  0  0  0  0  0  0  0  0
    3.3189    1.6235    0.0000 C   0  0  0  0  0  0  0  0  0
    7.5569   -3.4883    0.0000 C   0  0  0  0  0  0  0  0  0
  1  2  1  0  0  0  0
  2  3  4  0  0  0  0
  2  7  4  0  0  0  0
  3  4  4  0  0  0  0
  4  5  4  0  0  0  0
  4 26  1  0  0  0  0
  5  6  4  0  0  0  0
  6  7  4  0  0  0  0
  6 10  4  0  0  0  0
  7  8  4  0  0  0  0
  8  9  4  0  0  0  0
  9 10  4  0  0  0  0
  9 11  1  0  0  0  0
 11 12  1  0  0  0  0
 12 13  1  0  0  0  0
 12 17  1  0  0  0  0
 13 14  1  0  0  0  0
 14 15  1  0  0  0  0
 15 16  1  0  0  0  0
 15 18  1  0  0  0  0
 16 17  1  0  0  0  0
 18 19  4  0  0  0  0
 18 23  4  0  0  0  0
 19 20  4  0  0  0  0
 20 21  4  0  0  0  0
 21 22  4  0  0  0  0
 22 23  4  0  0  0  0
 23 24  1  0  0  0  0
 24 25  1  0  0  0  0
M  END
>  <Name_Molregno>
350716

>  <DOPAMINE D2>
6.72

>  <DOPAMINE D3>
6.17

>  <DOPAMINE D4>
9

$$$$
350743
  Marvin  02231216192D 0   1.00000     0.00000     0

 23 26  0  0  0  0  0  0  0  0999 V2000
    1.4515   -2.7342    0.0000 F   0  0  0  0  0  0  0  0  0
    1.8640   -2.0197    0.0000 C   0  0  0  0  0  0  0  0  0
    1.4515   -1.3053    0.0000 C   0  0  0  0  0  0  0  0  0
    1.8640   -0.5908    0.0000 C   0  0  0  0  0  0  0  0  0
    2.6890   -0.5908    0.0000 C   0  0  0  0  0  0  0  0  0
    3.1015    0.1237    0.0000 N   0  0  0  0  0  0  0  0  0
    2.6890    0.8382    0.0000 C   0  0  0  0  0  0  0  0  0
    3.1015    1.5526    0.0000 C   0  0  0  0  0  0  0  0  0
    3.9265    1.5526    0.0000 N   0  0  0  0  0  0  0  0  0
    4.3390    0.8382    0.0000 C   0  0  0  0  0  0  0  0  0
    3.9265    0.1237    0.0000 C   0  0  0  0  0  0  0  0  0
    4.3390    2.2671    0.0000 C   0  0  0  0  0  0  0  0  0
    5.1640    2.2671    0.0000 C   0  0  0  0  0  0  0  0  0
    5.6489    1.5997    0.0000 N   0  0  0  0  0  0  0  0  0
    6.4336    1.8546    0.0000 C   0  0  0  0  0  0  0  0  0
    6.4336    2.6796    0.0000 N   0  0  0  0  0  0  0  0  0
    5.6489    2.9345    0.0000 C   0  0  0  0  0  0  0  0  0
    7.1480    3.0921    0.0000 C   0  0  0  0  0  0  0  0  0
    7.8625    2.6796    0.0000 C   0  0  0  0  0  0  0  0  0
    7.8625    1.8546    0.0000 N   0  0  0  0  0  0  0  0  0
    7.1480    1.4421    0.0000 C   0  0  0  0  0  0  0  0  0
    3.1015   -1.3053    0.0000 C   0  0  0  0  0  0  0  0  0
    2.6890   -2.0197    0.0000 C   0  0  0  0  0  0  0  0  0
  1  2  1  0  0  0  0
  2  3  4  0  0  0  0
  2 23  4  0  0  0  0
  3  4  4  0  0  0  0
  4  5  4  0  0  0  0
  5  6  1  0  0  0  0
  5 22  4  0  0  0  0
  6  7  1  0  0  0  0
  6 11  1  0  0  0  0
  7  8  1  0  0  0  0
  8  9  1  0  0  0  0
  9 10  1  0  0  0  0
  9 12  1  0  0  0  0
 10 11  1  0  0  0  0
 12 13  1  0  0  0  0
 13 14  4  0  0  0  0
 13 17  4  0  0  0  0
 14 15  4  0  0  0  0
 15 16  4  0  0  0  0
 15 21  4  0  0  0  0
 16 17  4  0  0  0  0
 16 18  4  0  0  0  0
 18 19  4  0  0  0  0
 19 20  4  0  0  0  0
 20 21  4  0  0  0  0
 22 23  4  0  0  0  0
M  END
>  <Name_Molregno>
350743

>  <DOPAMINE D2>
4.18

>  <DOPAMINE D3>
4.38

>  <DOPAMINE D4>
6.3

$$$$
350744
  Marvin  02231216192D 0   1.00000     0.00000     0

 23 26  0  0  0  0  0  0  0  0999 V2000
    1.4515   -2.7342    0.0000 F   0  0  0  0  0  0  0  0  0
    1.8640   -2.0197    0.0000 C   0  0  0  0  0  0  0  0  0
    1.4515   -1.3053    0.0000 C   0  0  0  0  0  0  0  0  0
    1.8640   -0.5908    0.0000 C   0  0  0  0  0  0  0  0  0
    2.6890   -0.5908    0.0000 C   0  0  0  0  0  0  0  0  0
    3.1015    0.1237    0.0000 N   0  0  0  0  0  0  0  0  0
    2.6890    0.8382    0.0000 C   0  0  0  0  0  0  0  0  0
    3.1015    1.5526    0.0000 C   0  0  0  0  0  0  0  0  0
    3.9265    1.5526    0.0000 N   0  0  0  0  0  0  0  0  0
    4.3390    0.8382    0.0000 C   0  0  0  0  0  0  0  0  0
    3.9265    0.1237    0.0000 C   0  0  0  0  0  0  0  0  0
    4.3390    2.2671    0.0000 C   0  0  0  0  0  0  0  0  0
    5.1640    2.2671    0.0000 C   0  0  0  0  0  0  0  0  0
    5.6489    1.5997    0.0000 N   0  0  0  0  0  0  0  0  0
    6.4336    1.8546    0.0000 C   0  0  0  0  0  0  0  0  0
    6.4336    2.6796    0.0000 N   0  0  0  0  0  0  0  0  0
    5.6489    2.9345    0.0000 C   0  0  0  0  0  0  0  0  0
    7.1480    3.0921    0.0000 C   0  0  0  0  0  0  0  0  0
    7.8625    2.6796    0.0000 C   0  0  0  0  0  0  0  0  0
    7.8625    1.8546    0.0000 C   0  0  0  0  0  0  0  0  0
    7.1480    1.4421    0.0000 N   0  0  0  0  0  0  0  0  0
    3.1015   -1.3053    0.0000 C   0  0  0  0  0  0  0  0  0
    2.6890   -2.0197    0.0000 C   0  0  0  0  0  0  0  0  0
  1  2  1  0  0  0  0
  2  3  4  0  0  0  0
  2 23  4  0  0  0  0
  3  4  4  0  0  0  0
  4  5  4  0  0  0  0
  5  6  1  0  0  0  0
  5 22  4  0  0  0  0
  6  7  1  0  0  0  0
  6 11  1  0  0  0  0
  7  8  1  0  0  0  0
  8  9  1  0  0  0  0
  9 10  1  0  0  0  0
  9 12  1  0  0  0  0
 10 11  1  0  0  0  0
 12 13  1  0  0  0  0
 13 14  4  0  0  0  0
 13 17  4  0  0  0  0
 14 15  4  0  0  0  0
 15 16  4  0  0  0  0
 15 21  4  0  0  0  0
 16 17  4  0  0  0  0
 16 18  4  0  0  0  0
 18 19  4  0  0  0  0
 19 20  4  0  0  0  0
 20 21  4  0  0  0  0
 22 23  4  0  0  0  0
M  END
>  <Name_Molregno>
350744

>  <DOPAMINE D2>
4.29

>  <DOPAMINE D3>
4.22

>  <DOPAMINE D4>
5.55

$$$$
350745
  Marvin  02231216192D 0   1.00000     0.00000     0

 26 29  0  0  0  0  0  0  0  0999 V2000
    6.1280   -1.0133    0.0000 I   0  0  0  0  0  0  0  0  0
    6.1280   -1.8383    0.0000 C   0  0  0  0  0  0  0  0  0
    6.8424   -2.2508    0.0000 C   0  0  0  0  0  0  0  0  0
    6.8424   -3.0758    0.0000 C   0  0  0  0  0  0  0  0  0
    6.1280   -3.4883    0.0000 C   0  0  0  0  0  0  0  0  0
    5.4135   -3.0758    0.0000 N   0  0  0  0  0  0  0  0  0
    5.4135   -2.2508    0.0000 C   0  0  0  0  0  0  0  0  0
    4.6289   -1.9959    0.0000 N   0  0  0  0  0  0  0  0  0
    4.1439   -2.6633    0.0000 C   0  0  0  0  0  0  0  0  0
    4.6289   -3.3308    0.0000 C   0  0  0  0  0  0  0  0  0
    3.3189   -2.6633    0.0000 C   0  0  0  0  0  0  0  0  0
    2.9064   -1.9489    0.0000 N   0  0  0  0  0  0  0  0  0
    2.0814   -1.9489    0.0000 C   0  0  0  0  0  0  0  0  0
    1.6689   -1.2344    0.0000 C   0  0  0  0  0  0  0  0  0
    2.0814   -0.5199    0.0000 N   0  0  0  0  0  0  0  0  0
    2.9064   -0.5199    0.0000 C   0  0  0  0  0  0  0  0  0
    3.3189   -1.2344    0.0000 C   0  0  0  0  0  0  0  0  0
    1.6689    0.1946    0.0000 C   0  0  0  0  0  0  0  0  0
    0.8439    0.1946    0.0000 C   0  0  0  0  0  0  0  0  0
    0.4314    0.9090    0.0000 C   0  0  0  0  0  0  0  0  0
    0.8439    1.6235    0.0000 C   0  0  0  0  0  0  0  0  0
    1.6689    1.6235    0.0000 C   0  0  0  0  0  0  0  0  0
    2.0814    0.9090    0.0000 C   0  0  0  0  0  0  0  0  0
    2.9064    0.9090    0.0000 O   0  0  0  0  0  0  0  0  0
    3.3189    1.6235    0.0000 C   0  0  0  0  0  0  0  0  0
    7.5569   -3.4883    0.0000 C   0  0  0  0  0  0  0  0  0
  1  2  1  0  0  0  0
  2  3  4  0  0  0  0
  2  7  4  0  0  0  0
  3  4  4  0  0  0  0
  4  5  4  0  0  0  0
  4 26  1  0  0  0  0
  5  6  4  0  0  0  0
  6  7  4  0  0  0  0
  6 10  4  0  0  0  0
  7  8  4  0  0  0  0
  8  9  4  0  0  0  0
  9 10  4  0  0  0  0
  9 11  1  0  0  0  0
 11 12  1  0  0  0  0
 12 13  1  0  0  0  0
 12 17  1  0  0  0  0
 13 14  1  0  0  0  0
 14 15  1  0  0  0  0
 15 16  1  0  0  0  0
 15 18  1  0  0  0  0
 16 17  1  0  0  0  0
 18 19  4  0  0  0  0
 18 23  4  0  0  0  0
 19 20  4  0  0  0  0
 20 21  4  0  0  0  0
 21 22  4  0  0  0  0
 22 23  4  0  0  0  0
 23 24  1  0  0  0  0
 24 25  1  0  0  0  0
M  END
>  <Name_Molregno>
350745

>  <DOPAMINE D2>
7.04

>  <DOPAMINE D3>
6.33

>  <DOPAMINE D4>
9.28

$$$$
350775
  Marvin  02231216192D 0   1.00000     0.00000     0

 30 34  0  0  0  0  0  0  0  0999 V2000
    0.5164   -2.4106    0.0000 Cl  0  0  0  0  0  0  0  0  0
    1.3414   -2.4106    0.0000 C   0  0  0  0  0  0  0  0  0
    1.7539   -1.6962    0.0000 C   0  0  0  0  0  0  0  0  0
    2.5789   -1.6962    0.0000 C   0  0  0  0  0  0  0  0  0
    2.9914   -0.9817    0.0000 N   0  0  0  0  0  0  0  0  0
    2.5789   -0.2672    0.0000 C   0  0  0  0  0  0  0  0  0
    2.9914    0.4472    0.0000 C   0  0  0  0  0  0  0  0  0
    3.8164    0.4472    0.0000 N   0  0  0  0  0  0  0  0  0
    4.2289   -0.2672    0.0000 C   0  0  0  0  0  0  0  0  0
    3.8164   -0.9817    0.0000 C   0  0  0  0  0  0  0  0  0
    4.2289    1.1617    0.0000 C   0  0  0  0  0  0  0  0  0
    5.0539    1.1617    0.0000 C   0  0  0  0  0  0  0  0  0
    5.5389    0.4943    0.0000 N   0  0  0  0  0  0  0  0  0
    6.3235    0.7492    0.0000 C   0  0  0  0  0  0  0  0  0
    6.3235    1.5742    0.0000 N   0  0  0  0  0  0  0  0  0
    7.0380    1.9867    0.0000 N   0  0  0  0  0  0  0  0  0
    7.7524    1.5742    0.0000 C   0  0  0  0  0  0  0  0  0
    8.4669    1.9867    0.0000 N   0  0  0  0  0  0  0  0  0
    8.4669    2.8117    0.0000 C   0  0  0  0  0  0  0  0  0
    9.1814    3.2242    0.0000 C   0  0  0  0  0  0  0  0  0
    9.8958    2.8117    0.0000 C   0  0  0  0  0  0  0  0  0
    9.8958    1.9867    0.0000 C   0  0  0  0  0  0  0  0  0
    9.1814    1.5742    0.0000 C   0  0  0  0  0  0  0  0  0
    7.7524    0.7492    0.0000 C   0  0  0  0  0  0  0  0  0
    7.0380    0.3367    0.0000 C   0  0  0  0  0  0  0  0  0
    5.5389    1.8291    0.0000 C   0  0  0  0  0  0  0  0  0
    2.9914   -2.4106    0.0000 C   0  0  0  0  0  0  0  0  0
    2.5789   -3.1251    0.0000 C   0  0  0  0  0  0  0  0  0
    1.7539   -3.1251    0.0000 C   0  0  0  0  0  0  0  0  0
    1.3414   -3.8396    0.0000 Cl  0  0  0  0  0  0  0  0  0
  1  2  1  0  0  0  0
  2  3  4  0  0  0  0
  2 29  4  0  0  0  0
  3  4  4  0  0  0  0
  4  5  1  0  0  0  0
  4 27  4  0  0  0  0
  5  6  1  0  0  0  0
  5 10  1  0  0  0  0
  6  7  1  0  0  0  0
  7  8  1  0  0  0  0
  8  9  1  0  0  0  0
  8 11  1  0  0  0  0
  9 10  1  0  0  0  0
 11 12  1  0  0  0  0
 12 13  4  0  0  0  0
 12 26  4  0  0  0  0
 13 14  4  0  0  0  0
 14 15  4  0  0  0  0
 14 25  4  0  0  0  0
 15 16  4  0  0  0  0
 15 26  4  0  0  0  0
 16 17  4  0  0  0  0
 17 18  1  0  0  0  0
 17 24  4  0  0  0  0
 18 19  1  0  0  0  0
 18 23  1  0  0  0  0
 19 20  1  0  0  0  0
 20 21  1  0  0  0  0
 21 22  1  0  0  0  0
 22 23  1  0  0  0  0
 24 25  4  0  0  0  0
 27 28  4  0  0  0  0
 28 29  4  0  0  0  0
 29 30  1  0  0  0  0
M  END
>  <Name_Molregno>
350775

>  <DOPAMINE D2>
6.06

>  <DOPAMINE D3>
6.07

>  <DOPAMINE D4>
6.92

$$$$
350801
  Marvin  02231216192D 0   1.00000     0.00000     0

 23 26  0  0  0  0  0  0  0  0999 V2000
    1.4515   -2.7342    0.0000 F   0  0  0  0  0  0  0  0  0
    1.8640   -2.0197    0.0000 C   0  0  0  0  0  0  0  0  0
    1.4515   -1.3053    0.0000 C   0  0  0  0  0  0  0  0  0
    1.8640   -0.5908    0.0000 C   0  0  0  0  0  0  0  0  0
    2.6890   -0.5908    0.0000 C   0  0  0  0  0  0  0  0  0
    3.1015    0.1237    0.0000 N   0  0  0  0  0  0  0  0  0
    2.6890    0.8382    0.0000 C   0  0  0  0  0  0  0  0  0
    3.1015    1.5526    0.0000 C   0  0  0  0  0  0  0  0  0
    3.9265    1.5526    0.0000 N   0  0  0  0  0  0  0  0  0
    4.3390    0.8382    0.0000 C   0  0  0  0  0  0  0  0  0
    3.9265    0.1237    0.0000 C   0  0  0  0  0  0  0  0  0
    4.3390    2.2671    0.0000 C   0  0  0  0  0  0  0  0  0
    5.1640    2.2671    0.0000 C   0  0  0  0  0  0  0  0  0
    5.6489    1.5997    0.0000 N   0  0  0  0  0  0  0  0  0
    6.4336    1.8546    0.0000 C   0  0  0  0  0  0  0  0  0
    6.4336    2.6796    0.0000 N   0  0  0  0  0  0  0  0  0
    5.6489    2.9345    0.0000 C   0  0  0  0  0  0  0  0  0
    7.1480    3.0921    0.0000 C   0  0  0  0  0  0  0  0  0
    7.8625    2.6796    0.0000 C   0  0  0  0  0  0  0  0  0
    7.8625    1.8546    0.0000 C   0  0  0  0  0  0  0  0  0
    7.1480    1.4421    0.0000 C   0  0  0  0  0  0  0  0  0
    3.1015   -1.3053    0.0000 C   0  0  0  0  0  0  0  0  0
    2.6890   -2.0197    0.0000 C   0  0  0  0  0  0  0  0  0
  1  2  1  0  0  0  0
  2  3  4  0  0  0  0
  2 23  4  0  0  0  0
  3  4  4  0  0  0  0
  4  5  4  0  0  0  0
  5  6  1  0  0  0  0
  5 22  4  0  0  0  0
  6  7  1  0  0  0  0
  6 11  1  0  0  0  0
  7  8  1  0  0  0  0
  8  9  1  0  0  0  0
  9 10  1  0  0  0  0
  9 12  1  0  0  0  0
 10 11  1  0  0  0  0
 12 13  1  0  0  0  0
 13 14  4  0  0  0  0
 13 17  4  0  0  0  0
 14 15  4  0  0  0  0
 15 16  4  0  0  0  0
 15 21  4  0  0  0  0
 16 17  4  0  0  0  0
 16 18  4  0  0  0  0
 18 19  4  0  0  0  0
 19 20  4  0  0  0  0
 20 21  4  0  0  0  0
 22 23  4  0  0  0  0
M  END
>  <Name_Molregno>
350801

>  <DOPAMINE D2>
4.7

>  <DOPAMINE D3>
5.51

>  <DOPAMINE D4>
7.36

$$$$
350802
  Marvin  02231216192D 0   1.00000     0.00000     0

 24 27  0  0  0  0  0  0  0  0999 V2000
    0.3998   -1.8965    0.0000 Cl  0  0  0  0  0  0  0  0  0
    1.2248   -1.8965    0.0000 C   0  0  0  0  0  0  0  0  0
    1.6373   -1.1821    0.0000 C   0  0  0  0  0  0  0  0  0
    2.4623   -1.1821    0.0000 C   0  0  0  0  0  0  0  0  0
    2.8748   -0.4676    0.0000 N   0  0  0  0  0  0  0  0  0
    2.4623    0.2469    0.0000 C   0  0  0  0  0  0  0  0  0
    2.8748    0.9613    0.0000 C   0  0  0  0  0  0  0  0  0
    3.6998    0.9613    0.0000 N   0  0  0  0  0  0  0  0  0
    4.1123    0.2469    0.0000 C   0  0  0  0  0  0  0  0  0
    3.6998   -0.4676    0.0000 C   0  0  0  0  0  0  0  0  0
    4.1123    1.6758    0.0000 C   0  0  0  0  0  0  0  0  0
    4.9373    1.6758    0.0000 C   0  0  0  0  0  0  0  0  0
    5.4222    1.0084    0.0000 N   0  0  0  0  0  0  0  0  0
    6.2069    1.2633    0.0000 C   0  0  0  0  0  0  0  0  0
    6.2069    2.0883    0.0000 N   0  0  0  0  0  0  0  0  0
    5.4222    2.3433    0.0000 C   0  0  0  0  0  0  0  0  0
    6.9213    2.5008    0.0000 C   0  0  0  0  0  0  0  0  0
    7.6358    2.0883    0.0000 C   0  0  0  0  0  0  0  0  0
    7.6358    1.2633    0.0000 C   0  0  0  0  0  0  0  0  0
    6.9213    0.8508    0.0000 C   0  0  0  0  0  0  0  0  0
    2.8748   -1.8965    0.0000 C   0  0  0  0  0  0  0  0  0
    2.4623   -2.6110    0.0000 C   0  0  0  0  0  0  0  0  0
    1.6373   -2.6110    0.0000 C   0  0  0  0  0  0  0  0  0
    1.2248   -3.3255    0.0000 Cl  0  0  0  0  0  0  0  0  0
  1  2  1  0  0  0  0
  2  3  4  0  0  0  0
  2 23  4  0  0  0  0
  3  4  4  0  0  0  0
  4  5  1  0  0  0  0
  4 21  4  0  0  0  0
  5  6  1  0  0  0  0
  5 10  1  0  0  0  0
  6  7  1  0  0  0  0
  7  8  1  0  0  0  0
  8  9  1  0  0  0  0
  8 11  1  0  0  0  0
  9 10  1  0  0  0  0
 11 12  1  0  0  0  0
 12 13  4  0  0  0  0
 12 16  4  0  0  0  0
 13 14  4  0  0  0  0
 14 15  4  0  0  0  0
 14 20  4  0  0  0  0
 15 16  4  0  0  0  0
 15 17  4  0  0  0  0
 17 18  4  0  0  0  0
 18 19  4  0  0  0  0
 19 20  4  0  0  0  0
 21 22  4  0  0  0  0
 22 23  4  0  0  0  0
 23 24  1  0  0  0  0
M  END
>  <Name_Molregno>
350802

>  <DOPAMINE D2>
5.53

>  <DOPAMINE D3>
5.77

>  <DOPAMINE D4>
8.85

$$$$
350803
  Marvin  02231216192D 0   1.00000     0.00000     0

 24 27  0  0  0  0  0  0  0  0999 V2000
   -3.1731   -1.2562    0.0000 O   0  0  0  0  0  0  0  0  0
   -2.7606   -1.9707    0.0000 C   0  0  0  0  0  0  0  0  0
   -3.9981   -1.2562    0.0000 C   0  0  0  0  0  0  0  0  0
   -4.4106   -1.9707    0.0000 C   0  0  0  0  0  0  0  0  0
   -5.2356   -1.9707    0.0000 C   0  0  0  0  0  0  0  0  0
   -5.6481   -1.2562    0.0000 C   0  0  0  0  0  0  0  0  0
   -5.2356   -0.5418    0.0000 C   0  0  0  0  0  0  0  0  0
   -4.4106   -0.5418    0.0000 C   0  0  0  0  0  0  0  0  0
   -3.9981    0.1727    0.0000 N   0  0  0  0  0  0  0  0  0
   -4.4106    0.8872    0.0000 C   0  0  0  0  0  0  0  0  0
   -3.9981    1.6016    0.0000 C   0  0  0  0  0  0  0  0  0
   -3.1731    1.6016    0.0000 N   0  0  0  0  0  0  0  0  0
   -2.7606    0.8872    0.0000 C   0  0  0  0  0  0  0  0  0
   -3.1731    0.1727    0.0000 C   0  0  0  0  0  0  0  0  0
   -2.7606    2.3161    0.0000 C   0  0  0  0  0  0  0  0  0
   -1.9356    2.3161    0.0000 C   0  0  0  0  0  0  0  0  0
   -1.4506    1.6487    0.0000 N   0  0  0  0  0  0  0  0  0
   -0.6660    1.9036    0.0000 C   0  0  0  0  0  0  0  0  0
   -0.6660    2.7286    0.0000 N   0  0  0  0  0  0  0  0  0
   -1.4506    2.9836    0.0000 C   0  0  0  0  0  0  0  0  0
    0.0484    3.1411    0.0000 C   0  0  0  0  0  0  0  0  0
    0.7629    2.7286    0.0000 C   0  0  0  0  0  0  0  0  0
    0.7629    1.9036    0.0000 C   0  0  0  0  0  0  0  0  0
    0.0484    1.4911    0.0000 C   0  0  0  0  0  0  0  0  0
  1  2  1  0  0  0  0
  1  3  1  0  0  0  0
  3  4  4  0  0  0  0
  3  8  4  0  0  0  0
  4  5  4  0  0  0  0
  5  6  4  0  0  0  0
  6  7  4  0  0  0  0
  7  8  4  0  0  0  0
  8  9  1  0  0  0  0
  9 10  1  0  0  0  0
  9 14  1  0  0  0  0
 10 11  1  0  0  0  0
 11 12  1  0  0  0  0
 12 13  1  0  0  0  0
 12 15  1  0  0  0  0
 13 14  1  0  0  0  0
 15 16  1  0  0  0  0
 16 17  4  0  0  0  0
 16 20  4  0  0  0  0
 17 18  4  0  0  0  0
 18 19  4  0  0  0  0
 18 24  4  0  0  0  0
 19 20  4  0  0  0  0
 19 21  4  0  0  0  0
 21 22  4  0  0  0  0
 22 23  4  0  0  0  0
 23 24  4  0  0  0  0
M  END
>  <Name_Molregno>
350803

>  <DOPAMINE D2>
6.33

>  <DOPAMINE D3>
5.41

>  <DOPAMINE D4>
8.55

$$$$
350831
  Marvin  02231216192D 0   1.00000     0.00000     0

 23 26  0  0  0  0  0  0  0  0999 V2000
    1.4515   -2.7342    0.0000 Cl  0  0  0  0  0  0  0  0  0
    1.8640   -2.0197    0.0000 C   0  0  0  0  0  0  0  0  0
    1.4515   -1.3053    0.0000 C   0  0  0  0  0  0  0  0  0
    1.8640   -0.5908    0.0000 C   0  0  0  0  0  0  0  0  0
    2.6890   -0.5908    0.0000 C   0  0  0  0  0  0  0  0  0
    3.1015    0.1237    0.0000 N   0  0  0  0  0  0  0  0  0
    2.6890    0.8382    0.0000 C   0  0  0  0  0  0  0  0  0
    3.1015    1.5526    0.0000 C   0  0  0  0  0  0  0  0  0
    3.9265    1.5526    0.0000 N   0  0  0  0  0  0  0  0  0
    4.3390    0.8382    0.0000 C   0  0  0  0  0  0  0  0  0
    3.9265    0.1237    0.0000 C   0  0  0  0  0  0  0  0  0
    4.3390    2.2671    0.0000 C   0  0  0  0  0  0  0  0  0
    5.1640    2.2671    0.0000 C   0  0  0  0  0  0  0  0  0
    5.6489    1.5997    0.0000 N   0  0  0  0  0  0  0  0  0
    6.4336    1.8546    0.0000 C   0  0  0  0  0  0  0  0  0
    6.4336    2.6796    0.0000 N   0  0  0  0  0  0  0  0  0
    5.6489    2.9345    0.0000 C   0  0  0  0  0  0  0  0  0
    7.1480    3.0921    0.0000 C   0  0  0  0  0  0  0  0  0
    7.8625    2.6796    0.0000 C   0  0  0  0  0  0  0  0  0
    7.8625    1.8546    0.0000 C   0  0  0  0  0  0  0  0  0
    7.1480    1.4421    0.0000 C   0  0  0  0  0  0  0  0  0
    3.1015   -1.3053    0.0000 C   0  0  0  0  0  0  0  0  0
    2.6890   -2.0197    0.0000 C   0  0  0  0  0  0  0  0  0
  1  2  1  0  0  0  0
  2  3  4  0  0  0  0
  2 23  4  0  0  0  0
  3  4  4  0  0  0  0
  4  5  4  0  0  0  0
  5  6  1  0  0  0  0
  5 22  4  0  0  0  0
  6  7  1  0  0  0  0
  6 11  1  0  0  0  0
  7  8  1  0  0  0  0
  8  9  1  0  0  0  0
  9 10  1  0  0  0  0
  9 12  1  0  0  0  0
 10 11  1  0  0  0  0
 12 13  1  0  0  0  0
 13 14  4  0  0  0  0
 13 17  4  0  0  0  0
 14 15  4  0  0  0  0
 15 16  4  0  0  0  0
 15 21  4  0  0  0  0
 16 17  4  0  0  0  0
 16 18  4  0  0  0  0
 18 19  4  0  0  0  0
 19 20  4  0  0  0  0
 20 21  4  0  0  0  0
 22 23  4  0  0  0  0
M  END
>  <Name_Molregno>
350831

>  <DOPAMINE D2>
4.81

>  <DOPAMINE D3>
5.06

>  <DOPAMINE D4>
8.15

$$$$
350862
  Marvin  02231216192D 0   1.00000     0.00000     0

 24 27  0  0  0  0  0  0  0  0999 V2000
    8.5261   -2.9246    0.0000 Cl  0  0  0  0  0  0  0  0  0
    7.8116   -2.5121    0.0000 C   0  0  0  0  0  0  0  0  0
    7.0972   -2.9246    0.0000 N   0  0  0  0  0  0  0  0  0
    6.3827   -2.5121    0.0000 N   0  0  0  0  0  0  0  0  0
    5.5981   -2.7670    0.0000 C   0  0  0  0  0  0  0  0  0
    5.1131   -2.0996    0.0000 C   0  0  0  0  0  0  0  0  0
    5.5981   -1.4321    0.0000 N   0  0  0  0  0  0  0  0  0
    6.3827   -1.6871    0.0000 C   0  0  0  0  0  0  0  0  0
    7.0972   -1.2746    0.0000 C   0  0  0  0  0  0  0  0  0
    7.8116   -1.6871    0.0000 C   0  0  0  0  0  0  0  0  0
    4.2881   -2.0996    0.0000 C   0  0  0  0  0  0  0  0  0
    3.8756   -1.3851    0.0000 N   0  0  0  0  0  0  0  0  0
    3.0506   -1.3851    0.0000 C   0  0  0  0  0  0  0  0  0
    2.6381   -0.6706    0.0000 C   0  0  0  0  0  0  0  0  0
    3.0506    0.0438    0.0000 N   0  0  0  0  0  0  0  0  0
    3.8756    0.0438    0.0000 C   0  0  0  0  0  0  0  0  0
    4.2881   -0.6706    0.0000 C   0  0  0  0  0  0  0  0  0
    2.6381    0.7583    0.0000 C   0  0  0  0  0  0  0  0  0
    1.8131    0.7583    0.0000 C   0  0  0  0  0  0  0  0  0
    1.4006    1.4728    0.0000 C   0  0  0  0  0  0  0  0  0
    1.8131    2.1872    0.0000 C   0  0  0  0  0  0  0  0  0
    1.4006    2.9017    0.0000 F   0  0  0  0  0  0  0  0  0
    2.6381    2.1872    0.0000 C   0  0  0  0  0  0  0  0  0
    3.0506    1.4728    0.0000 C   0  0  0  0  0  0  0  0  0
  1  2  1  0  0  0  0
  2  3  4  0  0  0  0
  2 10  4  0  0  0  0
  3  4  4  0  0  0  0
  4  5  4  0  0  0  0
  4  8  4  0  0  0  0
  5  6  4  0  0  0  0
  6  7  4  0  0  0  0
  6 11  1  0  0  0  0
  7  8  4  0  0  0  0
  8  9  4  0  0  0  0
  9 10  4  0  0  0  0
 11 12  1  0  0  0  0
 12 13  1  0  0  0  0
 12 17  1  0  0  0  0
 13 14  1  0  0  0  0
 14 15  1  0  0  0  0
 15 16  1  0  0  0  0
 15 18  1  0  0  0  0
 16 17  1  0  0  0  0
 18 19  4  0  0  0  0
 18 24  4  0  0  0  0
 19 20  4  0  0  0  0
 20 21  4  0  0  0  0
 21 22  1  0  0  0  0
 21 23  4  0  0  0  0
 23 24  4  0  0  0  0
M  END
>  <Name_Molregno>
350862

>  <DOPAMINE D2>
4.96

>  <DOPAMINE D3>
5.25

>  <DOPAMINE D4>
8.4

$$$$
350867
  Marvin  02231216192D 0   1.00000     0.00000     0

 31 35  0  0  0  0  0  0  0  0999 V2000
   -7.0901    1.8888    0.0000 O   0  0  0  0  0  0  0  0  0
   -7.9151    1.8888    0.0000 C   0  0  0  0  0  0  0  0  0
   -6.6776    2.6033    0.0000 C   0  0  0  0  0  0  0  0  0
   -7.0901    3.3178    0.0000 C   0  0  0  0  0  0  0  0  0
   -6.6776    4.0322    0.0000 C   0  0  0  0  0  0  0  0  0
   -5.8526    4.0322    0.0000 C   0  0  0  0  0  0  0  0  0
   -5.4401    3.3178    0.0000 C   0  0  0  0  0  0  0  0  0
   -5.8526    2.6033    0.0000 C   0  0  0  0  0  0  0  0  0
   -5.4401    1.8888    0.0000 N   0  0  0  0  0  0  0  0  0
   -4.6151    1.8888    0.0000 C   0  0  0  0  0  0  0  0  0
   -4.2026    1.1743    0.0000 C   0  0  0  0  0  0  0  0  0
   -4.6151    0.4599    0.0000 N   0  0  0  0  0  0  0  0  0
   -5.4401    0.4599    0.0000 C   0  0  0  0  0  0  0  0  0
   -5.8526    1.1743    0.0000 C   0  0  0  0  0  0  0  0  0
   -4.2026   -0.2546    0.0000 C   0  0  0  0  0  0  0  0  0
   -3.3776   -0.2546    0.0000 C   0  0  0  0  0  0  0  0  0
   -2.8927   -0.9220    0.0000 N   0  0  0  0  0  0  0  0  0
   -2.1081   -0.6671    0.0000 C   0  0  0  0  0  0  0  0  0
   -2.1081    0.1579    0.0000 N   0  0  0  0  0  0  0  0  0
   -1.3936    0.5704    0.0000 C   0  0  0  0  0  0  0  0  0
   -0.6791    0.1579    0.0000 C   0  0  0  0  0  0  0  0  0
   -0.6791   -0.6671    0.0000 C   0  0  0  0  0  0  0  0  0
   -1.3936   -1.0796    0.0000 C   0  0  0  0  0  0  0  0  0
   -1.3936   -1.9046    0.0000 C   0  0  0  0  0  0  0  0  0
   -0.6791   -2.3171    0.0000 C   0  0  0  0  0  0  0  0  0
   -0.6791   -3.1421    0.0000 C   0  0  0  0  0  0  0  0  0
   -1.3936   -3.5546    0.0000 C   0  0  0  0  0  0  0  0  0
   -2.1081   -3.1421    0.0000 C   0  0  0  0  0  0  0  0  0
   -2.1081   -2.3171    0.0000 C   0  0  0  0  0  0  0  0  0
    0.0354    0.5704    0.0000 C   0  0  0  0  0  0  0  0  0
   -2.8927    0.4128    0.0000 C   0  0  0  0  0  0  0  0  0
  1  2  1  0  0  0  0
  1  3  1  0  0  0  0
  3  4  4  0  0  0  0
  3  8  4  0  0  0  0
  4  5  4  0  0  0  0
  5  6  4  0  0  0  0
  6  7  4  0  0  0  0
  7  8  4  0  0  0  0
  8  9  1  0  0  0  0
  9 10  1  0  0  0  0
  9 14  1  0  0  0  0
 10 11  1  0  0  0  0
 11 12  1  0  0  0  0
 12 13  1  0  0  0  0
 12 15  1  0  0  0  0
 13 14  1  0  0  0  0
 15 16  1  0  0  0  0
 16 17  4  0  0  0  0
 16 31  4  0  0  0  0
 17 18  4  0  0  0  0
 18 19  4  0  0  0  0
 18 23  4  0  0  0  0
 19 20  4  0  0  0  0
 19 31  4  0  0  0  0
 20 21  4  0  0  0  0
 21 22  4  0  0  0  0
 21 30  1  0  0  0  0
 22 23  4  0  0  0  0
 23 24  1  0  0  0  0
 24 25  4  0  0  0  0
 24 29  4  0  0  0  0
 25 26  4  0  0  0  0
 26 27  4  0  0  0  0
 27 28  4  0  0  0  0
 28 29  4  0  0  0  0
M  END
>  <Name_Molregno>
350867

>  <DOPAMINE D2>
7.43

>  <DOPAMINE D3>
6.41

>  <DOPAMINE D4>
9.08

$$$$
350892
  Marvin  02231216192D 0   1.00000     0.00000     0

 25 28  0  0  0  0  0  0  0  0999 V2000
    0.4200   -2.0063    0.0000 Cl  0  0  0  0  0  0  0  0  0
    1.2450   -2.0063    0.0000 C   0  0  0  0  0  0  0  0  0
    1.6575   -1.2918    0.0000 C   0  0  0  0  0  0  0  0  0
    2.4825   -1.2918    0.0000 C   0  0  0  0  0  0  0  0  0
    2.8950   -0.5773    0.0000 N   0  0  0  0  0  0  0  0  0
    2.4825    0.1372    0.0000 C   0  0  0  0  0  0  0  0  0
    2.8950    0.8516    0.0000 C   0  0  0  0  0  0  0  0  0
    3.7200    0.8516    0.0000 N   0  0  0  0  0  0  0  0  0
    4.1325    0.1372    0.0000 C   0  0  0  0  0  0  0  0  0
    3.7200   -0.5773    0.0000 C   0  0  0  0  0  0  0  0  0
    4.1325    1.5661    0.0000 C   0  0  0  0  0  0  0  0  0
    4.9575    1.5661    0.0000 C   0  0  0  0  0  0  0  0  0
    5.4424    0.8987    0.0000 N   0  0  0  0  0  0  0  0  0
    6.2270    1.1536    0.0000 C   0  0  0  0  0  0  0  0  0
    6.2270    1.9786    0.0000 N   0  0  0  0  0  0  0  0  0
    6.9415    2.3911    0.0000 N   0  0  0  0  0  0  0  0  0
    7.6559    1.9786    0.0000 C   0  0  0  0  0  0  0  0  0
    8.3704    2.3911    0.0000 Cl  0  0  0  0  0  0  0  0  0
    7.6559    1.1536    0.0000 C   0  0  0  0  0  0  0  0  0
    6.9415    0.7411    0.0000 C   0  0  0  0  0  0  0  0  0
    5.4424    2.2335    0.0000 C   0  0  0  0  0  0  0  0  0
    2.8950   -2.0063    0.0000 C   0  0  0  0  0  0  0  0  0
    2.4825   -2.7207    0.0000 C   0  0  0  0  0  0  0  0  0
    1.6575   -2.7207    0.0000 C   0  0  0  0  0  0  0  0  0
    1.2450   -3.4352    0.0000 Cl  0  0  0  0  0  0  0  0  0
  1  2  1  0  0  0  0
  2  3  4  0  0  0  0
  2 24  4  0  0  0  0
  3  4  4  0  0  0  0
  4  5  1  0  0  0  0
  4 22  4  0  0  0  0
  5  6  1  0  0  0  0
  5 10  1  0  0  0  0
  6  7  1  0  0  0  0
  7  8  1  0  0  0  0
  8  9  1  0  0  0  0
  8 11  1  0  0  0  0
  9 10  1  0  0  0  0
 11 12  1  0  0  0  0
 12 13  4  0  0  0  0
 12 21  4  0  0  0  0
 13 14  4  0  0  0  0
 14 15  4  0  0  0  0
 14 20  4  0  0  0  0
 15 16  4  0  0  0  0
 15 21  4  0  0  0  0
 16 17  4  0  0  0  0
 17 18  1  0  0  0  0
 17 19  4  0  0  0  0
 19 20  4  0  0  0  0
 22 23  4  0  0  0  0
 23 24  4  0  0  0  0
 24 25  1  0  0  0  0
M  END
>  <Name_Molregno>
350892

>  <DOPAMINE D2>
6.07

>  <DOPAMINE D3>
5.82

>  <DOPAMINE D4>
8.89

$$$$
351082
  Marvin  02231216192D 0   1.00000     0.00000     0

 30 34  0  0  0  0  0  0  0  0999 V2000
   -6.8876    1.8643    0.0000 O   0  0  0  0  0  0  0  0  0
   -7.7126    1.8643    0.0000 C   0  0  0  0  0  0  0  0  0
   -6.4751    2.5788    0.0000 C   0  0  0  0  0  0  0  0  0
   -6.8876    3.2933    0.0000 C   0  0  0  0  0  0  0  0  0
   -6.4751    4.0077    0.0000 C   0  0  0  0  0  0  0  0  0
   -5.6501    4.0077    0.0000 C   0  0  0  0  0  0  0  0  0
   -5.2376    3.2933    0.0000 C   0  0  0  0  0  0  0  0  0
   -5.6501    2.5788    0.0000 C   0  0  0  0  0  0  0  0  0
   -5.2376    1.8643    0.0000 N   0  0  0  0  0  0  0  0  0
   -4.4126    1.8643    0.0000 C   0  0  0  0  0  0  0  0  0
   -4.0001    1.1499    0.0000 C   0  0  0  0  0  0  0  0  0
   -4.4126    0.4354    0.0000 N   0  0  0  0  0  0  0  0  0
   -5.2376    0.4354    0.0000 C   0  0  0  0  0  0  0  0  0
   -5.6501    1.1499    0.0000 C   0  0  0  0  0  0  0  0  0
   -4.0001   -0.2791    0.0000 C   0  0  0  0  0  0  0  0  0
   -3.1751   -0.2791    0.0000 C   0  0  0  0  0  0  0  0  0
   -2.6902   -0.9465    0.0000 N   0  0  0  0  0  0  0  0  0
   -1.9055   -0.6916    0.0000 C   0  0  0  0  0  0  0  0  0
   -1.9055    0.1334    0.0000 N   0  0  0  0  0  0  0  0  0
   -1.1911    0.5459    0.0000 C   0  0  0  0  0  0  0  0  0
   -0.4766    0.1334    0.0000 C   0  0  0  0  0  0  0  0  0
   -0.4766   -0.6916    0.0000 C   0  0  0  0  0  0  0  0  0
   -1.1911   -1.1041    0.0000 C   0  0  0  0  0  0  0  0  0
   -1.1911   -1.9291    0.0000 N   0  0  0  0  0  0  0  0  0
   -0.5236   -2.4140    0.0000 N   0  0  0  0  0  0  0  0  0
   -0.7786   -3.1986    0.0000 C   0  0  0  0  0  0  0  0  0
   -1.6036   -3.1986    0.0000 C   0  0  0  0  0  0  0  0  0
   -1.8585   -2.4140    0.0000 C   0  0  0  0  0  0  0  0  0
    0.2379    0.5459    0.0000 C   0  0  0  0  0  0  0  0  0
   -2.6902    0.3884    0.0000 C   0  0  0  0  0  0  0  0  0
  1  2  1  0  0  0  0
  1  3  1  0  0  0  0
  3  4  4  0  0  0  0
  3  8  4  0  0  0  0
  4  5  4  0  0  0  0
  5  6  4  0  0  0  0
  6  7  4  0  0  0  0
  7  8  4  0  0  0  0
  8  9  1  0  0  0  0
  9 10  1  0  0  0  0
  9 14  1  0  0  0  0
 10 11  1  0  0  0  0
 11 12  1  0  0  0  0
 12 13  1  0  0  0  0
 12 15  1  0  0  0  0
 13 14  1  0  0  0  0
 15 16  1  0  0  0  0
 16 17  4  0  0  0  0
 16 30  4  0  0  0  0
 17 18  4  0  0  0  0
 18 19  4  0  0  0  0
 18 23  4  0  0  0  0
 19 20  4  0  0  0  0
 19 30  4  0  0  0  0
 20 21  4  0  0  0  0
 21 22  4  0  0  0  0
 21 29  1  0  0  0  0
 22 23  4  0  0  0  0
 23 24  1  0  0  0  0
 24 25  4  0  0  0  0
 24 28  4  0  0  0  0
 25 26  4  0  0  0  0
 26 27  4  0  0  0  0
 27 28  4  0  0  0  0
M  END
>  <Name_Molregno>
351082

>  <DOPAMINE D2>
6.42

>  <DOPAMINE D3>
5.62

>  <DOPAMINE D4>
8.8

$$$$
351105
  Marvin  02231216192D 0   1.00000     0.00000     0

 29 33  0  0  0  0  0  0  0  0999 V2000
   -4.3892   -3.1016    0.0000 O   0  0  0  0  0  0  0  0  0
   -3.9767   -3.8161    0.0000 C   0  0  0  0  0  0  0  0  0
   -5.2142   -3.1016    0.0000 C   0  0  0  0  0  0  0  0  0
   -5.6267   -3.8161    0.0000 C   0  0  0  0  0  0  0  0  0
   -6.4517   -3.8161    0.0000 C   0  0  0  0  0  0  0  0  0
   -6.8642   -3.1016    0.0000 C   0  0  0  0  0  0  0  0  0
   -6.4517   -2.3871    0.0000 C   0  0  0  0  0  0  0  0  0
   -5.6267   -2.3871    0.0000 C   0  0  0  0  0  0  0  0  0
   -5.2142   -1.6726    0.0000 N   0  0  0  0  0  0  0  0  0
   -5.6267   -0.9582    0.0000 C   0  0  0  0  0  0  0  0  0
   -5.2142   -0.2437    0.0000 C   0  0  0  0  0  0  0  0  0
   -4.3892   -0.2437    0.0000 N   0  0  0  0  0  0  0  0  0
   -3.9767   -0.9582    0.0000 C   0  0  0  0  0  0  0  0  0
   -4.3892   -1.6726    0.0000 C   0  0  0  0  0  0  0  0  0
   -3.9767    0.4708    0.0000 C   0  0  0  0  0  0  0  0  0
   -3.1517    0.4708    0.0000 C   0  0  0  0  0  0  0  0  0
   -2.6668   -0.1967    0.0000 N   0  0  0  0  0  0  0  0  0
   -1.8822    0.0583    0.0000 C   0  0  0  0  0  0  0  0  0
   -1.8822    0.8833    0.0000 N   0  0  0  0  0  0  0  0  0
   -2.6668    1.1382    0.0000 C   0  0  0  0  0  0  0  0  0
   -1.1677    1.2958    0.0000 C   0  0  0  0  0  0  0  0  0
   -1.1677    2.1208    0.0000 N   0  0  0  0  0  0  0  0  0
   -1.8352    2.6057    0.0000 N   0  0  0  0  0  0  0  0  0
   -1.5802    3.3903    0.0000 C   0  0  0  0  0  0  0  0  0
   -0.7552    3.3903    0.0000 C   0  0  0  0  0  0  0  0  0
   -0.5003    2.6057    0.0000 C   0  0  0  0  0  0  0  0  0
   -0.4532    0.8833    0.0000 C   0  0  0  0  0  0  0  0  0
   -0.4532    0.0583    0.0000 C   0  0  0  0  0  0  0  0  0
   -1.1677   -0.3542    0.0000 C   0  0  0  0  0  0  0  0  0
  1  2  1  0  0  0  0
  1  3  1  0  0  0  0
  3  4  4  0  0  0  0
  3  8  4  0  0  0  0
  4  5  4  0  0  0  0
  5  6  4  0  0  0  0
  6  7  4  0  0  0  0
  7  8  4  0  0  0  0
  8  9  1  0  0  0  0
  9 10  1  0  0  0  0
  9 14  1  0  0  0  0
 10 11  1  0  0  0  0
 11 12  1  0  0  0  0
 12 13  1  0  0  0  0
 12 15  1  0  0  0  0
 13 14  1  0  0  0  0
 15 16  1  0  0  0  0
 16 17  4  0  0  0  0
 16 20  4  0  0  0  0
 17 18  4  0  0  0  0
 18 19  4  0  0  0  0
 18 29  4  0  0  0  0
 19 20  4  0  0  0  0
 19 21  4  0  0  0  0
 21 22  1  0  0  0  0
 21 27  4  0  0  0  0
 22 23  4  0  0  0  0
 22 26  4  0  0  0  0
 23 24  4  0  0  0  0
 24 25  4  0  0  0  0
 25 26  4  0  0  0  0
 27 28  4  0  0  0  0
 28 29  4  0  0  0  0
M  END
>  <Name_Molregno>
351105

>  <DOPAMINE D2>
6.39

>  <DOPAMINE D3>
6

>  <DOPAMINE D4>
9.03

$$$$
351132
  Marvin  02231216192D 0   1.00000     0.00000     0

 25 28  0  0  0  0  0  0  0  0999 V2000
    8.9057   -0.7237    0.0000 Br  0  0  0  0  0  0  0  0  0
    8.1912   -1.1362    0.0000 C   0  0  0  0  0  0  0  0  0
    8.1912   -1.9612    0.0000 C   0  0  0  0  0  0  0  0  0
    7.4767   -2.3737    0.0000 C   0  0  0  0  0  0  0  0  0
    6.7623   -1.9612    0.0000 C   0  0  0  0  0  0  0  0  0
    5.9776   -2.2161    0.0000 N   0  0  0  0  0  0  0  0  0
    5.4927   -1.5487    0.0000 C   0  0  0  0  0  0  0  0  0
    5.9776   -0.8812    0.0000 C   0  0  0  0  0  0  0  0  0
    6.7623   -1.1362    0.0000 N   0  0  0  0  0  0  0  0  0
    7.4767   -0.7237    0.0000 C   0  0  0  0  0  0  0  0  0
    4.6677   -1.5487    0.0000 C   0  0  0  0  0  0  0  0  0
    4.2552   -0.8342    0.0000 N   0  0  0  0  0  0  0  0  0
    3.4302   -0.8342    0.0000 C   0  0  0  0  0  0  0  0  0
    3.0177   -0.1197    0.0000 C   0  0  0  0  0  0  0  0  0
    3.4302    0.5947    0.0000 N   0  0  0  0  0  0  0  0  0
    4.2552    0.5947    0.0000 C   0  0  0  0  0  0  0  0  0
    4.6677   -0.1197    0.0000 C   0  0  0  0  0  0  0  0  0
    3.0177    1.3092    0.0000 C   0  0  0  0  0  0  0  0  0
    2.1927    1.3092    0.0000 C   0  0  0  0  0  0  0  0  0
    1.7802    2.0237    0.0000 C   0  0  0  0  0  0  0  0  0
    0.9552    2.0237    0.0000 Cl  0  0  0  0  0  0  0  0  0
    2.1927    2.7381    0.0000 C   0  0  0  0  0  0  0  0  0
    1.7802    3.4526    0.0000 Cl  0  0  0  0  0  0  0  0  0
    3.0177    2.7381    0.0000 C   0  0  0  0  0  0  0  0  0
    3.4302    2.0237    0.0000 C   0  0  0  0  0  0  0  0  0
  1  2  1  0  0  0  0
  2  3  4  0  0  0  0
  2 10  4  0  0  0  0
  3  4  4  0  0  0  0
  4  5  4  0  0  0  0
  5  6  4  0  0  0  0
  5  9  4  0  0  0  0
  6  7  4  0  0  0  0
  7  8  4  0  0  0  0
  7 11  1  0  0  0  0
  8  9  4  0  0  0  0
  9 10  4  0  0  0  0
 11 12  1  0  0  0  0
 12 13  1  0  0  0  0
 12 17  1  0  0  0  0
 13 14  1  0  0  0  0
 14 15  1  0  0  0  0
 15 16  1  0  0  0  0
 15 18  1  0  0  0  0
 16 17  1  0  0  0  0
 18 19  4  0  0  0  0
 18 25  4  0  0  0  0
 19 20  4  0  0  0  0
 20 21  1  0  0  0  0
 20 22  4  0  0  0  0
 22 23  1  0  0  0  0
 22 24  4  0  0  0  0
 24 25  4  0  0  0  0
M  END
>  <Name_Molregno>
351132

>  <DOPAMINE D2>
5.44

>  <DOPAMINE D3>
6

>  <DOPAMINE D4>
9

$$$$
351164
  Marvin  02231216192D 0   1.00000     0.00000     0

 31 35  0  0  0  0  0  0  0  0999 V2000
    0.5381   -2.5478    0.0000 Cl  0  0  0  0  0  0  0  0  0
    1.3631   -2.5478    0.0000 C   0  0  0  0  0  0  0  0  0
    1.7756   -1.8333    0.0000 C   0  0  0  0  0  0  0  0  0
    2.6006   -1.8333    0.0000 C   0  0  0  0  0  0  0  0  0
    3.0131   -1.1189    0.0000 N   0  0  0  0  0  0  0  0  0
    2.6006   -0.4044    0.0000 C   0  0  0  0  0  0  0  0  0
    3.0131    0.3101    0.0000 C   0  0  0  0  0  0  0  0  0
    3.8381    0.3101    0.0000 N   0  0  0  0  0  0  0  0  0
    4.2506   -0.4044    0.0000 C   0  0  0  0  0  0  0  0  0
    3.8381   -1.1189    0.0000 C   0  0  0  0  0  0  0  0  0
    4.2506    1.0245    0.0000 C   0  0  0  0  0  0  0  0  0
    5.0756    1.0245    0.0000 C   0  0  0  0  0  0  0  0  0
    5.5605    0.3571    0.0000 N   0  0  0  0  0  0  0  0  0
    6.3451    0.6120    0.0000 C   0  0  0  0  0  0  0  0  0
    6.3451    1.4370    0.0000 N   0  0  0  0  0  0  0  0  0
    7.0596    1.8495    0.0000 N   0  0  0  0  0  0  0  0  0
    7.7741    1.4370    0.0000 C   0  0  0  0  0  0  0  0  0
    8.4885    1.8495    0.0000 N   0  0  0  0  0  0  0  0  0
    8.4885    2.6745    0.0000 C   0  0  0  0  0  0  0  0  0
    9.2030    3.0870    0.0000 C   0  0  0  0  0  0  0  0  0
    9.9175    2.6745    0.0000 N   0  0  0  0  0  0  0  0  0
    9.9175    1.8495    0.0000 C   0  0  0  0  0  0  0  0  0
    9.2030    1.4370    0.0000 C   0  0  0  0  0  0  0  0  0
   10.6319    3.0870    0.0000 C   0  0  0  0  0  0  0  0  0
    7.7741    0.6120    0.0000 C   0  0  0  0  0  0  0  0  0
    7.0596    0.1995    0.0000 C   0  0  0  0  0  0  0  0  0
    5.5605    1.6920    0.0000 C   0  0  0  0  0  0  0  0  0
    3.0131   -2.5478    0.0000 C   0  0  0  0  0  0  0  0  0
    2.6006   -3.2623    0.0000 C   0  0  0  0  0  0  0  0  0
    1.7756   -3.2623    0.0000 C   0  0  0  0  0  0  0  0  0
    1.3631   -3.9768    0.0000 Cl  0  0  0  0  0  0  0  0  0
  1  2  1  0  0  0  0
  2  3  4  0  0  0  0
  2 30  4  0  0  0  0
  3  4  4  0  0  0  0
  4  5  1  0  0  0  0
  4 28  4  0  0  0  0
  5  6  1  0  0  0  0
  5 10  1  0  0  0  0
  6  7  1  0  0  0  0
  7  8  1  0  0  0  0
  8  9  1  0  0  0  0
  8 11  1  0  0  0  0
  9 10  1  0  0  0  0
 11 12  1  0  0  0  0
 12 13  4  0  0  0  0
 12 27  4  0  0  0  0
 13 14  4  0  0  0  0
 14 15  4  0  0  0  0
 14 26  4  0  0  0  0
 15 16  4  0  0  0  0
 15 27  4  0  0  0  0
 16 17  4  0  0  0  0
 17 18  1  0  0  0  0
 17 25  4  0  0  0  0
 18 19  1  0  0  0  0
 18 23  1  0  0  0  0
 19 20  1  0  0  0  0
 20 21  1  0  0  0  0
 21 22  1  0  0  0  0
 21 24  1  0  0  0  0
 22 23  1  0  0  0  0
 25 26  4  0  0  0  0
 28 29  4  0  0  0  0
 29 30  4  0  0  0  0
 30 31  1  0  0  0  0
M  END
>  <Name_Molregno>
351164

>  <DOPAMINE D2>
5.11

>  <DOPAMINE D3>
6.06

>  <DOPAMINE D4>
5.72

$$$$
351165
  Marvin  02231216192D 0   1.00000     0.00000     0

 27 30  0  0  0  0  0  0  0  0999 V2000
   -6.2287    1.6956    0.0000 O   0  0  0  0  0  0  0  0  0
   -7.0537    1.6956    0.0000 C   0  0  0  0  0  0  0  0  0
   -5.8162    2.4101    0.0000 C   0  0  0  0  0  0  0  0  0
   -6.2287    3.1245    0.0000 C   0  0  0  0  0  0  0  0  0
   -5.8162    3.8390    0.0000 C   0  0  0  0  0  0  0  0  0
   -4.9912    3.8390    0.0000 C   0  0  0  0  0  0  0  0  0
   -4.5787    3.1245    0.0000 C   0  0  0  0  0  0  0  0  0
   -4.9912    2.4101    0.0000 C   0  0  0  0  0  0  0  0  0
   -4.5787    1.6956    0.0000 N   0  0  0  0  0  0  0  0  0
   -3.7537    1.6956    0.0000 C   0  0  0  0  0  0  0  0  0
   -3.3412    0.9811    0.0000 C   0  0  0  0  0  0  0  0  0
   -3.7537    0.2666    0.0000 N   0  0  0  0  0  0  0  0  0
   -4.5787    0.2666    0.0000 C   0  0  0  0  0  0  0  0  0
   -4.9912    0.9811    0.0000 C   0  0  0  0  0  0  0  0  0
   -3.3412   -0.4478    0.0000 C   0  0  0  0  0  0  0  0  0
   -2.5162   -0.4478    0.0000 C   0  0  0  0  0  0  0  0  0
   -2.0313   -1.1153    0.0000 N   0  0  0  0  0  0  0  0  0
   -1.2466   -0.8603    0.0000 C   0  0  0  0  0  0  0  0  0
   -1.2466   -0.0353    0.0000 N   0  0  0  0  0  0  0  0  0
   -0.5322    0.3772    0.0000 C   0  0  0  0  0  0  0  0  0
    0.1823   -0.0353    0.0000 C   0  0  0  0  0  0  0  0  0
    0.1823   -0.8603    0.0000 C   0  0  0  0  0  0  0  0  0
   -0.5322   -1.2728    0.0000 C   0  0  0  0  0  0  0  0  0
   -0.5322   -2.0978    0.0000 C   0  0  0  0  0  0  0  0  0
   -0.5322   -2.9228    0.0000 N   0  0  0  0  0  0  0  0  0
    0.8968    0.3772    0.0000 C   0  0  0  0  0  0  0  0  0
   -2.0313    0.2196    0.0000 C   0  0  0  0  0  0  0  0  0
  1  2  1  0  0  0  0
  1  3  1  0  0  0  0
  3  4  4  0  0  0  0
  3  8  4  0  0  0  0
  4  5  4  0  0  0  0
  5  6  4  0  0  0  0
  6  7  4  0  0  0  0
  7  8  4  0  0  0  0
  8  9  1  0  0  0  0
  9 10  1  0  0  0  0
  9 14  1  0  0  0  0
 10 11  1  0  0  0  0
 11 12  1  0  0  0  0
 12 13  1  0  0  0  0
 12 15  1  0  0  0  0
 13 14  1  0  0  0  0
 15 16  1  0  0  0  0
 16 17  4  0  0  0  0
 16 27  4  0  0  0  0
 17 18  4  0  0  0  0
 18 19  4  0  0  0  0
 18 23  4  0  0  0  0
 19 20  4  0  0  0  0
 19 27  4  0  0  0  0
 20 21  4  0  0  0  0
 21 22  4  0  0  0  0
 21 26  1  0  0  0  0
 22 23  4  0  0  0  0
 23 24  1  0  0  0  0
 24 25  3  0  0  0  0
M  END
>  <Name_Molregno>
351165

>  <DOPAMINE D2>
5.48

>  <DOPAMINE D3>
5.46

>  <DOPAMINE D4>
8.89

$$$$
351216
  Marvin  02231216192D 0   1.00000     0.00000     0

 25 28  0  0  0  0  0  0  0  0999 V2000
    8.5613   -2.7166    0.0000 Cl  0  0  0  0  0  0  0  0  0
    7.8468   -2.3041    0.0000 C   0  0  0  0  0  0  0  0  0
    7.1324   -2.7166    0.0000 N   0  0  0  0  0  0  0  0  0
    6.4179   -2.3041    0.0000 N   0  0  0  0  0  0  0  0  0
    5.6333   -2.5590    0.0000 C   0  0  0  0  0  0  0  0  0
    5.1483   -1.8916    0.0000 C   0  0  0  0  0  0  0  0  0
    5.6333   -1.2241    0.0000 N   0  0  0  0  0  0  0  0  0
    6.4179   -1.4791    0.0000 C   0  0  0  0  0  0  0  0  0
    7.1324   -1.0666    0.0000 C   0  0  0  0  0  0  0  0  0
    7.8468   -1.4791    0.0000 C   0  0  0  0  0  0  0  0  0
    4.3233   -1.8916    0.0000 C   0  0  0  0  0  0  0  0  0
    3.9108   -1.1771    0.0000 N   0  0  0  0  0  0  0  0  0
    3.0858   -1.1771    0.0000 C   0  0  0  0  0  0  0  0  0
    2.6733   -0.4626    0.0000 C   0  0  0  0  0  0  0  0  0
    3.0858    0.2518    0.0000 N   0  0  0  0  0  0  0  0  0
    3.9108    0.2518    0.0000 C   0  0  0  0  0  0  0  0  0
    4.3233   -0.4626    0.0000 C   0  0  0  0  0  0  0  0  0
    2.6733    0.9663    0.0000 C   0  0  0  0  0  0  0  0  0
    1.8483    0.9663    0.0000 C   0  0  0  0  0  0  0  0  0
    1.4358    1.6808    0.0000 C   0  0  0  0  0  0  0  0  0
    1.8483    2.3953    0.0000 C   0  0  0  0  0  0  0  0  0
    2.6733    2.3953    0.0000 C   0  0  0  0  0  0  0  0  0
    3.0858    1.6808    0.0000 C   0  0  0  0  0  0  0  0  0
    3.9108    1.6808    0.0000 O   0  0  0  0  0  0  0  0  0
    4.3233    2.3953    0.0000 C   0  0  0  0  0  0  0  0  0
  1  2  1  0  0  0  0
  2  3  4  0  0  0  0
  2 10  4  0  0  0  0
  3  4  4  0  0  0  0
  4  5  4  0  0  0  0
  4  8  4  0  0  0  0
  5  6  4  0  0  0  0
  6  7  4  0  0  0  0
  6 11  1  0  0  0  0
  7  8  4  0  0  0  0
  8  9  4  0  0  0  0
  9 10  4  0  0  0  0
 11 12  1  0  0  0  0
 12 13  1  0  0  0  0
 12 17  1  0  0  0  0
 13 14  1  0  0  0  0
 14 15  1  0  0  0  0
 15 16  1  0  0  0  0
 15 18  1  0  0  0  0
 16 17  1  0  0  0  0
 18 19  4  0  0  0  0
 18 23  4  0  0  0  0
 19 20  4  0  0  0  0
 20 21  4  0  0  0  0
 21 22  4  0  0  0  0
 22 23  4  0  0  0  0
 23 24  1  0  0  0  0
 24 25  1  0  0  0  0
M  END
>  <Name_Molregno>
351216

>  <DOPAMINE D2>
7.06

>  <DOPAMINE D3>
5.85

>  <DOPAMINE D4>
8.8

$$$$
351217
  Marvin  02231216192D 0   1.00000     0.00000     0

 25 28  0  0  0  0  0  0  0  0999 V2000
    8.5613   -0.3128    0.0000 Br  0  0  0  0  0  0  0  0  0
    7.8468   -0.7253    0.0000 C   0  0  0  0  0  0  0  0  0
    7.8468   -1.5503    0.0000 C   0  0  0  0  0  0  0  0  0
    7.1324   -1.9628    0.0000 C   0  0  0  0  0  0  0  0  0
    6.4179   -1.5503    0.0000 C   0  0  0  0  0  0  0  0  0
    5.6333   -1.8052    0.0000 N   0  0  0  0  0  0  0  0  0
    5.1483   -1.1378    0.0000 C   0  0  0  0  0  0  0  0  0
    5.6333   -0.4704    0.0000 C   0  0  0  0  0  0  0  0  0
    6.4179   -0.7253    0.0000 N   0  0  0  0  0  0  0  0  0
    7.1324   -0.3128    0.0000 C   0  0  0  0  0  0  0  0  0
    4.3233   -1.1378    0.0000 C   0  0  0  0  0  0  0  0  0
    3.9108   -0.4233    0.0000 N   0  0  0  0  0  0  0  0  0
    3.0858   -0.4233    0.0000 C   0  0  0  0  0  0  0  0  0
    2.6733    0.2911    0.0000 C   0  0  0  0  0  0  0  0  0
    3.0858    1.0056    0.0000 N   0  0  0  0  0  0  0  0  0
    3.9108    1.0056    0.0000 C   0  0  0  0  0  0  0  0  0
    4.3233    0.2911    0.0000 C   0  0  0  0  0  0  0  0  0
    2.6733    1.7201    0.0000 C   0  0  0  0  0  0  0  0  0
    1.8483    1.7201    0.0000 C   0  0  0  0  0  0  0  0  0
    1.4358    2.4346    0.0000 C   0  0  0  0  0  0  0  0  0
    1.8483    3.1490    0.0000 C   0  0  0  0  0  0  0  0  0
    2.6733    3.1490    0.0000 C   0  0  0  0  0  0  0  0  0
    3.0858    2.4346    0.0000 C   0  0  0  0  0  0  0  0  0
    3.9108    2.4346    0.0000 O   0  0  0  0  0  0  0  0  0
    4.3233    3.1490    0.0000 C   0  0  0  0  0  0  0  0  0
  1  2  1  0  0  0  0
  2  3  4  0  0  0  0
  2 10  4  0  0  0  0
  3  4  4  0  0  0  0
  4  5  4  0  0  0  0
  5  6  4  0  0  0  0
  5  9  4  0  0  0  0
  6  7  4  0  0  0  0
  7  8  4  0  0  0  0
  7 11  1  0  0  0  0
  8  9  4  0  0  0  0
  9 10  4  0  0  0  0
 11 12  1  0  0  0  0
 12 13  1  0  0  0  0
 12 17  1  0  0  0  0
 13 14  1  0  0  0  0
 14 15  1  0  0  0  0
 15 16  1  0  0  0  0
 15 18  1  0  0  0  0
 16 17  1  0  0  0  0
 18 19  4  0  0  0  0
 18 23  4  0  0  0  0
 19 20  4  0  0  0  0
 20 21  4  0  0  0  0
 21 22  4  0  0  0  0
 22 23  4  0  0  0  0
 23 24  1  0  0  0  0
 24 25  1  0  0  0  0
M  END
>  <Name_Molregno>
351217

>  <DOPAMINE D2>
6.87

>  <DOPAMINE D3>
6.1

>  <DOPAMINE D4>
9.6

$$$$
351218
  Marvin  02231216192D 0   1.00000     0.00000     0

 25 28  0  0  0  0  0  0  0  0999 V2000
    8.5613   -0.3128    0.0000 I   0  0  0  0  0  0  0  0  0
    7.8468   -0.7253    0.0000 C   0  0  0  0  0  0  0  0  0
    7.8468   -1.5503    0.0000 C   0  0  0  0  0  0  0  0  0
    7.1324   -1.9628    0.0000 C   0  0  0  0  0  0  0  0  0
    6.4179   -1.5503    0.0000 C   0  0  0  0  0  0  0  0  0
    5.6333   -1.8052    0.0000 N   0  0  0  0  0  0  0  0  0
    5.1483   -1.1378    0.0000 C   0  0  0  0  0  0  0  0  0
    5.6333   -0.4704    0.0000 C   0  0  0  0  0  0  0  0  0
    6.4179   -0.7253    0.0000 N   0  0  0  0  0  0  0  0  0
    7.1324   -0.3128    0.0000 C   0  0  0  0  0  0  0  0  0
    4.3233   -1.1378    0.0000 C   0  0  0  0  0  0  0  0  0
    3.9108   -0.4233    0.0000 N   0  0  0  0  0  0  0  0  0
    3.0858   -0.4233    0.0000 C   0  0  0  0  0  0  0  0  0
    2.6733    0.2911    0.0000 C   0  0  0  0  0  0  0  0  0
    3.0858    1.0056    0.0000 N   0  0  0  0  0  0  0  0  0
    3.9108    1.0056    0.0000 C   0  0  0  0  0  0  0  0  0
    4.3233    0.2911    0.0000 C   0  0  0  0  0  0  0  0  0
    2.6733    1.7201    0.0000 C   0  0  0  0  0  0  0  0  0
    1.8483    1.7201    0.0000 C   0  0  0  0  0  0  0  0  0
    1.4358    2.4346    0.0000 C   0  0  0  0  0  0  0  0  0
    1.8483    3.1490    0.0000 C   0  0  0  0  0  0  0  0  0
    2.6733    3.1490    0.0000 C   0  0  0  0  0  0  0  0  0
    3.0858    2.4346    0.0000 C   0  0  0  0  0  0  0  0  0
    3.9108    2.4346    0.0000 O   0  0  0  0  0  0  0  0  0
    4.3233    3.1490    0.0000 C   0  0  0  0  0  0  0  0  0
  1  2  1  0  0  0  0
  2  3  4  0  0  0  0
  2 10  4  0  0  0  0
  3  4  4  0  0  0  0
  4  5  4  0  0  0  0
  5  6  4  0  0  0  0
  5  9  4  0  0  0  0
  6  7  4  0  0  0  0
  7  8  4  0  0  0  0
  7 11  1  0  0  0  0
  8  9  4  0  0  0  0
  9 10  4  0  0  0  0
 11 12  1  0  0  0  0
 12 13  1  0  0  0  0
 12 17  1  0  0  0  0
 13 14  1  0  0  0  0
 14 15  1  0  0  0  0
 15 16  1  0  0  0  0
 15 18  1  0  0  0  0
 16 17  1  0  0  0  0
 18 19  4  0  0  0  0
 18 23  4  0  0  0  0
 19 20  4  0  0  0  0
 20 21  4  0  0  0  0
 21 22  4  0  0  0  0
 22 23  4  0  0  0  0
 23 24  1  0  0  0  0
 24 25  1  0  0  0  0
M  END
>  <Name_Molregno>
351218

>  <DOPAMINE D2>
7.14

>  <DOPAMINE D3>
6.22

>  <DOPAMINE D4>
9.48

$$$$
351219
  Marvin  02231216192D 0   1.00000     0.00000     0

 31 35  0  0  0  0  0  0  0  0999 V2000
    6.4745    1.6877    0.0000 O   0  0  0  0  0  0  0  0  0
    7.1889    1.2752    0.0000 C   0  0  0  0  0  0  0  0  0
    7.1889    0.4502    0.0000 C   0  0  0  0  0  0  0  0  0
    6.4745    0.0377    0.0000 N   0  0  0  0  0  0  0  0  0
    5.7600    0.4502    0.0000 C   0  0  0  0  0  0  0  0  0
    5.7600    1.2752    0.0000 C   0  0  0  0  0  0  0  0  0
    6.4745   -0.7873    0.0000 C   0  0  0  0  0  0  0  0  0
    7.1889   -1.1998    0.0000 C   0  0  0  0  0  0  0  0  0
    7.1889   -2.0248    0.0000 C   0  0  0  0  0  0  0  0  0
    6.4745   -2.4373    0.0000 C   0  0  0  0  0  0  0  0  0
    5.7600   -2.0248    0.0000 N   0  0  0  0  0  0  0  0  0
    5.7600   -1.1998    0.0000 C   0  0  0  0  0  0  0  0  0
    4.9754   -0.9448    0.0000 N   0  0  0  0  0  0  0  0  0
    4.4905   -1.6123    0.0000 C   0  0  0  0  0  0  0  0  0
    4.9754   -2.2797    0.0000 C   0  0  0  0  0  0  0  0  0
    3.6655   -1.6123    0.0000 C   0  0  0  0  0  0  0  0  0
    3.2530   -0.8978    0.0000 N   0  0  0  0  0  0  0  0  0
    2.4280   -0.8978    0.0000 C   0  0  0  0  0  0  0  0  0
    2.0155   -0.1833    0.0000 C   0  0  0  0  0  0  0  0  0
    2.4280    0.5312    0.0000 N   0  0  0  0  0  0  0  0  0
    3.2530    0.5312    0.0000 C   0  0  0  0  0  0  0  0  0
    3.6655   -0.1833    0.0000 C   0  0  0  0  0  0  0  0  0
    2.0155    1.2456    0.0000 C   0  0  0  0  0  0  0  0  0
    1.1905    1.2456    0.0000 C   0  0  0  0  0  0  0  0  0
    0.7780    1.9601    0.0000 C   0  0  0  0  0  0  0  0  0
    1.1905    2.6746    0.0000 C   0  0  0  0  0  0  0  0  0
    2.0155    2.6746    0.0000 C   0  0  0  0  0  0  0  0  0
    2.4280    1.9601    0.0000 C   0  0  0  0  0  0  0  0  0
    3.2530    1.9601    0.0000 O   0  0  0  0  0  0  0  0  0
    3.6655    2.6746    0.0000 C   0  0  0  0  0  0  0  0  0
    7.9034   -2.4373    0.0000 C   0  0  0  0  0  0  0  0  0
  1  2  1  0  0  0  0
  1  6  1  0  0  0  0
  2  3  1  0  0  0  0
  3  4  1  0  0  0  0
  4  5  1  0  0  0  0
  4  7  1  0  0  0  0
  5  6  1  0  0  0  0
  7  8  4  0  0  0  0
  7 12  4  0  0  0  0
  8  9  4  0  0  0  0
  9 10  4  0  0  0  0
  9 31  1  0  0  0  0
 10 11  4  0  0  0  0
 11 12  4  0  0  0  0
 11 15  4  0  0  0  0
 12 13  4  0  0  0  0
 13 14  4  0  0  0  0
 14 15  4  0  0  0  0
 14 16  1  0  0  0  0
 16 17  1  0  0  0  0
 17 18  1  0  0  0  0
 17 22  1  0  0  0  0
 18 19  1  0  0  0  0
 19 20  1  0  0  0  0
 20 21  1  0  0  0  0
 20 23  1  0  0  0  0
 21 22  1  0  0  0  0
 23 24  4  0  0  0  0
 23 28  4  0  0  0  0
 24 25  4  0  0  0  0
 25 26  4  0  0  0  0
 26 27  4  0  0  0  0
 27 28  4  0  0  0  0
 28 29  1  0  0  0  0
 29 30  1  0  0  0  0
M  END
>  <Name_Molregno>
351219

>  <DOPAMINE D2>
6.84

>  <DOPAMINE D3>
5.68

>  <DOPAMINE D4>
8.64

$$$$
354026
  Marvin  02231216192D 0   1.00000     0.00000     0

 31 34  0  0  0  0  0  0  0  0999 V2000
    5.2194    1.3362    0.0000 Cl  0  0  0  0  0  0  0  0  0
    4.5049    0.9237    0.0000 C   0  0  0  0  0  0  0  0  0
    4.5049    0.0987    0.0000 C   0  0  0  0  0  0  0  0  0
    3.7904   -0.3138    0.0000 C   0  0  0  0  0  0  0  0  0
    3.0759    0.0987    0.0000 C   0  0  0  0  0  0  0  0  0
    3.0759    0.9237    0.0000 C   0  0  0  0  0  0  0  0  0
    3.7904    1.3362    0.0000 C   0  0  0  0  0  0  0  0  0
    3.7904    2.1612    0.0000 Cl  0  0  0  0  0  0  0  0  0
    3.7904   -1.1388    0.0000 C   0  0  0  0  0  0  0  0  0
    4.4578   -1.6237    0.0000 C   0  0  0  0  0  0  0  0  0
    4.2029   -2.4084    0.0000 C   0  0  0  0  0  0  0  0  0
    3.3779   -2.4084    0.0000 N   0  0  0  0  0  0  0  0  0
    3.1230   -1.6237    0.0000 C   0  0  0  0  0  0  0  0  0
    2.3383   -1.3688    0.0000 O   0  0  0  0  0  0  0  0  0
    2.8930   -3.0758    0.0000 C   0  0  0  0  0  0  0  0  0
    3.2285   -3.8295    0.0000 C   0  0  0  0  0  0  0  0  0
    2.7436   -4.4969    0.0000 C   0  0  0  0  0  0  0  0  0
    3.0792   -5.2506    0.0000 O   0  0  0  0  0  0  0  0  0
    2.5943   -5.9180    0.0000 C   0  0  0  0  0  0  0  0  0
    2.9298   -6.6717    0.0000 C   0  0  0  0  0  0  0  0  0
    2.4449   -7.3391    0.0000 N   0  0  0  0  0  0  0  0  0
    2.7804   -8.0928    0.0000 C   0  0  0  0  0  0  0  0  0
    2.2955   -8.7602    0.0000 C   0  0  0  0  0  0  0  0  0
    1.4750   -8.6740    0.0000 C   0  0  0  0  0  0  0  0  0
    1.1395   -7.9203    0.0000 C   0  0  0  0  0  0  0  0  0
    1.6244   -7.2529    0.0000 C   0  0  0  0  0  0  0  0  0
    1.9231   -4.4107    0.0000 C   0  0  0  0  0  0  0  0  0
    1.4382   -5.0781    0.0000 O   0  0  0  0  0  0  0  0  0
    0.6177   -4.9919    0.0000 C   0  0  0  0  0  0  0  0  0
    1.5876   -3.6570    0.0000 C   0  0  0  0  0  0  0  0  0
    2.0725   -2.9896    0.0000 C   0  0  0  0  0  0  0  0  0
  1  2  1  0  0  0  0
  2  3  4  0  0  0  0
  2  7  4  0  0  0  0
  3  4  4  0  0  0  0
  4  5  4  0  0  0  0
  4  9  1  0  0  0  0
  5  6  4  0  0  0  0
  6  7  4  0  0  0  0
  7  8  1  0  0  0  0
  9 10  2  0  0  0  0
  9 13  1  0  0  0  0
 10 11  1  0  0  0  0
 11 12  1  0  0  0  0
 12 13  1  0  0  0  0
 12 15  1  0  0  0  0
 13 14  2  0  0  0  0
 15 16  4  0  0  0  0
 15 31  4  0  0  0  0
 16 17  4  0  0  0  0
 17 18  1  0  0  0  0
 17 27  4  0  0  0  0
 18 19  1  0  0  0  0
 19 20  1  0  0  0  0
 20 21  1  0  0  0  0
 21 22  1  0  0  0  0
 21 26  1  0  0  0  0
 22 23  1  0  0  0  0
 23 24  1  0  0  0  0
 24 25  1  0  0  0  0
 25 26  1  0  0  0  0
 27 28  1  0  0  0  0
 27 30  4  0  0  0  0
 28 29  1  0  0  0  0
 30 31  4  0  0  0  0
M  END
>  <Name_Molregno>
354026

>  <5-HT1A>
5.5

>  <5-HT1B>
5.5

>  <5-HT1D>
5.5

>  <5-HT2A>
6.2

>  <5-HT2C>
9.1

>  <5-HT6>
5.5

>  <5-HT7>
5.5

>  <Alpha-1A>
5.74

>  <Alpha-1B>
5.74

>  <DOPAMINE D3>
6.34

$$$$
361051
  Marvin  02231216192D 0   1.00000     0.00000     0

 23 26  0  0  0  0  0  0  0  0999 V2000
    0.3583    0.2680    0.0000 N   0  0  0  0  0  0  0  0  0
    0.7190   -0.4740    0.0000 C   0  0  0  0  0  0  0  0  0
    1.5965   -0.6861    0.0000 C   0  0  0  0  0  0  0  0  0
    2.3385   -0.3254    0.0000 C   0  0  0  0  0  0  0  0  0
    2.9108   -0.9196    0.0000 C   0  0  0  0  0  0  0  0  0
    2.5225   -1.6476    0.0000 C   0  0  0  0  0  0  0  0  0
    2.7015   -2.5324    0.0000 C   0  0  0  0  0  0  0  0  0
    2.1073   -3.1047    0.0000 N   0  0  0  0  0  0  0  0  0
    1.3145   -2.8763    0.0000 C   0  0  0  0  0  0  0  0  0
    1.1160   -2.0755    0.0000 C   0  0  0  0  0  0  0  0  0
    0.3233   -1.8471    0.0000 C   0  0  0  0  0  0  0  0  0
    0.1247   -1.0463    0.0000 C   0  0  0  0  0  0  0  0  0
   -0.6032   -0.6580    0.0000 C   0  0  0  0  0  0  0  0  0
   -0.4588    0.1542    0.0000 C   0  0  0  0  0  0  0  0  0
   -1.0901    0.6854    0.0000 C   0  0  0  0  0  0  0  0  0
   -1.8657    0.4042    0.0000 C   0  0  0  0  0  0  0  0  0
   -2.0101   -0.4080    0.0000 C   0  0  0  0  0  0  0  0  0
   -1.3788   -0.9392    0.0000 C   0  0  0  0  0  0  0  0  0
    2.3058   -3.9055    0.0000 C   0  0  0  0  0  0  0  0  0
    3.7115   -0.7211    0.0000 C   0  0  0  0  0  0  0  0  0
    3.9400    0.0716    0.0000 C   0  0  0  0  0  0  0  0  0
    3.3677    0.6658    0.0000 C   0  0  0  0  0  0  0  0  0
    2.5669    0.4673    0.0000 C   0  0  0  0  0  0  0  0  0
  1  2  4  0  0  0  0
  1 14  4  0  0  0  0
  2  3  1  0  0  0  0
  2 12  4  0  0  0  0
  3  4  1  0  0  0  0
  4  5  4  0  0  0  0
  4 23  4  0  0  0  0
  5  6  1  0  0  0  0
  5 20  4  0  0  0  0
  6  7  1  0  0  0  0
  7  8  1  0  0  0  0
  8  9  1  0  0  0  0
  8 19  1  0  0  0  0
  9 10  1  0  0  0  0
 10 11  1  0  0  0  0
 11 12  1  0  0  0  0
 12 13  4  0  0  0  0
 13 14  4  0  0  0  0
 13 18  4  0  0  0  0
 14 15  4  0  0  0  0
 15 16  4  0  0  0  0
 16 17  4  0  0  0  0
 17 18  4  0  0  0  0
 20 21  4  0  0  0  0
 21 22  4  0  0  0  0
 22 23  4  0  0  0  0
M  STY  1   1 DAT
M  SAL   1  1   1
M  SDT   1 MRV_IMPLICIT_H                                        
M  SDD   1     0.0000    0.0000    DR    ALL  0       0  
M  SED   1 IMPL_H1
M  END
>  <Name_Molregno>
361051

>  <DOPAMINE D1>
6.7

>  <DOPAMINE D2>
7.07

>  <DOPAMINE D3>
6.28

>  <DOPAMINE D4>
6.74

>  <DOPAMINE D5>
7.1

$$$$
361078
  Marvin  02231216192D 0   1.00000     0.00000     0

 23 26  0  0  0  0  0  0  0  0999 V2000
    0.2199    0.0739    0.0000 N   0  0  0  0  0  0  0  0  0
    0.5806   -0.6681    0.0000 C   0  0  0  0  0  0  0  0  0
    1.4581   -0.8802    0.0000 C   0  0  0  0  0  0  0  0  0
    2.2001   -0.5195    0.0000 C   0  0  0  0  0  0  0  0  0
    2.7724   -1.1137    0.0000 C   0  0  0  0  0  0  0  0  0
    2.3841   -1.8416    0.0000 C   0  0  0  0  0  0  0  0  0
    2.5631   -2.7265    0.0000 C   0  0  0  0  0  0  0  0  0
    1.9689   -3.2988    0.0000 C   0  0  0  0  0  0  0  0  0
    1.1761   -3.0703    0.0000 N   0  0  0  0  0  0  0  0  0
    0.9776   -2.2696    0.0000 C   0  0  0  0  0  0  0  0  0
    0.1849   -2.0411    0.0000 C   0  0  0  0  0  0  0  0  0
   -0.0136   -1.2404    0.0000 C   0  0  0  0  0  0  0  0  0
   -0.7416   -0.8521    0.0000 C   0  0  0  0  0  0  0  0  0
   -0.5972   -0.0398    0.0000 C   0  0  0  0  0  0  0  0  0
   -1.2285    0.4913    0.0000 C   0  0  0  0  0  0  0  0  0
   -2.0041    0.2102    0.0000 C   0  0  0  0  0  0  0  0  0
   -2.1485   -0.6021    0.0000 C   0  0  0  0  0  0  0  0  0
   -1.5172   -1.1332    0.0000 C   0  0  0  0  0  0  0  0  0
    0.5819   -3.6426    0.0000 C   0  0  0  0  0  0  0  0  0
    3.5731   -0.9152    0.0000 C   0  0  0  0  0  0  0  0  0
    3.8016   -0.1224    0.0000 C   0  0  0  0  0  0  0  0  0
    3.2293    0.4718    0.0000 C   0  0  0  0  0  0  0  0  0
    2.4285    0.2733    0.0000 C   0  0  0  0  0  0  0  0  0
  1  2  4  0  0  0  0
  1 14  4  0  0  0  0
  2  3  1  0  0  0  0
  2 12  4  0  0  0  0
  3  4  1  0  0  0  0
  4  5  4  0  0  0  0
  4 23  4  0  0  0  0
  5  6  1  0  0  0  0
  5 20  4  0  0  0  0
  6  7  1  0  0  0  0
  7  8  1  0  0  0  0
  8  9  1  0  0  0  0
  9 10  1  0  0  0  0
  9 19  1  0  0  0  0
 10 11  1  0  0  0  0
 11 12  1  0  0  0  0
 12 13  4  0  0  0  0
 13 14  4  0  0  0  0
 13 18  4  0  0  0  0
 14 15  4  0  0  0  0
 15 16  4  0  0  0  0
 16 17  4  0  0  0  0
 17 18  4  0  0  0  0
 20 21  4  0  0  0  0
 21 22  4  0  0  0  0
 22 23  4  0  0  0  0
M  STY  1   1 DAT
M  SAL   1  1   1
M  SDT   1 MRV_IMPLICIT_H                                        
M  SDD   1     0.0000    0.0000    DR    ALL  0       0  
M  SED   1 IMPL_H1
M  END
>  <Name_Molregno>
361078

>  <DOPAMINE D1>
8.63

>  <DOPAMINE D2>
8.18

>  <DOPAMINE D3>
6.56

>  <DOPAMINE D4>
7.01

>  <DOPAMINE D5>
8.88

$$$$
361616
  Marvin  02231216192D 0   1.00000     0.00000     0

 20 23  0  0  1  0  0  0  0  0999 V2000
   -0.8000    2.9458    0.0000 O   0  0  0  0  0  0  0  0  0
   -0.0855    3.3583    0.0000 C   0  0  0  0  0  0  0  0  0
    0.6290    2.9458    0.0000 C   0  0  0  0  0  0  0  0  0
    1.3435    3.3583    0.0000 N   0  0  0  0  0  0  0  0  0
    2.0579    2.9458    0.0000 C   0  0  0  0  0  0  0  0  0
    2.0579    2.1208    0.0000 C   0  0  0  0  0  0  0  0  0
    1.3435    1.7083    0.0000 C   0  0  0  0  0  0  0  0  0
    0.6290    2.1208    0.0000 C   0  0  0  0  0  0  0  0  0
   -0.0855    1.7083    0.0000 C   0  0  0  0  0  0  0  0  0
   -0.0855    0.8833    0.0000 C   0  0  0  0  0  0  0  0  0
   -0.8000    0.4708    0.0000 C   0  0  0  0  0  0  0  0  0
   -0.8000   -0.3542    0.0000 O   0  0  0  0  0  0  0  0  0
   -1.5144    0.8833    0.0000 C   0  0  0  0  0  0  0  0  0
   -2.2289    0.4708    0.0000 O   0  0  0  0  0  0  0  0  0
   -1.5144    1.7083    0.0000 C   0  0  0  0  0  0  0  0  0
   -0.8000    2.1208    0.0000 C   0  0  0  0  0  0  0  0  0
    1.3435    0.8833    0.0000 C   0  0  0  0  0  0  0  0  0
    2.0579    0.4708    0.0000 C   0  0  0  0  0  0  0  0  0
    2.7724    0.8833    0.0000 C   0  0  0  0  0  0  0  0  0
    2.7724    1.7083    0.0000 C   0  0  0  0  0  0  0  0  0
  1  2  1  0  0  0  0
  1 16  1  0  0  0  0
  2  3  1  0  0  0  0
  3  4  1  0  0  0  0
  3  8  1  0  0  0  0
  4  5  1  0  0  0  0
  5  6  1  0  0  0  0
  6  7  4  0  0  0  0
  6 20  4  0  0  0  0
  7  8  1  0  0  0  0
  7 17  4  0  0  0  0
  8  9  1  0  0  0  0
  9 10  4  0  0  0  0
  9 16  4  0  0  0  0
 10 11  4  0  0  0  0
 11 12  1  0  0  0  0
 11 13  4  0  0  0  0
 13 14  1  0  0  0  0
 13 15  4  0  0  0  0
 15 16  4  0  0  0  0
 17 18  4  0  0  0  0
 18 19  4  0  0  0  0
 19 20  4  0  0  0  0
M  END
>  <Name_Molregno>
361616

>  <Alpha-2A>
6.74

>  <Alpha-2B>
8

>  <Alpha-2C>
8.7

>  <DOPAMINE D1>
7.01

>  <DOPAMINE D2>
5.72

>  <DOPAMINE D3>
6.41

>  <DOPAMINE D4>
7.05

>  <DOPAMINE D5>
8.15

$$$$
366838
  Marvin  02231216192D 0   1.00000     0.00000     0

 31 34  0  0  0  0  0  0  0  0999 V2000
    0.8720    2.5321    0.0000 Br  0  0  0  0  0  0  0  0  0
    1.2845    1.8177    0.0000 C   0  0  0  0  0  0  0  0  0
    2.1095    1.8177    0.0000 C   0  0  0  0  0  0  0  0  0
    2.5220    1.1032    0.0000 C   0  0  0  0  0  0  0  0  0
    3.3290    0.9317    0.0000 C   0  0  0  0  0  0  0  0  0
    3.4152    0.1112    0.0000 C   0  0  0  0  0  0  0  0  0
    2.6615   -0.2244    0.0000 N   0  0  0  0  0  0  0  0  0
    2.1095    0.3887    0.0000 C   0  0  0  0  0  0  0  0  0
    1.2845    0.3887    0.0000 C   0  0  0  0  0  0  0  0  0
    0.8720    1.1032    0.0000 C   0  0  0  0  0  0  0  0  0
    4.1297   -0.3013    0.0000 C   0  0  0  0  0  0  0  0  0
    4.1297   -1.1263    0.0000 O   0  0  0  0  0  0  0  0  0
    4.8441    0.1112    0.0000 N   0  0  0  0  0  0  0  0  0
    5.5586   -0.3013    0.0000 C   0  0  0  0  0  0  0  0  0
    6.2731    0.1112    0.0000 C   0  0  0  0  0  0  0  0  0
    6.9875   -0.3013    0.0000 C   0  0  0  0  0  0  0  0  0
    7.7020    0.1112    0.0000 C   0  0  0  0  0  0  0  0  0
    8.4165   -0.3013    0.0000 N   0  0  0  0  0  0  0  0  0
    9.1310    0.1112    0.0000 C   0  0  0  0  0  0  0  0  0
    9.8454   -0.3013    0.0000 C   0  0  0  0  0  0  0  0  0
    9.8454   -1.1263    0.0000 N   0  0  0  0  0  0  0  0  0
    9.1310   -1.5388    0.0000 C   0  0  0  0  0  0  0  0  0
    8.4165   -1.1263    0.0000 C   0  0  0  0  0  0  0  0  0
   10.5599   -1.5388    0.0000 C   0  0  0  0  0  0  0  0  0
   11.2744   -1.1263    0.0000 C   0  0  0  0  0  0  0  0  0
   11.9888   -1.5388    0.0000 C   0  0  0  0  0  0  0  0  0
   11.9888   -2.3638    0.0000 C   0  0  0  0  0  0  0  0  0
   11.2744   -2.7763    0.0000 C   0  0  0  0  0  0  0  0  0
   10.5599   -2.3638    0.0000 C   0  0  0  0  0  0  0  0  0
    9.8454   -2.7763    0.0000 O   0  0  0  0  0  0  0  0  0
    9.8454   -3.6013    0.0000 C   0  0  0  0  0  0  0  0  0
  1  2  1  0  0  0  0
  2  3  4  0  0  0  0
  2 10  4  0  0  0  0
  3  4  4  0  0  0  0
  4  5  4  0  0  0  0
  4  8  4  0  0  0  0
  5  6  4  0  0  0  0
  6  7  4  0  0  0  0
  6 11  1  0  0  0  0
  7  8  4  0  0  0  0
  8  9  4  0  0  0  0
  9 10  4  0  0  0  0
 11 12  2  0  0  0  0
 11 13  1  0  0  0  0
 13 14  1  0  0  0  0
 14 15  1  0  0  0  0
 15 16  1  0  0  0  0
 16 17  1  0  0  0  0
 17 18  1  0  0  0  0
 18 19  1  0  0  0  0
 18 23  1  0  0  0  0
 19 20  1  0  0  0  0
 20 21  1  0  0  0  0
 21 22  1  0  0  0  0
 21 24  1  0  0  0  0
 22 23  1  0  0  0  0
 24 25  4  0  0  0  0
 24 29  4  0  0  0  0
 25 26  4  0  0  0  0
 26 27  4  0  0  0  0
 27 28  4  0  0  0  0
 28 29  4  0  0  0  0
 29 30  1  0  0  0  0
 30 31  1  0  0  0  0
M  STY  1   1 DAT
M  SAL   1  1   7
M  SDT   1 MRV_IMPLICIT_H                                        
M  SDD   1     0.0000    0.0000    DR    ALL  0       0  
M  SED   1 IMPL_H1
M  END
>  <Name_Molregno>
366838

>  <DOPAMINE D2>
6.96

>  <DOPAMINE D3>
9.61

>  <DOPAMINE D4>
7.8

$$$$
366839
  Marvin  02231216192D 0   1.00000     0.00000     0

 32 35  0  0  0  0  0  0  0  0999 V2000
   -9.6605    0.1014    0.0000 O   0  0  0  0  0  0  0  0  0
  -10.3750   -0.3111    0.0000 C   0  0  0  0  0  0  0  0  0
   -9.6605    0.9264    0.0000 C   0  0  0  0  0  0  0  0  0
  -10.3750    1.3389    0.0000 C   0  0  0  0  0  0  0  0  0
  -10.3750    2.1639    0.0000 C   0  0  0  0  0  0  0  0  0
   -9.6605    2.5764    0.0000 C   0  0  0  0  0  0  0  0  0
   -8.9460    2.1639    0.0000 C   0  0  0  0  0  0  0  0  0
   -8.9460    1.3389    0.0000 C   0  0  0  0  0  0  0  0  0
   -8.2316    0.9264    0.0000 N   0  0  0  0  0  0  0  0  0
   -7.5171    1.3389    0.0000 C   0  0  0  0  0  0  0  0  0
   -6.8026    0.9264    0.0000 C   0  0  0  0  0  0  0  0  0
   -6.8026    0.1014    0.0000 N   0  0  0  0  0  0  0  0  0
   -7.5171   -0.3111    0.0000 C   0  0  0  0  0  0  0  0  0
   -8.2316    0.1014    0.0000 C   0  0  0  0  0  0  0  0  0
   -6.0882   -0.3111    0.0000 C   0  0  0  0  0  0  0  0  0
   -5.3737    0.1014    0.0000 C   0  0  0  0  0  0  0  0  0
   -4.6592   -0.3111    0.0000 C   0  0  0  0  0  0  0  0  0
   -3.9447    0.1014    0.0000 C   0  0  0  0  0  0  0  0  0
   -3.2303   -0.3111    0.0000 N   0  0  0  0  0  0  0  0  0
   -2.5158    0.1014    0.0000 C   0  0  0  0  0  0  0  0  0
   -2.5158    0.9264    0.0000 O   0  0  0  0  0  0  0  0  0
   -1.8013   -0.3111    0.0000 C   0  0  0  0  0  0  0  0  0
   -1.0477    0.0245    0.0000 N   0  0  0  0  0  0  0  0  0
   -0.4956   -0.5886    0.0000 C   0  0  0  0  0  0  0  0  0
    0.3294   -0.5886    0.0000 C   0  0  0  0  0  0  0  0  0
    0.7419   -1.3031    0.0000 C   0  0  0  0  0  0  0  0  0
    0.3294   -2.0176    0.0000 C   0  0  0  0  0  0  0  0  0
   -0.4956   -2.0176    0.0000 C   0  0  0  0  0  0  0  0  0
   -0.9081   -1.3031    0.0000 C   0  0  0  0  0  0  0  0  0
   -1.7151   -1.1316    0.0000 C   0  0  0  0  0  0  0  0  0
    1.5669   -1.3031    0.0000 C   0  0  0  0  0  0  0  0  0
    2.3919   -1.3031    0.0000 N   0  0  0  0  0  0  0  0  0
  1  2  1  0  0  0  0
  1  3  1  0  0  0  0
  3  4  4  0  0  0  0
  3  8  4  0  0  0  0
  4  5  4  0  0  0  0
  5  6  4  0  0  0  0
  6  7  4  0  0  0  0
  7  8  4  0  0  0  0
  8  9  1  0  0  0  0
  9 10  1  0  0  0  0
  9 14  1  0  0  0  0
 10 11  1  0  0  0  0
 11 12  1  0  0  0  0
 12 13  1  0  0  0  0
 12 15  1  0  0  0  0
 13 14  1  0  0  0  0
 15 16  1  0  0  0  0
 16 17  1  0  0  0  0
 17 18  1  0  0  0  0
 18 19  1  0  0  0  0
 19 20  1  0  0  0  0
 20 21  2  0  0  0  0
 20 22  1  0  0  0  0
 22 23  4  0  0  0  0
 22 30  4  0  0  0  0
 23 24  4  0  0  0  0
 24 25  4  0  0  0  0
 24 29  4  0  0  0  0
 25 26  4  0  0  0  0
 26 27  4  0  0  0  0
 26 31  1  0  0  0  0
 27 28  4  0  0  0  0
 28 29  4  0  0  0  0
 29 30  4  0  0  0  0
 31 32  3  0  0  0  0
M  STY  1   1 DAT
M  SAL   1  1  23
M  SDT   1 MRV_IMPLICIT_H                                        
M  SDD   1     0.0000    0.0000    DR    ALL  0       0  
M  SED   1 IMPL_H1
M  END
>  <Name_Molregno>
366839

>  <DOPAMINE D2>
6.8

>  <DOPAMINE D3>
9.6

>  <DOPAMINE D4>
7.4

$$$$
366846
  Marvin  02231216192D 0   1.00000     0.00000     0

 31 34  0  0  0  0  0  0  0  0999 V2000
    0.8327    2.2710    0.0000 Br  0  0  0  0  0  0  0  0  0
    1.2452    1.5565    0.0000 C   0  0  0  0  0  0  0  0  0
    2.0702    1.5565    0.0000 C   0  0  0  0  0  0  0  0  0
    2.4827    0.8421    0.0000 C   0  0  0  0  0  0  0  0  0
    3.2897    0.6705    0.0000 C   0  0  0  0  0  0  0  0  0
    3.3760   -0.1499    0.0000 C   0  0  0  0  0  0  0  0  0
    2.6223   -0.4855    0.0000 N   0  0  0  0  0  0  0  0  0
    2.0702    0.1276    0.0000 C   0  0  0  0  0  0  0  0  0
    1.2452    0.1276    0.0000 C   0  0  0  0  0  0  0  0  0
    0.8327    0.8421    0.0000 C   0  0  0  0  0  0  0  0  0
    4.0904   -0.5624    0.0000 C   0  0  0  0  0  0  0  0  0
    4.0904   -1.3874    0.0000 O   0  0  0  0  0  0  0  0  0
    4.8049   -0.1499    0.0000 N   0  0  0  0  0  0  0  0  0
    5.5194   -0.5624    0.0000 C   0  0  0  0  0  0  0  0  0
    6.2338   -0.1499    0.0000 C   0  0  0  0  0  0  0  0  0
    6.9483   -0.5624    0.0000 C   0  0  0  0  0  0  0  0  0
    7.6628   -0.1499    0.0000 C   0  0  0  0  0  0  0  0  0
    8.3772   -0.5624    0.0000 N   0  0  0  0  0  0  0  0  0
    9.0917   -0.1499    0.0000 C   0  0  0  0  0  0  0  0  0
    9.8062   -0.5624    0.0000 C   0  0  0  0  0  0  0  0  0
    9.8062   -1.3874    0.0000 N   0  0  0  0  0  0  0  0  0
    9.0917   -1.7999    0.0000 C   0  0  0  0  0  0  0  0  0
    8.3772   -1.3874    0.0000 C   0  0  0  0  0  0  0  0  0
   10.5207   -1.7999    0.0000 C   0  0  0  0  0  0  0  0  0
   11.2351   -1.3874    0.0000 C   0  0  0  0  0  0  0  0  0
   11.9496   -1.7999    0.0000 C   0  0  0  0  0  0  0  0  0
   11.9496   -2.6249    0.0000 C   0  0  0  0  0  0  0  0  0
   11.2351   -3.0374    0.0000 C   0  0  0  0  0  0  0  0  0
   11.2351   -3.8624    0.0000 Cl  0  0  0  0  0  0  0  0  0
   10.5207   -2.6249    0.0000 C   0  0  0  0  0  0  0  0  0
    9.8062   -3.0374    0.0000 Cl  0  0  0  0  0  0  0  0  0
  1  2  1  0  0  0  0
  2  3  4  0  0  0  0
  2 10  4  0  0  0  0
  3  4  4  0  0  0  0
  4  5  4  0  0  0  0
  4  8  4  0  0  0  0
  5  6  4  0  0  0  0
  6  7  4  0  0  0  0
  6 11  1  0  0  0  0
  7  8  4  0  0  0  0
  8  9  4  0  0  0  0
  9 10  4  0  0  0  0
 11 12  2  0  0  0  0
 11 13  1  0  0  0  0
 13 14  1  0  0  0  0
 14 15  1  0  0  0  0
 15 16  1  0  0  0  0
 16 17  1  0  0  0  0
 17 18  1  0  0  0  0
 18 19  1  0  0  0  0
 18 23  1  0  0  0  0
 19 20  1  0  0  0  0
 20 21  1  0  0  0  0
 21 22  1  0  0  0  0
 21 24  1  0  0  0  0
 22 23  1  0  0  0  0
 24 25  4  0  0  0  0
 24 30  4  0  0  0  0
 25 26  4  0  0  0  0
 26 27  4  0  0  0  0
 27 28  4  0  0  0  0
 28 29  1  0  0  0  0
 28 30  4  0  0  0  0
 30 31  1  0  0  0  0
M  STY  1   1 DAT
M  SAL   1  1   7
M  SDT   1 MRV_IMPLICIT_H                                        
M  SDD   1     0.0000    0.0000    DR    ALL  0       0  
M  SED   1 IMPL_H1
M  END
>  <Name_Molregno>
366846

>  <DOPAMINE D2>
5.64

>  <DOPAMINE D3>
9.13

>  <DOPAMINE D4>
6.22

$$$$
366847
  Marvin  02231216192D 0   1.00000     0.00000     0

 32 35  0  0  0  0  0  0  0  0999 V2000
   -0.0621   -0.1415    0.0000 Cl  0  0  0  0  0  0  0  0  0
   -0.0621   -0.9665    0.0000 C   0  0  0  0  0  0  0  0  0
    0.6523   -1.3790    0.0000 C   0  0  0  0  0  0  0  0  0
    1.3668   -0.9665    0.0000 N   0  0  0  0  0  0  0  0  0
    1.3668   -0.1415    0.0000 C   0  0  0  0  0  0  0  0  0
    2.0813    0.2710    0.0000 C   0  0  0  0  0  0  0  0  0
    2.7958   -0.1415    0.0000 N   0  0  0  0  0  0  0  0  0
    2.7958   -0.9665    0.0000 C   0  0  0  0  0  0  0  0  0
    2.0813   -1.3790    0.0000 C   0  0  0  0  0  0  0  0  0
    3.5102    0.2710    0.0000 C   0  0  0  0  0  0  0  0  0
    4.2247   -0.1415    0.0000 C   0  0  0  0  0  0  0  0  0
    4.9392    0.2710    0.0000 C   0  0  0  0  0  0  0  0  0
    5.6536   -0.1415    0.0000 C   0  0  0  0  0  0  0  0  0
    6.3681    0.2710    0.0000 N   0  0  0  0  0  0  0  0  0
    7.0826   -0.1415    0.0000 C   0  0  0  0  0  0  0  0  0
    7.0826   -0.9665    0.0000 O   0  0  0  0  0  0  0  0  0
    7.7971    0.2710    0.0000 C   0  0  0  0  0  0  0  0  0
    7.8833    1.0915    0.0000 N   0  0  0  0  0  0  0  0  0
    8.6903    1.2630    0.0000 C   0  0  0  0  0  0  0  0  0
    9.1028    1.9775    0.0000 C   0  0  0  0  0  0  0  0  0
    9.9278    1.9775    0.0000 C   0  0  0  0  0  0  0  0  0
   10.3403    1.2630    0.0000 C   0  0  0  0  0  0  0  0  0
    9.9278    0.5485    0.0000 C   0  0  0  0  0  0  0  0  0
    9.1028    0.5485    0.0000 C   0  0  0  0  0  0  0  0  0
    8.5507   -0.0646    0.0000 C   0  0  0  0  0  0  0  0  0
   10.3403    2.6919    0.0000 C   0  0  0  0  0  0  0  0  0
   10.7528    3.4064    0.0000 N   0  0  0  0  0  0  0  0  0
    0.6523   -2.2040    0.0000 C   0  0  0  0  0  0  0  0  0
   -0.0621   -2.6165    0.0000 C   0  0  0  0  0  0  0  0  0
   -0.7766   -2.2040    0.0000 C   0  0  0  0  0  0  0  0  0
   -0.7766   -1.3790    0.0000 C   0  0  0  0  0  0  0  0  0
   -1.4911   -0.9665    0.0000 Cl  0  0  0  0  0  0  0  0  0
  1  2  1  0  0  0  0
  2  3  4  0  0  0  0
  2 31  4  0  0  0  0
  3  4  1  0  0  0  0
  3 28  4  0  0  0  0
  4  5  1  0  0  0  0
  4  9  1  0  0  0  0
  5  6  1  0  0  0  0
  6  7  1  0  0  0  0
  7  8  1  0  0  0  0
  7 10  1  0  0  0  0
  8  9  1  0  0  0  0
 10 11  1  0  0  0  0
 11 12  1  0  0  0  0
 12 13  1  0  0  0  0
 13 14  1  0  0  0  0
 14 15  1  0  0  0  0
 15 16  2  0  0  0  0
 15 17  1  0  0  0  0
 17 18  4  0  0  0  0
 17 25  4  0  0  0  0
 18 19  4  0  0  0  0
 19 20  4  0  0  0  0
 19 24  4  0  0  0  0
 20 21  4  0  0  0  0
 21 22  4  0  0  0  0
 21 26  1  0  0  0  0
 22 23  4  0  0  0  0
 23 24  4  0  0  0  0
 24 25  4  0  0  0  0
 26 27  3  0  0  0  0
 28 29  4  0  0  0  0
 29 30  4  0  0  0  0
 30 31  4  0  0  0  0
 31 32  1  0  0  0  0
M  STY  1   1 DAT
M  SAL   1  1  18
M  SDT   1 MRV_IMPLICIT_H                                        
M  SDD   1     0.0000    0.0000    DR    ALL  0       0  
M  SED   1 IMPL_H1
M  END
>  <Name_Molregno>
366847

>  <DOPAMINE D2>
6.47

>  <DOPAMINE D3>
9.45

>  <DOPAMINE D4>
6.2

$$$$
366907
  Marvin  02231216192D 0   1.00000     0.00000     0

 30 33  0  0  0  0  0  0  0  0999 V2000
    1.2558   -2.3881    0.0000 Cl  0  0  0  0  0  0  0  0  0
    0.5413   -1.9756    0.0000 C   0  0  0  0  0  0  0  0  0
   -0.1732   -2.3881    0.0000 C   0  0  0  0  0  0  0  0  0
   -0.8877   -1.9756    0.0000 C   0  0  0  0  0  0  0  0  0
   -0.8877   -1.1506    0.0000 C   0  0  0  0  0  0  0  0  0
   -0.1732   -0.7381    0.0000 C   0  0  0  0  0  0  0  0  0
    0.5413   -1.1506    0.0000 C   0  0  0  0  0  0  0  0  0
    1.2558   -0.7381    0.0000 N   0  0  0  0  0  0  0  0  0
    1.2558    0.0869    0.0000 C   0  0  0  0  0  0  0  0  0
    1.9702    0.4994    0.0000 C   0  0  0  0  0  0  0  0  0
    2.6847    0.0869    0.0000 N   0  0  0  0  0  0  0  0  0
    2.6847   -0.7381    0.0000 C   0  0  0  0  0  0  0  0  0
    1.9702   -1.1506    0.0000 C   0  0  0  0  0  0  0  0  0
    3.3992    0.4994    0.0000 C   0  0  0  0  0  0  0  0  0
    4.1136    0.0869    0.0000 C   0  0  0  0  0  0  0  0  0
    4.8281    0.4994    0.0000 C   0  0  0  0  0  0  0  0  0
    5.5426    0.0869    0.0000 C   0  0  0  0  0  0  0  0  0
    6.2571    0.4994    0.0000 N   0  0  0  0  0  0  0  0  0
    6.9715    0.0869    0.0000 C   0  0  0  0  0  0  0  0  0
    6.9715   -0.7381    0.0000 O   0  0  0  0  0  0  0  0  0
    7.6860    0.4994    0.0000 C   0  0  0  0  0  0  0  0  0
    8.4005    0.0869    0.0000 C   0  0  0  0  0  0  0  0  0
    9.1149    0.4994    0.0000 C   0  0  0  0  0  0  0  0  0
    9.1149    1.3244    0.0000 C   0  0  0  0  0  0  0  0  0
    8.4005    1.7369    0.0000 C   0  0  0  0  0  0  0  0  0
    7.6860    1.3244    0.0000 C   0  0  0  0  0  0  0  0  0
    9.8294    1.7369    0.0000 C   0  0  0  0  0  0  0  0  0
   10.5439    1.3244    0.0000 C   0  0  0  0  0  0  0  0  0
   10.5439    0.4994    0.0000 C   0  0  0  0  0  0  0  0  0
    9.8294    0.0869    0.0000 C   0  0  0  0  0  0  0  0  0
  1  2  1  0  0  0  0
  2  3  4  0  0  0  0
  2  7  4  0  0  0  0
  3  4  4  0  0  0  0
  4  5  4  0  0  0  0
  5  6  4  0  0  0  0
  6  7  4  0  0  0  0
  7  8  1  0  0  0  0
  8  9  1  0  0  0  0
  8 13  1  0  0  0  0
  9 10  1  0  0  0  0
 10 11  1  0  0  0  0
 11 12  1  0  0  0  0
 11 14  1  0  0  0  0
 12 13  1  0  0  0  0
 14 15  1  0  0  0  0
 15 16  1  0  0  0  0
 16 17  1  0  0  0  0
 17 18  1  0  0  0  0
 18 19  1  0  0  0  0
 19 20  2  0  0  0  0
 19 21  1  0  0  0  0
 21 22  4  0  0  0  0
 21 26  4  0  0  0  0
 22 23  4  0  0  0  0
 23 24  4  0  0  0  0
 23 30  4  0  0  0  0
 24 25  4  0  0  0  0
 24 27  4  0  0  0  0
 25 26  4  0  0  0  0
 27 28  4  0  0  0  0
 28 29  4  0  0  0  0
 29 30  4  0  0  0  0
M  END
>  <Name_Molregno>
366907

>  <DOPAMINE D2>
6.34

>  <DOPAMINE D3>
9

>  <DOPAMINE D4>
6.7

$$$$
366908
  Marvin  02231216192D 0   1.00000     0.00000     0

 27 29  0  0  0  0  0  0  0  0999 V2000
   -8.3069   -0.3607    0.0000 Cl  0  0  0  0  0  0  0  0  0
   -8.3069    0.4643    0.0000 C   0  0  0  0  0  0  0  0  0
   -9.0214    0.8768    0.0000 C   0  0  0  0  0  0  0  0  0
   -9.0214    1.7018    0.0000 C   0  0  0  0  0  0  0  0  0
   -8.3069    2.1143    0.0000 C   0  0  0  0  0  0  0  0  0
   -7.5924    1.7018    0.0000 C   0  0  0  0  0  0  0  0  0
   -7.5924    0.8768    0.0000 C   0  0  0  0  0  0  0  0  0
   -6.8779    0.4643    0.0000 N   0  0  0  0  0  0  0  0  0
   -6.1635    0.8768    0.0000 C   0  0  0  0  0  0  0  0  0
   -5.4490    0.4643    0.0000 C   0  0  0  0  0  0  0  0  0
   -5.4490   -0.3607    0.0000 N   0  0  0  0  0  0  0  0  0
   -6.1635   -0.7732    0.0000 C   0  0  0  0  0  0  0  0  0
   -6.8779   -0.3607    0.0000 C   0  0  0  0  0  0  0  0  0
   -4.7345   -0.7732    0.0000 C   0  0  0  0  0  0  0  0  0
   -4.0201   -0.3607    0.0000 C   0  0  0  0  0  0  0  0  0
   -3.3056   -0.7732    0.0000 C   0  0  0  0  0  0  0  0  0
   -2.5911   -0.3607    0.0000 C   0  0  0  0  0  0  0  0  0
   -1.8766   -0.7732    0.0000 N   0  0  0  0  0  0  0  0  0
   -1.1622   -0.3607    0.0000 C   0  0  0  0  0  0  0  0  0
   -1.1622    0.4643    0.0000 O   0  0  0  0  0  0  0  0  0
   -0.4477   -0.7732    0.0000 C   0  0  0  0  0  0  0  0  0
    0.2668   -0.3607    0.0000 C   0  0  0  0  0  0  0  0  0
    0.9812   -0.7732    0.0000 C   0  0  0  0  0  0  0  0  0
    0.9812   -1.5982    0.0000 C   0  0  0  0  0  0  0  0  0
    1.6957   -2.0107    0.0000 Cl  0  0  0  0  0  0  0  0  0
    0.2668   -2.0107    0.0000 C   0  0  0  0  0  0  0  0  0
   -0.4477   -1.5982    0.0000 C   0  0  0  0  0  0  0  0  0
  1  2  1  0  0  0  0
  2  3  4  0  0  0  0
  2  7  4  0  0  0  0
  3  4  4  0  0  0  0
  4  5  4  0  0  0  0
  5  6  4  0  0  0  0
  6  7  4  0  0  0  0
  7  8  1  0  0  0  0
  8  9  1  0  0  0  0
  8 13  1  0  0  0  0
  9 10  1  0  0  0  0
 10 11  1  0  0  0  0
 11 12  1  0  0  0  0
 11 14  1  0  0  0  0
 12 13  1  0  0  0  0
 14 15  1  0  0  0  0
 15 16  1  0  0  0  0
 16 17  1  0  0  0  0
 17 18  1  0  0  0  0
 18 19  1  0  0  0  0
 19 20  2  0  0  0  0
 19 21  1  0  0  0  0
 21 22  4  0  0  0  0
 21 27  4  0  0  0  0
 22 23  4  0  0  0  0
 23 24  4  0  0  0  0
 24 25  1  0  0  0  0
 24 26  4  0  0  0  0
 26 27  4  0  0  0  0
M  END
>  <Name_Molregno>
366908

>  <DOPAMINE D2>
6.33

>  <DOPAMINE D3>
8.77

>  <DOPAMINE D4>
6.55

$$$$
366928
  Marvin  02231216192D 0   1.00000     0.00000     0

 30 32  0  0  0  0  0  0  0  0999 V2000
   -0.1729   -0.2766    0.0000 Cl  0  0  0  0  0  0  0  0  0
   -0.1729    0.5484    0.0000 C   0  0  0  0  0  0  0  0  0
   -0.8874    0.9609    0.0000 C   0  0  0  0  0  0  0  0  0
   -0.8874    1.7859    0.0000 C   0  0  0  0  0  0  0  0  0
   -0.1729    2.1984    0.0000 C   0  0  0  0  0  0  0  0  0
    0.5415    1.7859    0.0000 C   0  0  0  0  0  0  0  0  0
    0.5415    0.9609    0.0000 C   0  0  0  0  0  0  0  0  0
    1.2560    0.5484    0.0000 N   0  0  0  0  0  0  0  0  0
    1.9705    0.9609    0.0000 C   0  0  0  0  0  0  0  0  0
    2.6850    0.5484    0.0000 C   0  0  0  0  0  0  0  0  0
    2.6850   -0.2766    0.0000 N   0  0  0  0  0  0  0  0  0
    1.9705   -0.6891    0.0000 C   0  0  0  0  0  0  0  0  0
    1.2560   -0.2766    0.0000 C   0  0  0  0  0  0  0  0  0
    3.3994   -0.6891    0.0000 C   0  0  0  0  0  0  0  0  0
    4.1139   -0.2766    0.0000 C   0  0  0  0  0  0  0  0  0
    4.8284   -0.6891    0.0000 C   0  0  0  0  0  0  0  0  0
    5.5428   -0.2766    0.0000 C   0  0  0  0  0  0  0  0  0
    6.2573   -0.6891    0.0000 N   0  0  0  0  0  0  0  0  0
    6.9718   -0.2766    0.0000 C   0  0  0  0  0  0  0  0  0
    6.9718    0.5484    0.0000 O   0  0  0  0  0  0  0  0  0
    7.6863   -0.6891    0.0000 C   0  0  0  0  0  0  0  0  0
    8.4007   -0.2766    0.0000 C   0  0  0  0  0  0  0  0  0
    9.1152   -0.6891    0.0000 C   0  0  0  0  0  0  0  0  0
    9.8297   -0.2766    0.0000 O   0  0  0  0  0  0  0  0  0
   10.5441   -0.6891    0.0000 C   0  0  0  0  0  0  0  0  0
    9.1152   -1.5141    0.0000 C   0  0  0  0  0  0  0  0  0
    9.8297   -1.9266    0.0000 O   0  0  0  0  0  0  0  0  0
   10.5441   -1.5141    0.0000 C   0  0  0  0  0  0  0  0  0
    8.4007   -1.9266    0.0000 C   0  0  0  0  0  0  0  0  0
    7.6863   -1.5141    0.0000 C   0  0  0  0  0  0  0  0  0
  1  2  1  0  0  0  0
  2  3  4  0  0  0  0
  2  7  4  0  0  0  0
  3  4  4  0  0  0  0
  4  5  4  0  0  0  0
  5  6  4  0  0  0  0
  6  7  4  0  0  0  0
  7  8  1  0  0  0  0
  8  9  1  0  0  0  0
  8 13  1  0  0  0  0
  9 10  1  0  0  0  0
 10 11  1  0  0  0  0
 11 12  1  0  0  0  0
 11 14  1  0  0  0  0
 12 13  1  0  0  0  0
 14 15  1  0  0  0  0
 15 16  1  0  0  0  0
 16 17  1  0  0  0  0
 17 18  1  0  0  0  0
 18 19  1  0  0  0  0
 19 20  2  0  0  0  0
 19 21  1  0  0  0  0
 21 22  4  0  0  0  0
 21 30  4  0  0  0  0
 22 23  4  0  0  0  0
 23 24  1  0  0  0  0
 23 26  4  0  0  0  0
 24 25  1  0  0  0  0
 26 27  1  0  0  0  0
 26 29  4  0  0  0  0
 27 28  1  0  0  0  0
 29 30  4  0  0  0  0
M  END
>  <Name_Molregno>
366928

>  <DOPAMINE D2>
6.55

>  <DOPAMINE D3>
8.51

>  <DOPAMINE D4>
6.77

$$$$
366929
  Marvin  02231216192D 0   1.00000     0.00000     0

 32 35  0  0  0  0  0  0  0  0999 V2000
  -10.3568    0.3497    0.0000 Cl  0  0  0  0  0  0  0  0  0
  -10.3568    1.1747    0.0000 C   0  0  0  0  0  0  0  0  0
  -11.0713    1.5872    0.0000 C   0  0  0  0  0  0  0  0  0
  -11.0713    2.4122    0.0000 C   0  0  0  0  0  0  0  0  0
  -10.3568    2.8247    0.0000 C   0  0  0  0  0  0  0  0  0
   -9.6424    2.4122    0.0000 C   0  0  0  0  0  0  0  0  0
   -9.6424    1.5872    0.0000 C   0  0  0  0  0  0  0  0  0
   -8.9279    1.1747    0.0000 N   0  0  0  0  0  0  0  0  0
   -8.2134    1.5872    0.0000 C   0  0  0  0  0  0  0  0  0
   -7.4990    1.1747    0.0000 C   0  0  0  0  0  0  0  0  0
   -7.4990    0.3497    0.0000 N   0  0  0  0  0  0  0  0  0
   -8.2134   -0.0628    0.0000 C   0  0  0  0  0  0  0  0  0
   -8.9279    0.3497    0.0000 C   0  0  0  0  0  0  0  0  0
   -6.7845   -0.0628    0.0000 C   0  0  0  0  0  0  0  0  0
   -6.0700    0.3497    0.0000 C   0  0  0  0  0  0  0  0  0
   -5.3555   -0.0628    0.0000 C   0  0  0  0  0  0  0  0  0
   -4.6411    0.3497    0.0000 C   0  0  0  0  0  0  0  0  0
   -3.9266   -0.0628    0.0000 N   0  0  0  0  0  0  0  0  0
   -3.2121    0.3497    0.0000 C   0  0  0  0  0  0  0  0  0
   -3.2121    1.1747    0.0000 O   0  0  0  0  0  0  0  0  0
   -2.4977   -0.0628    0.0000 C   0  0  0  0  0  0  0  0  0
   -1.7832    0.3497    0.0000 C   0  0  0  0  0  0  0  0  0
   -1.0687   -0.0628    0.0000 C   0  0  0  0  0  0  0  0  0
   -1.0687   -0.8878    0.0000 C   0  0  0  0  0  0  0  0  0
   -1.7832   -1.3003    0.0000 C   0  0  0  0  0  0  0  0  0
   -2.4977   -0.8878    0.0000 C   0  0  0  0  0  0  0  0  0
   -0.3542   -1.3003    0.0000 C   0  0  0  0  0  0  0  0  0
    0.3602   -0.8878    0.0000 C   0  0  0  0  0  0  0  0  0
    1.0747   -1.3003    0.0000 C   0  0  0  0  0  0  0  0  0
    1.0747   -2.1253    0.0000 C   0  0  0  0  0  0  0  0  0
    0.3602   -2.5378    0.0000 C   0  0  0  0  0  0  0  0  0
   -0.3542   -2.1253    0.0000 C   0  0  0  0  0  0  0  0  0
  1  2  1  0  0  0  0
  2  3  4  0  0  0  0
  2  7  4  0  0  0  0
  3  4  4  0  0  0  0
  4  5  4  0  0  0  0
  5  6  4  0  0  0  0
  6  7  4  0  0  0  0
  7  8  1  0  0  0  0
  8  9  1  0  0  0  0
  8 13  1  0  0  0  0
  9 10  1  0  0  0  0
 10 11  1  0  0  0  0
 11 12  1  0  0  0  0
 11 14  1  0  0  0  0
 12 13  1  0  0  0  0
 14 15  1  0  0  0  0
 15 16  1  0  0  0  0
 16 17  1  0  0  0  0
 17 18  1  0  0  0  0
 18 19  1  0  0  0  0
 19 20  2  0  0  0  0
 19 21  1  0  0  0  0
 21 22  4  0  0  0  0
 21 26  4  0  0  0  0
 22 23  4  0  0  0  0
 23 24  4  0  0  0  0
 24 25  4  0  0  0  0
 24 27  1  0  0  0  0
 25 26  4  0  0  0  0
 27 28  4  0  0  0  0
 27 32  4  0  0  0  0
 28 29  4  0  0  0  0
 29 30  4  0  0  0  0
 30 31  4  0  0  0  0
 31 32  4  0  0  0  0
M  END
>  <Name_Molregno>
366929

>  <DOPAMINE D2>
6.89

>  <DOPAMINE D3>
9.55

>  <DOPAMINE D4>
6.62

$$$$
366947
  Marvin  02231216192D 0   1.00000     0.00000     0

 32 35  0  0  0  0  0  0  0  0999 V2000
   -6.0768    1.9615    0.0000 S   0  0  0  0  0  0  0  0  0
   -6.8838    2.1331    0.0000 C   0  0  0  0  0  0  0  0  0
   -7.2963    1.4186    0.0000 C   0  0  0  0  0  0  0  0  0
   -8.1213    1.4186    0.0000 C   0  0  0  0  0  0  0  0  0
   -8.5338    2.1331    0.0000 C   0  0  0  0  0  0  0  0  0
   -8.1213    2.8475    0.0000 C   0  0  0  0  0  0  0  0  0
   -7.2963    2.8475    0.0000 C   0  0  0  0  0  0  0  0  0
   -9.3588    2.1331    0.0000 C   0  0  0  0  0  0  0  0  0
  -10.1838    2.1331    0.0000 C   0  0  0  0  0  0  0  0  0
   -6.7443    0.8055    0.0000 C   0  0  0  0  0  0  0  0  0
   -5.9906    1.1411    0.0000 C   0  0  0  0  0  0  0  0  0
   -5.2761    0.7286    0.0000 C   0  0  0  0  0  0  0  0  0
   -5.2761   -0.0964    0.0000 O   0  0  0  0  0  0  0  0  0
   -4.5617    1.1411    0.0000 N   0  0  0  0  0  0  0  0  0
   -3.8472    0.7286    0.0000 C   0  0  0  0  0  0  0  0  0
   -3.1327    1.1411    0.0000 C   0  0  0  0  0  0  0  0  0
   -2.4182    0.7286    0.0000 C   0  0  0  0  0  0  0  0  0
   -1.7038    1.1411    0.0000 C   0  0  0  0  0  0  0  0  0
   -0.9893    0.7286    0.0000 N   0  0  0  0  0  0  0  0  0
   -0.2748    1.1411    0.0000 C   0  0  0  0  0  0  0  0  0
    0.4396    0.7286    0.0000 C   0  0  0  0  0  0  0  0  0
    0.4396   -0.0964    0.0000 N   0  0  0  0  0  0  0  0  0
   -0.2748   -0.5089    0.0000 C   0  0  0  0  0  0  0  0  0
   -0.9893   -0.0964    0.0000 C   0  0  0  0  0  0  0  0  0
    1.1541   -0.5089    0.0000 C   0  0  0  0  0  0  0  0  0
    1.8686   -0.0964    0.0000 C   0  0  0  0  0  0  0  0  0
    2.5831   -0.5089    0.0000 C   0  0  0  0  0  0  0  0  0
    2.5831   -1.3339    0.0000 C   0  0  0  0  0  0  0  0  0
    1.8686   -1.7464    0.0000 C   0  0  0  0  0  0  0  0  0
    1.1541   -1.3339    0.0000 C   0  0  0  0  0  0  0  0  0
    0.4396   -1.7464    0.0000 O   0  0  0  0  0  0  0  0  0
    0.4396   -2.5714    0.0000 C   0  0  0  0  0  0  0  0  0
  1  2  4  0  0  0  0
  1 11  4  0  0  0  0
  2  3  4  0  0  0  0
  2  7  4  0  0  0  0
  3  4  4  0  0  0  0
  3 10  4  0  0  0  0
  4  5  4  0  0  0  0
  5  6  4  0  0  0  0
  5  8  1  0  0  0  0
  6  7  4  0  0  0  0
  8  9  3  0  0  0  0
 10 11  4  0  0  0  0
 11 12  1  0  0  0  0
 12 13  2  0  0  0  0
 12 14  1  0  0  0  0
 14 15  1  0  0  0  0
 15 16  1  0  0  0  0
 16 17  1  0  0  0  0
 17 18  1  0  0  0  0
 18 19  1  0  0  0  0
 19 20  1  0  0  0  0
 19 24  1  0  0  0  0
 20 21  1  0  0  0  0
 21 22  1  0  0  0  0
 22 23  1  0  0  0  0
 22 25  1  0  0  0  0
 23 24  1  0  0  0  0
 25 26  4  0  0  0  0
 25 30  4  0  0  0  0
 26 27  4  0  0  0  0
 27 28  4  0  0  0  0
 28 29  4  0  0  0  0
 29 30  4  0  0  0  0
 30 31  1  0  0  0  0
 31 32  1  0  0  0  0
M  END
>  <Name_Molregno>
366947

>  <DOPAMINE D2>
6.39

>  <DOPAMINE D3>
9.41

>  <DOPAMINE D4>
7.51

$$$$
366948
  Marvin  02231216192D 0   1.00000     0.00000     0

 24 27  0  0  0  0  0  0  0  0999 V2000
    3.8822   -4.6324    0.0000 I   0  0  0  0  0  0  0  0  0
    3.8822   -3.8074    0.0000 C   0  0  0  0  0  0  0  0  0
    3.1677   -3.3949    0.0000 N   0  0  0  0  0  0  0  0  0
    2.3831   -3.6498    0.0000 N   0  0  0  0  0  0  0  0  0
    1.8982   -2.9824    0.0000 C   0  0  0  0  0  0  0  0  0
    2.3831   -2.3149    0.0000 C   0  0  0  0  0  0  0  0  0
    3.1677   -2.5699    0.0000 C   0  0  0  0  0  0  0  0  0
    3.8822   -2.1574    0.0000 C   0  0  0  0  0  0  0  0  0
    4.5967   -2.5699    0.0000 C   0  0  0  0  0  0  0  0  0
    4.5967   -3.3949    0.0000 C   0  0  0  0  0  0  0  0  0
    2.1282   -1.5303    0.0000 C   0  0  0  0  0  0  0  0  0
    2.6802   -0.9172    0.0000 N   0  0  0  0  0  0  0  0  0
    2.4253   -0.1326    0.0000 C   0  0  0  0  0  0  0  0  0
    2.9773    0.4805    0.0000 C   0  0  0  0  0  0  0  0  0
    3.7843    0.3090    0.0000 N   0  0  0  0  0  0  0  0  0
    4.0392   -0.4757    0.0000 C   0  0  0  0  0  0  0  0  0
    3.4872   -1.0888    0.0000 C   0  0  0  0  0  0  0  0  0
    4.3363    0.9221    0.0000 C   0  0  0  0  0  0  0  0  0
    4.0814    1.7067    0.0000 C   0  0  0  0  0  0  0  0  0
    4.6334    2.3198    0.0000 C   0  0  0  0  0  0  0  0  0
    5.4404    2.1482    0.0000 C   0  0  0  0  0  0  0  0  0
    5.9924    2.7613    0.0000 Cl  0  0  0  0  0  0  0  0  0
    5.6953    1.3636    0.0000 C   0  0  0  0  0  0  0  0  0
    5.1433    0.7505    0.0000 C   0  0  0  0  0  0  0  0  0
  1  2  1  0  0  0  0
  2  3  4  0  0  0  0
  2 10  4  0  0  0  0
  3  4  4  0  0  0  0
  3  7  4  0  0  0  0
  4  5  4  0  0  0  0
  5  6  4  0  0  0  0
  6  7  4  0  0  0  0
  6 11  1  0  0  0  0
  7  8  4  0  0  0  0
  8  9  4  0  0  0  0
  9 10  4  0  0  0  0
 11 12  1  0  0  0  0
 12 13  1  0  0  0  0
 12 17  1  0  0  0  0
 13 14  1  0  0  0  0
 14 15  1  0  0  0  0
 15 16  1  0  0  0  0
 15 18  1  0  0  0  0
 16 17  1  0  0  0  0
 18 19  4  0  0  0  0
 18 24  4  0  0  0  0
 19 20  4  0  0  0  0
 20 21  4  0  0  0  0
 21 22  1  0  0  0  0
 21 23  4  0  0  0  0
 23 24  4  0  0  0  0
M  END
>  <Name_Molregno>
366948

>  <DOPAMINE D2>
5.12

>  <DOPAMINE D3>
5.57

>  <DOPAMINE D4>
8.3

$$$$
366953
  Marvin  02231216192D 0   1.00000     0.00000     0

 32 35  0  0  0  0  0  0  0  0999 V2000
   -6.0768    1.9615    0.0000 S   0  0  0  0  0  0  0  0  0
   -6.8838    2.1331    0.0000 C   0  0  0  0  0  0  0  0  0
   -7.2963    1.4186    0.0000 C   0  0  0  0  0  0  0  0  0
   -8.1213    1.4186    0.0000 C   0  0  0  0  0  0  0  0  0
   -8.5338    2.1331    0.0000 C   0  0  0  0  0  0  0  0  0
   -8.1213    2.8475    0.0000 C   0  0  0  0  0  0  0  0  0
   -7.2963    2.8475    0.0000 C   0  0  0  0  0  0  0  0  0
   -9.3588    2.1331    0.0000 C   0  0  0  0  0  0  0  0  0
  -10.1838    2.1331    0.0000 N   0  0  0  0  0  0  0  0  0
   -6.7443    0.8055    0.0000 C   0  0  0  0  0  0  0  0  0
   -5.9906    1.1411    0.0000 C   0  0  0  0  0  0  0  0  0
   -5.2761    0.7286    0.0000 C   0  0  0  0  0  0  0  0  0
   -5.2761   -0.0964    0.0000 O   0  0  0  0  0  0  0  0  0
   -4.5617    1.1411    0.0000 N   0  0  0  0  0  0  0  0  0
   -3.8472    0.7286    0.0000 C   0  0  0  0  0  0  0  0  0
   -3.1327    1.1411    0.0000 C   0  0  0  0  0  0  0  0  0
   -2.4182    0.7286    0.0000 C   0  0  0  0  0  0  0  0  0
   -1.7038    1.1411    0.0000 C   0  0  0  0  0  0  0  0  0
   -0.9893    0.7286    0.0000 N   0  0  0  0  0  0  0  0  0
   -0.2748    1.1411    0.0000 C   0  0  0  0  0  0  0  0  0
    0.4396    0.7286    0.0000 C   0  0  0  0  0  0  0  0  0
    0.4396   -0.0964    0.0000 N   0  0  0  0  0  0  0  0  0
   -0.2748   -0.5089    0.0000 C   0  0  0  0  0  0  0  0  0
   -0.9893   -0.0964    0.0000 C   0  0  0  0  0  0  0  0  0
    1.1541   -0.5089    0.0000 C   0  0  0  0  0  0  0  0  0
    1.8686   -0.0964    0.0000 C   0  0  0  0  0  0  0  0  0
    2.5831   -0.5089    0.0000 C   0  0  0  0  0  0  0  0  0
    2.5831   -1.3339    0.0000 C   0  0  0  0  0  0  0  0  0
    1.8686   -1.7464    0.0000 C   0  0  0  0  0  0  0  0  0
    1.1541   -1.3339    0.0000 C   0  0  0  0  0  0  0  0  0
    0.4396   -1.7464    0.0000 O   0  0  0  0  0  0  0  0  0
    0.4396   -2.5714    0.0000 C   0  0  0  0  0  0  0  0  0
  1  2  4  0  0  0  0
  1 11  4  0  0  0  0
  2  3  4  0  0  0  0
  2  7  4  0  0  0  0
  3  4  4  0  0  0  0
  3 10  4  0  0  0  0
  4  5  4  0  0  0  0
  5  6  4  0  0  0  0
  5  8  1  0  0  0  0
  6  7  4  0  0  0  0
  8  9  3  0  0  0  0
 10 11  4  0  0  0  0
 11 12  1  0  0  0  0
 12 13  2  0  0  0  0
 12 14  1  0  0  0  0
 14 15  1  0  0  0  0
 15 16  1  0  0  0  0
 16 17  1  0  0  0  0
 17 18  1  0  0  0  0
 18 19  1  0  0  0  0
 19 20  1  0  0  0  0
 19 24  1  0  0  0  0
 20 21  1  0  0  0  0
 21 22  1  0  0  0  0
 22 23  1  0  0  0  0
 22 25  1  0  0  0  0
 23 24  1  0  0  0  0
 25 26  4  0  0  0  0
 25 30  4  0  0  0  0
 26 27  4  0  0  0  0
 27 28  4  0  0  0  0
 28 29  4  0  0  0  0
 29 30  4  0  0  0  0
 30 31  1  0  0  0  0
 31 32  1  0  0  0  0
M  END
>  <Name_Molregno>
366953

>  <DOPAMINE D2>
7.17

>  <DOPAMINE D3>
9.34

>  <DOPAMINE D4>
7.35

$$$$
366954
  Marvin  02231216192D 0   1.00000     0.00000     0

 32 35  0  0  0  0  0  0  0  0999 V2000
    0.0151    0.2061    0.0000 S   0  0  0  0  0  0  0  0  0
   -0.5369    0.8192    0.0000 C   0  0  0  0  0  0  0  0  0
   -1.3619    0.8192    0.0000 C   0  0  0  0  0  0  0  0  0
   -1.7744    1.5337    0.0000 C   0  0  0  0  0  0  0  0  0
   -1.3619    2.2482    0.0000 C   0  0  0  0  0  0  0  0  0
   -0.5369    2.2482    0.0000 C   0  0  0  0  0  0  0  0  0
   -0.1244    1.5337    0.0000 C   0  0  0  0  0  0  0  0  0
    0.6826    1.3622    0.0000 C   0  0  0  0  0  0  0  0  0
    0.7688    0.5417    0.0000 C   0  0  0  0  0  0  0  0  0
    1.4833    0.1292    0.0000 C   0  0  0  0  0  0  0  0  0
    1.4833   -0.6958    0.0000 O   0  0  0  0  0  0  0  0  0
    2.1977    0.5417    0.0000 N   0  0  0  0  0  0  0  0  0
    2.9122    0.1292    0.0000 C   0  0  0  0  0  0  0  0  0
    3.6267    0.5417    0.0000 C   0  0  0  0  0  0  0  0  0
    4.3412    0.1292    0.0000 C   0  0  0  0  0  0  0  0  0
    5.0556    0.5417    0.0000 C   0  0  0  0  0  0  0  0  0
    5.7701    0.1292    0.0000 N   0  0  0  0  0  0  0  0  0
    6.4846    0.5417    0.0000 C   0  0  0  0  0  0  0  0  0
    7.1990    0.1292    0.0000 C   0  0  0  0  0  0  0  0  0
    7.1990   -0.6958    0.0000 N   0  0  0  0  0  0  0  0  0
    6.4846   -1.1083    0.0000 C   0  0  0  0  0  0  0  0  0
    5.7701   -0.6958    0.0000 C   0  0  0  0  0  0  0  0  0
    7.9135   -1.1083    0.0000 C   0  0  0  0  0  0  0  0  0
    8.6280   -0.6958    0.0000 C   0  0  0  0  0  0  0  0  0
    9.3424   -1.1083    0.0000 C   0  0  0  0  0  0  0  0  0
    9.3424   -1.9333    0.0000 C   0  0  0  0  0  0  0  0  0
    8.6280   -2.3458    0.0000 C   0  0  0  0  0  0  0  0  0
    7.9135   -1.9333    0.0000 C   0  0  0  0  0  0  0  0  0
    7.1990   -2.3458    0.0000 O   0  0  0  0  0  0  0  0  0
    7.1990   -3.1708    0.0000 C   0  0  0  0  0  0  0  0  0
   -2.5994    1.5337    0.0000 C   0  0  0  0  0  0  0  0  0
   -3.4244    1.5337    0.0000 C   0  0  0  0  0  0  0  0  0
  1  2  4  0  0  0  0
  1  9  4  0  0  0  0
  2  3  4  0  0  0  0
  2  7  4  0  0  0  0
  3  4  4  0  0  0  0
  4  5  4  0  0  0  0
  4 31  1  0  0  0  0
  5  6  4  0  0  0  0
  6  7  4  0  0  0  0
  7  8  4  0  0  0  0
  8  9  4  0  0  0  0
  9 10  1  0  0  0  0
 10 11  2  0  0  0  0
 10 12  1  0  0  0  0
 12 13  1  0  0  0  0
 13 14  1  0  0  0  0
 14 15  1  0  0  0  0
 15 16  1  0  0  0  0
 16 17  1  0  0  0  0
 17 18  1  0  0  0  0
 17 22  1  0  0  0  0
 18 19  1  0  0  0  0
 19 20  1  0  0  0  0
 20 21  1  0  0  0  0
 20 23  1  0  0  0  0
 21 22  1  0  0  0  0
 23 24  4  0  0  0  0
 23 28  4  0  0  0  0
 24 25  4  0  0  0  0
 25 26  4  0  0  0  0
 26 27  4  0  0  0  0
 27 28  4  0  0  0  0
 28 29  1  0  0  0  0
 29 30  1  0  0  0  0
 31 32  3  0  0  0  0
M  END
>  <Name_Molregno>
366954

>  <DOPAMINE D2>
6.7

>  <DOPAMINE D3>
9.42

>  <DOPAMINE D4>
6.82

$$$$
366966
  Marvin  02231216192D 0   1.00000     0.00000     0

 31 34  0  0  0  0  0  0  0  0999 V2000
    0.8720    2.5321    0.0000 Br  0  0  0  0  0  0  0  0  0
    1.2845    1.8177    0.0000 C   0  0  0  0  0  0  0  0  0
    2.1095    1.8177    0.0000 C   0  0  0  0  0  0  0  0  0
    2.5220    1.1032    0.0000 C   0  0  0  0  0  0  0  0  0
    3.3290    0.9317    0.0000 C   0  0  0  0  0  0  0  0  0
    3.4152    0.1112    0.0000 C   0  0  0  0  0  0  0  0  0
    2.6615   -0.2244    0.0000 O   0  0  0  0  0  0  0  0  0
    2.1095    0.3887    0.0000 C   0  0  0  0  0  0  0  0  0
    1.2845    0.3887    0.0000 C   0  0  0  0  0  0  0  0  0
    0.8720    1.1032    0.0000 C   0  0  0  0  0  0  0  0  0
    4.1297   -0.3013    0.0000 C   0  0  0  0  0  0  0  0  0
    4.1297   -1.1263    0.0000 O   0  0  0  0  0  0  0  0  0
    4.8441    0.1112    0.0000 N   0  0  0  0  0  0  0  0  0
    5.5586   -0.3013    0.0000 C   0  0  0  0  0  0  0  0  0
    6.2731    0.1112    0.0000 C   0  0  0  0  0  0  0  0  0
    6.9875   -0.3013    0.0000 C   0  0  0  0  0  0  0  0  0
    7.7020    0.1112    0.0000 C   0  0  0  0  0  0  0  0  0
    8.4165   -0.3013    0.0000 N   0  0  0  0  0  0  0  0  0
    9.1310    0.1112    0.0000 C   0  0  0  0  0  0  0  0  0
    9.8454   -0.3013    0.0000 C   0  0  0  0  0  0  0  0  0
    9.8454   -1.1263    0.0000 N   0  0  0  0  0  0  0  0  0
    9.1310   -1.5388    0.0000 C   0  0  0  0  0  0  0  0  0
    8.4165   -1.1263    0.0000 C   0  0  0  0  0  0  0  0  0
   10.5599   -1.5388    0.0000 C   0  0  0  0  0  0  0  0  0
   11.2744   -1.1263    0.0000 C   0  0  0  0  0  0  0  0  0
   11.9888   -1.5388    0.0000 C   0  0  0  0  0  0  0  0  0
   11.9888   -2.3638    0.0000 C   0  0  0  0  0  0  0  0  0
   11.2744   -2.7763    0.0000 C   0  0  0  0  0  0  0  0  0
   10.5599   -2.3638    0.0000 C   0  0  0  0  0  0  0  0  0
    9.8454   -2.7763    0.0000 O   0  0  0  0  0  0  0  0  0
    9.8454   -3.6013    0.0000 C   0  0  0  0  0  0  0  0  0
  1  2  1  0  0  0  0
  2  3  4  0  0  0  0
  2 10  4  0  0  0  0
  3  4  4  0  0  0  0
  4  5  4  0  0  0  0
  4  8  4  0  0  0  0
  5  6  4  0  0  0  0
  6  7  4  0  0  0  0
  6 11  1  0  0  0  0
  7  8  4  0  0  0  0
  8  9  4  0  0  0  0
  9 10  4  0  0  0  0
 11 12  2  0  0  0  0
 11 13  1  0  0  0  0
 13 14  1  0  0  0  0
 14 15  1  0  0  0  0
 15 16  1  0  0  0  0
 16 17  1  0  0  0  0
 17 18  1  0  0  0  0
 18 19  1  0  0  0  0
 18 23  1  0  0  0  0
 19 20  1  0  0  0  0
 20 21  1  0  0  0  0
 21 22  1  0  0  0  0
 21 24  1  0  0  0  0
 22 23  1  0  0  0  0
 24 25  4  0  0  0  0
 24 29  4  0  0  0  0
 25 26  4  0  0  0  0
 26 27  4  0  0  0  0
 27 28  4  0  0  0  0
 28 29  4  0  0  0  0
 29 30  1  0  0  0  0
 30 31  1  0  0  0  0
M  END
>  <Name_Molregno>
366966

>  <DOPAMINE D2>
7.02

>  <DOPAMINE D3>
9.16

>  <DOPAMINE D4>
7.77

$$$$
366967
  Marvin  02231216192D 0   1.00000     0.00000     0

 31 34  0  0  0  0  0  0  0  0999 V2000
    0.8327    2.2710    0.0000 Br  0  0  0  0  0  0  0  0  0
    1.2452    1.5565    0.0000 C   0  0  0  0  0  0  0  0  0
    2.0702    1.5565    0.0000 C   0  0  0  0  0  0  0  0  0
    2.4827    0.8421    0.0000 C   0  0  0  0  0  0  0  0  0
    3.2897    0.6705    0.0000 C   0  0  0  0  0  0  0  0  0
    3.3760   -0.1499    0.0000 C   0  0  0  0  0  0  0  0  0
    2.6223   -0.4855    0.0000 O   0  0  0  0  0  0  0  0  0
    2.0702    0.1276    0.0000 C   0  0  0  0  0  0  0  0  0
    1.2452    0.1276    0.0000 C   0  0  0  0  0  0  0  0  0
    0.8327    0.8421    0.0000 C   0  0  0  0  0  0  0  0  0
    4.0904   -0.5624    0.0000 C   0  0  0  0  0  0  0  0  0
    4.0904   -1.3874    0.0000 O   0  0  0  0  0  0  0  0  0
    4.8049   -0.1499    0.0000 N   0  0  0  0  0  0  0  0  0
    5.5194   -0.5624    0.0000 C   0  0  0  0  0  0  0  0  0
    6.2338   -0.1499    0.0000 C   0  0  0  0  0  0  0  0  0
    6.9483   -0.5624    0.0000 C   0  0  0  0  0  0  0  0  0
    7.6628   -0.1499    0.0000 C   0  0  0  0  0  0  0  0  0
    8.3772   -0.5624    0.0000 N   0  0  0  0  0  0  0  0  0
    9.0917   -0.1499    0.0000 C   0  0  0  0  0  0  0  0  0
    9.8062   -0.5624    0.0000 C   0  0  0  0  0  0  0  0  0
    9.8062   -1.3874    0.0000 N   0  0  0  0  0  0  0  0  0
    9.0917   -1.7999    0.0000 C   0  0  0  0  0  0  0  0  0
    8.3772   -1.3874    0.0000 C   0  0  0  0  0  0  0  0  0
   10.5207   -1.7999    0.0000 C   0  0  0  0  0  0  0  0  0
   11.2351   -1.3874    0.0000 C   0  0  0  0  0  0  0  0  0
   11.9496   -1.7999    0.0000 C   0  0  0  0  0  0  0  0  0
   11.9496   -2.6249    0.0000 C   0  0  0  0  0  0  0  0  0
   11.2351   -3.0374    0.0000 C   0  0  0  0  0  0  0  0  0
   11.2351   -3.8624    0.0000 Cl  0  0  0  0  0  0  0  0  0
   10.5207   -2.6249    0.0000 C   0  0  0  0  0  0  0  0  0
    9.8062   -3.0374    0.0000 Cl  0  0  0  0  0  0  0  0  0
  1  2  1  0  0  0  0
  2  3  4  0  0  0  0
  2 10  4  0  0  0  0
  3  4  4  0  0  0  0
  4  5  4  0  0  0  0
  4  8  4  0  0  0  0
  5  6  4  0  0  0  0
  6  7  4  0  0  0  0
  6 11  1  0  0  0  0
  7  8  4  0  0  0  0
  8  9  4  0  0  0  0
  9 10  4  0  0  0  0
 11 12  2  0  0  0  0
 11 13  1  0  0  0  0
 13 14  1  0  0  0  0
 14 15  1  0  0  0  0
 15 16  1  0  0  0  0
 16 17  1  0  0  0  0
 17 18  1  0  0  0  0
 18 19  1  0  0  0  0
 18 23  1  0  0  0  0
 19 20  1  0  0  0  0
 20 21  1  0  0  0  0
 21 22  1  0  0  0  0
 21 24  1  0  0  0  0
 22 23  1  0  0  0  0
 24 25  4  0  0  0  0
 24 30  4  0  0  0  0
 25 26  4  0  0  0  0
 26 27  4  0  0  0  0
 27 28  4  0  0  0  0
 28 29  1  0  0  0  0
 28 30  4  0  0  0  0
 30 31  1  0  0  0  0
M  END
>  <Name_Molregno>
366967

>  <DOPAMINE D2>
5

>  <DOPAMINE D3>
8.46

>  <DOPAMINE D4>
5.51

$$$$
366973
  Marvin  02231216192D 0   1.00000     0.00000     0

 32 35  0  0  0  0  0  0  0  0999 V2000
   -6.0768    1.9615    0.0000 O   0  0  0  0  0  0  0  0  0
   -6.8838    2.1331    0.0000 C   0  0  0  0  0  0  0  0  0
   -7.2963    1.4186    0.0000 C   0  0  0  0  0  0  0  0  0
   -8.1213    1.4186    0.0000 C   0  0  0  0  0  0  0  0  0
   -8.5338    2.1331    0.0000 C   0  0  0  0  0  0  0  0  0
   -8.1213    2.8475    0.0000 C   0  0  0  0  0  0  0  0  0
   -7.2963    2.8475    0.0000 C   0  0  0  0  0  0  0  0  0
   -9.3588    2.1331    0.0000 C   0  0  0  0  0  0  0  0  0
  -10.1838    2.1331    0.0000 N   0  0  0  0  0  0  0  0  0
   -6.7443    0.8055    0.0000 C   0  0  0  0  0  0  0  0  0
   -5.9906    1.1411    0.0000 C   0  0  0  0  0  0  0  0  0
   -5.2761    0.7286    0.0000 C   0  0  0  0  0  0  0  0  0
   -5.2761   -0.0964    0.0000 O   0  0  0  0  0  0  0  0  0
   -4.5617    1.1411    0.0000 N   0  0  0  0  0  0  0  0  0
   -3.8472    0.7286    0.0000 C   0  0  0  0  0  0  0  0  0
   -3.1327    1.1411    0.0000 C   0  0  0  0  0  0  0  0  0
   -2.4182    0.7286    0.0000 C   0  0  0  0  0  0  0  0  0
   -1.7038    1.1411    0.0000 C   0  0  0  0  0  0  0  0  0
   -0.9893    0.7286    0.0000 N   0  0  0  0  0  0  0  0  0
   -0.2748    1.1411    0.0000 C   0  0  0  0  0  0  0  0  0
    0.4396    0.7286    0.0000 C   0  0  0  0  0  0  0  0  0
    0.4396   -0.0964    0.0000 N   0  0  0  0  0  0  0  0  0
   -0.2748   -0.5089    0.0000 C   0  0  0  0  0  0  0  0  0
   -0.9893   -0.0964    0.0000 C   0  0  0  0  0  0  0  0  0
    1.1541   -0.5089    0.0000 C   0  0  0  0  0  0  0  0  0
    1.8686   -0.0964    0.0000 C   0  0  0  0  0  0  0  0  0
    2.5831   -0.5089    0.0000 C   0  0  0  0  0  0  0  0  0
    2.5831   -1.3339    0.0000 C   0  0  0  0  0  0  0  0  0
    1.8686   -1.7464    0.0000 C   0  0  0  0  0  0  0  0  0
    1.1541   -1.3339    0.0000 C   0  0  0  0  0  0  0  0  0
    0.4396   -1.7464    0.0000 O   0  0  0  0  0  0  0  0  0
    0.4396   -2.5714    0.0000 C   0  0  0  0  0  0  0  0  0
  1  2  4  0  0  0  0
  1 11  4  0  0  0  0
  2  3  4  0  0  0  0
  2  7  4  0  0  0  0
  3  4  4  0  0  0  0
  3 10  4  0  0  0  0
  4  5  4  0  0  0  0
  5  6  4  0  0  0  0
  5  8  1  0  0  0  0
  6  7  4  0  0  0  0
  8  9  3  0  0  0  0
 10 11  4  0  0  0  0
 11 12  1  0  0  0  0
 12 13  2  0  0  0  0
 12 14  1  0  0  0  0
 14 15  1  0  0  0  0
 15 16  1  0  0  0  0
 16 17  1  0  0  0  0
 17 18  1  0  0  0  0
 18 19  1  0  0  0  0
 19 20  1  0  0  0  0
 19 24  1  0  0  0  0
 20 21  1  0  0  0  0
 21 22  1  0  0  0  0
 22 23  1  0  0  0  0
 22 25  1  0  0  0  0
 23 24  1  0  0  0  0
 25 26  4  0  0  0  0
 25 30  4  0  0  0  0
 26 27  4  0  0  0  0
 27 28  4  0  0  0  0
 28 29  4  0  0  0  0
 29 30  4  0  0  0  0
 30 31  1  0  0  0  0
 31 32  1  0  0  0  0
M  END
>  <Name_Molregno>
366973

>  <DOPAMINE D2>
6.89

>  <DOPAMINE D3>
8.37

>  <DOPAMINE D4>
7.24

$$$$
366979
  Marvin  02231216192D 0   1.00000     0.00000     0

 32 35  0  0  0  0  0  0  0  0999 V2000
   -9.6605    0.1014    0.0000 O   0  0  0  0  0  0  0  0  0
  -10.3750   -0.3111    0.0000 C   0  0  0  0  0  0  0  0  0
   -9.6605    0.9264    0.0000 C   0  0  0  0  0  0  0  0  0
  -10.3750    1.3389    0.0000 C   0  0  0  0  0  0  0  0  0
  -10.3750    2.1639    0.0000 C   0  0  0  0  0  0  0  0  0
   -9.6605    2.5764    0.0000 C   0  0  0  0  0  0  0  0  0
   -8.9460    2.1639    0.0000 C   0  0  0  0  0  0  0  0  0
   -8.9460    1.3389    0.0000 C   0  0  0  0  0  0  0  0  0
   -8.2316    0.9264    0.0000 N   0  0  0  0  0  0  0  0  0
   -7.5171    1.3389    0.0000 C   0  0  0  0  0  0  0  0  0
   -6.8026    0.9264    0.0000 C   0  0  0  0  0  0  0  0  0
   -6.8026    0.1014    0.0000 N   0  0  0  0  0  0  0  0  0
   -7.5171   -0.3111    0.0000 C   0  0  0  0  0  0  0  0  0
   -8.2316    0.1014    0.0000 C   0  0  0  0  0  0  0  0  0
   -6.0882   -0.3111    0.0000 C   0  0  0  0  0  0  0  0  0
   -5.3737    0.1014    0.0000 C   0  0  0  0  0  0  0  0  0
   -4.6592   -0.3111    0.0000 C   0  0  0  0  0  0  0  0  0
   -3.9447    0.1014    0.0000 C   0  0  0  0  0  0  0  0  0
   -3.2303   -0.3111    0.0000 N   0  0  0  0  0  0  0  0  0
   -2.5158    0.1014    0.0000 C   0  0  0  0  0  0  0  0  0
   -2.5158    0.9264    0.0000 O   0  0  0  0  0  0  0  0  0
   -1.8013   -0.3111    0.0000 C   0  0  0  0  0  0  0  0  0
   -1.7151   -1.1316    0.0000 N   0  0  0  0  0  0  0  0  0
   -0.9081   -1.3031    0.0000 C   0  0  0  0  0  0  0  0  0
   -0.4956   -0.5886    0.0000 C   0  0  0  0  0  0  0  0  0
    0.3294   -0.5886    0.0000 C   0  0  0  0  0  0  0  0  0
    0.7419   -1.3031    0.0000 C   0  0  0  0  0  0  0  0  0
    0.3294   -2.0176    0.0000 C   0  0  0  0  0  0  0  0  0
   -0.4956   -2.0176    0.0000 C   0  0  0  0  0  0  0  0  0
    1.5669   -1.3031    0.0000 C   0  0  0  0  0  0  0  0  0
    2.3919   -1.3031    0.0000 N   0  0  0  0  0  0  0  0  0
   -1.0477    0.0245    0.0000 C   0  0  0  0  0  0  0  0  0
  1  2  1  0  0  0  0
  1  3  1  0  0  0  0
  3  4  4  0  0  0  0
  3  8  4  0  0  0  0
  4  5  4  0  0  0  0
  5  6  4  0  0  0  0
  6  7  4  0  0  0  0
  7  8  4  0  0  0  0
  8  9  1  0  0  0  0
  9 10  1  0  0  0  0
  9 14  1  0  0  0  0
 10 11  1  0  0  0  0
 11 12  1  0  0  0  0
 12 13  1  0  0  0  0
 12 15  1  0  0  0  0
 13 14  1  0  0  0  0
 15 16  1  0  0  0  0
 16 17  1  0  0  0  0
 17 18  1  0  0  0  0
 18 19  1  0  0  0  0
 19 20  1  0  0  0  0
 20 21  2  0  0  0  0
 20 22  1  0  0  0  0
 22 23  4  0  0  0  0
 22 32  4  0  0  0  0
 23 24  4  0  0  0  0
 24 25  4  0  0  0  0
 24 29  4  0  0  0  0
 25 26  4  0  0  0  0
 25 32  4  0  0  0  0
 26 27  4  0  0  0  0
 27 28  4  0  0  0  0
 27 30  1  0  0  0  0
 28 29  4  0  0  0  0
 30 31  3  0  0  0  0
M  STY  1   1 DAT
M  SAL   1  1  23
M  SDT   1 MRV_IMPLICIT_H                                        
M  SDD   1     0.0000    0.0000    DR    ALL  0       0  
M  SED   1 IMPL_H1
M  END
>  <Name_Molregno>
366979

>  <DOPAMINE D2>
6.85

>  <DOPAMINE D3>
9.24

>  <DOPAMINE D4>
7.62

$$$$
366993
  Marvin  02231216192D 0   1.00000     0.00000     0

 36 39  0  0  0  0  0  0  0  0999 V2000
  -11.0558   -2.3421    0.0000 Br  0  0  0  0  0  0  0  0  0
  -11.5407   -1.6746    0.0000 C   0  0  0  0  0  0  0  0  0
  -12.3612   -1.7609    0.0000 C   0  0  0  0  0  0  0  0  0
  -12.8461   -1.0934    0.0000 C   0  0  0  0  0  0  0  0  0
  -12.5106   -0.3398    0.0000 C   0  0  0  0  0  0  0  0  0
  -11.6901   -0.2535    0.0000 C   0  0  0  0  0  0  0  0  0
  -11.2052   -0.9210    0.0000 C   0  0  0  0  0  0  0  0  0
  -10.3847   -0.8347    0.0000 C   0  0  0  0  0  0  0  0  0
  -10.0491   -0.0811    0.0000 N   0  0  0  0  0  0  0  0  0
  -10.4616    0.6334    0.0000 N   0  0  0  0  0  0  0  0  0
   -9.9096    1.2465    0.0000 N   0  0  0  0  0  0  0  0  0
   -9.1559    0.9110    0.0000 C   0  0  0  0  0  0  0  0  0
   -8.4414    1.3235    0.0000 C   0  0  0  0  0  0  0  0  0
   -8.4414    2.1485    0.0000 O   0  0  0  0  0  0  0  0  0
   -7.7270    0.9110    0.0000 N   0  0  0  0  0  0  0  0  0
   -7.0125    1.3235    0.0000 C   0  0  0  0  0  0  0  0  0
   -6.2980    0.9110    0.0000 C   0  0  0  0  0  0  0  0  0
   -5.5836    1.3235    0.0000 C   0  0  0  0  0  0  0  0  0
   -4.8691    0.9110    0.0000 C   0  0  0  0  0  0  0  0  0
   -4.1546    1.3235    0.0000 C   0  0  0  0  0  0  0  0  0
   -3.4402    0.9110    0.0000 N   0  0  0  0  0  0  0  0  0
   -2.7257    1.3235    0.0000 C   0  0  0  0  0  0  0  0  0
   -2.0112    0.9110    0.0000 C   0  0  0  0  0  0  0  0  0
   -2.0112    0.0860    0.0000 N   0  0  0  0  0  0  0  0  0
   -2.7257   -0.3265    0.0000 C   0  0  0  0  0  0  0  0  0
   -3.4402    0.0860    0.0000 C   0  0  0  0  0  0  0  0  0
   -1.2967   -0.3265    0.0000 C   0  0  0  0  0  0  0  0  0
   -0.5823    0.0860    0.0000 C   0  0  0  0  0  0  0  0  0
    0.1322   -0.3265    0.0000 C   0  0  0  0  0  0  0  0  0
    0.1322   -1.1515    0.0000 C   0  0  0  0  0  0  0  0  0
   -0.5823   -1.5640    0.0000 C   0  0  0  0  0  0  0  0  0
   -1.2967   -1.1515    0.0000 C   0  0  0  0  0  0  0  0  0
   -2.0112   -1.5640    0.0000 O   0  0  0  0  0  0  0  0  0
   -2.0112   -2.3890    0.0000 C   0  0  0  0  0  0  0  0  0
   -9.2422    0.0905    0.0000 C   0  0  0  0  0  0  0  0  0
   -8.6291   -0.4616    0.0000 C   0  0  0  0  0  0  0  0  0
  1  2  1  0  0  0  0
  2  3  4  0  0  0  0
  2  7  4  0  0  0  0
  3  4  4  0  0  0  0
  4  5  4  0  0  0  0
  5  6  4  0  0  0  0
  6  7  4  0  0  0  0
  7  8  1  0  0  0  0
  8  9  1  0  0  0  0
  9 10  4  0  0  0  0
  9 35  4  0  0  0  0
 10 11  4  0  0  0  0
 11 12  4  0  0  0  0
 12 13  1  0  0  0  0
 12 35  4  0  0  0  0
 13 14  2  0  0  0  0
 13 15  1  0  0  0  0
 15 16  1  0  0  0  0
 16 17  1  0  0  0  0
 17 18  1  0  0  0  0
 18 19  1  0  0  0  0
 19 20  1  0  0  0  0
 20 21  1  0  0  0  0
 21 22  1  0  0  0  0
 21 26  1  0  0  0  0
 22 23  1  0  0  0  0
 23 24  1  0  0  0  0
 24 25  1  0  0  0  0
 24 27  1  0  0  0  0
 25 26  1  0  0  0  0
 27 28  4  0  0  0  0
 27 32  4  0  0  0  0
 28 29  4  0  0  0  0
 29 30  4  0  0  0  0
 30 31  4  0  0  0  0
 31 32  4  0  0  0  0
 32 33  1  0  0  0  0
 33 34  1  0  0  0  0
 35 36  1  0  0  0  0
M  END
>  <Name_Molregno>
366993

>  <DOPAMINE D2>
8.31

>  <DOPAMINE D3>
7.82

>  <DOPAMINE D4>
7.38

$$$$
366994
  Marvin  02231216192D 0   1.00000     0.00000     0

 37 40  0  0  0  0  0  0  0  0999 V2000
  -11.7688    0.9429    0.0000 Br  0  0  0  0  0  0  0  0  0
  -11.4332    1.6966    0.0000 C   0  0  0  0  0  0  0  0  0
  -11.9181    2.3640    0.0000 C   0  0  0  0  0  0  0  0  0
  -11.5826    3.1177    0.0000 C   0  0  0  0  0  0  0  0  0
  -10.7621    3.2039    0.0000 C   0  0  0  0  0  0  0  0  0
  -10.2772    2.5365    0.0000 C   0  0  0  0  0  0  0  0  0
  -10.6127    1.7828    0.0000 C   0  0  0  0  0  0  0  0  0
  -10.1278    1.1154    0.0000 C   0  0  0  0  0  0  0  0  0
   -9.3073    1.2016    0.0000 N   0  0  0  0  0  0  0  0  0
   -8.8948    1.9161    0.0000 N   0  0  0  0  0  0  0  0  0
   -8.0879    1.7446    0.0000 N   0  0  0  0  0  0  0  0  0
   -8.0016    0.9241    0.0000 C   0  0  0  0  0  0  0  0  0
   -7.2872    0.5116    0.0000 C   0  0  0  0  0  0  0  0  0
   -7.2872   -0.3134    0.0000 O   0  0  0  0  0  0  0  0  0
   -6.5727    0.9241    0.0000 N   0  0  0  0  0  0  0  0  0
   -5.8582    0.5116    0.0000 C   0  0  0  0  0  0  0  0  0
   -5.1438    0.9241    0.0000 C   0  0  0  0  0  0  0  0  0
   -4.4293    0.5116    0.0000 C   0  0  0  0  0  0  0  0  0
   -3.7148    0.9241    0.0000 C   0  0  0  0  0  0  0  0  0
   -3.0003    0.5116    0.0000 N   0  0  0  0  0  0  0  0  0
   -2.2859    0.9241    0.0000 C   0  0  0  0  0  0  0  0  0
   -1.5714    0.5116    0.0000 C   0  0  0  0  0  0  0  0  0
   -1.5714   -0.3134    0.0000 N   0  0  0  0  0  0  0  0  0
   -2.2859   -0.7259    0.0000 C   0  0  0  0  0  0  0  0  0
   -3.0003   -0.3134    0.0000 C   0  0  0  0  0  0  0  0  0
   -0.8569   -0.7259    0.0000 C   0  0  0  0  0  0  0  0  0
   -0.1425   -0.3134    0.0000 C   0  0  0  0  0  0  0  0  0
    0.5720   -0.7259    0.0000 C   0  0  0  0  0  0  0  0  0
    0.5720   -1.5509    0.0000 C   0  0  0  0  0  0  0  0  0
   -0.1425   -1.9634    0.0000 C   0  0  0  0  0  0  0  0  0
   -0.8569   -1.5509    0.0000 C   0  0  0  0  0  0  0  0  0
   -1.5714   -1.9634    0.0000 O   0  0  0  0  0  0  0  0  0
   -1.5714   -2.7884    0.0000 C   0  0  0  0  0  0  0  0  0
   -8.7553    0.5885    0.0000 C   0  0  0  0  0  0  0  0  0
   -8.9268   -0.2185    0.0000 C   0  0  0  0  0  0  0  0  0
   -8.3137   -0.7705    0.0000 C   0  0  0  0  0  0  0  0  0
   -8.4853   -1.5775    0.0000 C   0  0  0  0  0  0  0  0  0
  1  2  1  0  0  0  0
  2  3  4  0  0  0  0
  2  7  4  0  0  0  0
  3  4  4  0  0  0  0
  4  5  4  0  0  0  0
  5  6  4  0  0  0  0
  6  7  4  0  0  0  0
  7  8  1  0  0  0  0
  8  9  1  0  0  0  0
  9 10  4  0  0  0  0
  9 34  4  0  0  0  0
 10 11  4  0  0  0  0
 11 12  4  0  0  0  0
 12 13  1  0  0  0  0
 12 34  4  0  0  0  0
 13 14  2  0  0  0  0
 13 15  1  0  0  0  0
 15 16  1  0  0  0  0
 16 17  1  0  0  0  0
 17 18  1  0  0  0  0
 18 19  1  0  0  0  0
 19 20  1  0  0  0  0
 20 21  1  0  0  0  0
 20 25  1  0  0  0  0
 21 22  1  0  0  0  0
 22 23  1  0  0  0  0
 23 24  1  0  0  0  0
 23 26  1  0  0  0  0
 24 25  1  0  0  0  0
 26 27  4  0  0  0  0
 26 31  4  0  0  0  0
 27 28  4  0  0  0  0
 28 29  4  0  0  0  0
 29 30  4  0  0  0  0
 30 31  4  0  0  0  0
 31 32  1  0  0  0  0
 32 33  1  0  0  0  0
 34 35  1  0  0  0  0
 35 36  1  0  0  0  0
 36 37  1  0  0  0  0
M  END
>  <Name_Molregno>
366994

>  <DOPAMINE D2>
7.66

>  <DOPAMINE D3>
8.46

>  <DOPAMINE D4>
7.12

$$$$
366999
  Marvin  02231216192D 0   1.00000     0.00000     0

 24 27  0  0  0  0  0  0  0  0999 V2000
    1.0936   -2.1604    0.0000 N   0  0  0  0  0  0  0  0  0
    0.2686   -2.1604    0.0000 N   0  0  0  0  0  0  0  0  0
    0.0136   -1.3757    0.0000 C   0  0  0  0  0  0  0  0  0
    0.6811   -0.8908    0.0000 C   0  0  0  0  0  0  0  0  0
    1.3485   -1.3757    0.0000 C   0  0  0  0  0  0  0  0  0
    0.6811   -0.0658    0.0000 C   0  0  0  0  0  0  0  0  0
    1.3955    0.3467    0.0000 N   0  0  0  0  0  0  0  0  0
    1.3955    1.1717    0.0000 C   0  0  0  0  0  0  0  0  0
    2.1100    1.5842    0.0000 C   0  0  0  0  0  0  0  0  0
    2.8245    1.1717    0.0000 C   0  0  0  0  0  0  0  0  0
    2.8245    0.3467    0.0000 C   0  0  0  0  0  0  0  0  0
    2.1100   -0.0658    0.0000 C   0  0  0  0  0  0  0  0  0
    3.5389    1.5842    0.0000 C   0  0  0  0  0  0  0  0  0
    3.5389    2.4092    0.0000 C   0  0  0  0  0  0  0  0  0
    4.2534    2.8217    0.0000 C   0  0  0  0  0  0  0  0  0
    4.9679    2.4092    0.0000 C   0  0  0  0  0  0  0  0  0
    4.9679    1.5842    0.0000 C   0  0  0  0  0  0  0  0  0
    4.2534    1.1717    0.0000 C   0  0  0  0  0  0  0  0  0
   -0.2164   -2.8278    0.0000 C   0  0  0  0  0  0  0  0  0
    0.1192   -3.5815    0.0000 C   0  0  0  0  0  0  0  0  0
   -0.3657   -4.2489    0.0000 C   0  0  0  0  0  0  0  0  0
   -1.1862   -4.1627    0.0000 C   0  0  0  0  0  0  0  0  0
   -1.5218   -3.4090    0.0000 C   0  0  0  0  0  0  0  0  0
   -1.0368   -2.7416    0.0000 C   0  0  0  0  0  0  0  0  0
  1  2  4  0  0  0  0
  1  5  4  0  0  0  0
  2  3  4  0  0  0  0
  2 19  1  0  0  0  0
  3  4  4  0  0  0  0
  4  5  4  0  0  0  0
  4  6  1  0  0  0  0
  6  7  1  0  0  0  0
  7  8  1  0  0  0  0
  7 12  1  0  0  0  0
  8  9  1  0  0  0  0
  9 10  1  0  0  0  0
 10 11  1  0  0  0  0
 10 13  1  0  0  0  0
 11 12  1  0  0  0  0
 13 14  4  0  0  0  0
 13 18  4  0  0  0  0
 14 15  4  0  0  0  0
 15 16  4  0  0  0  0
 16 17  4  0  0  0  0
 17 18  4  0  0  0  0
 19 20  4  0  0  0  0
 19 24  4  0  0  0  0
 20 21  4  0  0  0  0
 21 22  4  0  0  0  0
 22 23  4  0  0  0  0
 23 24  4  0  0  0  0
M  END
>  <Name_Molregno>
366999

>  <DOPAMINE D2>
7.42

>  <DOPAMINE D3>
7.48

>  <DOPAMINE D4>
9.23

$$$$
367004
  Marvin  02231216192D 0   1.00000     0.00000     0

 24 27  0  0  0  0  0  0  0  0999 V2000
    0.6013   -1.0708    0.0000 N   0  0  0  0  0  0  0  0  0
    0.3463   -1.8554    0.0000 N   0  0  0  0  0  0  0  0  0
   -0.4787   -1.8554    0.0000 N   0  0  0  0  0  0  0  0  0
   -0.7336   -1.0708    0.0000 C   0  0  0  0  0  0  0  0  0
   -0.0662   -0.5859    0.0000 C   0  0  0  0  0  0  0  0  0
   -0.0662    0.2391    0.0000 C   0  0  0  0  0  0  0  0  0
    0.6483    0.6516    0.0000 N   0  0  0  0  0  0  0  0  0
    0.6483    1.4766    0.0000 C   0  0  0  0  0  0  0  0  0
    1.3628    1.8891    0.0000 C   0  0  0  0  0  0  0  0  0
    2.0772    1.4766    0.0000 C   0  0  0  0  0  0  0  0  0
    2.0772    0.6516    0.0000 C   0  0  0  0  0  0  0  0  0
    1.3628    0.2391    0.0000 C   0  0  0  0  0  0  0  0  0
    2.7917    1.8891    0.0000 C   0  0  0  0  0  0  0  0  0
    2.7917    2.7141    0.0000 C   0  0  0  0  0  0  0  0  0
    3.5062    3.1266    0.0000 C   0  0  0  0  0  0  0  0  0
    4.2206    2.7141    0.0000 C   0  0  0  0  0  0  0  0  0
    4.2206    1.8891    0.0000 C   0  0  0  0  0  0  0  0  0
    3.5062    1.4766    0.0000 C   0  0  0  0  0  0  0  0  0
   -0.9636   -2.5228    0.0000 C   0  0  0  0  0  0  0  0  0
   -0.6281   -3.2765    0.0000 C   0  0  0  0  0  0  0  0  0
   -1.1130   -3.9440    0.0000 C   0  0  0  0  0  0  0  0  0
   -1.9335   -3.8577    0.0000 C   0  0  0  0  0  0  0  0  0
   -2.2690   -3.1040    0.0000 C   0  0  0  0  0  0  0  0  0
   -1.7841   -2.4366    0.0000 C   0  0  0  0  0  0  0  0  0
  1  2  4  0  0  0  0
  1  5  4  0  0  0  0
  2  3  4  0  0  0  0
  3  4  4  0  0  0  0
  3 19  1  0  0  0  0
  4  5  4  0  0  0  0
  5  6  1  0  0  0  0
  6  7  1  0  0  0  0
  7  8  1  0  0  0  0
  7 12  1  0  0  0  0
  8  9  1  0  0  0  0
  9 10  1  0  0  0  0
 10 11  1  0  0  0  0
 10 13  1  0  0  0  0
 11 12  1  0  0  0  0
 13 14  4  0  0  0  0
 13 18  4  0  0  0  0
 14 15  4  0  0  0  0
 15 16  4  0  0  0  0
 16 17  4  0  0  0  0
 17 18  4  0  0  0  0
 19 20  4  0  0  0  0
 19 24  4  0  0  0  0
 20 21  4  0  0  0  0
 21 22  4  0  0  0  0
 22 23  4  0  0  0  0
 23 24  4  0  0  0  0
M  END
>  <Name_Molregno>
367004

>  <DOPAMINE D2>
6.66

>  <DOPAMINE D3>
7.03

>  <DOPAMINE D4>
8.49

$$$$
367031
  Marvin  02231216192D 0   1.00000     0.00000     0

 34 37  0  0  0  0  0  0  0  0999 V2000
   -0.1360    0.0162    0.0000 Cl  0  0  0  0  0  0  0  0  0
   -0.1360   -0.8088    0.0000 C   0  0  0  0  0  0  0  0  0
    0.5785   -1.2213    0.0000 C   0  0  0  0  0  0  0  0  0
    1.2930   -0.8088    0.0000 N   0  0  0  0  0  0  0  0  0
    1.2930    0.0162    0.0000 C   0  0  0  0  0  0  0  0  0
    2.0074    0.4287    0.0000 C   0  0  0  0  0  0  0  0  0
    2.7219    0.0162    0.0000 N   0  0  0  0  0  0  0  0  0
    2.7219   -0.8088    0.0000 C   0  0  0  0  0  0  0  0  0
    2.0074   -1.2213    0.0000 C   0  0  0  0  0  0  0  0  0
    3.4364    0.4287    0.0000 C   0  0  0  0  0  0  0  0  0
    4.1508    0.0162    0.0000 C   0  0  0  0  0  0  0  0  0
    4.8653    0.4287    0.0000 C   0  0  0  0  0  0  0  0  0
    5.5798    0.0162    0.0000 C   0  0  0  0  0  0  0  0  0
    6.2943    0.4287    0.0000 N   0  0  0  0  0  0  0  0  0
    7.0087    0.0162    0.0000 C   0  0  0  0  0  0  0  0  0
    7.0087   -0.8088    0.0000 O   0  0  0  0  0  0  0  0  0
    7.7232    0.4287    0.0000 C   0  0  0  0  0  0  0  0  0
    7.8094    1.2492    0.0000 N   0  0  0  0  0  0  0  0  0
    8.6164    1.4207    0.0000 N   0  0  0  0  0  0  0  0  0
    9.0289    0.7062    0.0000 N   0  0  0  0  0  0  0  0  0
    9.8494    0.6200    0.0000 C   0  0  0  0  0  0  0  0  0
   10.3343    1.2874    0.0000 C   0  0  0  0  0  0  0  0  0
    9.9988    2.0411    0.0000 C   0  0  0  0  0  0  0  0  0
   10.4837    2.7086    0.0000 C   0  0  0  0  0  0  0  0  0
   11.3042    2.6223    0.0000 C   0  0  0  0  0  0  0  0  0
   11.6397    1.8686    0.0000 C   0  0  0  0  0  0  0  0  0
   11.1548    1.2012    0.0000 C   0  0  0  0  0  0  0  0  0
    8.4769    0.0931    0.0000 C   0  0  0  0  0  0  0  0  0
    8.6484   -0.7138    0.0000 C   0  0  0  0  0  0  0  0  0
    0.5785   -2.0463    0.0000 C   0  0  0  0  0  0  0  0  0
   -0.1360   -2.4588    0.0000 C   0  0  0  0  0  0  0  0  0
   -0.8505   -2.0463    0.0000 C   0  0  0  0  0  0  0  0  0
   -0.8505   -1.2213    0.0000 C   0  0  0  0  0  0  0  0  0
   -1.5649   -0.8088    0.0000 Cl  0  0  0  0  0  0  0  0  0
  1  2  1  0  0  0  0
  2  3  4  0  0  0  0
  2 33  4  0  0  0  0
  3  4  1  0  0  0  0
  3 30  4  0  0  0  0
  4  5  1  0  0  0  0
  4  9  1  0  0  0  0
  5  6  1  0  0  0  0
  6  7  1  0  0  0  0
  7  8  1  0  0  0  0
  7 10  1  0  0  0  0
  8  9  1  0  0  0  0
 10 11  1  0  0  0  0
 11 12  1  0  0  0  0
 12 13  1  0  0  0  0
 13 14  1  0  0  0  0
 14 15  1  0  0  0  0
 15 16  2  0  0  0  0
 15 17  1  0  0  0  0
 17 18  4  0  0  0  0
 17 28  4  0  0  0  0
 18 19  4  0  0  0  0
 19 20  4  0  0  0  0
 20 21  1  0  0  0  0
 20 28  4  0  0  0  0
 21 22  1  0  0  0  0
 22 23  4  0  0  0  0
 22 27  4  0  0  0  0
 23 24  4  0  0  0  0
 24 25  4  0  0  0  0
 25 26  4  0  0  0  0
 26 27  4  0  0  0  0
 28 29  1  0  0  0  0
 30 31  4  0  0  0  0
 31 32  4  0  0  0  0
 32 33  4  0  0  0  0
 33 34  1  0  0  0  0
M  END
>  <Name_Molregno>
367031

>  <DOPAMINE D2>
7.41

>  <DOPAMINE D3>
8.37

>  <DOPAMINE D4>
6.55

$$$$
367033
  Marvin  02231216192D 0   1.00000     0.00000     0

 38 41  0  0  0  0  0  0  0  0999 V2000
  -10.8228   -1.9571    0.0000 Br  0  0  0  0  0  0  0  0  0
  -11.3077   -1.2897    0.0000 C   0  0  0  0  0  0  0  0  0
  -12.1282   -1.3759    0.0000 C   0  0  0  0  0  0  0  0  0
  -12.6131   -0.7085    0.0000 C   0  0  0  0  0  0  0  0  0
  -12.2775    0.0452    0.0000 C   0  0  0  0  0  0  0  0  0
  -11.4571    0.1315    0.0000 C   0  0  0  0  0  0  0  0  0
  -10.9721   -0.5360    0.0000 C   0  0  0  0  0  0  0  0  0
  -10.1517   -0.4497    0.0000 C   0  0  0  0  0  0  0  0  0
   -9.8161    0.3039    0.0000 N   0  0  0  0  0  0  0  0  0
  -10.2286    1.0184    0.0000 N   0  0  0  0  0  0  0  0  0
   -9.6766    1.6315    0.0000 N   0  0  0  0  0  0  0  0  0
   -8.9229    1.2959    0.0000 C   0  0  0  0  0  0  0  0  0
   -8.2084    1.7084    0.0000 C   0  0  0  0  0  0  0  0  0
   -8.2084    2.5334    0.0000 O   0  0  0  0  0  0  0  0  0
   -7.4939    1.2959    0.0000 N   0  0  0  0  0  0  0  0  0
   -6.7795    1.7084    0.0000 C   0  0  0  0  0  0  0  0  0
   -6.0650    1.2959    0.0000 C   0  0  0  0  0  0  0  0  0
   -5.3505    1.7084    0.0000 C   0  0  0  0  0  0  0  0  0
   -4.6361    1.2959    0.0000 C   0  0  0  0  0  0  0  0  0
   -3.9216    1.7084    0.0000 C   0  0  0  0  0  0  0  0  0
   -3.2071    1.2959    0.0000 N   0  0  0  0  0  0  0  0  0
   -2.4927    1.7084    0.0000 C   0  0  0  0  0  0  0  0  0
   -1.7782    1.2959    0.0000 C   0  0  0  0  0  0  0  0  0
   -1.7782    0.4709    0.0000 N   0  0  0  0  0  0  0  0  0
   -2.4927    0.0584    0.0000 C   0  0  0  0  0  0  0  0  0
   -3.2071    0.4709    0.0000 C   0  0  0  0  0  0  0  0  0
   -1.0637    0.0584    0.0000 C   0  0  0  0  0  0  0  0  0
   -0.3492    0.4709    0.0000 C   0  0  0  0  0  0  0  0  0
    0.3652    0.0584    0.0000 C   0  0  0  0  0  0  0  0  0
    0.3652   -0.7666    0.0000 C   0  0  0  0  0  0  0  0  0
   -0.3492   -1.1791    0.0000 C   0  0  0  0  0  0  0  0  0
   -1.0637   -0.7666    0.0000 C   0  0  0  0  0  0  0  0  0
   -1.7782   -1.1791    0.0000 O   0  0  0  0  0  0  0  0  0
   -1.7782   -2.0041    0.0000 C   0  0  0  0  0  0  0  0  0
   -9.0091    0.4755    0.0000 C   0  0  0  0  0  0  0  0  0
   -8.3960   -0.0766    0.0000 C   0  0  0  0  0  0  0  0  0
   -7.6114    0.1784    0.0000 C   0  0  0  0  0  0  0  0  0
   -6.9983   -0.3737    0.0000 C   0  0  0  0  0  0  0  0  0
  1  2  1  0  0  0  0
  2  3  4  0  0  0  0
  2  7  4  0  0  0  0
  3  4  4  0  0  0  0
  4  5  4  0  0  0  0
  5  6  4  0  0  0  0
  6  7  4  0  0  0  0
  7  8  1  0  0  0  0
  8  9  1  0  0  0  0
  9 10  4  0  0  0  0
  9 35  4  0  0  0  0
 10 11  4  0  0  0  0
 11 12  4  0  0  0  0
 12 13  1  0  0  0  0
 12 35  4  0  0  0  0
 13 14  2  0  0  0  0
 13 15  1  0  0  0  0
 15 16  1  0  0  0  0
 16 17  1  0  0  0  0
 17 18  1  0  0  0  0
 18 19  1  0  0  0  0
 19 20  1  0  0  0  0
 20 21  1  0  0  0  0
 21 22  1  0  0  0  0
 21 26  1  0  0  0  0
 22 23  1  0  0  0  0
 23 24  1  0  0  0  0
 24 25  1  0  0  0  0
 24 27  1  0  0  0  0
 25 26  1  0  0  0  0
 27 28  4  0  0  0  0
 27 32  4  0  0  0  0
 28 29  4  0  0  0  0
 29 30  4  0  0  0  0
 30 31  4  0  0  0  0
 31 32  4  0  0  0  0
 32 33  1  0  0  0  0
 33 34  1  0  0  0  0
 35 36  1  0  0  0  0
 36 37  1  0  0  0  0
 37 38  1  0  0  0  0
M  END
>  <Name_Molregno>
367033

>  <DOPAMINE D2>
8.28

>  <DOPAMINE D3>
8.13

>  <DOPAMINE D4>
7.4

$$$$
367038
  Marvin  02231216192D 0   1.00000     0.00000     0

 34 37  0  0  0  0  0  0  0  0999 V2000
   -9.0273   -2.3226    0.0000 O   0  0  0  0  0  0  0  0  0
   -9.0273   -3.1476    0.0000 C   0  0  0  0  0  0  0  0  0
   -9.7418   -1.9101    0.0000 C   0  0  0  0  0  0  0  0  0
  -10.4563   -2.3226    0.0000 C   0  0  0  0  0  0  0  0  0
  -11.1707   -1.9101    0.0000 C   0  0  0  0  0  0  0  0  0
  -11.1707   -1.0851    0.0000 C   0  0  0  0  0  0  0  0  0
  -10.4563   -0.6726    0.0000 C   0  0  0  0  0  0  0  0  0
   -9.7418   -1.0851    0.0000 C   0  0  0  0  0  0  0  0  0
   -9.0273   -0.6726    0.0000 N   0  0  0  0  0  0  0  0  0
   -9.0273    0.1524    0.0000 C   0  0  0  0  0  0  0  0  0
   -8.3129    0.5649    0.0000 C   0  0  0  0  0  0  0  0  0
   -7.5984    0.1524    0.0000 N   0  0  0  0  0  0  0  0  0
   -7.5984   -0.6726    0.0000 C   0  0  0  0  0  0  0  0  0
   -8.3129   -1.0851    0.0000 C   0  0  0  0  0  0  0  0  0
   -6.8839    0.5649    0.0000 C   0  0  0  0  0  0  0  0  0
   -6.1694    0.1524    0.0000 C   0  0  0  0  0  0  0  0  0
   -5.4550    0.5649    0.0000 C   0  0  0  0  0  0  0  0  0
   -4.7405    0.1524    0.0000 C   0  0  0  0  0  0  0  0  0
   -4.0260    0.5649    0.0000 N   0  0  0  0  0  0  0  0  0
   -3.3116    0.1524    0.0000 C   0  0  0  0  0  0  0  0  0
   -3.3116   -0.6726    0.0000 O   0  0  0  0  0  0  0  0  0
   -2.5971    0.5649    0.0000 C   0  0  0  0  0  0  0  0  0
   -2.5109    1.3853    0.0000 N   0  0  0  0  0  0  0  0  0
   -1.7039    1.5569    0.0000 N   0  0  0  0  0  0  0  0  0
   -1.2914    0.8424    0.0000 N   0  0  0  0  0  0  0  0  0
   -0.4709    0.7562    0.0000 C   0  0  0  0  0  0  0  0  0
    0.0140    1.4236    0.0000 C   0  0  0  0  0  0  0  0  0
   -0.3215    2.1773    0.0000 C   0  0  0  0  0  0  0  0  0
    0.1634    2.8447    0.0000 C   0  0  0  0  0  0  0  0  0
    0.9839    2.7585    0.0000 C   0  0  0  0  0  0  0  0  0
    1.3194    2.0048    0.0000 C   0  0  0  0  0  0  0  0  0
    0.8345    1.3374    0.0000 C   0  0  0  0  0  0  0  0  0
   -1.8434    0.2293    0.0000 C   0  0  0  0  0  0  0  0  0
   -1.6719   -0.5777    0.0000 C   0  0  0  0  0  0  0  0  0
  1  2  1  0  0  0  0
  1  3  1  0  0  0  0
  3  4  4  0  0  0  0
  3  8  4  0  0  0  0
  4  5  4  0  0  0  0
  5  6  4  0  0  0  0
  6  7  4  0  0  0  0
  7  8  4  0  0  0  0
  8  9  1  0  0  0  0
  9 10  1  0  0  0  0
  9 14  1  0  0  0  0
 10 11  1  0  0  0  0
 11 12  1  0  0  0  0
 12 13  1  0  0  0  0
 12 15  1  0  0  0  0
 13 14  1  0  0  0  0
 15 16  1  0  0  0  0
 16 17  1  0  0  0  0
 17 18  1  0  0  0  0
 18 19  1  0  0  0  0
 19 20  1  0  0  0  0
 20 21  2  0  0  0  0
 20 22  1  0  0  0  0
 22 23  4  0  0  0  0
 22 33  4  0  0  0  0
 23 24  4  0  0  0  0
 24 25  4  0  0  0  0
 25 26  1  0  0  0  0
 25 33  4  0  0  0  0
 26 27  1  0  0  0  0
 27 28  4  0  0  0  0
 27 32  4  0  0  0  0
 28 29  4  0  0  0  0
 29 30  4  0  0  0  0
 30 31  4  0  0  0  0
 31 32  4  0  0  0  0
 33 34  1  0  0  0  0
M  END
>  <Name_Molregno>
367038

>  <DOPAMINE D2>
6.64

>  <DOPAMINE D3>
7.17

>  <DOPAMINE D4>
6.01

$$$$
367039
  Marvin  02231216192D 0   1.00000     0.00000     0

 35 38  0  0  0  0  0  0  0  0999 V2000
   -0.0413    0.1780    0.0000 Cl  0  0  0  0  0  0  0  0  0
   -0.0413   -0.6470    0.0000 C   0  0  0  0  0  0  0  0  0
    0.6732   -1.0595    0.0000 C   0  0  0  0  0  0  0  0  0
    1.3876   -0.6470    0.0000 N   0  0  0  0  0  0  0  0  0
    1.3876    0.1780    0.0000 C   0  0  0  0  0  0  0  0  0
    2.1021    0.5905    0.0000 C   0  0  0  0  0  0  0  0  0
    2.8166    0.1780    0.0000 N   0  0  0  0  0  0  0  0  0
    2.8166   -0.6470    0.0000 C   0  0  0  0  0  0  0  0  0
    2.1021   -1.0595    0.0000 C   0  0  0  0  0  0  0  0  0
    3.5311    0.5905    0.0000 C   0  0  0  0  0  0  0  0  0
    4.2455    0.1780    0.0000 C   0  0  0  0  0  0  0  0  0
    4.9600    0.5905    0.0000 C   0  0  0  0  0  0  0  0  0
    5.6745    0.1780    0.0000 C   0  0  0  0  0  0  0  0  0
    6.3889    0.5905    0.0000 C   0  0  0  0  0  0  0  0  0
    7.1034    0.1780    0.0000 N   0  0  0  0  0  0  0  0  0
    7.8179    0.5905    0.0000 C   0  0  0  0  0  0  0  0  0
    7.8179    1.4155    0.0000 O   0  0  0  0  0  0  0  0  0
    8.5324    0.1780    0.0000 C   0  0  0  0  0  0  0  0  0
    9.2860    0.5135    0.0000 N   0  0  0  0  0  0  0  0  0
    9.8381   -0.0996    0.0000 N   0  0  0  0  0  0  0  0  0
    9.4256   -0.8140    0.0000 N   0  0  0  0  0  0  0  0  0
    9.7611   -1.5677    0.0000 C   0  0  0  0  0  0  0  0  0
   10.5816   -1.6540    0.0000 C   0  0  0  0  0  0  0  0  0
   11.0665   -0.9865    0.0000 C   0  0  0  0  0  0  0  0  0
   11.8870   -1.0728    0.0000 C   0  0  0  0  0  0  0  0  0
   12.2226   -1.8264    0.0000 C   0  0  0  0  0  0  0  0  0
   11.7376   -2.4939    0.0000 C   0  0  0  0  0  0  0  0  0
   10.9172   -2.4076    0.0000 C   0  0  0  0  0  0  0  0  0
    8.6186   -0.6425    0.0000 C   0  0  0  0  0  0  0  0  0
    8.0055   -1.1945    0.0000 C   0  0  0  0  0  0  0  0  0
    0.6732   -1.8845    0.0000 C   0  0  0  0  0  0  0  0  0
   -0.0413   -2.2970    0.0000 C   0  0  0  0  0  0  0  0  0
   -0.7558   -1.8845    0.0000 C   0  0  0  0  0  0  0  0  0
   -0.7558   -1.0595    0.0000 C   0  0  0  0  0  0  0  0  0
   -1.4702   -0.6470    0.0000 Cl  0  0  0  0  0  0  0  0  0
  1  2  1  0  0  0  0
  2  3  4  0  0  0  0
  2 34  4  0  0  0  0
  3  4  1  0  0  0  0
  3 31  4  0  0  0  0
  4  5  1  0  0  0  0
  4  9  1  0  0  0  0
  5  6  1  0  0  0  0
  6  7  1  0  0  0  0
  7  8  1  0  0  0  0
  7 10  1  0  0  0  0
  8  9  1  0  0  0  0
 10 11  1  0  0  0  0
 11 12  1  0  0  0  0
 12 13  1  0  0  0  0
 13 14  1  0  0  0  0
 14 15  1  0  0  0  0
 15 16  1  0  0  0  0
 16 17  2  0  0  0  0
 16 18  1  0  0  0  0
 18 19  4  0  0  0  0
 18 29  4  0  0  0  0
 19 20  4  0  0  0  0
 20 21  4  0  0  0  0
 21 22  1  0  0  0  0
 21 29  4  0  0  0  0
 22 23  1  0  0  0  0
 23 24  4  0  0  0  0
 23 28  4  0  0  0  0
 24 25  4  0  0  0  0
 25 26  4  0  0  0  0
 26 27  4  0  0  0  0
 27 28  4  0  0  0  0
 29 30  1  0  0  0  0
 31 32  4  0  0  0  0
 32 33  4  0  0  0  0
 33 34  4  0  0  0  0
 34 35  1  0  0  0  0
M  END
>  <Name_Molregno>
367039

>  <DOPAMINE D2>
8

>  <DOPAMINE D3>
8.07

>  <DOPAMINE D4>
6.6

$$$$
367050
  Marvin  02231216192D 0   1.00000     0.00000     0

 35 38  0  0  0  0  0  0  0  0999 V2000
  -11.0153    0.4287    0.0000 O   0  0  0  0  0  0  0  0  0
  -11.7298    0.0162    0.0000 C   0  0  0  0  0  0  0  0  0
  -11.0153    1.2537    0.0000 C   0  0  0  0  0  0  0  0  0
  -11.7298    1.6662    0.0000 C   0  0  0  0  0  0  0  0  0
  -11.7298    2.4912    0.0000 C   0  0  0  0  0  0  0  0  0
  -11.0153    2.9037    0.0000 C   0  0  0  0  0  0  0  0  0
  -10.3009    2.4912    0.0000 C   0  0  0  0  0  0  0  0  0
  -10.3009    1.6662    0.0000 C   0  0  0  0  0  0  0  0  0
   -9.5864    1.2537    0.0000 N   0  0  0  0  0  0  0  0  0
   -8.8719    1.6662    0.0000 C   0  0  0  0  0  0  0  0  0
   -8.1575    1.2537    0.0000 C   0  0  0  0  0  0  0  0  0
   -8.1575    0.4287    0.0000 N   0  0  0  0  0  0  0  0  0
   -8.8719    0.0162    0.0000 C   0  0  0  0  0  0  0  0  0
   -9.5864    0.4287    0.0000 C   0  0  0  0  0  0  0  0  0
   -7.4430    0.0162    0.0000 C   0  0  0  0  0  0  0  0  0
   -6.7285    0.4287    0.0000 C   0  0  0  0  0  0  0  0  0
   -6.0140    0.0162    0.0000 C   0  0  0  0  0  0  0  0  0
   -5.2996    0.4287    0.0000 C   0  0  0  0  0  0  0  0  0
   -4.5851    0.0162    0.0000 C   0  0  0  0  0  0  0  0  0
   -3.8706    0.4287    0.0000 N   0  0  0  0  0  0  0  0  0
   -3.1562    0.0162    0.0000 C   0  0  0  0  0  0  0  0  0
   -3.1562   -0.8088    0.0000 O   0  0  0  0  0  0  0  0  0
   -2.4417    0.4287    0.0000 C   0  0  0  0  0  0  0  0  0
   -2.3555    1.2491    0.0000 N   0  0  0  0  0  0  0  0  0
   -1.5485    1.4207    0.0000 N   0  0  0  0  0  0  0  0  0
   -1.1360    0.7062    0.0000 N   0  0  0  0  0  0  0  0  0
   -0.3155    0.6200    0.0000 C   0  0  0  0  0  0  0  0  0
    0.0201   -0.1337    0.0000 C   0  0  0  0  0  0  0  0  0
    0.8405   -0.2200    0.0000 C   0  0  0  0  0  0  0  0  0
    1.1761   -0.9736    0.0000 C   0  0  0  0  0  0  0  0  0
    0.6912   -1.6411    0.0000 C   0  0  0  0  0  0  0  0  0
   -0.1293   -1.5548    0.0000 C   0  0  0  0  0  0  0  0  0
   -0.4649   -0.8012    0.0000 C   0  0  0  0  0  0  0  0  0
   -1.6880    0.0931    0.0000 C   0  0  0  0  0  0  0  0  0
   -1.5165   -0.7139    0.0000 C   0  0  0  0  0  0  0  0  0
  1  2  1  0  0  0  0
  1  3  1  0  0  0  0
  3  4  4  0  0  0  0
  3  8  4  0  0  0  0
  4  5  4  0  0  0  0
  5  6  4  0  0  0  0
  6  7  4  0  0  0  0
  7  8  4  0  0  0  0
  8  9  1  0  0  0  0
  9 10  1  0  0  0  0
  9 14  1  0  0  0  0
 10 11  1  0  0  0  0
 11 12  1  0  0  0  0
 12 13  1  0  0  0  0
 12 15  1  0  0  0  0
 13 14  1  0  0  0  0
 15 16  1  0  0  0  0
 16 17  1  0  0  0  0
 17 18  1  0  0  0  0
 18 19  1  0  0  0  0
 19 20  1  0  0  0  0
 20 21  1  0  0  0  0
 21 22  2  0  0  0  0
 21 23  1  0  0  0  0
 23 24  4  0  0  0  0
 23 34  4  0  0  0  0
 24 25  4  0  0  0  0
 25 26  4  0  0  0  0
 26 27  1  0  0  0  0
 26 34  4  0  0  0  0
 27 28  1  0  0  0  0
 28 29  4  0  0  0  0
 28 33  4  0  0  0  0
 29 30  4  0  0  0  0
 30 31  4  0  0  0  0
 31 32  4  0  0  0  0
 32 33  4  0  0  0  0
 34 35  1  0  0  0  0
M  END
>  <Name_Molregno>
367050

>  <DOPAMINE D2>
8.03

>  <DOPAMINE D3>
7.8

>  <DOPAMINE D4>
6.8

$$$$
367064
  Marvin  02231216192D 0   1.00000     0.00000     0

 36 39  0  0  0  0  0  0  0  0999 V2000
  -10.7953   -0.0110    0.0000 Cl  0  0  0  0  0  0  0  0  0
  -10.7953   -0.8360    0.0000 C   0  0  0  0  0  0  0  0  0
  -10.0808   -1.2485    0.0000 C   0  0  0  0  0  0  0  0  0
   -9.3663   -0.8360    0.0000 N   0  0  0  0  0  0  0  0  0
   -9.3663   -0.0110    0.0000 C   0  0  0  0  0  0  0  0  0
   -8.6519    0.4015    0.0000 C   0  0  0  0  0  0  0  0  0
   -7.9374   -0.0110    0.0000 N   0  0  0  0  0  0  0  0  0
   -7.9374   -0.8360    0.0000 C   0  0  0  0  0  0  0  0  0
   -8.6519   -1.2485    0.0000 C   0  0  0  0  0  0  0  0  0
   -7.2229    0.4015    0.0000 C   0  0  0  0  0  0  0  0  0
   -6.5085   -0.0110    0.0000 C   0  0  0  0  0  0  0  0  0
   -5.7940    0.4015    0.0000 C   0  0  0  0  0  0  0  0  0
   -5.0795   -0.0110    0.0000 C   0  0  0  0  0  0  0  0  0
   -4.3650    0.4015    0.0000 N   0  0  0  0  0  0  0  0  0
   -3.6506   -0.0110    0.0000 C   0  0  0  0  0  0  0  0  0
   -3.6506   -0.8360    0.0000 O   0  0  0  0  0  0  0  0  0
   -2.9361    0.4015    0.0000 C   0  0  0  0  0  0  0  0  0
   -2.8499    1.2220    0.0000 N   0  0  0  0  0  0  0  0  0
   -2.0429    1.3935    0.0000 N   0  0  0  0  0  0  0  0  0
   -1.6304    0.6790    0.0000 N   0  0  0  0  0  0  0  0  0
   -0.8099    0.5928    0.0000 C   0  0  0  0  0  0  0  0  0
   -0.3250    1.2602    0.0000 C   0  0  0  0  0  0  0  0  0
   -0.6605    2.0139    0.0000 C   0  0  0  0  0  0  0  0  0
   -0.1756    2.6814    0.0000 C   0  0  0  0  0  0  0  0  0
    0.6449    2.5951    0.0000 C   0  0  0  0  0  0  0  0  0
    0.9804    1.8414    0.0000 C   0  0  0  0  0  0  0  0  0
    0.4955    1.1740    0.0000 C   0  0  0  0  0  0  0  0  0
   -2.1824    0.0659    0.0000 C   0  0  0  0  0  0  0  0  0
   -2.0109   -0.7410    0.0000 C   0  0  0  0  0  0  0  0  0
   -1.2263   -0.9960    0.0000 C   0  0  0  0  0  0  0  0  0
   -1.0547   -1.8029    0.0000 C   0  0  0  0  0  0  0  0  0
  -10.0808   -2.0735    0.0000 C   0  0  0  0  0  0  0  0  0
  -10.7953   -2.4860    0.0000 C   0  0  0  0  0  0  0  0  0
  -11.5098   -2.0735    0.0000 C   0  0  0  0  0  0  0  0  0
  -11.5098   -1.2485    0.0000 C   0  0  0  0  0  0  0  0  0
  -12.2242   -0.8360    0.0000 Cl  0  0  0  0  0  0  0  0  0
  1  2  1  0  0  0  0
  2  3  4  0  0  0  0
  2 35  4  0  0  0  0
  3  4  1  0  0  0  0
  3 32  4  0  0  0  0
  4  5  1  0  0  0  0
  4  9  1  0  0  0  0
  5  6  1  0  0  0  0
  6  7  1  0  0  0  0
  7  8  1  0  0  0  0
  7 10  1  0  0  0  0
  8  9  1  0  0  0  0
 10 11  1  0  0  0  0
 11 12  1  0  0  0  0
 12 13  1  0  0  0  0
 13 14  1  0  0  0  0
 14 15  1  0  0  0  0
 15 16  2  0  0  0  0
 15 17  1  0  0  0  0
 17 18  4  0  0  0  0
 17 28  4  0  0  0  0
 18 19  4  0  0  0  0
 19 20  4  0  0  0  0
 20 21  1  0  0  0  0
 20 28  4  0  0  0  0
 21 22  1  0  0  0  0
 22 23  4  0  0  0  0
 22 27  4  0  0  0  0
 23 24  4  0  0  0  0
 24 25  4  0  0  0  0
 25 26  4  0  0  0  0
 26 27  4  0  0  0  0
 28 29  1  0  0  0  0
 29 30  1  0  0  0  0
 30 31  1  0  0  0  0
 32 33  4  0  0  0  0
 33 34  4  0  0  0  0
 34 35  4  0  0  0  0
 35 36  1  0  0  0  0
M  END
>  <Name_Molregno>
367064

>  <DOPAMINE D2>
7.85

>  <DOPAMINE D3>
8.62

>  <DOPAMINE D4>
6.66

$$$$
367065
  Marvin  02231216192D 0   1.00000     0.00000     0

 36 39  0  0  0  0  0  0  0  0999 V2000
    0.4844   -2.3845    0.0000 O   0  0  0  0  0  0  0  0  0
    0.4844   -3.2095    0.0000 C   0  0  0  0  0  0  0  0  0
   -0.2300   -1.9720    0.0000 C   0  0  0  0  0  0  0  0  0
   -0.9445   -2.3845    0.0000 C   0  0  0  0  0  0  0  0  0
   -1.6590   -1.9720    0.0000 C   0  0  0  0  0  0  0  0  0
   -1.6590   -1.1470    0.0000 C   0  0  0  0  0  0  0  0  0
   -0.9445   -0.7345    0.0000 C   0  0  0  0  0  0  0  0  0
   -0.2300   -1.1470    0.0000 C   0  0  0  0  0  0  0  0  0
    0.4844   -0.7345    0.0000 N   0  0  0  0  0  0  0  0  0
    0.4844    0.0905    0.0000 C   0  0  0  0  0  0  0  0  0
    1.1989    0.5030    0.0000 C   0  0  0  0  0  0  0  0  0
    1.9134    0.0905    0.0000 N   0  0  0  0  0  0  0  0  0
    1.9134   -0.7345    0.0000 C   0  0  0  0  0  0  0  0  0
    1.1989   -1.1470    0.0000 C   0  0  0  0  0  0  0  0  0
    2.6279    0.5030    0.0000 C   0  0  0  0  0  0  0  0  0
    3.3423    0.0905    0.0000 C   0  0  0  0  0  0  0  0  0
    4.0568    0.5030    0.0000 C   0  0  0  0  0  0  0  0  0
    4.7713    0.0905    0.0000 C   0  0  0  0  0  0  0  0  0
    5.4857    0.5030    0.0000 N   0  0  0  0  0  0  0  0  0
    6.2002    0.0905    0.0000 C   0  0  0  0  0  0  0  0  0
    6.2002   -0.7345    0.0000 O   0  0  0  0  0  0  0  0  0
    6.9147    0.5030    0.0000 C   0  0  0  0  0  0  0  0  0
    7.0009    1.3235    0.0000 N   0  0  0  0  0  0  0  0  0
    7.8079    1.4950    0.0000 N   0  0  0  0  0  0  0  0  0
    8.2204    0.7806    0.0000 N   0  0  0  0  0  0  0  0  0
    9.0409    0.6943    0.0000 C   0  0  0  0  0  0  0  0  0
    9.5258    1.3618    0.0000 C   0  0  0  0  0  0  0  0  0
    9.1902    2.1155    0.0000 C   0  0  0  0  0  0  0  0  0
    9.6752    2.7829    0.0000 C   0  0  0  0  0  0  0  0  0
   10.4956    2.6967    0.0000 C   0  0  0  0  0  0  0  0  0
   10.8312    1.9430    0.0000 C   0  0  0  0  0  0  0  0  0
   10.3463    1.2755    0.0000 C   0  0  0  0  0  0  0  0  0
    7.6684    0.1675    0.0000 C   0  0  0  0  0  0  0  0  0
    7.8399   -0.6395    0.0000 C   0  0  0  0  0  0  0  0  0
    8.6245   -0.8944    0.0000 C   0  0  0  0  0  0  0  0  0
    8.7960   -1.7014    0.0000 C   0  0  0  0  0  0  0  0  0
  1  2  1  0  0  0  0
  1  3  1  0  0  0  0
  3  4  4  0  0  0  0
  3  8  4  0  0  0  0
  4  5  4  0  0  0  0
  5  6  4  0  0  0  0
  6  7  4  0  0  0  0
  7  8  4  0  0  0  0
  8  9  1  0  0  0  0
  9 10  1  0  0  0  0
  9 14  1  0  0  0  0
 10 11  1  0  0  0  0
 11 12  1  0  0  0  0
 12 13  1  0  0  0  0
 12 15  1  0  0  0  0
 13 14  1  0  0  0  0
 15 16  1  0  0  0  0
 16 17  1  0  0  0  0
 17 18  1  0  0  0  0
 18 19  1  0  0  0  0
 19 20  1  0  0  0  0
 20 21  2  0  0  0  0
 20 22  1  0  0  0  0
 22 23  4  0  0  0  0
 22 33  4  0  0  0  0
 23 24  4  0  0  0  0
 24 25  4  0  0  0  0
 25 26  1  0  0  0  0
 25 33  4  0  0  0  0
 26 27  1  0  0  0  0
 27 28  4  0  0  0  0
 27 32  4  0  0  0  0
 28 29  4  0  0  0  0
 29 30  4  0  0  0  0
 30 31  4  0  0  0  0
 31 32  4  0  0  0  0
 33 34  1  0  0  0  0
 34 35  1  0  0  0  0
 35 36  1  0  0  0  0
M  END
>  <Name_Molregno>
367065

>  <DOPAMINE D2>
7.24

>  <DOPAMINE D3>
7.96

>  <DOPAMINE D4>
6.52

$$$$
367071
  Marvin  02231216192D 0   1.00000     0.00000     0

 36 39  0  0  0  0  0  0  0  0999 V2000
   -9.7154   -1.5143    0.0000 O   0  0  0  0  0  0  0  0  0
   -9.7154   -2.3393    0.0000 C   0  0  0  0  0  0  0  0  0
  -10.4299   -1.1018    0.0000 C   0  0  0  0  0  0  0  0  0
  -11.1444   -1.5143    0.0000 C   0  0  0  0  0  0  0  0  0
  -11.8588   -1.1018    0.0000 C   0  0  0  0  0  0  0  0  0
  -11.8588   -0.2768    0.0000 C   0  0  0  0  0  0  0  0  0
  -11.1444    0.1357    0.0000 C   0  0  0  0  0  0  0  0  0
  -10.4299   -0.2768    0.0000 C   0  0  0  0  0  0  0  0  0
   -9.7154    0.1357    0.0000 N   0  0  0  0  0  0  0  0  0
   -9.7154    0.9607    0.0000 C   0  0  0  0  0  0  0  0  0
   -9.0009    1.3732    0.0000 C   0  0  0  0  0  0  0  0  0
   -8.2865    0.9607    0.0000 N   0  0  0  0  0  0  0  0  0
   -8.2865    0.1357    0.0000 C   0  0  0  0  0  0  0  0  0
   -9.0009   -0.2768    0.0000 C   0  0  0  0  0  0  0  0  0
   -7.5720    1.3732    0.0000 C   0  0  0  0  0  0  0  0  0
   -6.8575    0.9607    0.0000 C   0  0  0  0  0  0  0  0  0
   -6.1431    1.3732    0.0000 C   0  0  0  0  0  0  0  0  0
   -5.4286    0.9607    0.0000 C   0  0  0  0  0  0  0  0  0
   -4.7141    1.3732    0.0000 N   0  0  0  0  0  0  0  0  0
   -3.9996    0.9607    0.0000 C   0  0  0  0  0  0  0  0  0
   -3.9996    0.1357    0.0000 O   0  0  0  0  0  0  0  0  0
   -3.2852    1.3732    0.0000 C   0  0  0  0  0  0  0  0  0
   -3.1989    2.1937    0.0000 N   0  0  0  0  0  0  0  0  0
   -2.3920    2.3652    0.0000 N   0  0  0  0  0  0  0  0  0
   -1.9795    1.6508    0.0000 N   0  0  0  0  0  0  0  0  0
   -1.1590    1.5645    0.0000 C   0  0  0  0  0  0  0  0  0
   -0.8234    0.8109    0.0000 C   0  0  0  0  0  0  0  0  0
   -0.0030    0.7246    0.0000 C   0  0  0  0  0  0  0  0  0
    0.3326   -0.0291    0.0000 C   0  0  0  0  0  0  0  0  0
   -0.1523   -0.6965    0.0000 C   0  0  0  0  0  0  0  0  0
    0.1832   -1.4502    0.0000 O   0  0  0  0  0  0  0  0  0
    1.0037   -1.5364    0.0000 C   0  0  0  0  0  0  0  0  0
   -0.9728   -0.6103    0.0000 C   0  0  0  0  0  0  0  0  0
   -1.3084    0.1434    0.0000 C   0  0  0  0  0  0  0  0  0
   -2.5315    1.0377    0.0000 C   0  0  0  0  0  0  0  0  0
   -2.3600    0.2307    0.0000 C   0  0  0  0  0  0  0  0  0
  1  2  1  0  0  0  0
  1  3  1  0  0  0  0
  3  4  4  0  0  0  0
  3  8  4  0  0  0  0
  4  5  4  0  0  0  0
  5  6  4  0  0  0  0
  6  7  4  0  0  0  0
  7  8  4  0  0  0  0
  8  9  1  0  0  0  0
  9 10  1  0  0  0  0
  9 14  1  0  0  0  0
 10 11  1  0  0  0  0
 11 12  1  0  0  0  0
 12 13  1  0  0  0  0
 12 15  1  0  0  0  0
 13 14  1  0  0  0  0
 15 16  1  0  0  0  0
 16 17  1  0  0  0  0
 17 18  1  0  0  0  0
 18 19  1  0  0  0  0
 19 20  1  0  0  0  0
 20 21  2  0  0  0  0
 20 22  1  0  0  0  0
 22 23  4  0  0  0  0
 22 35  4  0  0  0  0
 23 24  4  0  0  0  0
 24 25  4  0  0  0  0
 25 26  1  0  0  0  0
 25 35  4  0  0  0  0
 26 27  1  0  0  0  0
 27 28  4  0  0  0  0
 27 34  4  0  0  0  0
 28 29  4  0  0  0  0
 29 30  4  0  0  0  0
 30 31  1  0  0  0  0
 30 33  4  0  0  0  0
 31 32  1  0  0  0  0
 33 34  4  0  0  0  0
 35 36  1  0  0  0  0
M  END
>  <Name_Molregno>
367071

>  <DOPAMINE D2>
7.26

>  <DOPAMINE D3>
7.54

>  <DOPAMINE D4>
6.55

$$$$
367084
  Marvin  02231216192D 0   1.00000     0.00000     0

 37 40  0  0  0  0  0  0  0  0999 V2000
  -11.6441    0.0329    0.0000 Cl  0  0  0  0  0  0  0  0  0
  -11.6441   -0.7921    0.0000 C   0  0  0  0  0  0  0  0  0
  -10.9296   -1.2046    0.0000 C   0  0  0  0  0  0  0  0  0
  -10.2152   -0.7921    0.0000 N   0  0  0  0  0  0  0  0  0
  -10.2152    0.0329    0.0000 C   0  0  0  0  0  0  0  0  0
   -9.5007    0.4454    0.0000 C   0  0  0  0  0  0  0  0  0
   -8.7862    0.0329    0.0000 N   0  0  0  0  0  0  0  0  0
   -8.7862   -0.7921    0.0000 C   0  0  0  0  0  0  0  0  0
   -9.5007   -1.2046    0.0000 C   0  0  0  0  0  0  0  0  0
   -8.0718    0.4454    0.0000 C   0  0  0  0  0  0  0  0  0
   -7.3573    0.0329    0.0000 C   0  0  0  0  0  0  0  0  0
   -6.6428    0.4454    0.0000 C   0  0  0  0  0  0  0  0  0
   -5.9283    0.0329    0.0000 C   0  0  0  0  0  0  0  0  0
   -5.2139    0.4454    0.0000 C   0  0  0  0  0  0  0  0  0
   -4.4994    0.0329    0.0000 N   0  0  0  0  0  0  0  0  0
   -3.7849    0.4454    0.0000 C   0  0  0  0  0  0  0  0  0
   -3.7849    1.2704    0.0000 O   0  0  0  0  0  0  0  0  0
   -3.0705    0.0329    0.0000 C   0  0  0  0  0  0  0  0  0
   -2.3168    0.3684    0.0000 N   0  0  0  0  0  0  0  0  0
   -1.7647   -0.2447    0.0000 N   0  0  0  0  0  0  0  0  0
   -2.1772   -0.9591    0.0000 N   0  0  0  0  0  0  0  0  0
   -1.8417   -1.7128    0.0000 C   0  0  0  0  0  0  0  0  0
   -1.0212   -1.7990    0.0000 C   0  0  0  0  0  0  0  0  0
   -0.5363   -1.1316    0.0000 C   0  0  0  0  0  0  0  0  0
    0.2842   -1.2178    0.0000 C   0  0  0  0  0  0  0  0  0
    0.6198   -1.9715    0.0000 C   0  0  0  0  0  0  0  0  0
    1.4402   -2.0577    0.0000 O   0  0  0  0  0  0  0  0  0
    1.7758   -2.8114    0.0000 C   0  0  0  0  0  0  0  0  0
    0.1348   -2.6390    0.0000 C   0  0  0  0  0  0  0  0  0
   -0.6856   -2.5527    0.0000 C   0  0  0  0  0  0  0  0  0
   -2.9842   -0.7876    0.0000 C   0  0  0  0  0  0  0  0  0
   -3.5973   -1.3396    0.0000 C   0  0  0  0  0  0  0  0  0
  -10.9296   -2.0296    0.0000 C   0  0  0  0  0  0  0  0  0
  -11.6441   -2.4421    0.0000 C   0  0  0  0  0  0  0  0  0
  -12.3586   -2.0296    0.0000 C   0  0  0  0  0  0  0  0  0
  -12.3586   -1.2046    0.0000 C   0  0  0  0  0  0  0  0  0
  -13.0730   -0.7921    0.0000 Cl  0  0  0  0  0  0  0  0  0
  1  2  1  0  0  0  0
  2  3  4  0  0  0  0
  2 36  4  0  0  0  0
  3  4  1  0  0  0  0
  3 33  4  0  0  0  0
  4  5  1  0  0  0  0
  4  9  1  0  0  0  0
  5  6  1  0  0  0  0
  6  7  1  0  0  0  0
  7  8  1  0  0  0  0
  7 10  1  0  0  0  0
  8  9  1  0  0  0  0
 10 11  1  0  0  0  0
 11 12  1  0  0  0  0
 12 13  1  0  0  0  0
 13 14  1  0  0  0  0
 14 15  1  0  0  0  0
 15 16  1  0  0  0  0
 16 17  2  0  0  0  0
 16 18  1  0  0  0  0
 18 19  4  0  0  0  0
 18 31  4  0  0  0  0
 19 20  4  0  0  0  0
 20 21  4  0  0  0  0
 21 22  1  0  0  0  0
 21 31  4  0  0  0  0
 22 23  1  0  0  0  0
 23 24  4  0  0  0  0
 23 30  4  0  0  0  0
 24 25  4  0  0  0  0
 25 26  4  0  0  0  0
 26 27  1  0  0  0  0
 26 29  4  0  0  0  0
 27 28  1  0  0  0  0
 29 30  4  0  0  0  0
 31 32  1  0  0  0  0
 33 34  4  0  0  0  0
 34 35  4  0  0  0  0
 35 36  4  0  0  0  0
 36 37  1  0  0  0  0
M  END
>  <Name_Molregno>
367084

>  <DOPAMINE D2>
8.04

>  <DOPAMINE D3>
7.47

>  <DOPAMINE D4>
6.54

$$$$
367089
  Marvin  02231216192D 0   1.00000     0.00000     0

 37 40  0  0  0  0  0  0  0  0999 V2000
  -11.7760    0.7523    0.0000 O   0  0  0  0  0  0  0  0  0
  -12.4904    0.3398    0.0000 C   0  0  0  0  0  0  0  0  0
  -11.7760    1.5773    0.0000 C   0  0  0  0  0  0  0  0  0
  -12.4904    1.9898    0.0000 C   0  0  0  0  0  0  0  0  0
  -12.4904    2.8148    0.0000 C   0  0  0  0  0  0  0  0  0
  -11.7760    3.2273    0.0000 C   0  0  0  0  0  0  0  0  0
  -11.0615    2.8148    0.0000 C   0  0  0  0  0  0  0  0  0
  -11.0615    1.9898    0.0000 C   0  0  0  0  0  0  0  0  0
  -10.3470    1.5773    0.0000 N   0  0  0  0  0  0  0  0  0
   -9.6326    1.9898    0.0000 C   0  0  0  0  0  0  0  0  0
   -8.9181    1.5773    0.0000 C   0  0  0  0  0  0  0  0  0
   -8.9181    0.7523    0.0000 N   0  0  0  0  0  0  0  0  0
   -9.6326    0.3398    0.0000 C   0  0  0  0  0  0  0  0  0
  -10.3470    0.7523    0.0000 C   0  0  0  0  0  0  0  0  0
   -8.2036    0.3398    0.0000 C   0  0  0  0  0  0  0  0  0
   -7.4891    0.7523    0.0000 C   0  0  0  0  0  0  0  0  0
   -6.7747    0.3398    0.0000 C   0  0  0  0  0  0  0  0  0
   -6.0602    0.7523    0.0000 C   0  0  0  0  0  0  0  0  0
   -5.3457    0.3398    0.0000 C   0  0  0  0  0  0  0  0  0
   -4.6313    0.7523    0.0000 N   0  0  0  0  0  0  0  0  0
   -3.9168    0.3398    0.0000 C   0  0  0  0  0  0  0  0  0
   -3.9168   -0.4852    0.0000 O   0  0  0  0  0  0  0  0  0
   -3.2023    0.7523    0.0000 C   0  0  0  0  0  0  0  0  0
   -3.1161    1.5728    0.0000 N   0  0  0  0  0  0  0  0  0
   -2.3091    1.7444    0.0000 N   0  0  0  0  0  0  0  0  0
   -1.8966    1.0299    0.0000 N   0  0  0  0  0  0  0  0  0
   -1.0761    0.9436    0.0000 C   0  0  0  0  0  0  0  0  0
   -0.7406    0.1900    0.0000 C   0  0  0  0  0  0  0  0  0
    0.0799    0.1037    0.0000 C   0  0  0  0  0  0  0  0  0
    0.4155   -0.6499    0.0000 C   0  0  0  0  0  0  0  0  0
   -0.0695   -1.3174    0.0000 C   0  0  0  0  0  0  0  0  0
    0.2661   -2.0711    0.0000 O   0  0  0  0  0  0  0  0  0
    1.0866   -2.1573    0.0000 C   0  0  0  0  0  0  0  0  0
   -0.8899   -1.2311    0.0000 C   0  0  0  0  0  0  0  0  0
   -1.2255   -0.4775    0.0000 C   0  0  0  0  0  0  0  0  0
   -2.4486    0.4168    0.0000 C   0  0  0  0  0  0  0  0  0
   -2.2771   -0.3902    0.0000 C   0  0  0  0  0  0  0  0  0
  1  2  1  0  0  0  0
  1  3  1  0  0  0  0
  3  4  4  0  0  0  0
  3  8  4  0  0  0  0
  4  5  4  0  0  0  0
  5  6  4  0  0  0  0
  6  7  4  0  0  0  0
  7  8  4  0  0  0  0
  8  9  1  0  0  0  0
  9 10  1  0  0  0  0
  9 14  1  0  0  0  0
 10 11  1  0  0  0  0
 11 12  1  0  0  0  0
 12 13  1  0  0  0  0
 12 15  1  0  0  0  0
 13 14  1  0  0  0  0
 15 16  1  0  0  0  0
 16 17  1  0  0  0  0
 17 18  1  0  0  0  0
 18 19  1  0  0  0  0
 19 20  1  0  0  0  0
 20 21  1  0  0  0  0
 21 22  2  0  0  0  0
 21 23  1  0  0  0  0
 23 24  4  0  0  0  0
 23 36  4  0  0  0  0
 24 25  4  0  0  0  0
 25 26  4  0  0  0  0
 26 27  1  0  0  0  0
 26 36  4  0  0  0  0
 27 28  1  0  0  0  0
 28 29  4  0  0  0  0
 28 35  4  0  0  0  0
 29 30  4  0  0  0  0
 30 31  4  0  0  0  0
 31 32  1  0  0  0  0
 31 34  4  0  0  0  0
 32 33  1  0  0  0  0
 34 35  4  0  0  0  0
 36 37  1  0  0  0  0
M  END
>  <Name_Molregno>
367089

>  <DOPAMINE D2>
7.77

>  <DOPAMINE D3>
7.06

>  <DOPAMINE D4>
6.57

$$$$
367093
  Marvin  02231216192D 0   1.00000     0.00000     0

 38 41  0  0  0  0  0  0  0  0999 V2000
    0.6679   -1.7989    0.0000 O   0  0  0  0  0  0  0  0  0
    0.6679   -2.6239    0.0000 C   0  0  0  0  0  0  0  0  0
   -0.0466   -1.3864    0.0000 C   0  0  0  0  0  0  0  0  0
   -0.7611   -1.7989    0.0000 C   0  0  0  0  0  0  0  0  0
   -1.4755   -1.3864    0.0000 C   0  0  0  0  0  0  0  0  0
   -1.4755   -0.5614    0.0000 C   0  0  0  0  0  0  0  0  0
   -0.7611   -0.1489    0.0000 C   0  0  0  0  0  0  0  0  0
   -0.0466   -0.5614    0.0000 C   0  0  0  0  0  0  0  0  0
    0.6679   -0.1489    0.0000 N   0  0  0  0  0  0  0  0  0
    0.6679    0.6761    0.0000 C   0  0  0  0  0  0  0  0  0
    1.3824    1.0886    0.0000 C   0  0  0  0  0  0  0  0  0
    2.0968    0.6761    0.0000 N   0  0  0  0  0  0  0  0  0
    2.0968   -0.1489    0.0000 C   0  0  0  0  0  0  0  0  0
    1.3824   -0.5614    0.0000 C   0  0  0  0  0  0  0  0  0
    2.8113    1.0886    0.0000 C   0  0  0  0  0  0  0  0  0
    3.5258    0.6761    0.0000 C   0  0  0  0  0  0  0  0  0
    4.2402    1.0886    0.0000 C   0  0  0  0  0  0  0  0  0
    4.9547    0.6761    0.0000 C   0  0  0  0  0  0  0  0  0
    5.6692    1.0886    0.0000 N   0  0  0  0  0  0  0  0  0
    6.3837    0.6761    0.0000 C   0  0  0  0  0  0  0  0  0
    6.3837   -0.1489    0.0000 O   0  0  0  0  0  0  0  0  0
    7.0981    1.0886    0.0000 C   0  0  0  0  0  0  0  0  0
    7.1844    1.9091    0.0000 N   0  0  0  0  0  0  0  0  0
    7.9913    2.0806    0.0000 N   0  0  0  0  0  0  0  0  0
    8.4038    1.3662    0.0000 N   0  0  0  0  0  0  0  0  0
    9.2243    1.2799    0.0000 C   0  0  0  0  0  0  0  0  0
    9.5599    0.5263    0.0000 C   0  0  0  0  0  0  0  0  0
   10.3804    0.4400    0.0000 C   0  0  0  0  0  0  0  0  0
   10.7159   -0.3137    0.0000 C   0  0  0  0  0  0  0  0  0
   10.2310   -0.9811    0.0000 C   0  0  0  0  0  0  0  0  0
   10.5665   -1.7348    0.0000 O   0  0  0  0  0  0  0  0  0
   11.3870   -1.8210    0.0000 C   0  0  0  0  0  0  0  0  0
    9.4105   -0.8949    0.0000 C   0  0  0  0  0  0  0  0  0
    9.0749   -0.1412    0.0000 C   0  0  0  0  0  0  0  0  0
    7.8518    0.7531    0.0000 C   0  0  0  0  0  0  0  0  0
    8.0233   -0.0539    0.0000 C   0  0  0  0  0  0  0  0  0
    7.4102   -0.6059    0.0000 C   0  0  0  0  0  0  0  0  0
    7.5818   -1.4129    0.0000 C   0  0  0  0  0  0  0  0  0
  1  2  1  0  0  0  0
  1  3  1  0  0  0  0
  3  4  4  0  0  0  0
  3  8  4  0  0  0  0
  4  5  4  0  0  0  0
  5  6  4  0  0  0  0
  6  7  4  0  0  0  0
  7  8  4  0  0  0  0
  8  9  1  0  0  0  0
  9 10  1  0  0  0  0
  9 14  1  0  0  0  0
 10 11  1  0  0  0  0
 11 12  1  0  0  0  0
 12 13  1  0  0  0  0
 12 15  1  0  0  0  0
 13 14  1  0  0  0  0
 15 16  1  0  0  0  0
 16 17  1  0  0  0  0
 17 18  1  0  0  0  0
 18 19  1  0  0  0  0
 19 20  1  0  0  0  0
 20 21  2  0  0  0  0
 20 22  1  0  0  0  0
 22 23  4  0  0  0  0
 22 35  4  0  0  0  0
 23 24  4  0  0  0  0
 24 25  4  0  0  0  0
 25 26  1  0  0  0  0
 25 35  4  0  0  0  0
 26 27  1  0  0  0  0
 27 28  4  0  0  0  0
 27 34  4  0  0  0  0
 28 29  4  0  0  0  0
 29 30  4  0  0  0  0
 30 31  1  0  0  0  0
 30 33  4  0  0  0  0
 31 32  1  0  0  0  0
 33 34  4  0  0  0  0
 35 36  1  0  0  0  0
 36 37  1  0  0  0  0
 37 38  1  0  0  0  0
M  END
>  <Name_Molregno>
367093

>  <DOPAMINE D2>
7.37

>  <DOPAMINE D3>
7.89

>  <DOPAMINE D4>
6.89

$$$$
367094
  Marvin  02231216192D 0   1.00000     0.00000     0

 35 38  0  0  0  0  0  0  0  0999 V2000
   -0.7358   -0.2416    0.0000 Br  0  0  0  0  0  0  0  0  0
   -0.4003    0.5121    0.0000 C   0  0  0  0  0  0  0  0  0
   -0.8852    1.1795    0.0000 C   0  0  0  0  0  0  0  0  0
   -0.5496    1.9332    0.0000 C   0  0  0  0  0  0  0  0  0
    0.2708    2.0194    0.0000 C   0  0  0  0  0  0  0  0  0
    0.7558    1.3520    0.0000 C   0  0  0  0  0  0  0  0  0
    0.4202    0.5983    0.0000 C   0  0  0  0  0  0  0  0  0
    0.9051   -0.0691    0.0000 C   0  0  0  0  0  0  0  0  0
    1.7256    0.0171    0.0000 N   0  0  0  0  0  0  0  0  0
    2.1381    0.7316    0.0000 N   0  0  0  0  0  0  0  0  0
    2.9451    0.5601    0.0000 N   0  0  0  0  0  0  0  0  0
    3.0313   -0.2604    0.0000 C   0  0  0  0  0  0  0  0  0
    3.7458   -0.6729    0.0000 C   0  0  0  0  0  0  0  0  0
    3.7458   -1.4979    0.0000 O   0  0  0  0  0  0  0  0  0
    4.4603   -0.2604    0.0000 N   0  0  0  0  0  0  0  0  0
    5.1747   -0.6729    0.0000 C   0  0  0  0  0  0  0  0  0
    5.8892   -0.2604    0.0000 C   0  0  0  0  0  0  0  0  0
    6.6037   -0.6729    0.0000 C   0  0  0  0  0  0  0  0  0
    7.3181   -0.2604    0.0000 C   0  0  0  0  0  0  0  0  0
    8.0326   -0.6729    0.0000 N   0  0  0  0  0  0  0  0  0
    8.7471   -0.2604    0.0000 C   0  0  0  0  0  0  0  0  0
    9.4616   -0.6729    0.0000 C   0  0  0  0  0  0  0  0  0
    9.4616   -1.4979    0.0000 N   0  0  0  0  0  0  0  0  0
    8.7471   -1.9104    0.0000 C   0  0  0  0  0  0  0  0  0
    8.0326   -1.4979    0.0000 C   0  0  0  0  0  0  0  0  0
   10.1760   -1.9104    0.0000 C   0  0  0  0  0  0  0  0  0
   10.8905   -1.4979    0.0000 C   0  0  0  0  0  0  0  0  0
   11.6050   -1.9104    0.0000 C   0  0  0  0  0  0  0  0  0
   11.6050   -2.7354    0.0000 C   0  0  0  0  0  0  0  0  0
   10.8905   -3.1479    0.0000 C   0  0  0  0  0  0  0  0  0
   10.1760   -2.7354    0.0000 C   0  0  0  0  0  0  0  0  0
    9.4616   -3.1479    0.0000 O   0  0  0  0  0  0  0  0  0
    9.4616   -3.9729    0.0000 C   0  0  0  0  0  0  0  0  0
    2.2776   -0.5960    0.0000 C   0  0  0  0  0  0  0  0  0
    2.1061   -1.4029    0.0000 C   0  0  0  0  0  0  0  0  0
  1  2  1  0  0  0  0
  2  3  4  0  0  0  0
  2  7  4  0  0  0  0
  3  4  4  0  0  0  0
  4  5  4  0  0  0  0
  5  6  4  0  0  0  0
  6  7  4  0  0  0  0
  7  8  1  0  0  0  0
  8  9  1  0  0  0  0
  9 10  4  0  0  0  0
  9 34  4  0  0  0  0
 10 11  4  0  0  0  0
 11 12  4  0  0  0  0
 12 13  1  0  0  0  0
 12 34  4  0  0  0  0
 13 14  2  0  0  0  0
 13 15  1  0  0  0  0
 15 16  1  0  0  0  0
 16 17  1  0  0  0  0
 17 18  1  0  0  0  0
 18 19  1  0  0  0  0
 19 20  1  0  0  0  0
 20 21  1  0  0  0  0
 20 25  1  0  0  0  0
 21 22  1  0  0  0  0
 22 23  1  0  0  0  0
 23 24  1  0  0  0  0
 23 26  1  0  0  0  0
 24 25  1  0  0  0  0
 26 27  4  0  0  0  0
 26 31  4  0  0  0  0
 27 28  4  0  0  0  0
 28 29  4  0  0  0  0
 29 30  4  0  0  0  0
 30 31  4  0  0  0  0
 31 32  1  0  0  0  0
 32 33  1  0  0  0  0
 34 35  1  0  0  0  0
M  END
>  <Name_Molregno>
367094

>  <DOPAMINE D2>
7.21

>  <DOPAMINE D3>
7.49

>  <DOPAMINE D4>
7.04

$$$$
367112
  Marvin  02231216192D 0   1.00000     0.00000     0

 34 37  0  0  0  0  0  0  0  0999 V2000
    1.3161    3.5718    0.0000 F   0  0  0  0  0  0  0  0  0
    1.3161    2.7468    0.0000 C   0  0  0  0  0  0  0  0  0
    2.0306    2.3343    0.0000 N   0  0  0  0  0  0  0  0  0
    2.0306    1.5093    0.0000 C   0  0  0  0  0  0  0  0  0
    1.3161    1.0968    0.0000 C   0  0  0  0  0  0  0  0  0
    0.6017    1.5093    0.0000 C   0  0  0  0  0  0  0  0  0
    0.6017    2.3343    0.0000 C   0  0  0  0  0  0  0  0  0
    2.7451    1.0968    0.0000 C   0  0  0  0  0  0  0  0  0
    3.4596    1.5093    0.0000 C   0  0  0  0  0  0  0  0  0
    4.1740    1.0968    0.0000 C   0  0  0  0  0  0  0  0  0
    4.1740    0.2718    0.0000 C   0  0  0  0  0  0  0  0  0
    3.4596   -0.1407    0.0000 C   0  0  0  0  0  0  0  0  0
    2.7451    0.2718    0.0000 C   0  0  0  0  0  0  0  0  0
    4.8885   -0.1407    0.0000 C   0  0  0  0  0  0  0  0  0
    4.8885   -0.9657    0.0000 O   0  0  0  0  0  0  0  0  0
    5.6030    0.2718    0.0000 N   0  0  0  0  0  0  0  0  0
    6.3174   -0.1407    0.0000 C   0  0  0  0  0  0  0  0  0
    7.0319    0.2718    0.0000 C   0  0  0  0  0  0  0  0  0
    7.7464   -0.1407    0.0000 C   0  0  0  0  0  0  0  0  0
    8.4609    0.2718    0.0000 C   0  0  0  0  0  0  0  0  0
    9.1753   -0.1407    0.0000 N   0  0  0  0  0  0  0  0  0
    9.8898    0.2718    0.0000 C   0  0  0  0  0  0  0  0  0
   10.6043   -0.1407    0.0000 C   0  0  0  0  0  0  0  0  0
   10.6043   -0.9657    0.0000 N   0  0  0  0  0  0  0  0  0
    9.8898   -1.3782    0.0000 C   0  0  0  0  0  0  0  0  0
    9.1753   -0.9657    0.0000 C   0  0  0  0  0  0  0  0  0
   11.3187   -1.3782    0.0000 C   0  0  0  0  0  0  0  0  0
   12.0332   -0.9657    0.0000 C   0  0  0  0  0  0  0  0  0
   12.7477   -1.3782    0.0000 C   0  0  0  0  0  0  0  0  0
   12.7477   -2.2032    0.0000 C   0  0  0  0  0  0  0  0  0
   12.0332   -2.6157    0.0000 C   0  0  0  0  0  0  0  0  0
   11.3187   -2.2032    0.0000 C   0  0  0  0  0  0  0  0  0
   10.6043   -2.6157    0.0000 O   0  0  0  0  0  0  0  0  0
   10.6043   -3.4407    0.0000 C   0  0  0  0  0  0  0  0  0
  1  2  1  0  0  0  0
  2  3  4  0  0  0  0
  2  7  4  0  0  0  0
  3  4  4  0  0  0  0
  4  5  4  0  0  0  0
  4  8  1  0  0  0  0
  5  6  4  0  0  0  0
  6  7  4  0  0  0  0
  8  9  4  0  0  0  0
  8 13  4  0  0  0  0
  9 10  4  0  0  0  0
 10 11  4  0  0  0  0
 11 12  4  0  0  0  0
 11 14  1  0  0  0  0
 12 13  4  0  0  0  0
 14 15  2  0  0  0  0
 14 16  1  0  0  0  0
 16 17  1  0  0  0  0
 17 18  1  0  0  0  0
 18 19  1  0  0  0  0
 19 20  1  0  0  0  0
 20 21  1  0  0  0  0
 21 22  1  0  0  0  0
 21 26  1  0  0  0  0
 22 23  1  0  0  0  0
 23 24  1  0  0  0  0
 24 25  1  0  0  0  0
 24 27  1  0  0  0  0
 25 26  1  0  0  0  0
 27 28  4  0  0  0  0
 27 32  4  0  0  0  0
 28 29  4  0  0  0  0
 29 30  4  0  0  0  0
 30 31  4  0  0  0  0
 31 32  4  0  0  0  0
 32 33  1  0  0  0  0
 33 34  1  0  0  0  0
M  END
>  <Name_Molregno>
367112

>  <5-HT1A>
7.8

>  <DOPAMINE D2>
7.69

>  <DOPAMINE D3>
9.43

>  <DOPAMINE D4>
7.55

$$$$
367119
  Marvin  02231216192D 0   1.00000     0.00000     0

 34 37  0  0  0  0  0  0  0  0999 V2000
    0.3186    3.6840    0.0000 F   0  0  0  0  0  0  0  0  0
    1.0331    3.2715    0.0000 C   0  0  0  0  0  0  0  0  0
    1.7475    3.6840    0.0000 N   0  0  0  0  0  0  0  0  0
    2.4620    3.2715    0.0000 C   0  0  0  0  0  0  0  0  0
    2.4620    2.4465    0.0000 C   0  0  0  0  0  0  0  0  0
    1.7475    2.0340    0.0000 C   0  0  0  0  0  0  0  0  0
    1.0331    2.4465    0.0000 C   0  0  0  0  0  0  0  0  0
    3.1765    2.0340    0.0000 C   0  0  0  0  0  0  0  0  0
    3.8909    2.4465    0.0000 C   0  0  0  0  0  0  0  0  0
    4.6054    2.0340    0.0000 C   0  0  0  0  0  0  0  0  0
    4.6054    1.2090    0.0000 C   0  0  0  0  0  0  0  0  0
    3.8909    0.7965    0.0000 C   0  0  0  0  0  0  0  0  0
    3.1765    1.2090    0.0000 C   0  0  0  0  0  0  0  0  0
    5.3199    0.7965    0.0000 C   0  0  0  0  0  0  0  0  0
    5.3199   -0.0285    0.0000 O   0  0  0  0  0  0  0  0  0
    6.0343    1.2090    0.0000 N   0  0  0  0  0  0  0  0  0
    6.7488    0.7965    0.0000 C   0  0  0  0  0  0  0  0  0
    7.4633    1.2090    0.0000 C   0  0  0  0  0  0  0  0  0
    8.1778    0.7965    0.0000 C   0  0  0  0  0  0  0  0  0
    8.8922    1.2090    0.0000 C   0  0  0  0  0  0  0  0  0
    9.6067    0.7965    0.0000 N   0  0  0  0  0  0  0  0  0
   10.3212    1.2090    0.0000 C   0  0  0  0  0  0  0  0  0
   11.0356    0.7965    0.0000 C   0  0  0  0  0  0  0  0  0
   11.0356   -0.0285    0.0000 N   0  0  0  0  0  0  0  0  0
   10.3212   -0.4410    0.0000 C   0  0  0  0  0  0  0  0  0
    9.6067   -0.0285    0.0000 C   0  0  0  0  0  0  0  0  0
   11.7501   -0.4410    0.0000 C   0  0  0  0  0  0  0  0  0
   12.4646   -0.0285    0.0000 C   0  0  0  0  0  0  0  0  0
   13.1791   -0.4410    0.0000 C   0  0  0  0  0  0  0  0  0
   13.1791   -1.2660    0.0000 C   0  0  0  0  0  0  0  0  0
   12.4646   -1.6785    0.0000 C   0  0  0  0  0  0  0  0  0
   11.7501   -1.2660    0.0000 C   0  0  0  0  0  0  0  0  0
   11.0356   -1.6785    0.0000 O   0  0  0  0  0  0  0  0  0
   11.0356   -2.5035    0.0000 C   0  0  0  0  0  0  0  0  0
  1  2  1  0  0  0  0
  2  3  4  0  0  0  0
  2  7  4  0  0  0  0
  3  4  4  0  0  0  0
  4  5  4  0  0  0  0
  5  6  4  0  0  0  0
  5  8  1  0  0  0  0
  6  7  4  0  0  0  0
  8  9  4  0  0  0  0
  8 13  4  0  0  0  0
  9 10  4  0  0  0  0
 10 11  4  0  0  0  0
 11 12  4  0  0  0  0
 11 14  1  0  0  0  0
 12 13  4  0  0  0  0
 14 15  2  0  0  0  0
 14 16  1  0  0  0  0
 16 17  1  0  0  0  0
 17 18  1  0  0  0  0
 18 19  1  0  0  0  0
 19 20  1  0  0  0  0
 20 21  1  0  0  0  0
 21 22  1  0  0  0  0
 21 26  1  0  0  0  0
 22 23  1  0  0  0  0
 23 24  1  0  0  0  0
 24 25  1  0  0  0  0
 24 27  1  0  0  0  0
 25 26  1  0  0  0  0
 27 28  4  0  0  0  0
 27 32  4  0  0  0  0
 28 29  4  0  0  0  0
 29 30  4  0  0  0  0
 30 31  4  0  0  0  0
 31 32  4  0  0  0  0
 32 33  1  0  0  0  0
 33 34  1  0  0  0  0
M  END
>  <Name_Molregno>
367119

>  <5-HT1A>
7.68

>  <DOPAMINE D2>
7.87

>  <DOPAMINE D3>
9.35

>  <DOPAMINE D4>
7.47

$$$$
367153
  Marvin  02231216192D 0   1.00000     0.00000     0

 30 34  0  0  0  0  0  0  0  0999 V2000
    4.4761    6.6520    0.0000 F   0  0  0  0  0  0  0  0  0
    4.4761    5.8270    0.0000 C   0  0  0  0  0  0  0  0  0
    5.1906    5.4145    0.0000 C   0  0  0  0  0  0  0  0  0
    5.1906    4.5895    0.0000 C   0  0  0  0  0  0  0  0  0
    4.4761    4.1770    0.0000 C   0  0  0  0  0  0  0  0  0
    3.7617    4.5895    0.0000 C   0  0  0  0  0  0  0  0  0
    3.7617    5.4145    0.0000 C   0  0  0  0  0  0  0  0  0
    4.4761    3.3520    0.0000 C   0  0  0  0  0  0  0  0  0
    5.1906    2.9395    0.0000 C   0  0  0  0  0  0  0  0  0
    5.1906    2.1145    0.0000 C   0  0  0  0  0  0  0  0  0
    4.4761    1.7020    0.0000 C   0  0  0  0  0  0  0  0  0
    3.7617    2.1145    0.0000 N   0  0  0  0  0  0  0  0  0
    3.7617    2.9395    0.0000 C   0  0  0  0  0  0  0  0  0
    5.9051    1.7020    0.0000 C   0  0  0  0  0  0  0  0  0
    5.9051    0.8770    0.0000 N   0  0  0  0  0  0  0  0  0
    6.6196    0.4645    0.0000 C   0  0  0  0  0  0  0  0  0
    6.6196   -0.3605    0.0000 C   0  0  0  0  0  0  0  0  0
    5.9051   -0.7730    0.0000 N   0  0  0  0  0  0  0  0  0
    5.1906   -0.3605    0.0000 C   0  0  0  0  0  0  0  0  0
    5.1906    0.4645    0.0000 C   0  0  0  0  0  0  0  0  0
    5.9051   -1.5980    0.0000 C   0  0  0  0  0  0  0  0  0
    6.6196   -2.0105    0.0000 C   0  0  0  0  0  0  0  0  0
    7.3340   -1.5980    0.0000 O   0  0  0  0  0  0  0  0  0
    8.0485   -2.0105    0.0000 C   0  0  0  0  0  0  0  0  0
    8.0485   -2.8355    0.0000 C   0  0  0  0  0  0  0  0  0
    7.3340   -3.2480    0.0000 O   0  0  0  0  0  0  0  0  0
    6.6196   -2.8355    0.0000 C   0  0  0  0  0  0  0  0  0
    5.9051   -3.2480    0.0000 C   0  0  0  0  0  0  0  0  0
    5.1906   -2.8355    0.0000 C   0  0  0  0  0  0  0  0  0
    5.1906   -2.0105    0.0000 C   0  0  0  0  0  0  0  0  0
  1  2  1  0  0  0  0
  2  3  4  0  0  0  0
  2  7  4  0  0  0  0
  3  4  4  0  0  0  0
  4  5  4  0  0  0  0
  5  6  4  0  0  0  0
  5  8  1  0  0  0  0
  6  7  4  0  0  0  0
  8  9  4  0  0  0  0
  8 13  4  0  0  0  0
  9 10  4  0  0  0  0
 10 11  4  0  0  0  0
 10 14  1  0  0  0  0
 11 12  4  0  0  0  0
 12 13  4  0  0  0  0
 14 15  1  0  0  0  0
 15 16  1  0  0  0  0
 15 20  1  0  0  0  0
 16 17  1  0  0  0  0
 17 18  1  0  0  0  0
 18 19  1  0  0  0  0
 18 21  1  0  0  0  0
 19 20  1  0  0  0  0
 21 22  4  0  0  0  0
 21 30  4  0  0  0  0
 22 23  1  0  0  0  0
 22 27  4  0  0  0  0
 23 24  1  0  0  0  0
 24 25  1  0  0  0  0
 25 26  1  0  0  0  0
 26 27  1  0  0  0  0
 27 28  4  0  0  0  0
 28 29  4  0  0  0  0
 29 30  4  0  0  0  0
M  END
>  <Name_Molregno>
367153

>  <5-HT1A>
9.1

>  <5-HT2A>
6.6

>  <5-HT7>
7.2

>  <DOPAMINE D3>
8.4

$$$$
382415
  Marvin  02231216192D 0   1.00000     0.00000     0

 18 19  0  0  0  0  0  0  0  0999 V2000
   -0.7360    1.4792    0.0000 S   0  0  0  0  0  0  0  0  0
   -0.9909    0.6946    0.0000 C   0  0  0  0  0  0  0  0  0
   -1.8159    0.6946    0.0000 C   0  0  0  0  0  0  0  0  0
   -2.0709    1.4792    0.0000 N   0  0  0  0  0  0  0  0  0
   -1.4034    1.9642    0.0000 C   0  0  0  0  0  0  0  0  0
   -1.4034    2.7892    0.0000 C   0  0  0  0  0  0  0  0  0
   -0.6890    3.2017    0.0000 F   0  0  0  0  0  0  0  0  0
   -2.3008    0.0272    0.0000 C   0  0  0  0  0  0  0  0  0
   -2.7858   -0.6403    0.0000 C   0  0  0  0  0  0  0  0  0
   -3.2707   -1.3077    0.0000 C   0  0  0  0  0  0  0  0  0
   -2.9351   -2.0614    0.0000 C   0  0  0  0  0  0  0  0  0
   -3.4201   -2.7288    0.0000 C   0  0  0  0  0  0  0  0  0
   -4.2405   -2.6426    0.0000 C   0  0  0  0  0  0  0  0  0
   -4.5761   -1.8889    0.0000 C   0  0  0  0  0  0  0  0  0
   -5.3966   -1.8027    0.0000 F   0  0  0  0  0  0  0  0  0
   -4.0912   -1.2215    0.0000 C   0  0  0  0  0  0  0  0  0
   -3.0845   -3.4825    0.0000 C   0  0  0  0  0  0  0  0  0
   -2.7489   -4.2362    0.0000 N   0  0  0  0  0  0  0  0  0
  1  2  4  0  0  0  0
  1  5  4  0  0  0  0
  2  3  4  0  0  0  0
  3  4  4  0  0  0  0
  3  8  1  0  0  0  0
  4  5  4  0  0  0  0
  5  6  1  0  0  0  0
  6  7  1  0  0  0  0
  8  9  3  0  0  0  0
  9 10  1  0  0  0  0
 10 11  4  0  0  0  0
 10 16  4  0  0  0  0
 11 12  4  0  0  0  0
 12 13  4  0  0  0  0
 12 17  1  0  0  0  0
 13 14  4  0  0  0  0
 14 15  1  0  0  0  0
 14 16  4  0  0  0  0
 17 18  3  0  0  0  0
M  END
>  <Name_Molregno>
382415

>  <5-HT1A>
5

>  <5-HT1B>
5

>  <5-HT1D>
5

>  <5-HT1E>
5

>  <5-HT2A>
5

>  <5-HT2C>
5

>  <5-HT3>
5

>  <5-HT5>
5

>  <5-HT6>
5

>  <5-HT7>
5

>  <Alpha-1A>
5

>  <Alpha-1B>
5

>  <Alpha-2A>
5

>  <Alpha-2B>
5

>  <Alpha-2C>
5

>  <Beta-1>
5

>  <Beta-2>
5

>  <DOPAMINE D1>
5

>  <DOPAMINE D2>
5

>  <DOPAMINE D3>
5

>  <DOPAMINE D4>
5

>  <DOPAMINE D5>
5

>  <Dopamine transporter>
5

>  <HISTAMINE H1>
5

>  <HISTAMINE H2>
5

>  <HISTAMINE H3>
5

>  <HISTAMINE H4>
5

>  <Muscarinic acetylcholine receptor M1>
5

>  <Muscarinic acetylcholine receptor M2>
5

>  <Muscarinic acetylcholine receptor M3>
5

>  <Muscarinic acetylcholine receptor M4>
5

>  <Muscarinic acetylcholine receptor M5>
5

>  <Norepinephrine transporter>
5

>  <Serotonin transporter>
5

$$$$
383959
  Marvin  02231216192D 0   1.00000     0.00000     0

 23 25  0  0  0  0  0  0  0  0999 V2000
    0.6834    1.0601    0.0000 S   0  0  0  0  0  0  0  0  0
   -0.1416    1.0601    0.0000 O   0  0  0  0  0  0  0  0  0
    1.5084    1.0601    0.0000 O   0  0  0  0  0  0  0  0  0
    0.6834    1.8851    0.0000 N   0  0  0  0  0  0  0  0  0
   -0.0311    2.2976    0.0000 C   0  0  0  0  0  0  0  0  0
   -0.7456    1.8851    0.0000 C   0  0  0  0  0  0  0  0  0
   -1.4601    2.2976    0.0000 C   0  0  0  0  0  0  0  0  0
   -1.4601    3.1226    0.0000 C   0  0  0  0  0  0  0  0  0
   -2.2447    3.3775    0.0000 C   0  0  0  0  0  0  0  0  0
   -2.7296    2.7101    0.0000 N   0  0  0  0  0  0  0  0  0
   -2.2447    2.0427    0.0000 C   0  0  0  0  0  0  0  0  0
   -0.7456    3.5351    0.0000 C   0  0  0  0  0  0  0  0  0
   -0.0311    3.1226    0.0000 C   0  0  0  0  0  0  0  0  0
    0.6834    0.2351    0.0000 C   0  0  0  0  0  0  0  0  0
    1.3978   -0.1774    0.0000 C   0  0  0  0  0  0  0  0  0
    1.3978   -1.0024    0.0000 C   0  0  0  0  0  0  0  0  0
    0.6834   -1.4149    0.0000 C   0  0  0  0  0  0  0  0  0
   -0.0311   -1.0024    0.0000 C   0  0  0  0  0  0  0  0  0
   -0.0311   -0.1774    0.0000 C   0  0  0  0  0  0  0  0  0
    0.6834   -2.2399    0.0000 C   0  0  0  0  0  0  0  0  0
    1.3978   -2.6524    0.0000 C   0  0  0  0  0  0  0  0  0
    1.3978   -3.4774    0.0000 C   0  0  0  0  0  0  0  0  0
    2.1123   -3.8899    0.0000 C   0  0  0  0  0  0  0  0  0
  1  2  2  0  0  0  0
  1  3  2  0  0  0  0
  1  4  1  0  0  0  0
  1 14  1  0  0  0  0
  4  5  1  0  0  0  0
  5  6  4  0  0  0  0
  5 13  4  0  0  0  0
  6  7  4  0  0  0  0
  7  8  4  0  0  0  0
  7 11  1  0  0  0  0
  8  9  1  0  0  0  0
  8 12  4  0  0  0  0
  9 10  1  0  0  0  0
 10 11  1  0  0  0  0
 12 13  4  0  0  0  0
 14 15  4  0  0  0  0
 14 19  4  0  0  0  0
 15 16  4  0  0  0  0
 16 17  4  0  0  0  0
 17 18  4  0  0  0  0
 17 20  1  0  0  0  0
 18 19  4  0  0  0  0
 20 21  1  0  0  0  0
 21 22  1  0  0  0  0
 22 23  1  0  0  0  0
M  END
>  <Name_Molregno>
383959

>  <5-HT6>
7.3

>  <DOPAMINE D2>
6.1

>  <DOPAMINE D3>
7.4

$$$$
383960
  Marvin  02231216192D 0   1.00000     0.00000     0

 24 26  0  0  0  0  0  0  0  0999 V2000
    1.0300    0.9642    0.0000 S   0  0  0  0  0  0  0  0  0
    0.2050    0.9642    0.0000 O   0  0  0  0  0  0  0  0  0
    1.8550    0.9642    0.0000 O   0  0  0  0  0  0  0  0  0
    1.0300    1.7892    0.0000 N   0  0  0  0  0  0  0  0  0
    0.3155    2.2017    0.0000 C   0  0  0  0  0  0  0  0  0
   -0.3990    1.7892    0.0000 C   0  0  0  0  0  0  0  0  0
   -1.1134    2.2017    0.0000 C   0  0  0  0  0  0  0  0  0
   -1.1134    3.0267    0.0000 C   0  0  0  0  0  0  0  0  0
   -1.8981    3.2816    0.0000 C   0  0  0  0  0  0  0  0  0
   -2.3830    2.6142    0.0000 N   0  0  0  0  0  0  0  0  0
   -1.8981    1.9467    0.0000 C   0  0  0  0  0  0  0  0  0
   -3.2080    2.6142    0.0000 C   0  0  0  0  0  0  0  0  0
   -0.3990    3.4392    0.0000 C   0  0  0  0  0  0  0  0  0
    0.3155    3.0267    0.0000 C   0  0  0  0  0  0  0  0  0
    1.0300    0.1392    0.0000 C   0  0  0  0  0  0  0  0  0
    1.7444   -0.2733    0.0000 C   0  0  0  0  0  0  0  0  0
    1.7444   -1.0983    0.0000 C   0  0  0  0  0  0  0  0  0
    1.0300   -1.5108    0.0000 C   0  0  0  0  0  0  0  0  0
    0.3155   -1.0983    0.0000 C   0  0  0  0  0  0  0  0  0
    0.3155   -0.2733    0.0000 C   0  0  0  0  0  0  0  0  0
    1.0300   -2.3358    0.0000 C   0  0  0  0  0  0  0  0  0
    1.7444   -2.7483    0.0000 C   0  0  0  0  0  0  0  0  0
    1.7444   -3.5733    0.0000 C   0  0  0  0  0  0  0  0  0
    2.4589   -3.9858    0.0000 C   0  0  0  0  0  0  0  0  0
  1  2  2  0  0  0  0
  1  3  2  0  0  0  0
  1  4  1  0  0  0  0
  1 15  1  0  0  0  0
  4  5  1  0  0  0  0
  5  6  4  0  0  0  0
  5 14  4  0  0  0  0
  6  7  4  0  0  0  0
  7  8  4  0  0  0  0
  7 11  1  0  0  0  0
  8  9  1  0  0  0  0
  8 13  4  0  0  0  0
  9 10  1  0  0  0  0
 10 11  1  0  0  0  0
 10 12  1  0  0  0  0
 13 14  4  0  0  0  0
 15 16  4  0  0  0  0
 15 20  4  0  0  0  0
 16 17  4  0  0  0  0
 17 18  4  0  0  0  0
 18 19  4  0  0  0  0
 18 21  1  0  0  0  0
 19 20  4  0  0  0  0
 21 22  1  0  0  0  0
 22 23  1  0  0  0  0
 23 24  1  0  0  0  0
M  END
>  <Name_Molregno>
383960

>  <5-HT2A>
8.3

>  <5-HT2C>
8

>  <5-HT6>
8.3

>  <DOPAMINE D2>
6.7

>  <DOPAMINE D3>
7.7

$$$$
383961
  Marvin  02231216192D 0   1.00000     0.00000     0

 24 26  0  0  0  0  0  0  0  0999 V2000
   -0.0080   -0.0148    0.0000 S   0  0  0  0  0  0  0  0  0
    0.4045    0.6997    0.0000 O   0  0  0  0  0  0  0  0  0
   -0.4205   -0.7292    0.0000 O   0  0  0  0  0  0  0  0  0
    0.7065   -0.4273    0.0000 N   0  0  0  0  0  0  0  0  0
    1.4210   -0.0148    0.0000 C   0  0  0  0  0  0  0  0  0
    2.1354   -0.4273    0.0000 C   0  0  0  0  0  0  0  0  0
    2.8499   -0.0148    0.0000 C   0  0  0  0  0  0  0  0  0
    2.8499    0.8102    0.0000 C   0  0  0  0  0  0  0  0  0
    3.5644    1.2227    0.0000 C   0  0  0  0  0  0  0  0  0
    4.2788    0.8102    0.0000 C   0  0  0  0  0  0  0  0  0
    4.2788   -0.0148    0.0000 N   0  0  0  0  0  0  0  0  0
    3.5644   -0.4273    0.0000 C   0  0  0  0  0  0  0  0  0
    2.1354    1.2227    0.0000 C   0  0  0  0  0  0  0  0  0
    1.4210    0.8102    0.0000 C   0  0  0  0  0  0  0  0  0
   -0.7225    0.3977    0.0000 C   0  0  0  0  0  0  0  0  0
   -1.4369   -0.0148    0.0000 C   0  0  0  0  0  0  0  0  0
   -2.1514    0.3977    0.0000 C   0  0  0  0  0  0  0  0  0
   -2.1514    1.2227    0.0000 C   0  0  0  0  0  0  0  0  0
   -1.4369    1.6352    0.0000 C   0  0  0  0  0  0  0  0  0
   -0.7225    1.2227    0.0000 C   0  0  0  0  0  0  0  0  0
   -2.8659    1.6352    0.0000 C   0  0  0  0  0  0  0  0  0
   -3.5803    1.2227    0.0000 C   0  0  0  0  0  0  0  0  0
   -4.2948    1.6352    0.0000 C   0  0  0  0  0  0  0  0  0
   -5.0093    1.2227    0.0000 C   0  0  0  0  0  0  0  0  0
  1  2  2  0  0  0  0
  1  3  2  0  0  0  0
  1  4  1  0  0  0  0
  1 15  1  0  0  0  0
  4  5  1  0  0  0  0
  5  6  4  0  0  0  0
  5 14  4  0  0  0  0
  6  7  4  0  0  0  0
  7  8  4  0  0  0  0
  7 12  1  0  0  0  0
  8  9  1  0  0  0  0
  8 13  4  0  0  0  0
  9 10  1  0  0  0  0
 10 11  1  0  0  0  0
 11 12  1  0  0  0  0
 13 14  4  0  0  0  0
 15 16  4  0  0  0  0
 15 20  4  0  0  0  0
 16 17  4  0  0  0  0
 17 18  4  0  0  0  0
 18 19  4  0  0  0  0
 18 21  1  0  0  0  0
 19 20  4  0  0  0  0
 21 22  1  0  0  0  0
 22 23  1  0  0  0  0
 23 24  1  0  0  0  0
M  END
>  <Name_Molregno>
383961

>  <5-HT2A>
7.9

>  <5-HT2C>
7.5

>  <5-HT6>
7.6

>  <DOPAMINE D2>
6.05

>  <DOPAMINE D3>
7.95

$$$$
383962
  Marvin  02231216192D 0   1.00000     0.00000     0

 25 27  0  0  0  0  0  0  0  0999 V2000
   -0.0088   -0.0157    0.0000 S   0  0  0  0  0  0  0  0  0
    0.4037    0.6987    0.0000 O   0  0  0  0  0  0  0  0  0
   -0.4213   -0.7302    0.0000 O   0  0  0  0  0  0  0  0  0
    0.7057   -0.4282    0.0000 N   0  0  0  0  0  0  0  0  0
    1.4202   -0.0157    0.0000 C   0  0  0  0  0  0  0  0  0
    2.1347   -0.4282    0.0000 C   0  0  0  0  0  0  0  0  0
    2.8491   -0.0157    0.0000 C   0  0  0  0  0  0  0  0  0
    2.8491    0.8093    0.0000 C   0  0  0  0  0  0  0  0  0
    3.5636    1.2218    0.0000 C   0  0  0  0  0  0  0  0  0
    4.2781    0.8093    0.0000 C   0  0  0  0  0  0  0  0  0
    4.2781   -0.0157    0.0000 N   0  0  0  0  0  0  0  0  0
    3.5636   -0.4282    0.0000 C   0  0  0  0  0  0  0  0  0
    4.9925   -0.4282    0.0000 C   0  0  0  0  0  0  0  0  0
    2.1347    1.2218    0.0000 C   0  0  0  0  0  0  0  0  0
    1.4202    0.8093    0.0000 C   0  0  0  0  0  0  0  0  0
   -0.7232    0.3968    0.0000 C   0  0  0  0  0  0  0  0  0
   -1.4377   -0.0157    0.0000 C   0  0  0  0  0  0  0  0  0
   -2.1522    0.3968    0.0000 C   0  0  0  0  0  0  0  0  0
   -2.1522    1.2218    0.0000 C   0  0  0  0  0  0  0  0  0
   -1.4377    1.6343    0.0000 C   0  0  0  0  0  0  0  0  0
   -0.7232    1.2218    0.0000 C   0  0  0  0  0  0  0  0  0
   -2.8666    1.6343    0.0000 C   0  0  0  0  0  0  0  0  0
   -3.5811    1.2218    0.0000 C   0  0  0  0  0  0  0  0  0
   -4.2956    1.6343    0.0000 C   0  0  0  0  0  0  0  0  0
   -5.0101    1.2218    0.0000 C   0  0  0  0  0  0  0  0  0
  1  2  2  0  0  0  0
  1  3  2  0  0  0  0
  1  4  1  0  0  0  0
  1 16  1  0  0  0  0
  4  5  1  0  0  0  0
  5  6  4  0  0  0  0
  5 15  4  0  0  0  0
  6  7  4  0  0  0  0
  7  8  4  0  0  0  0
  7 12  1  0  0  0  0
  8  9  1  0  0  0  0
  8 14  4  0  0  0  0
  9 10  1  0  0  0  0
 10 11  1  0  0  0  0
 11 12  1  0  0  0  0
 11 13  1  0  0  0  0
 14 15  4  0  0  0  0
 16 17  4  0  0  0  0
 16 21  4  0  0  0  0
 17 18  4  0  0  0  0
 18 19  4  0  0  0  0
 19 20  4  0  0  0  0
 19 22  1  0  0  0  0
 20 21  4  0  0  0  0
 22 23  1  0  0  0  0
 23 24  1  0  0  0  0
 24 25  1  0  0  0  0
M  END
>  <Name_Molregno>
383962

>  <DOPAMINE D2>
6.4

>  <DOPAMINE D3>
7.6

$$$$
383963
  Marvin  02231216192D 0   1.00000     0.00000     0

 25 27  0  0  0  0  0  0  0  0999 V2000
   -0.5224   -0.8743    0.0000 S   0  0  0  0  0  0  0  0  0
    0.3026   -0.8743    0.0000 O   0  0  0  0  0  0  0  0  0
   -1.3474   -0.8743    0.0000 O   0  0  0  0  0  0  0  0  0
   -0.5224   -1.6993    0.0000 N   0  0  0  0  0  0  0  0  0
    0.1920   -2.1118    0.0000 C   0  0  0  0  0  0  0  0  0
    0.9065   -1.6993    0.0000 C   0  0  0  0  0  0  0  0  0
    1.6210   -2.1118    0.0000 C   0  0  0  0  0  0  0  0  0
    2.2660   -1.5974    0.0000 C   0  0  0  0  0  0  0  0  0
    3.0703   -1.7810    0.0000 C   0  0  0  0  0  0  0  0  0
    3.4283   -2.5243    0.0000 N   0  0  0  0  0  0  0  0  0
    3.0703   -3.2676    0.0000 C   0  0  0  0  0  0  0  0  0
    2.2660   -3.4512    0.0000 C   0  0  0  0  0  0  0  0  0
    1.6210   -2.9368    0.0000 C   0  0  0  0  0  0  0  0  0
    0.9065   -3.3493    0.0000 C   0  0  0  0  0  0  0  0  0
    0.1920   -2.9368    0.0000 C   0  0  0  0  0  0  0  0  0
   -0.5224   -0.0493    0.0000 C   0  0  0  0  0  0  0  0  0
   -1.2369    0.3632    0.0000 C   0  0  0  0  0  0  0  0  0
   -1.2369    1.1882    0.0000 C   0  0  0  0  0  0  0  0  0
   -0.5224    1.6007    0.0000 C   0  0  0  0  0  0  0  0  0
    0.1920    1.1882    0.0000 C   0  0  0  0  0  0  0  0  0
    0.1920    0.3632    0.0000 C   0  0  0  0  0  0  0  0  0
   -0.5224    2.4257    0.0000 C   0  0  0  0  0  0  0  0  0
   -1.2369    2.8382    0.0000 C   0  0  0  0  0  0  0  0  0
   -1.2369    3.6632    0.0000 C   0  0  0  0  0  0  0  0  0
   -1.9514    4.0757    0.0000 C   0  0  0  0  0  0  0  0  0
  1  2  2  0  0  0  0
  1  3  2  0  0  0  0
  1  4  1  0  0  0  0
  1 16  1  0  0  0  0
  4  5  1  0  0  0  0
  5  6  4  0  0  0  0
  5 15  4  0  0  0  0
  6  7  4  0  0  0  0
  7  8  1  0  0  0  0
  7 13  4  0  0  0  0
  8  9  1  0  0  0  0
  9 10  1  0  0  0  0
 10 11  1  0  0  0  0
 11 12  1  0  0  0  0
 12 13  1  0  0  0  0
 13 14  4  0  0  0  0
 14 15  4  0  0  0  0
 16 17  4  0  0  0  0
 16 21  4  0  0  0  0
 17 18  4  0  0  0  0
 18 19  4  0  0  0  0
 19 20  4  0  0  0  0
 19 22  1  0  0  0  0
 20 21  4  0  0  0  0
 22 23  1  0  0  0  0
 23 24  1  0  0  0  0
 24 25  1  0  0  0  0
M  END
>  <Name_Molregno>
383963

>  <5-HT2A>
7.8

>  <5-HT2C>
7.3

>  <5-HT6>
8.7

>  <DOPAMINE D2>
6.8

>  <DOPAMINE D3>
7.8

$$$$
383964
  Marvin  02231216192D 0   1.00000     0.00000     0

 26 28  0  0  0  0  0  0  0  0999 V2000
   -0.4846   -0.7961    0.0000 S   0  0  0  0  0  0  0  0  0
    0.3404   -0.7961    0.0000 O   0  0  0  0  0  0  0  0  0
   -1.3096   -0.7961    0.0000 O   0  0  0  0  0  0  0  0  0
   -0.4846   -1.6211    0.0000 N   0  0  0  0  0  0  0  0  0
    0.2299   -2.0336    0.0000 C   0  0  0  0  0  0  0  0  0
    0.9444   -1.6211    0.0000 C   0  0  0  0  0  0  0  0  0
    1.6588   -2.0336    0.0000 C   0  0  0  0  0  0  0  0  0
    2.3039   -1.5192    0.0000 C   0  0  0  0  0  0  0  0  0
    3.1082   -1.7028    0.0000 C   0  0  0  0  0  0  0  0  0
    3.4661   -2.4461    0.0000 N   0  0  0  0  0  0  0  0  0
    3.1082   -3.1894    0.0000 C   0  0  0  0  0  0  0  0  0
    2.3039   -3.3730    0.0000 C   0  0  0  0  0  0  0  0  0
    1.6588   -2.8586    0.0000 C   0  0  0  0  0  0  0  0  0
    0.9444   -3.2711    0.0000 C   0  0  0  0  0  0  0  0  0
    0.2299   -2.8586    0.0000 C   0  0  0  0  0  0  0  0  0
    4.2911   -2.4461    0.0000 C   0  0  0  0  0  0  0  0  0
   -0.4846    0.0289    0.0000 C   0  0  0  0  0  0  0  0  0
   -1.1990    0.4414    0.0000 C   0  0  0  0  0  0  0  0  0
   -1.1990    1.2664    0.0000 C   0  0  0  0  0  0  0  0  0
   -0.4846    1.6789    0.0000 C   0  0  0  0  0  0  0  0  0
    0.2299    1.2664    0.0000 C   0  0  0  0  0  0  0  0  0
    0.2299    0.4414    0.0000 C   0  0  0  0  0  0  0  0  0
   -0.4846    2.5039    0.0000 C   0  0  0  0  0  0  0  0  0
   -1.1990    2.9164    0.0000 C   0  0  0  0  0  0  0  0  0
   -1.1990    3.7414    0.0000 C   0  0  0  0  0  0  0  0  0
   -1.9135    4.1539    0.0000 C   0  0  0  0  0  0  0  0  0
  1  2  2  0  0  0  0
  1  3  2  0  0  0  0
  1  4  1  0  0  0  0
  1 17  1  0  0  0  0
  4  5  1  0  0  0  0
  5  6  4  0  0  0  0
  5 15  4  0  0  0  0
  6  7  4  0  0  0  0
  7  8  1  0  0  0  0
  7 13  4  0  0  0  0
  8  9  1  0  0  0  0
  9 10  1  0  0  0  0
 10 11  1  0  0  0  0
 10 16  1  0  0  0  0
 11 12  1  0  0  0  0
 12 13  1  0  0  0  0
 13 14  4  0  0  0  0
 14 15  4  0  0  0  0
 17 18  4  0  0  0  0
 17 22  4  0  0  0  0
 18 19  4  0  0  0  0
 19 20  4  0  0  0  0
 20 21  4  0  0  0  0
 20 23  1  0  0  0  0
 21 22  4  0  0  0  0
 23 24  1  0  0  0  0
 24 25  1  0  0  0  0
 25 26  1  0  0  0  0
M  END
>  <Name_Molregno>
383964

>  <5-HT2A>
8.3

>  <5-HT2C>
8

>  <5-HT6>
8.9

>  <DOPAMINE D2>
7.5

>  <DOPAMINE D3>
8.7

$$$$
383965
  Marvin  02231216192D 0   1.00000     0.00000     0

 29 32  0  0  0  0  0  0  0  0999 V2000
    0.1803   -2.8552    0.0000 Cl  0  0  0  0  0  0  0  0  0
    0.8948   -2.4427    0.0000 C   0  0  0  0  0  0  0  0  0
    0.8948   -1.6177    0.0000 C   0  0  0  0  0  0  0  0  0
    1.6092   -1.2052    0.0000 C   0  0  0  0  0  0  0  0  0
    2.3237   -1.6177    0.0000 C   0  0  0  0  0  0  0  0  0
    2.3237   -2.4427    0.0000 C   0  0  0  0  0  0  0  0  0
    1.6092   -2.8552    0.0000 C   0  0  0  0  0  0  0  0  0
    3.0382   -1.2052    0.0000 C   0  0  0  0  0  0  0  0  0
    3.0382   -0.3802    0.0000 C   0  0  0  0  0  0  0  0  0
    3.7526    0.0323    0.0000 C   0  0  0  0  0  0  0  0  0
    4.4671   -0.3802    0.0000 C   0  0  0  0  0  0  0  0  0
    5.1816    0.0323    0.0000 S   0  0  0  0  0  0  0  0  0
    5.5941   -0.6822    0.0000 O   0  0  0  0  0  0  0  0  0
    4.7691    0.7467    0.0000 O   0  0  0  0  0  0  0  0  0
    5.8960    0.4448    0.0000 N   0  0  0  0  0  0  0  0  0
    6.6105    0.0323    0.0000 C   0  0  0  0  0  0  0  0  0
    7.3250    0.4448    0.0000 C   0  0  0  0  0  0  0  0  0
    8.0395    0.0323    0.0000 C   0  0  0  0  0  0  0  0  0
    8.6845    0.5466    0.0000 C   0  0  0  0  0  0  0  0  0
    9.4888    0.3631    0.0000 C   0  0  0  0  0  0  0  0  0
    9.8467   -0.3802    0.0000 N   0  0  0  0  0  0  0  0  0
    9.4888   -1.1235    0.0000 C   0  0  0  0  0  0  0  0  0
    8.6845   -1.3071    0.0000 C   0  0  0  0  0  0  0  0  0
    8.0395   -0.7927    0.0000 C   0  0  0  0  0  0  0  0  0
    7.3250   -1.2052    0.0000 C   0  0  0  0  0  0  0  0  0
    6.6105   -0.7927    0.0000 C   0  0  0  0  0  0  0  0  0
   10.6717   -0.3802    0.0000 C   0  0  0  0  0  0  0  0  0
    4.4671   -1.2052    0.0000 C   0  0  0  0  0  0  0  0  0
    3.7526   -1.6177    0.0000 C   0  0  0  0  0  0  0  0  0
  1  2  1  0  0  0  0
  2  3  4  0  0  0  0
  2  7  4  0  0  0  0
  3  4  4  0  0  0  0
  4  5  4  0  0  0  0
  5  6  4  0  0  0  0
  5  8  1  0  0  0  0
  6  7  4  0  0  0  0
  8  9  4  0  0  0  0
  8 29  4  0  0  0  0
  9 10  4  0  0  0  0
 10 11  4  0  0  0  0
 11 12  1  0  0  0  0
 11 28  4  0  0  0  0
 12 13  2  0  0  0  0
 12 14  2  0  0  0  0
 12 15  1  0  0  0  0
 15 16  1  0  0  0  0
 16 17  4  0  0  0  0
 16 26  4  0  0  0  0
 17 18  4  0  0  0  0
 18 19  1  0  0  0  0
 18 24  4  0  0  0  0
 19 20  1  0  0  0  0
 20 21  1  0  0  0  0
 21 22  1  0  0  0  0
 21 27  1  0  0  0  0
 22 23  1  0  0  0  0
 23 24  1  0  0  0  0
 24 25  4  0  0  0  0
 25 26  4  0  0  0  0
 28 29  4  0  0  0  0
M  END
>  <Name_Molregno>
383965

>  <5-HT2A>
6.7

>  <5-HT2C>
7.7

>  <5-HT6>
8.3

>  <DOPAMINE D2>
6.8

>  <DOPAMINE D3>
7.8

$$$$
383966
  Marvin  02231216192D 0   1.00000     0.00000     0

 30 33  0  0  0  0  0  0  0  0999 V2000
   -0.1322   -0.7689    0.0000 Cl  0  0  0  0  0  0  0  0  0
    0.5823   -1.1814    0.0000 C   0  0  0  0  0  0  0  0  0
    1.2967   -0.7689    0.0000 C   0  0  0  0  0  0  0  0  0
    2.0112   -1.1814    0.0000 C   0  0  0  0  0  0  0  0  0
    2.0112   -2.0064    0.0000 C   0  0  0  0  0  0  0  0  0
    1.2967   -2.4189    0.0000 C   0  0  0  0  0  0  0  0  0
    0.5823   -2.0064    0.0000 C   0  0  0  0  0  0  0  0  0
   -0.1322   -2.4189    0.0000 F   0  0  0  0  0  0  0  0  0
    2.7257   -0.7689    0.0000 C   0  0  0  0  0  0  0  0  0
    2.7257    0.0561    0.0000 C   0  0  0  0  0  0  0  0  0
    3.4401    0.4686    0.0000 C   0  0  0  0  0  0  0  0  0
    4.1546    0.0561    0.0000 C   0  0  0  0  0  0  0  0  0
    4.8691    0.4686    0.0000 S   0  0  0  0  0  0  0  0  0
    5.2816   -0.2458    0.0000 O   0  0  0  0  0  0  0  0  0
    4.4566    1.1831    0.0000 O   0  0  0  0  0  0  0  0  0
    5.5836    0.8811    0.0000 N   0  0  0  0  0  0  0  0  0
    6.2980    0.4686    0.0000 C   0  0  0  0  0  0  0  0  0
    7.0125    0.8811    0.0000 C   0  0  0  0  0  0  0  0  0
    7.7270    0.4686    0.0000 C   0  0  0  0  0  0  0  0  0
    8.3720    0.9830    0.0000 C   0  0  0  0  0  0  0  0  0
    9.1763    0.7994    0.0000 C   0  0  0  0  0  0  0  0  0
    9.5342    0.0561    0.0000 N   0  0  0  0  0  0  0  0  0
    9.1763   -0.6872    0.0000 C   0  0  0  0  0  0  0  0  0
    8.3720   -0.8707    0.0000 C   0  0  0  0  0  0  0  0  0
    7.7270   -0.3564    0.0000 C   0  0  0  0  0  0  0  0  0
    7.0125   -0.7689    0.0000 C   0  0  0  0  0  0  0  0  0
    6.2980   -0.3564    0.0000 C   0  0  0  0  0  0  0  0  0
   10.3592    0.0561    0.0000 C   0  0  0  0  0  0  0  0  0
    4.1546   -0.7689    0.0000 C   0  0  0  0  0  0  0  0  0
    3.4401   -1.1814    0.0000 C   0  0  0  0  0  0  0  0  0
  1  2  1  0  0  0  0
  2  3  4  0  0  0  0
  2  7  4  0  0  0  0
  3  4  4  0  0  0  0
  4  5  4  0  0  0  0
  4  9  1  0  0  0  0
  5  6  4  0  0  0  0
  6  7  4  0  0  0  0
  7  8  1  0  0  0  0
  9 10  4  0  0  0  0
  9 30  4  0  0  0  0
 10 11  4  0  0  0  0
 11 12  4  0  0  0  0
 12 13  1  0  0  0  0
 12 29  4  0  0  0  0
 13 14  2  0  0  0  0
 13 15  2  0  0  0  0
 13 16  1  0  0  0  0
 16 17  1  0  0  0  0
 17 18  4  0  0  0  0
 17 27  4  0  0  0  0
 18 19  4  0  0  0  0
 19 20  1  0  0  0  0
 19 25  4  0  0  0  0
 20 21  1  0  0  0  0
 21 22  1  0  0  0  0
 22 23  1  0  0  0  0
 22 28  1  0  0  0  0
 23 24  1  0  0  0  0
 24 25  1  0  0  0  0
 25 26  4  0  0  0  0
 26 27  4  0  0  0  0
 29 30  4  0  0  0  0
M  END
>  <Name_Molregno>
383966

>  <5-HT2A>
7.3

>  <5-HT2C>
7.5

>  <5-HT6>
8.1

>  <DOPAMINE D2>
7.3

>  <DOPAMINE D3>
8.4

$$$$
383967
  Marvin  02231216192D 0   1.00000     0.00000     0

 30 33  0  0  0  0  0  0  0  0999 V2000
   -1.4916   -1.6494    0.0000 S   0  0  0  0  0  0  0  0  0
   -0.6666   -1.6494    0.0000 O   0  0  0  0  0  0  0  0  0
   -2.3166   -1.6494    0.0000 O   0  0  0  0  0  0  0  0  0
   -1.4916   -2.4744    0.0000 N   0  0  0  0  0  0  0  0  0
   -0.7771   -2.8869    0.0000 C   0  0  0  0  0  0  0  0  0
   -0.0626   -2.4744    0.0000 C   0  0  0  0  0  0  0  0  0
    0.6518   -2.8869    0.0000 C   0  0  0  0  0  0  0  0  0
    1.2968   -2.3725    0.0000 C   0  0  0  0  0  0  0  0  0
    2.1012   -2.5561    0.0000 C   0  0  0  0  0  0  0  0  0
    2.4591   -3.2994    0.0000 N   0  0  0  0  0  0  0  0  0
    2.1012   -4.0427    0.0000 C   0  0  0  0  0  0  0  0  0
    1.2968   -4.2263    0.0000 C   0  0  0  0  0  0  0  0  0
    0.6518   -3.7119    0.0000 C   0  0  0  0  0  0  0  0  0
   -0.0626   -4.1244    0.0000 C   0  0  0  0  0  0  0  0  0
   -0.7771   -3.7119    0.0000 C   0  0  0  0  0  0  0  0  0
    3.2841   -3.2994    0.0000 C   0  0  0  0  0  0  0  0  0
   -1.4916   -0.8244    0.0000 C   0  0  0  0  0  0  0  0  0
   -2.2060   -0.4119    0.0000 C   0  0  0  0  0  0  0  0  0
   -2.2060    0.4131    0.0000 C   0  0  0  0  0  0  0  0  0
   -1.4916    0.8256    0.0000 C   0  0  0  0  0  0  0  0  0
   -0.7771    0.4131    0.0000 C   0  0  0  0  0  0  0  0  0
   -0.7771   -0.4119    0.0000 C   0  0  0  0  0  0  0  0  0
   -1.4916    1.6506    0.0000 C   0  0  0  0  0  0  0  0  0
   -2.2060    2.0631    0.0000 C   0  0  0  0  0  0  0  0  0
   -2.2060    2.8881    0.0000 C   0  0  0  0  0  0  0  0  0
   -1.4916    3.3006    0.0000 C   0  0  0  0  0  0  0  0  0
   -0.7771    2.8881    0.0000 C   0  0  0  0  0  0  0  0  0
   -0.7771    2.0631    0.0000 C   0  0  0  0  0  0  0  0  0
   -1.4916    4.1256    0.0000 C   0  0  0  0  0  0  0  0  0
   -1.4916    4.9506    0.0000 N   0  0  0  0  0  0  0  0  0
  1  2  2  0  0  0  0
  1  3  2  0  0  0  0
  1  4  1  0  0  0  0
  1 17  1  0  0  0  0
  4  5  1  0  0  0  0
  5  6  4  0  0  0  0
  5 15  4  0  0  0  0
  6  7  4  0  0  0  0
  7  8  1  0  0  0  0
  7 13  4  0  0  0  0
  8  9  1  0  0  0  0
  9 10  1  0  0  0  0
 10 11  1  0  0  0  0
 10 16  1  0  0  0  0
 11 12  1  0  0  0  0
 12 13  1  0  0  0  0
 13 14  4  0  0  0  0
 14 15  4  0  0  0  0
 17 18  4  0  0  0  0
 17 22  4  0  0  0  0
 18 19  4  0  0  0  0
 19 20  4  0  0  0  0
 20 21  4  0  0  0  0
 20 23  1  0  0  0  0
 21 22  4  0  0  0  0
 23 24  4  0  0  0  0
 23 28  4  0  0  0  0
 24 25  4  0  0  0  0
 25 26  4  0  0  0  0
 26 27  4  0  0  0  0
 26 29  1  0  0  0  0
 27 28  4  0  0  0  0
 29 30  3  0  0  0  0
M  END
>  <Name_Molregno>
383967

>  <5-HT2A>
6.1

>  <5-HT2C>
7

>  <5-HT6>
7.6

>  <DOPAMINE D2>
6.3

>  <DOPAMINE D3>
7.8

$$$$
383968
  Marvin  02231216192D 0   1.00000     0.00000     0

 30 33  0  0  0  0  0  0  0  0999 V2000
    0.1608   -1.2195    0.0000 Cl  0  0  0  0  0  0  0  0  0
    0.8753   -0.8070    0.0000 C   0  0  0  0  0  0  0  0  0
    0.8753    0.0180    0.0000 C   0  0  0  0  0  0  0  0  0
    1.5898    0.4305    0.0000 C   0  0  0  0  0  0  0  0  0
    2.3042    0.0180    0.0000 C   0  0  0  0  0  0  0  0  0
    2.3042   -0.8070    0.0000 C   0  0  0  0  0  0  0  0  0
    1.5898   -1.2195    0.0000 C   0  0  0  0  0  0  0  0  0
    3.0187    0.4305    0.0000 C   0  0  0  0  0  0  0  0  0
    3.0187    1.2555    0.0000 C   0  0  0  0  0  0  0  0  0
    3.7332    1.6680    0.0000 C   0  0  0  0  0  0  0  0  0
    4.4477    1.2555    0.0000 C   0  0  0  0  0  0  0  0  0
    5.1621    1.6680    0.0000 S   0  0  0  0  0  0  0  0  0
    5.5746    0.9535    0.0000 O   0  0  0  0  0  0  0  0  0
    4.7496    2.3825    0.0000 O   0  0  0  0  0  0  0  0  0
    5.8766    2.0805    0.0000 N   0  0  0  0  0  0  0  0  0
    6.5911    1.6680    0.0000 C   0  0  0  0  0  0  0  0  0
    7.3055    2.0805    0.0000 C   0  0  0  0  0  0  0  0  0
    8.0200    1.6680    0.0000 C   0  0  0  0  0  0  0  0  0
    8.6650    2.1824    0.0000 C   0  0  0  0  0  0  0  0  0
    9.4693    1.9988    0.0000 C   0  0  0  0  0  0  0  0  0
    9.8273    1.2555    0.0000 N   0  0  0  0  0  0  0  0  0
    9.4693    0.5122    0.0000 C   0  0  0  0  0  0  0  0  0
    8.6650    0.3286    0.0000 C   0  0  0  0  0  0  0  0  0
    8.0200    0.8430    0.0000 C   0  0  0  0  0  0  0  0  0
    7.3055    0.4305    0.0000 C   0  0  0  0  0  0  0  0  0
    6.5911    0.8430    0.0000 C   0  0  0  0  0  0  0  0  0
   10.6523    1.2555    0.0000 C   0  0  0  0  0  0  0  0  0
    4.4477    0.4305    0.0000 C   0  0  0  0  0  0  0  0  0
    3.7332    0.0180    0.0000 C   0  0  0  0  0  0  0  0  0
    3.7332   -0.8070    0.0000 C   0  0  0  0  0  0  0  0  0
  1  2  1  0  0  0  0
  2  3  4  0  0  0  0
  2  7  4  0  0  0  0
  3  4  4  0  0  0  0
  4  5  4  0  0  0  0
  5  6  4  0  0  0  0
  5  8  1  0  0  0  0
  6  7  4  0  0  0  0
  8  9  4  0  0  0  0
  8 29  4  0  0  0  0
  9 10  4  0  0  0  0
 10 11  4  0  0  0  0
 11 12  1  0  0  0  0
 11 28  4  0  0  0  0
 12 13  2  0  0  0  0
 12 14  2  0  0  0  0
 12 15  1  0  0  0  0
 15 16  1  0  0  0  0
 16 17  4  0  0  0  0
 16 26  4  0  0  0  0
 17 18  4  0  0  0  0
 18 19  1  0  0  0  0
 18 24  4  0  0  0  0
 19 20  1  0  0  0  0
 20 21  1  0  0  0  0
 21 22  1  0  0  0  0
 21 27  1  0  0  0  0
 22 23  1  0  0  0  0
 23 24  1  0  0  0  0
 24 25  4  0  0  0  0
 25 26  4  0  0  0  0
 28 29  4  0  0  0  0
 29 30  1  0  0  0  0
M  END
>  <Name_Molregno>
383968

>  <5-HT2A>
6.9

>  <5-HT2C>
7.3

>  <5-HT6>
8.3

>  <DOPAMINE D2>
7.5

>  <DOPAMINE D3>
8.2

$$$$
383969
  Marvin  02231216192D 0   1.00000     0.00000     0

 28 31  0  0  0  0  0  0  0  0999 V2000
   -0.1646   -0.4110    0.0000 Cl  0  0  0  0  0  0  0  0  0
    0.6559   -0.4972    0.0000 C   0  0  0  0  0  0  0  0  0
    1.1408    0.1702    0.0000 C   0  0  0  0  0  0  0  0  0
    1.9613    0.0840    0.0000 C   0  0  0  0  0  0  0  0  0
    2.2968   -0.6697    0.0000 C   0  0  0  0  0  0  0  0  0
    1.8119   -1.3371    0.0000 C   0  0  0  0  0  0  0  0  0
    0.9914   -1.2509    0.0000 C   0  0  0  0  0  0  0  0  0
    3.1173   -0.7559    0.0000 C   0  0  0  0  0  0  0  0  0
    3.6693   -0.1428    0.0000 S   0  0  0  0  0  0  0  0  0
    4.4230   -0.4784    0.0000 C   0  0  0  0  0  0  0  0  0
    5.1375   -0.0659    0.0000 S   0  0  0  0  0  0  0  0  0
    5.5500   -0.7804    0.0000 O   0  0  0  0  0  0  0  0  0
    4.7250    0.6486    0.0000 O   0  0  0  0  0  0  0  0  0
    5.8520    0.3466    0.0000 N   0  0  0  0  0  0  0  0  0
    6.5664   -0.0659    0.0000 C   0  0  0  0  0  0  0  0  0
    7.2809    0.3466    0.0000 C   0  0  0  0  0  0  0  0  0
    7.9954   -0.0659    0.0000 C   0  0  0  0  0  0  0  0  0
    8.6404    0.4485    0.0000 C   0  0  0  0  0  0  0  0  0
    9.4447    0.2649    0.0000 C   0  0  0  0  0  0  0  0  0
    9.8027   -0.4784    0.0000 N   0  0  0  0  0  0  0  0  0
    9.4447   -1.2217    0.0000 C   0  0  0  0  0  0  0  0  0
    8.6404   -1.4053    0.0000 C   0  0  0  0  0  0  0  0  0
    7.9954   -0.8909    0.0000 C   0  0  0  0  0  0  0  0  0
    7.2809   -1.3034    0.0000 C   0  0  0  0  0  0  0  0  0
    6.5664   -0.8909    0.0000 C   0  0  0  0  0  0  0  0  0
   10.6277   -0.4784    0.0000 C   0  0  0  0  0  0  0  0  0
    4.3368   -1.2989    0.0000 C   0  0  0  0  0  0  0  0  0
    3.5298   -1.4704    0.0000 C   0  0  0  0  0  0  0  0  0
  1  2  1  0  0  0  0
  2  3  4  0  0  0  0
  2  7  4  0  0  0  0
  3  4  4  0  0  0  0
  4  5  4  0  0  0  0
  5  6  4  0  0  0  0
  5  8  1  0  0  0  0
  6  7  4  0  0  0  0
  8  9  4  0  0  0  0
  8 28  4  0  0  0  0
  9 10  4  0  0  0  0
 10 11  1  0  0  0  0
 10 27  4  0  0  0  0
 11 12  2  0  0  0  0
 11 13  2  0  0  0  0
 11 14  1  0  0  0  0
 14 15  1  0  0  0  0
 15 16  4  0  0  0  0
 15 25  4  0  0  0  0
 16 17  4  0  0  0  0
 17 18  1  0  0  0  0
 17 23  4  0  0  0  0
 18 19  1  0  0  0  0
 19 20  1  0  0  0  0
 20 21  1  0  0  0  0
 20 26  1  0  0  0  0
 21 22  1  0  0  0  0
 22 23  1  0  0  0  0
 23 24  4  0  0  0  0
 24 25  4  0  0  0  0
 27 28  4  0  0  0  0
M  END
>  <Name_Molregno>
383969

>  <5-HT2C>
6.9

>  <5-HT6>
8.4

>  <DOPAMINE D2>
6.4

>  <DOPAMINE D3>
7.4

$$$$
383970
  Marvin  02231216192D 0   1.00000     0.00000     0

 28 31  0  0  0  0  0  0  0  0999 V2000
   -7.7286   -1.0718    0.0000 S   0  0  0  0  0  0  0  0  0
   -6.9749   -1.4074    0.0000 C   0  0  0  0  0  0  0  0  0
   -7.0611   -2.2278    0.0000 C   0  0  0  0  0  0  0  0  0
   -7.8681   -2.3994    0.0000 C   0  0  0  0  0  0  0  0  0
   -8.2806   -1.6849    0.0000 C   0  0  0  0  0  0  0  0  0
   -9.1011   -1.5987    0.0000 C   0  0  0  0  0  0  0  0  0
   -6.2604   -0.9949    0.0000 C   0  0  0  0  0  0  0  0  0
   -6.2604   -0.1699    0.0000 C   0  0  0  0  0  0  0  0  0
   -5.5459    0.2426    0.0000 C   0  0  0  0  0  0  0  0  0
   -4.8315   -0.1699    0.0000 C   0  0  0  0  0  0  0  0  0
   -4.1170    0.2426    0.0000 S   0  0  0  0  0  0  0  0  0
   -3.7045   -0.4718    0.0000 O   0  0  0  0  0  0  0  0  0
   -4.5295    0.9571    0.0000 O   0  0  0  0  0  0  0  0  0
   -3.4025    0.6551    0.0000 N   0  0  0  0  0  0  0  0  0
   -2.6880    0.2426    0.0000 C   0  0  0  0  0  0  0  0  0
   -1.9736    0.6551    0.0000 C   0  0  0  0  0  0  0  0  0
   -1.2591    0.2426    0.0000 C   0  0  0  0  0  0  0  0  0
   -0.6141    0.7570    0.0000 C   0  0  0  0  0  0  0  0  0
    0.1902    0.5734    0.0000 C   0  0  0  0  0  0  0  0  0
    0.5482   -0.1699    0.0000 N   0  0  0  0  0  0  0  0  0
    0.1902   -0.9132    0.0000 C   0  0  0  0  0  0  0  0  0
   -0.6141   -1.0967    0.0000 C   0  0  0  0  0  0  0  0  0
   -1.2591   -0.5824    0.0000 C   0  0  0  0  0  0  0  0  0
   -1.9736   -0.9949    0.0000 C   0  0  0  0  0  0  0  0  0
   -2.6880   -0.5824    0.0000 C   0  0  0  0  0  0  0  0  0
    1.3732   -0.1699    0.0000 C   0  0  0  0  0  0  0  0  0
   -4.8315   -0.9949    0.0000 C   0  0  0  0  0  0  0  0  0
   -5.5459   -1.4074    0.0000 C   0  0  0  0  0  0  0  0  0
  1  2  4  0  0  0  0
  1  5  4  0  0  0  0
  2  3  4  0  0  0  0
  2  7  1  0  0  0  0
  3  4  4  0  0  0  0
  4  5  4  0  0  0  0
  5  6  1  0  0  0  0
  7  8  4  0  0  0  0
  7 28  4  0  0  0  0
  8  9  4  0  0  0  0
  9 10  4  0  0  0  0
 10 11  1  0  0  0  0
 10 27  4  0  0  0  0
 11 12  2  0  0  0  0
 11 13  2  0  0  0  0
 11 14  1  0  0  0  0
 14 15  1  0  0  0  0
 15 16  4  0  0  0  0
 15 25  4  0  0  0  0
 16 17  4  0  0  0  0
 17 18  1  0  0  0  0
 17 23  4  0  0  0  0
 18 19  1  0  0  0  0
 19 20  1  0  0  0  0
 20 21  1  0  0  0  0
 20 26  1  0  0  0  0
 21 22  1  0  0  0  0
 22 23  1  0  0  0  0
 23 24  4  0  0  0  0
 24 25  4  0  0  0  0
 27 28  4  0  0  0  0
M  END
>  <Name_Molregno>
383970

>  <5-HT2A>
7.3

>  <5-HT2C>
7.9

>  <5-HT6>
8.2

>  <DOPAMINE D2>
6.5

>  <DOPAMINE D3>
7.6

$$$$
383971
  Marvin  02231216192D 0   1.00000     0.00000     0

 29 32  0  0  0  0  0  0  0  0999 V2000
   -0.7965   -1.3388    0.0000 S   0  0  0  0  0  0  0  0  0
    0.0285   -1.3388    0.0000 O   0  0  0  0  0  0  0  0  0
   -1.6215   -1.3388    0.0000 O   0  0  0  0  0  0  0  0  0
   -0.7965   -2.1638    0.0000 N   0  0  0  0  0  0  0  0  0
   -0.0821   -2.5763    0.0000 C   0  0  0  0  0  0  0  0  0
    0.6324   -2.1638    0.0000 C   0  0  0  0  0  0  0  0  0
    1.3469   -2.5763    0.0000 C   0  0  0  0  0  0  0  0  0
    1.9919   -2.0619    0.0000 C   0  0  0  0  0  0  0  0  0
    2.7962   -2.2455    0.0000 C   0  0  0  0  0  0  0  0  0
    3.1542   -2.9888    0.0000 N   0  0  0  0  0  0  0  0  0
    2.7962   -3.7321    0.0000 C   0  0  0  0  0  0  0  0  0
    1.9919   -3.9157    0.0000 C   0  0  0  0  0  0  0  0  0
    1.3469   -3.4013    0.0000 C   0  0  0  0  0  0  0  0  0
    0.6324   -3.8138    0.0000 C   0  0  0  0  0  0  0  0  0
   -0.0821   -3.4013    0.0000 C   0  0  0  0  0  0  0  0  0
    3.9792   -2.9888    0.0000 C   0  0  0  0  0  0  0  0  0
   -0.7965   -0.5138    0.0000 C   0  0  0  0  0  0  0  0  0
   -1.5110   -0.1013    0.0000 C   0  0  0  0  0  0  0  0  0
   -1.5110    0.7237    0.0000 C   0  0  0  0  0  0  0  0  0
   -0.7965    1.1362    0.0000 C   0  0  0  0  0  0  0  0  0
   -0.0821    0.7237    0.0000 C   0  0  0  0  0  0  0  0  0
   -0.0821   -0.1013    0.0000 C   0  0  0  0  0  0  0  0  0
   -0.7965    1.9612    0.0000 C   0  0  0  0  0  0  0  0  0
   -1.4640    2.4461    0.0000 C   0  0  0  0  0  0  0  0  0
   -1.2090    3.2307    0.0000 N   0  0  0  0  0  0  0  0  0
   -0.3840    3.2307    0.0000 O   0  0  0  0  0  0  0  0  0
   -0.1291    2.4461    0.0000 C   0  0  0  0  0  0  0  0  0
    0.6555    2.1912    0.0000 C   0  0  0  0  0  0  0  0  0
   -2.2486    2.1912    0.0000 C   0  0  0  0  0  0  0  0  0
  1  2  2  0  0  0  0
  1  3  2  0  0  0  0
  1  4  1  0  0  0  0
  1 17  1  0  0  0  0
  4  5  1  0  0  0  0
  5  6  4  0  0  0  0
  5 15  4  0  0  0  0
  6  7  4  0  0  0  0
  7  8  1  0  0  0  0
  7 13  4  0  0  0  0
  8  9  1  0  0  0  0
  9 10  1  0  0  0  0
 10 11  1  0  0  0  0
 10 16  1  0  0  0  0
 11 12  1  0  0  0  0
 12 13  1  0  0  0  0
 13 14  4  0  0  0  0
 14 15  4  0  0  0  0
 17 18  4  0  0  0  0
 17 22  4  0  0  0  0
 18 19  4  0  0  0  0
 19 20  4  0  0  0  0
 20 21  4  0  0  0  0
 20 23  1  0  0  0  0
 21 22  4  0  0  0  0
 23 24  4  0  0  0  0
 23 27  4  0  0  0  0
 24 25  4  0  0  0  0
 24 29  1  0  0  0  0
 25 26  4  0  0  0  0
 26 27  4  0  0  0  0
 27 28  1  0  0  0  0
M  END
>  <Name_Molregno>
383971

>  <5-HT2A>
5.9

>  <5-HT2C>
6.4

>  <5-HT6>
8

>  <DOPAMINE D2>
7

>  <DOPAMINE D3>
7.8

$$$$
383972
  Marvin  02231216192D 0   1.00000     0.00000     0

 30 33  0  0  0  0  0  0  0  0999 V2000
   -0.1078   -1.0428    0.0000 Cl  0  0  0  0  0  0  0  0  0
    0.6067   -0.6303    0.0000 C   0  0  0  0  0  0  0  0  0
    0.6067    0.1947    0.0000 C   0  0  0  0  0  0  0  0  0
    1.3212    0.6072    0.0000 C   0  0  0  0  0  0  0  0  0
    2.0356    0.1947    0.0000 C   0  0  0  0  0  0  0  0  0
    2.0356   -0.6303    0.0000 C   0  0  0  0  0  0  0  0  0
    1.3212   -1.0428    0.0000 C   0  0  0  0  0  0  0  0  0
    2.7501    0.6072    0.0000 C   0  0  0  0  0  0  0  0  0
    2.7501    1.4322    0.0000 C   0  0  0  0  0  0  0  0  0
    3.4646    1.8447    0.0000 C   0  0  0  0  0  0  0  0  0
    4.1791    1.4322    0.0000 C   0  0  0  0  0  0  0  0  0
    4.8935    1.8447    0.0000 S   0  0  0  0  0  0  0  0  0
    5.3060    1.1302    0.0000 O   0  0  0  0  0  0  0  0  0
    4.4810    2.5591    0.0000 O   0  0  0  0  0  0  0  0  0
    5.6080    2.2572    0.0000 N   0  0  0  0  0  0  0  0  0
    6.3225    1.8447    0.0000 C   0  0  0  0  0  0  0  0  0
    7.0369    2.2572    0.0000 C   0  0  0  0  0  0  0  0  0
    7.7514    1.8447    0.0000 C   0  0  0  0  0  0  0  0  0
    8.3964    2.3591    0.0000 C   0  0  0  0  0  0  0  0  0
    9.2007    2.1755    0.0000 C   0  0  0  0  0  0  0  0  0
    9.5587    1.4322    0.0000 N   0  0  0  0  0  0  0  0  0
    9.2007    0.6889    0.0000 C   0  0  0  0  0  0  0  0  0
    8.3964    0.5053    0.0000 C   0  0  0  0  0  0  0  0  0
    7.7514    1.0197    0.0000 C   0  0  0  0  0  0  0  0  0
    7.0369    0.6072    0.0000 C   0  0  0  0  0  0  0  0  0
    6.3225    1.0197    0.0000 C   0  0  0  0  0  0  0  0  0
    5.6080    0.6072    0.0000 C   0  0  0  0  0  0  0  0  0
   10.3837    1.4322    0.0000 C   0  0  0  0  0  0  0  0  0
    4.1791    0.6072    0.0000 C   0  0  0  0  0  0  0  0  0
    3.4646    0.1947    0.0000 C   0  0  0  0  0  0  0  0  0
  1  2  1  0  0  0  0
  2  3  4  0  0  0  0
  2  7  4  0  0  0  0
  3  4  4  0  0  0  0
  4  5  4  0  0  0  0
  5  6  4  0  0  0  0
  5  8  1  0  0  0  0
  6  7  4  0  0  0  0
  8  9  4  0  0  0  0
  8 30  4  0  0  0  0
  9 10  4  0  0  0  0
 10 11  4  0  0  0  0
 11 12  1  0  0  0  0
 11 29  4  0  0  0  0
 12 13  2  0  0  0  0
 12 14  2  0  0  0  0
 12 15  1  0  0  0  0
 15 16  1  0  0  0  0
 16 17  4  0  0  0  0
 16 26  4  0  0  0  0
 17 18  4  0  0  0  0
 18 19  1  0  0  0  0
 18 24  4  0  0  0  0
 19 20  1  0  0  0  0
 20 21  1  0  0  0  0
 21 22  1  0  0  0  0
 21 28  1  0  0  0  0
 22 23  1  0  0  0  0
 23 24  1  0  0  0  0
 24 25  4  0  0  0  0
 25 26  4  0  0  0  0
 26 27  1  0  0  0  0
 29 30  4  0  0  0  0
M  END
>  <Name_Molregno>
383972

>  <5-HT2A>
7.7

>  <5-HT2C>
7.1

>  <5-HT6>
7.8

>  <DOPAMINE D2>
7.8

>  <DOPAMINE D3>
8.8

$$$$
383974
  Marvin  02231216192D 0   1.00000     0.00000     0

 32 35  0  0  0  0  0  0  0  0999 V2000
    0.0842   -1.1207    0.0000 Cl  0  0  0  0  0  0  0  0  0
    0.7986   -0.7082    0.0000 C   0  0  0  0  0  0  0  0  0
    0.7986    0.1168    0.0000 C   0  0  0  0  0  0  0  0  0
    1.5131    0.5293    0.0000 C   0  0  0  0  0  0  0  0  0
    2.2276    0.1168    0.0000 C   0  0  0  0  0  0  0  0  0
    2.2276   -0.7082    0.0000 C   0  0  0  0  0  0  0  0  0
    1.5131   -1.1207    0.0000 C   0  0  0  0  0  0  0  0  0
    2.9421    0.5293    0.0000 C   0  0  0  0  0  0  0  0  0
    2.9421    1.3543    0.0000 C   0  0  0  0  0  0  0  0  0
    3.6565    1.7668    0.0000 C   0  0  0  0  0  0  0  0  0
    4.3710    1.3543    0.0000 C   0  0  0  0  0  0  0  0  0
    5.0855    1.7668    0.0000 S   0  0  0  0  0  0  0  0  0
    5.4980    1.0524    0.0000 O   0  0  0  0  0  0  0  0  0
    4.6730    2.4813    0.0000 O   0  0  0  0  0  0  0  0  0
    5.7999    2.1793    0.0000 N   0  0  0  0  0  0  0  0  0
    6.5144    1.7668    0.0000 C   0  0  0  0  0  0  0  0  0
    7.2289    2.1793    0.0000 C   0  0  0  0  0  0  0  0  0
    7.9433    1.7668    0.0000 C   0  0  0  0  0  0  0  0  0
    8.5884    2.2812    0.0000 C   0  0  0  0  0  0  0  0  0
    9.3927    2.0976    0.0000 C   0  0  0  0  0  0  0  0  0
    9.7506    1.3543    0.0000 N   0  0  0  0  0  0  0  0  0
    9.3927    0.6110    0.0000 C   0  0  0  0  0  0  0  0  0
    8.5884    0.4275    0.0000 C   0  0  0  0  0  0  0  0  0
    7.9433    0.9418    0.0000 C   0  0  0  0  0  0  0  0  0
    7.2289    0.5293    0.0000 C   0  0  0  0  0  0  0  0  0
    6.5144    0.9418    0.0000 C   0  0  0  0  0  0  0  0  0
    5.7999    0.5293    0.0000 C   0  0  0  0  0  0  0  0  0
    5.7999   -0.2957    0.0000 C   0  0  0  0  0  0  0  0  0
    5.0855    0.9418    0.0000 C   0  0  0  0  0  0  0  0  0
   10.5756    1.3543    0.0000 C   0  0  0  0  0  0  0  0  0
    4.3710    0.5293    0.0000 C   0  0  0  0  0  0  0  0  0
    3.6565    0.1168    0.0000 C   0  0  0  0  0  0  0  0  0
  1  2  1  0  0  0  0
  2  3  4  0  0  0  0
  2  7  4  0  0  0  0
  3  4  4  0  0  0  0
  4  5  4  0  0  0  0
  5  6  4  0  0  0  0
  5  8  1  0  0  0  0
  6  7  4  0  0  0  0
  8  9  4  0  0  0  0
  8 32  4  0  0  0  0
  9 10  4  0  0  0  0
 10 11  4  0  0  0  0
 11 12  1  0  0  0  0
 11 31  4  0  0  0  0
 12 13  2  0  0  0  0
 12 14  2  0  0  0  0
 12 15  1  0  0  0  0
 15 16  1  0  0  0  0
 16 17  4  0  0  0  0
 16 26  4  0  0  0  0
 17 18  4  0  0  0  0
 18 19  1  0  0  0  0
 18 24  4  0  0  0  0
 19 20  1  0  0  0  0
 20 21  1  0  0  0  0
 21 22  1  0  0  0  0
 21 30  1  0  0  0  0
 22 23  1  0  0  0  0
 23 24  1  0  0  0  0
 24 25  4  0  0  0  0
 25 26  4  0  0  0  0
 26 27  1  0  0  0  0
 27 28  1  0  0  0  0
 27 29  1  0  0  0  0
 31 32  4  0  0  0  0
M  END
>  <Name_Molregno>
383974

>  <5-HT2A>
8.3

>  <5-HT2C>
7.8

>  <5-HT6>
7.9

>  <DOPAMINE D2>
7

>  <DOPAMINE D3>
8.4

$$$$
383977
  Marvin  02231216192D 0   1.00000     0.00000     0

 30 33  0  0  0  0  0  0  0  0999 V2000
   -2.4278   -0.6033    0.0000 Br  0  0  0  0  0  0  0  0  0
   -1.7133   -1.0158    0.0000 C   0  0  0  0  0  0  0  0  0
   -0.9989   -0.6033    0.0000 C   0  0  0  0  0  0  0  0  0
   -0.2844   -1.0158    0.0000 C   0  0  0  0  0  0  0  0  0
    0.3606   -0.5014    0.0000 C   0  0  0  0  0  0  0  0  0
    1.1649   -0.6850    0.0000 C   0  0  0  0  0  0  0  0  0
    1.5229   -1.4283    0.0000 N   0  0  0  0  0  0  0  0  0
    1.1649   -2.1716    0.0000 C   0  0  0  0  0  0  0  0  0
    0.3606   -2.3552    0.0000 C   0  0  0  0  0  0  0  0  0
   -0.2844   -1.8408    0.0000 C   0  0  0  0  0  0  0  0  0
   -0.9989   -2.2533    0.0000 C   0  0  0  0  0  0  0  0  0
   -1.7133   -1.8408    0.0000 C   0  0  0  0  0  0  0  0  0
   -2.4278   -2.2533    0.0000 N   0  0  0  0  0  0  0  0  0
   -3.1423   -1.8408    0.0000 S   0  0  0  0  0  0  0  0  0
   -3.5548   -2.5553    0.0000 O   0  0  0  0  0  0  0  0  0
   -2.7298   -1.1263    0.0000 O   0  0  0  0  0  0  0  0  0
   -3.8568   -1.4283    0.0000 C   0  0  0  0  0  0  0  0  0
   -4.5712   -1.8408    0.0000 C   0  0  0  0  0  0  0  0  0
   -5.2857   -1.4283    0.0000 C   0  0  0  0  0  0  0  0  0
   -5.2857   -0.6033    0.0000 C   0  0  0  0  0  0  0  0  0
   -4.5712   -0.1908    0.0000 C   0  0  0  0  0  0  0  0  0
   -3.8568   -0.6033    0.0000 C   0  0  0  0  0  0  0  0  0
   -6.0002   -0.1908    0.0000 C   0  0  0  0  0  0  0  0  0
   -6.7146   -0.6033    0.0000 C   0  0  0  0  0  0  0  0  0
   -7.4291   -0.1908    0.0000 C   0  0  0  0  0  0  0  0  0
   -7.4291    0.6342    0.0000 C   0  0  0  0  0  0  0  0  0
   -8.1436    1.0467    0.0000 Cl  0  0  0  0  0  0  0  0  0
   -6.7146    1.0467    0.0000 C   0  0  0  0  0  0  0  0  0
   -6.0002    0.6342    0.0000 C   0  0  0  0  0  0  0  0  0
    2.3479   -1.4283    0.0000 C   0  0  0  0  0  0  0  0  0
  1  2  1  0  0  0  0
  2  3  4  0  0  0  0
  2 12  4  0  0  0  0
  3  4  4  0  0  0  0
  4  5  1  0  0  0  0
  4 10  4  0  0  0  0
  5  6  1  0  0  0  0
  6  7  1  0  0  0  0
  7  8  1  0  0  0  0
  7 30  1  0  0  0  0
  8  9  1  0  0  0  0
  9 10  1  0  0  0  0
 10 11  4  0  0  0  0
 11 12  4  0  0  0  0
 12 13  1  0  0  0  0
 13 14  1  0  0  0  0
 14 15  2  0  0  0  0
 14 16  2  0  0  0  0
 14 17  1  0  0  0  0
 17 18  4  0  0  0  0
 17 22  4  0  0  0  0
 18 19  4  0  0  0  0
 19 20  4  0  0  0  0
 20 21  4  0  0  0  0
 20 23  1  0  0  0  0
 21 22  4  0  0  0  0
 23 24  4  0  0  0  0
 23 29  4  0  0  0  0
 24 25  4  0  0  0  0
 25 26  4  0  0  0  0
 26 27  1  0  0  0  0
 26 28  4  0  0  0  0
 28 29  4  0  0  0  0
M  END
>  <Name_Molregno>
383977

>  <5-HT2C>
6.9

>  <5-HT6>
7.3

>  <DOPAMINE D2>
7.2

>  <DOPAMINE D3>
8.3

$$$$
383980
  Marvin  02231216192D 0   1.00000     0.00000     0

 30 33  0  0  0  0  0  0  0  0999 V2000
   -2.4278   -0.6033    0.0000 Cl  0  0  0  0  0  0  0  0  0
   -1.7133   -1.0158    0.0000 C   0  0  0  0  0  0  0  0  0
   -0.9989   -0.6033    0.0000 C   0  0  0  0  0  0  0  0  0
   -0.2844   -1.0158    0.0000 C   0  0  0  0  0  0  0  0  0
    0.3606   -0.5014    0.0000 C   0  0  0  0  0  0  0  0  0
    1.1649   -0.6850    0.0000 C   0  0  0  0  0  0  0  0  0
    1.5229   -1.4283    0.0000 N   0  0  0  0  0  0  0  0  0
    1.1649   -2.1716    0.0000 C   0  0  0  0  0  0  0  0  0
    0.3606   -2.3552    0.0000 C   0  0  0  0  0  0  0  0  0
   -0.2844   -1.8408    0.0000 C   0  0  0  0  0  0  0  0  0
   -0.9989   -2.2533    0.0000 C   0  0  0  0  0  0  0  0  0
   -1.7133   -1.8408    0.0000 C   0  0  0  0  0  0  0  0  0
   -2.4278   -2.2533    0.0000 N   0  0  0  0  0  0  0  0  0
   -3.1423   -1.8408    0.0000 S   0  0  0  0  0  0  0  0  0
   -3.5548   -2.5553    0.0000 O   0  0  0  0  0  0  0  0  0
   -2.7298   -1.1263    0.0000 O   0  0  0  0  0  0  0  0  0
   -3.8568   -1.4283    0.0000 C   0  0  0  0  0  0  0  0  0
   -4.5712   -1.8408    0.0000 C   0  0  0  0  0  0  0  0  0
   -5.2857   -1.4283    0.0000 C   0  0  0  0  0  0  0  0  0
   -5.2857   -0.6033    0.0000 C   0  0  0  0  0  0  0  0  0
   -4.5712   -0.1908    0.0000 C   0  0  0  0  0  0  0  0  0
   -3.8568   -0.6033    0.0000 C   0  0  0  0  0  0  0  0  0
   -6.0002   -0.1908    0.0000 C   0  0  0  0  0  0  0  0  0
   -6.7146   -0.6033    0.0000 C   0  0  0  0  0  0  0  0  0
   -7.4291   -0.1908    0.0000 C   0  0  0  0  0  0  0  0  0
   -7.4291    0.6342    0.0000 C   0  0  0  0  0  0  0  0  0
   -8.1436    1.0467    0.0000 Cl  0  0  0  0  0  0  0  0  0
   -6.7146    1.0467    0.0000 C   0  0  0  0  0  0  0  0  0
   -6.0002    0.6342    0.0000 C   0  0  0  0  0  0  0  0  0
    2.3479   -1.4283    0.0000 C   0  0  0  0  0  0  0  0  0
  1  2  1  0  0  0  0
  2  3  4  0  0  0  0
  2 12  4  0  0  0  0
  3  4  4  0  0  0  0
  4  5  1  0  0  0  0
  4 10  4  0  0  0  0
  5  6  1  0  0  0  0
  6  7  1  0  0  0  0
  7  8  1  0  0  0  0
  7 30  1  0  0  0  0
  8  9  1  0  0  0  0
  9 10  1  0  0  0  0
 10 11  4  0  0  0  0
 11 12  4  0  0  0  0
 12 13  1  0  0  0  0
 13 14  1  0  0  0  0
 14 15  2  0  0  0  0
 14 16  2  0  0  0  0
 14 17  1  0  0  0  0
 17 18  4  0  0  0  0
 17 22  4  0  0  0  0
 18 19  4  0  0  0  0
 19 20  4  0  0  0  0
 20 21  4  0  0  0  0
 20 23  1  0  0  0  0
 21 22  4  0  0  0  0
 23 24  4  0  0  0  0
 23 29  4  0  0  0  0
 24 25  4  0  0  0  0
 25 26  4  0  0  0  0
 26 27  1  0  0  0  0
 26 28  4  0  0  0  0
 28 29  4  0  0  0  0
M  END
>  <Name_Molregno>
383980

>  <5-HT2A>
7.5

>  <5-HT2C>
7.4

>  <5-HT6>
7.3

>  <DOPAMINE D2>
7.4

>  <DOPAMINE D3>
8.6

$$$$
383983
  Marvin  02231216192D 0   1.00000     0.00000     0

 31 34  0  0  0  0  0  0  0  0999 V2000
   -0.0094   -1.0040    0.0000 Cl  0  0  0  0  0  0  0  0  0
    0.7051   -0.5915    0.0000 C   0  0  0  0  0  0  0  0  0
    0.7051    0.2335    0.0000 C   0  0  0  0  0  0  0  0  0
    1.4195    0.6460    0.0000 C   0  0  0  0  0  0  0  0  0
    2.1340    0.2335    0.0000 C   0  0  0  0  0  0  0  0  0
    2.1340   -0.5915    0.0000 C   0  0  0  0  0  0  0  0  0
    1.4195   -1.0040    0.0000 C   0  0  0  0  0  0  0  0  0
    2.8485    0.6460    0.0000 C   0  0  0  0  0  0  0  0  0
    2.8485    1.4710    0.0000 C   0  0  0  0  0  0  0  0  0
    3.5630    1.8835    0.0000 C   0  0  0  0  0  0  0  0  0
    4.2774    1.4710    0.0000 C   0  0  0  0  0  0  0  0  0
    4.9919    1.8835    0.0000 S   0  0  0  0  0  0  0  0  0
    5.4044    1.1690    0.0000 O   0  0  0  0  0  0  0  0  0
    4.5794    2.5980    0.0000 O   0  0  0  0  0  0  0  0  0
    5.7064    2.2960    0.0000 N   0  0  0  0  0  0  0  0  0
    6.4208    1.8835    0.0000 C   0  0  0  0  0  0  0  0  0
    7.1353    2.2960    0.0000 C   0  0  0  0  0  0  0  0  0
    7.8498    1.8835    0.0000 C   0  0  0  0  0  0  0  0  0
    8.4948    2.3979    0.0000 C   0  0  0  0  0  0  0  0  0
    9.2991    2.2143    0.0000 C   0  0  0  0  0  0  0  0  0
    9.6571    1.4710    0.0000 N   0  0  0  0  0  0  0  0  0
    9.2991    0.7277    0.0000 C   0  0  0  0  0  0  0  0  0
    8.4948    0.5441    0.0000 C   0  0  0  0  0  0  0  0  0
    7.8498    1.0585    0.0000 C   0  0  0  0  0  0  0  0  0
    7.1353    0.6460    0.0000 C   0  0  0  0  0  0  0  0  0
    6.4208    1.0585    0.0000 C   0  0  0  0  0  0  0  0  0
    5.7064    0.6460    0.0000 O   0  0  0  0  0  0  0  0  0
    5.7064   -0.1790    0.0000 C   0  0  0  0  0  0  0  0  0
   10.4821    1.4710    0.0000 C   0  0  0  0  0  0  0  0  0
    4.2774    0.6460    0.0000 C   0  0  0  0  0  0  0  0  0
    3.5630    0.2335    0.0000 C   0  0  0  0  0  0  0  0  0
  1  2  1  0  0  0  0
  2  3  4  0  0  0  0
  2  7  4  0  0  0  0
  3  4  4  0  0  0  0
  4  5  4  0  0  0  0
  5  6  4  0  0  0  0
  5  8  1  0  0  0  0
  6  7  4  0  0  0  0
  8  9  4  0  0  0  0
  8 31  4  0  0  0  0
  9 10  4  0  0  0  0
 10 11  4  0  0  0  0
 11 12  1  0  0  0  0
 11 30  4  0  0  0  0
 12 13  2  0  0  0  0
 12 14  2  0  0  0  0
 12 15  1  0  0  0  0
 15 16  1  0  0  0  0
 16 17  4  0  0  0  0
 16 26  4  0  0  0  0
 17 18  4  0  0  0  0
 18 19  1  0  0  0  0
 18 24  4  0  0  0  0
 19 20  1  0  0  0  0
 20 21  1  0  0  0  0
 21 22  1  0  0  0  0
 21 29  1  0  0  0  0
 22 23  1  0  0  0  0
 23 24  1  0  0  0  0
 24 25  4  0  0  0  0
 25 26  4  0  0  0  0
 26 27  1  0  0  0  0
 27 28  1  0  0  0  0
 30 31  4  0  0  0  0
M  END
>  <Name_Molregno>
383983

>  <5-HT2A>
7.6

>  <5-HT2C>
7.4

>  <5-HT6>
8

>  <DOPAMINE D2>
8.4

>  <DOPAMINE D3>
9.1

$$$$
383985
  Marvin  02231216192D 0   1.00000     0.00000     0

 33 36  0  0  0  0  0  0  0  0999 V2000
    0.2117   -1.0056    0.0000 Cl  0  0  0  0  0  0  0  0  0
    0.9261   -0.5931    0.0000 C   0  0  0  0  0  0  0  0  0
    0.9261    0.2319    0.0000 C   0  0  0  0  0  0  0  0  0
    1.6406    0.6444    0.0000 C   0  0  0  0  0  0  0  0  0
    2.3551    0.2319    0.0000 C   0  0  0  0  0  0  0  0  0
    2.3551   -0.5931    0.0000 C   0  0  0  0  0  0  0  0  0
    1.6406   -1.0056    0.0000 C   0  0  0  0  0  0  0  0  0
    3.0695    0.6444    0.0000 C   0  0  0  0  0  0  0  0  0
    3.0695    1.4694    0.0000 C   0  0  0  0  0  0  0  0  0
    3.7840    1.8819    0.0000 C   0  0  0  0  0  0  0  0  0
    4.4985    1.4694    0.0000 C   0  0  0  0  0  0  0  0  0
    5.2130    1.8819    0.0000 S   0  0  0  0  0  0  0  0  0
    5.6255    1.1674    0.0000 O   0  0  0  0  0  0  0  0  0
    4.8005    2.5964    0.0000 O   0  0  0  0  0  0  0  0  0
    5.9274    2.2944    0.0000 N   0  0  0  0  0  0  0  0  0
    6.6419    1.8819    0.0000 C   0  0  0  0  0  0  0  0  0
    7.3564    2.2944    0.0000 C   0  0  0  0  0  0  0  0  0
    8.0708    1.8819    0.0000 C   0  0  0  0  0  0  0  0  0
    8.7159    2.3963    0.0000 C   0  0  0  0  0  0  0  0  0
    9.5202    2.2127    0.0000 C   0  0  0  0  0  0  0  0  0
    9.8781    1.4694    0.0000 N   0  0  0  0  0  0  0  0  0
    9.5202    0.7261    0.0000 C   0  0  0  0  0  0  0  0  0
    8.7159    0.5425    0.0000 C   0  0  0  0  0  0  0  0  0
    8.0708    1.0569    0.0000 C   0  0  0  0  0  0  0  0  0
    7.3564    0.6444    0.0000 C   0  0  0  0  0  0  0  0  0
    6.6419    1.0569    0.0000 C   0  0  0  0  0  0  0  0  0
    5.9274    0.6444    0.0000 O   0  0  0  0  0  0  0  0  0
    5.9274   -0.1806    0.0000 C   0  0  0  0  0  0  0  0  0
    6.6419   -0.5931    0.0000 C   0  0  0  0  0  0  0  0  0
    5.2130   -0.5931    0.0000 C   0  0  0  0  0  0  0  0  0
   10.7031    1.4694    0.0000 C   0  0  0  0  0  0  0  0  0
    4.4985    0.6444    0.0000 C   0  0  0  0  0  0  0  0  0
    3.7840    0.2319    0.0000 C   0  0  0  0  0  0  0  0  0
  1  2  1  0  0  0  0
  2  3  4  0  0  0  0
  2  7  4  0  0  0  0
  3  4  4  0  0  0  0
  4  5  4  0  0  0  0
  5  6  4  0  0  0  0
  5  8  1  0  0  0  0
  6  7  4  0  0  0  0
  8  9  4  0  0  0  0
  8 33  4  0  0  0  0
  9 10  4  0  0  0  0
 10 11  4  0  0  0  0
 11 12  1  0  0  0  0
 11 32  4  0  0  0  0
 12 13  2  0  0  0  0
 12 14  2  0  0  0  0
 12 15  1  0  0  0  0
 15 16  1  0  0  0  0
 16 17  4  0  0  0  0
 16 26  4  0  0  0  0
 17 18  4  0  0  0  0
 18 19  1  0  0  0  0
 18 24  4  0  0  0  0
 19 20  1  0  0  0  0
 20 21  1  0  0  0  0
 21 22  1  0  0  0  0
 21 31  1  0  0  0  0
 22 23  1  0  0  0  0
 23 24  1  0  0  0  0
 24 25  4  0  0  0  0
 25 26  4  0  0  0  0
 26 27  1  0  0  0  0
 27 28  1  0  0  0  0
 28 29  1  0  0  0  0
 28 30  1  0  0  0  0
 32 33  4  0  0  0  0
M  END
>  <Name_Molregno>
383985

>  <5-HT2A>
7.8

>  <5-HT2C>
7.4

>  <5-HT6>
7.5

>  <DOPAMINE D2>
8.2

>  <DOPAMINE D3>
9.1

$$$$
383987
  Marvin  02231216192D 0   1.00000     0.00000     0

 33 36  0  0  0  0  0  0  0  0999 V2000
    0.2117   -1.0056    0.0000 Cl  0  0  0  0  0  0  0  0  0
    0.9261   -0.5931    0.0000 C   0  0  0  0  0  0  0  0  0
    0.9261    0.2319    0.0000 C   0  0  0  0  0  0  0  0  0
    1.6406    0.6444    0.0000 C   0  0  0  0  0  0  0  0  0
    2.3551    0.2319    0.0000 C   0  0  0  0  0  0  0  0  0
    2.3551   -0.5931    0.0000 C   0  0  0  0  0  0  0  0  0
    1.6406   -1.0056    0.0000 C   0  0  0  0  0  0  0  0  0
    3.0695    0.6444    0.0000 C   0  0  0  0  0  0  0  0  0
    3.0695    1.4694    0.0000 C   0  0  0  0  0  0  0  0  0
    3.7840    1.8819    0.0000 C   0  0  0  0  0  0  0  0  0
    4.4985    1.4694    0.0000 C   0  0  0  0  0  0  0  0  0
    5.2130    1.8819    0.0000 S   0  0  0  0  0  0  0  0  0
    5.6255    1.1674    0.0000 O   0  0  0  0  0  0  0  0  0
    4.8005    2.5964    0.0000 O   0  0  0  0  0  0  0  0  0
    5.9274    2.2944    0.0000 N   0  0  0  0  0  0  0  0  0
    6.6419    1.8819    0.0000 C   0  0  0  0  0  0  0  0  0
    7.3564    2.2944    0.0000 C   0  0  0  0  0  0  0  0  0
    8.0708    1.8819    0.0000 C   0  0  0  0  0  0  0  0  0
    8.7159    2.3963    0.0000 C   0  0  0  0  0  0  0  0  0
    9.5202    2.2127    0.0000 C   0  0  0  0  0  0  0  0  0
    9.8781    1.4694    0.0000 N   0  0  0  0  0  0  0  0  0
    9.5202    0.7261    0.0000 C   0  0  0  0  0  0  0  0  0
    8.7159    0.5425    0.0000 C   0  0  0  0  0  0  0  0  0
    8.0708    1.0569    0.0000 C   0  0  0  0  0  0  0  0  0
    7.3564    0.6444    0.0000 C   0  0  0  0  0  0  0  0  0
    6.6419    1.0569    0.0000 C   0  0  0  0  0  0  0  0  0
    5.9274    0.6444    0.0000 N   0  0  0  0  0  0  0  0  0
    5.9274   -0.1806    0.0000 C   0  0  0  0  0  0  0  0  0
    6.6419   -0.5931    0.0000 C   0  0  0  0  0  0  0  0  0
    5.2130   -0.5931    0.0000 C   0  0  0  0  0  0  0  0  0
   10.7031    1.4694    0.0000 C   0  0  0  0  0  0  0  0  0
    4.4985    0.6444    0.0000 C   0  0  0  0  0  0  0  0  0
    3.7840    0.2319    0.0000 C   0  0  0  0  0  0  0  0  0
  1  2  1  0  0  0  0
  2  3  4  0  0  0  0
  2  7  4  0  0  0  0
  3  4  4  0  0  0  0
  4  5  4  0  0  0  0
  5  6  4  0  0  0  0
  5  8  1  0  0  0  0
  6  7  4  0  0  0  0
  8  9  4  0  0  0  0
  8 33  4  0  0  0  0
  9 10  4  0  0  0  0
 10 11  4  0  0  0  0
 11 12  1  0  0  0  0
 11 32  4  0  0  0  0
 12 13  2  0  0  0  0
 12 14  2  0  0  0  0
 12 15  1  0  0  0  0
 15 16  1  0  0  0  0
 16 17  4  0  0  0  0
 16 26  4  0  0  0  0
 17 18  4  0  0  0  0
 18 19  1  0  0  0  0
 18 24  4  0  0  0  0
 19 20  1  0  0  0  0
 20 21  1  0  0  0  0
 21 22  1  0  0  0  0
 21 31  1  0  0  0  0
 22 23  1  0  0  0  0
 23 24  1  0  0  0  0
 24 25  4  0  0  0  0
 25 26  4  0  0  0  0
 26 27  1  0  0  0  0
 27 28  1  0  0  0  0
 28 29  1  0  0  0  0
 28 30  1  0  0  0  0
 32 33  4  0  0  0  0
M  END
>  <Name_Molregno>
383987

>  <5-HT2A>
8.8

>  <5-HT2C>
8.3

>  <5-HT6>
8.1

>  <DOPAMINE D2>
7.3

>  <DOPAMINE D3>
8.5

$$$$
388319
  Marvin  02231216192D 0   1.00000     0.00000     0

 33 36  0  0  0  0  0  0  0  0999 V2000
  -10.0001    0.3660    0.0000 O   0  0  0  0  0  0  0  0  0
  -10.7146   -0.0465    0.0000 C   0  0  0  0  0  0  0  0  0
  -10.0001    1.1910    0.0000 C   0  0  0  0  0  0  0  0  0
  -10.7146    1.6035    0.0000 C   0  0  0  0  0  0  0  0  0
  -10.7146    2.4285    0.0000 C   0  0  0  0  0  0  0  0  0
  -10.0001    2.8410    0.0000 C   0  0  0  0  0  0  0  0  0
   -9.2857    2.4285    0.0000 C   0  0  0  0  0  0  0  0  0
   -9.2857    1.6035    0.0000 C   0  0  0  0  0  0  0  0  0
   -8.5712    1.1910    0.0000 N   0  0  0  0  0  0  0  0  0
   -7.8567    1.6035    0.0000 C   0  0  0  0  0  0  0  0  0
   -7.1423    1.1910    0.0000 C   0  0  0  0  0  0  0  0  0
   -7.1423    0.3660    0.0000 N   0  0  0  0  0  0  0  0  0
   -7.8567   -0.0465    0.0000 C   0  0  0  0  0  0  0  0  0
   -8.5712    0.3660    0.0000 C   0  0  0  0  0  0  0  0  0
   -6.4278   -0.0465    0.0000 C   0  0  0  0  0  0  0  0  0
   -5.7133    0.3660    0.0000 C   0  0  0  0  0  0  0  0  0
   -4.9988   -0.0465    0.0000 C   0  0  0  0  0  0  0  0  0
   -4.2844    0.3660    0.0000 C   0  0  0  0  0  0  0  0  0
   -3.5699   -0.0465    0.0000 N   0  0  0  0  0  0  0  0  0
   -2.8554    0.3660    0.0000 C   0  0  0  0  0  0  0  0  0
   -2.8554    1.1910    0.0000 O   0  0  0  0  0  0  0  0  0
   -2.1410   -0.0465    0.0000 C   0  0  0  0  0  0  0  0  0
   -1.4265    0.3660    0.0000 C   0  0  0  0  0  0  0  0  0
   -0.7120   -0.0465    0.0000 C   0  0  0  0  0  0  0  0  0
   -0.7120   -0.8715    0.0000 C   0  0  0  0  0  0  0  0  0
   -1.4265   -1.2840    0.0000 C   0  0  0  0  0  0  0  0  0
   -2.1410   -0.8715    0.0000 C   0  0  0  0  0  0  0  0  0
    0.0024   -1.2840    0.0000 C   0  0  0  0  0  0  0  0  0
    0.7169   -0.8715    0.0000 N   0  0  0  0  0  0  0  0  0
    1.4314   -1.2840    0.0000 C   0  0  0  0  0  0  0  0  0
    1.4314   -2.1090    0.0000 C   0  0  0  0  0  0  0  0  0
    0.7169   -2.5215    0.0000 C   0  0  0  0  0  0  0  0  0
    0.0024   -2.1090    0.0000 C   0  0  0  0  0  0  0  0  0
  1  2  1  0  0  0  0
  1  3  1  0  0  0  0
  3  4  4  0  0  0  0
  3  8  4  0  0  0  0
  4  5  4  0  0  0  0
  5  6  4  0  0  0  0
  6  7  4  0  0  0  0
  7  8  4  0  0  0  0
  8  9  1  0  0  0  0
  9 10  1  0  0  0  0
  9 14  1  0  0  0  0
 10 11  1  0  0  0  0
 11 12  1  0  0  0  0
 12 13  1  0  0  0  0
 12 15  1  0  0  0  0
 13 14  1  0  0  0  0
 15 16  1  0  0  0  0
 16 17  1  0  0  0  0
 17 18  1  0  0  0  0
 18 19  1  0  0  0  0
 19 20  1  0  0  0  0
 20 21  2  0  0  0  0
 20 22  1  0  0  0  0
 22 23  4  0  0  0  0
 22 27  4  0  0  0  0
 23 24  4  0  0  0  0
 24 25  4  0  0  0  0
 25 26  4  0  0  0  0
 25 28  1  0  0  0  0
 26 27  4  0  0  0  0
 28 29  4  0  0  0  0
 28 33  4  0  0  0  0
 29 30  4  0  0  0  0
 30 31  4  0  0  0  0
 31 32  4  0  0  0  0
 32 33  4  0  0  0  0
M  END
>  <Name_Molregno>
388319

>  <5-HT1A>
8.17

>  <5-HT2A>
6.64

>  <5-HT2C>
6.13

>  <DOPAMINE D2>
7.55

>  <DOPAMINE D3>
9.4

$$$$
388321
  Marvin  02231216192D 0   1.00000     0.00000     0

 34 37  0  0  0  0  0  0  0  0999 V2000
   -8.6886    2.9310    0.0000 Cl  0  0  0  0  0  0  0  0  0
   -8.6886    2.1060    0.0000 C   0  0  0  0  0  0  0  0  0
   -7.9741    1.6935    0.0000 C   0  0  0  0  0  0  0  0  0
   -7.2596    2.1060    0.0000 N   0  0  0  0  0  0  0  0  0
   -7.2596    2.9310    0.0000 C   0  0  0  0  0  0  0  0  0
   -6.5451    3.3435    0.0000 C   0  0  0  0  0  0  0  0  0
   -5.8307    2.9310    0.0000 N   0  0  0  0  0  0  0  0  0
   -5.8307    2.1060    0.0000 C   0  0  0  0  0  0  0  0  0
   -6.5451    1.6935    0.0000 C   0  0  0  0  0  0  0  0  0
   -5.1162    3.3435    0.0000 C   0  0  0  0  0  0  0  0  0
   -4.4017    2.9310    0.0000 C   0  0  0  0  0  0  0  0  0
   -4.4017    2.1060    0.0000 C   0  0  0  0  0  0  0  0  0
   -3.6873    1.6935    0.0000 C   0  0  0  0  0  0  0  0  0
   -3.6873    0.8685    0.0000 N   0  0  0  0  0  0  0  0  0
   -2.9728    0.4560    0.0000 C   0  0  0  0  0  0  0  0  0
   -2.2583    0.8685    0.0000 O   0  0  0  0  0  0  0  0  0
   -2.9728   -0.3690    0.0000 C   0  0  0  0  0  0  0  0  0
   -2.2583   -0.7815    0.0000 C   0  0  0  0  0  0  0  0  0
   -2.2583   -1.6065    0.0000 C   0  0  0  0  0  0  0  0  0
   -2.9728   -2.0190    0.0000 C   0  0  0  0  0  0  0  0  0
   -3.6873   -1.6065    0.0000 C   0  0  0  0  0  0  0  0  0
   -3.6873   -0.7815    0.0000 C   0  0  0  0  0  0  0  0  0
   -2.9728   -2.8440    0.0000 C   0  0  0  0  0  0  0  0  0
   -2.2583   -3.2565    0.0000 N   0  0  0  0  0  0  0  0  0
   -2.2583   -4.0815    0.0000 C   0  0  0  0  0  0  0  0  0
   -1.5438   -4.4940    0.0000 O   0  0  0  0  0  0  0  0  0
   -2.9728   -4.4940    0.0000 C   0  0  0  0  0  0  0  0  0
   -3.6873   -4.0815    0.0000 C   0  0  0  0  0  0  0  0  0
   -3.6873   -3.2565    0.0000 C   0  0  0  0  0  0  0  0  0
   -7.9741    0.8685    0.0000 C   0  0  0  0  0  0  0  0  0
   -8.6886    0.4560    0.0000 C   0  0  0  0  0  0  0  0  0
   -9.4030    0.8685    0.0000 C   0  0  0  0  0  0  0  0  0
   -9.4030    1.6935    0.0000 C   0  0  0  0  0  0  0  0  0
  -10.1175    2.1060    0.0000 Cl  0  0  0  0  0  0  0  0  0
  1  2  1  0  0  0  0
  2  3  4  0  0  0  0
  2 33  4  0  0  0  0
  3  4  1  0  0  0  0
  3 30  4  0  0  0  0
  4  5  1  0  0  0  0
  4  9  1  0  0  0  0
  5  6  1  0  0  0  0
  6  7  1  0  0  0  0
  7  8  1  0  0  0  0
  7 10  1  0  0  0  0
  8  9  1  0  0  0  0
 10 11  1  0  0  0  0
 11 12  2  0  0  0  0
 12 13  1  0  0  0  0
 13 14  1  0  0  0  0
 14 15  1  0  0  0  0
 15 16  2  0  0  0  0
 15 17  1  0  0  0  0
 17 18  4  0  0  0  0
 17 22  4  0  0  0  0
 18 19  4  0  0  0  0
 19 20  4  0  0  0  0
 20 21  4  0  0  0  0
 20 23  1  0  0  0  0
 21 22  4  0  0  0  0
 23 24  1  0  0  0  0
 23 29  2  0  0  0  0
 24 25  1  0  0  0  0
 25 26  2  0  0  0  0
 25 27  1  0  0  0  0
 27 28  2  0  0  0  0
 28 29  1  0  0  0  0
 30 31  4  0  0  0  0
 31 32  4  0  0  0  0
 32 33  4  0  0  0  0
 33 34  1  0  0  0  0
M  END
>  <Name_Molregno>
388321

>  <5-HT1A>
7.53

>  <5-HT2A>
7.81

>  <5-HT2C>
7.97

>  <DOPAMINE D2>
7.63

>  <DOPAMINE D3>
9.22

$$$$
388322
  Marvin  02231216192D 0   1.00000     0.00000     0

 34 37  0  0  0  0  0  0  0  0999 V2000
   -8.6886    2.9310    0.0000 Cl  0  0  0  0  0  0  0  0  0
   -8.6886    2.1060    0.0000 C   0  0  0  0  0  0  0  0  0
   -7.9741    1.6935    0.0000 C   0  0  0  0  0  0  0  0  0
   -7.2596    2.1060    0.0000 N   0  0  0  0  0  0  0  0  0
   -7.2596    2.9310    0.0000 C   0  0  0  0  0  0  0  0  0
   -6.5451    3.3435    0.0000 C   0  0  0  0  0  0  0  0  0
   -5.8307    2.9310    0.0000 N   0  0  0  0  0  0  0  0  0
   -5.8307    2.1060    0.0000 C   0  0  0  0  0  0  0  0  0
   -6.5451    1.6935    0.0000 C   0  0  0  0  0  0  0  0  0
   -5.1162    3.3435    0.0000 C   0  0  0  0  0  0  0  0  0
   -4.4017    2.9310    0.0000 C   0  0  0  0  0  0  0  0  0
   -4.4017    2.1060    0.0000 C   0  0  0  0  0  0  0  0  0
   -3.6873    1.6935    0.0000 C   0  0  0  0  0  0  0  0  0
   -3.6873    0.8685    0.0000 N   0  0  0  0  0  0  0  0  0
   -2.9728    0.4560    0.0000 C   0  0  0  0  0  0  0  0  0
   -2.2583    0.8685    0.0000 O   0  0  0  0  0  0  0  0  0
   -2.9728   -0.3690    0.0000 C   0  0  0  0  0  0  0  0  0
   -2.2583   -0.7815    0.0000 C   0  0  0  0  0  0  0  0  0
   -2.2583   -1.6065    0.0000 C   0  0  0  0  0  0  0  0  0
   -2.9728   -2.0190    0.0000 C   0  0  0  0  0  0  0  0  0
   -3.6873   -1.6065    0.0000 C   0  0  0  0  0  0  0  0  0
   -3.6873   -0.7815    0.0000 C   0  0  0  0  0  0  0  0  0
   -2.9728   -2.8440    0.0000 C   0  0  0  0  0  0  0  0  0
   -2.2583   -3.2565    0.0000 N   0  0  0  0  0  0  0  0  0
   -2.2583   -4.0815    0.0000 C   0  0  0  0  0  0  0  0  0
   -2.9728   -4.4940    0.0000 C   0  0  0  0  0  0  0  0  0
   -3.6873   -4.0815    0.0000 C   0  0  0  0  0  0  0  0  0
   -3.6873   -3.2565    0.0000 C   0  0  0  0  0  0  0  0  0
   -1.5438   -4.4940    0.0000 C   0  0  0  0  0  0  0  0  0
   -7.9741    0.8685    0.0000 C   0  0  0  0  0  0  0  0  0
   -8.6886    0.4560    0.0000 C   0  0  0  0  0  0  0  0  0
   -9.4030    0.8685    0.0000 C   0  0  0  0  0  0  0  0  0
   -9.4030    1.6935    0.0000 C   0  0  0  0  0  0  0  0  0
  -10.1175    2.1060    0.0000 Cl  0  0  0  0  0  0  0  0  0
  1  2  1  0  0  0  0
  2  3  4  0  0  0  0
  2 33  4  0  0  0  0
  3  4  1  0  0  0  0
  3 30  4  0  0  0  0
  4  5  1  0  0  0  0
  4  9  1  0  0  0  0
  5  6  1  0  0  0  0
  6  7  1  0  0  0  0
  7  8  1  0  0  0  0
  7 10  1  0  0  0  0
  8  9  1  0  0  0  0
 10 11  1  0  0  0  0
 11 12  2  0  0  0  0
 12 13  1  0  0  0  0
 13 14  1  0  0  0  0
 14 15  1  0  0  0  0
 15 16  2  0  0  0  0
 15 17  1  0  0  0  0
 17 18  4  0  0  0  0
 17 22  4  0  0  0  0
 18 19  4  0  0  0  0
 19 20  4  0  0  0  0
 20 21  4  0  0  0  0
 20 23  1  0  0  0  0
 21 22  4  0  0  0  0
 23 24  4  0  0  0  0
 23 28  4  0  0  0  0
 24 25  4  0  0  0  0
 25 26  4  0  0  0  0
 25 29  1  0  0  0  0
 26 27  4  0  0  0  0
 27 28  4  0  0  0  0
 30 31  4  0  0  0  0
 31 32  4  0  0  0  0
 32 33  4  0  0  0  0
 33 34  1  0  0  0  0
M  END
>  <Name_Molregno>
388322

>  <5-HT1A>
6.51

>  <5-HT2A>
7.03

>  <5-HT2C>
7.02

>  <DOPAMINE D2>
6.98

>  <DOPAMINE D3>
8.85

$$$$
388323
  Marvin  02231216192D 0   1.00000     0.00000     0

 34 37  0  0  0  0  0  0  0  0999 V2000
    1.5867    2.8685    0.0000 Cl  0  0  0  0  0  0  0  0  0
    1.5867    2.0435    0.0000 C   0  0  0  0  0  0  0  0  0
    2.3012    1.6310    0.0000 C   0  0  0  0  0  0  0  0  0
    3.0157    2.0435    0.0000 N   0  0  0  0  0  0  0  0  0
    3.0157    2.8685    0.0000 C   0  0  0  0  0  0  0  0  0
    3.7301    3.2810    0.0000 C   0  0  0  0  0  0  0  0  0
    4.4446    2.8685    0.0000 N   0  0  0  0  0  0  0  0  0
    4.4446    2.0435    0.0000 C   0  0  0  0  0  0  0  0  0
    3.7301    1.6310    0.0000 C   0  0  0  0  0  0  0  0  0
    5.1591    3.2810    0.0000 C   0  0  0  0  0  0  0  0  0
    5.8736    2.8685    0.0000 C   0  0  0  0  0  0  0  0  0
    5.8736    2.0435    0.0000 C   0  0  0  0  0  0  0  0  0
    6.5880    1.6310    0.0000 C   0  0  0  0  0  0  0  0  0
    6.5880    0.8060    0.0000 N   0  0  0  0  0  0  0  0  0
    7.3025    0.3935    0.0000 C   0  0  0  0  0  0  0  0  0
    8.0170    0.8060    0.0000 O   0  0  0  0  0  0  0  0  0
    7.3025   -0.4315    0.0000 C   0  0  0  0  0  0  0  0  0
    8.0170   -0.8440    0.0000 C   0  0  0  0  0  0  0  0  0
    8.0170   -1.6690    0.0000 C   0  0  0  0  0  0  0  0  0
    7.3025   -2.0815    0.0000 C   0  0  0  0  0  0  0  0  0
    6.5880   -1.6690    0.0000 C   0  0  0  0  0  0  0  0  0
    6.5880   -0.8440    0.0000 C   0  0  0  0  0  0  0  0  0
    7.3025   -2.9065    0.0000 C   0  0  0  0  0  0  0  0  0
    8.0170   -3.3190    0.0000 N   0  0  0  0  0  0  0  0  0
    8.0170   -4.1440    0.0000 C   0  0  0  0  0  0  0  0  0
    7.3025   -4.5565    0.0000 C   0  0  0  0  0  0  0  0  0
    6.5880   -4.1440    0.0000 C   0  0  0  0  0  0  0  0  0
    6.5880   -3.3190    0.0000 C   0  0  0  0  0  0  0  0  0
    5.8736   -2.9065    0.0000 C   0  0  0  0  0  0  0  0  0
    2.3012    0.8060    0.0000 C   0  0  0  0  0  0  0  0  0
    1.5867    0.3935    0.0000 C   0  0  0  0  0  0  0  0  0
    0.8723    0.8060    0.0000 C   0  0  0  0  0  0  0  0  0
    0.8723    1.6310    0.0000 C   0  0  0  0  0  0  0  0  0
    0.1578    2.0435    0.0000 Cl  0  0  0  0  0  0  0  0  0
  1  2  1  0  0  0  0
  2  3  4  0  0  0  0
  2 33  4  0  0  0  0
  3  4  1  0  0  0  0
  3 30  4  0  0  0  0
  4  5  1  0  0  0  0
  4  9  1  0  0  0  0
  5  6  1  0  0  0  0
  6  7  1  0  0  0  0
  7  8  1  0  0  0  0
  7 10  1  0  0  0  0
  8  9  1  0  0  0  0
 10 11  1  0  0  0  0
 11 12  2  0  0  0  0
 12 13  1  0  0  0  0
 13 14  1  0  0  0  0
 14 15  1  0  0  0  0
 15 16  2  0  0  0  0
 15 17  1  0  0  0  0
 17 18  4  0  0  0  0
 17 22  4  0  0  0  0
 18 19  4  0  0  0  0
 19 20  4  0  0  0  0
 20 21  4  0  0  0  0
 20 23  1  0  0  0  0
 21 22  4  0  0  0  0
 23 24  4  0  0  0  0
 23 28  4  0  0  0  0
 24 25  4  0  0  0  0
 25 26  4  0  0  0  0
 26 27  4  0  0  0  0
 27 28  4  0  0  0  0
 28 29  1  0  0  0  0
 30 31  4  0  0  0  0
 31 32  4  0  0  0  0
 32 33  4  0  0  0  0
 33 34  1  0  0  0  0
M  END
>  <Name_Molregno>
388323

>  <5-HT1A>
7.04

>  <5-HT2A>
7.33

>  <5-HT2C>
7.51

>  <DOPAMINE D2>
7.04

>  <DOPAMINE D3>
8.8

$$$$
388324
  Marvin  02231216192D 0   1.00000     0.00000     0

 34 37  0  0  0  0  0  0  0  0999 V2000
   -8.6474    2.8685    0.0000 Cl  0  0  0  0  0  0  0  0  0
   -8.6474    2.0435    0.0000 C   0  0  0  0  0  0  0  0  0
   -7.9329    1.6310    0.0000 C   0  0  0  0  0  0  0  0  0
   -7.2184    2.0435    0.0000 N   0  0  0  0  0  0  0  0  0
   -7.2184    2.8685    0.0000 C   0  0  0  0  0  0  0  0  0
   -6.5040    3.2810    0.0000 C   0  0  0  0  0  0  0  0  0
   -5.7895    2.8685    0.0000 N   0  0  0  0  0  0  0  0  0
   -5.7895    2.0435    0.0000 C   0  0  0  0  0  0  0  0  0
   -6.5040    1.6310    0.0000 C   0  0  0  0  0  0  0  0  0
   -5.0750    3.2810    0.0000 C   0  0  0  0  0  0  0  0  0
   -4.3606    2.8685    0.0000 C   0  0  0  0  0  0  0  0  0
   -4.3606    2.0435    0.0000 C   0  0  0  0  0  0  0  0  0
   -3.6461    1.6310    0.0000 C   0  0  0  0  0  0  0  0  0
   -3.6461    0.8060    0.0000 N   0  0  0  0  0  0  0  0  0
   -2.9316    0.3935    0.0000 C   0  0  0  0  0  0  0  0  0
   -2.2171    0.8060    0.0000 O   0  0  0  0  0  0  0  0  0
   -2.9316   -0.4315    0.0000 C   0  0  0  0  0  0  0  0  0
   -2.2171   -0.8440    0.0000 C   0  0  0  0  0  0  0  0  0
   -2.2171   -1.6690    0.0000 C   0  0  0  0  0  0  0  0  0
   -2.9316   -2.0815    0.0000 C   0  0  0  0  0  0  0  0  0
   -3.6461   -1.6690    0.0000 C   0  0  0  0  0  0  0  0  0
   -3.6461   -0.8440    0.0000 C   0  0  0  0  0  0  0  0  0
   -2.9316   -2.9065    0.0000 C   0  0  0  0  0  0  0  0  0
   -2.2171   -3.3190    0.0000 N   0  3  0  0  0  0  0  0  0
   -1.5027   -2.9065    0.0000 O   0  5  0  0  0  0  0  0  0
   -2.2171   -4.1440    0.0000 C   0  0  0  0  0  0  0  0  0
   -2.9316   -4.5565    0.0000 C   0  0  0  0  0  0  0  0  0
   -3.6461   -4.1440    0.0000 C   0  0  0  0  0  0  0  0  0
   -3.6461   -3.3190    0.0000 C   0  0  0  0  0  0  0  0  0
   -7.9329    0.8060    0.0000 C   0  0  0  0  0  0  0  0  0
   -8.6474    0.3935    0.0000 C   0  0  0  0  0  0  0  0  0
   -9.3619    0.8060    0.0000 C   0  0  0  0  0  0  0  0  0
   -9.3619    1.6310    0.0000 C   0  0  0  0  0  0  0  0  0
  -10.0763    2.0435    0.0000 Cl  0  0  0  0  0  0  0  0  0
  1  2  1  0  0  0  0
  2  3  4  0  0  0  0
  2 33  4  0  0  0  0
  3  4  1  0  0  0  0
  3 30  4  0  0  0  0
  4  5  1  0  0  0  0
  4  9  1  0  0  0  0
  5  6  1  0  0  0  0
  6  7  1  0  0  0  0
  7  8  1  0  0  0  0
  7 10  1  0  0  0  0
  8  9  1  0  0  0  0
 10 11  1  0  0  0  0
 11 12  2  0  0  0  0
 12 13  1  0  0  0  0
 13 14  1  0  0  0  0
 14 15  1  0  0  0  0
 15 16  2  0  0  0  0
 15 17  1  0  0  0  0
 17 18  4  0  0  0  0
 17 22  4  0  0  0  0
 18 19  4  0  0  0  0
 19 20  4  0  0  0  0
 20 21  4  0  0  0  0
 20 23  1  0  0  0  0
 21 22  4  0  0  0  0
 23 24  4  0  0  0  0
 23 29  4  0  0  0  0
 24 25  1  0  0  0  0
 24 26  4  0  0  0  0
 26 27  4  0  0  0  0
 27 28  4  0  0  0  0
 28 29  4  0  0  0  0
 30 31  4  0  0  0  0
 31 32  4  0  0  0  0
 32 33  4  0  0  0  0
 33 34  1  0  0  0  0
M  CHG  2  24   1  25  -1
M  END
>  <Name_Molregno>
388324

>  <5-HT1A>
7.22

>  <5-HT2A>
7.24

>  <5-HT2C>
7.13

>  <DOPAMINE D2>
7.59

>  <DOPAMINE D3>
8.96

$$$$
388325
  Marvin  02231216192D 0   1.00000     0.00000     0

 34 37  0  0  0  0  0  0  0  0999 V2000
   -0.2676   -1.5508    0.0000 Cl  0  0  0  0  0  0  0  0  0
   -0.2676   -2.3758    0.0000 C   0  0  0  0  0  0  0  0  0
    0.4469   -2.7883    0.0000 C   0  0  0  0  0  0  0  0  0
    1.1613   -2.3758    0.0000 N   0  0  0  0  0  0  0  0  0
    1.1613   -1.5508    0.0000 C   0  0  0  0  0  0  0  0  0
    1.8758   -1.1383    0.0000 C   0  0  0  0  0  0  0  0  0
    2.5903   -1.5508    0.0000 N   0  3  0  0  0  0  0  0  0
    2.8725   -0.7755    0.0000 O   0  5  0  0  0  0  0  0  0
    2.5903   -2.3758    0.0000 C   0  0  0  0  0  0  0  0  0
    1.8758   -2.7883    0.0000 C   0  0  0  0  0  0  0  0  0
    3.4028   -1.6940    0.0000 C   0  0  0  0  0  0  0  0  0
    3.9331   -1.0620    0.0000 C   0  0  0  0  0  0  0  0  0
    4.7455   -1.2053    0.0000 C   0  0  0  0  0  0  0  0  0
    5.2758   -0.5733    0.0000 C   0  0  0  0  0  0  0  0  0
    6.0883   -0.7166    0.0000 N   0  0  0  0  0  0  0  0  0
    6.6186   -0.0846    0.0000 C   0  0  0  0  0  0  0  0  0
    6.3364    0.6907    0.0000 O   0  0  0  0  0  0  0  0  0
    7.4311   -0.2278    0.0000 C   0  0  0  0  0  0  0  0  0
    7.9614    0.4042    0.0000 C   0  0  0  0  0  0  0  0  0
    8.7738    0.2609    0.0000 C   0  0  0  0  0  0  0  0  0
    9.0560   -0.5144    0.0000 C   0  0  0  0  0  0  0  0  0
    8.5257   -1.1463    0.0000 C   0  0  0  0  0  0  0  0  0
    7.7132   -1.0031    0.0000 C   0  0  0  0  0  0  0  0  0
    9.8685   -0.6576    0.0000 C   0  0  0  0  0  0  0  0  0
   10.3988   -0.0256    0.0000 N   0  0  0  0  0  0  0  0  0
   11.2112   -0.1689    0.0000 C   0  0  0  0  0  0  0  0  0
   11.4934   -0.9441    0.0000 C   0  0  0  0  0  0  0  0  0
   10.9631   -1.5761    0.0000 C   0  0  0  0  0  0  0  0  0
   10.1506   -1.4329    0.0000 C   0  0  0  0  0  0  0  0  0
    0.4469   -3.6133    0.0000 C   0  0  0  0  0  0  0  0  0
   -0.2676   -4.0258    0.0000 C   0  0  0  0  0  0  0  0  0
   -0.9821   -3.6133    0.0000 C   0  0  0  0  0  0  0  0  0
   -0.9821   -2.7883    0.0000 C   0  0  0  0  0  0  0  0  0
   -1.6965   -2.3758    0.0000 Cl  0  0  0  0  0  0  0  0  0
  1  2  1  0  0  0  0
  2  3  4  0  0  0  0
  2 33  4  0  0  0  0
  3  4  1  0  0  0  0
  3 30  4  0  0  0  0
  4  5  1  0  0  0  0
  4 10  1  0  0  0  0
  5  6  1  0  0  0  0
  6  7  1  0  0  0  0
  7  8  1  0  0  0  0
  7  9  1  0  0  0  0
  7 11  1  0  0  0  0
  9 10  1  0  0  0  0
 11 12  1  0  0  0  0
 12 13  2  0  0  0  0
 13 14  1  0  0  0  0
 14 15  1  0  0  0  0
 15 16  1  0  0  0  0
 16 17  2  0  0  0  0
 16 18  1  0  0  0  0
 18 19  4  0  0  0  0
 18 23  4  0  0  0  0
 19 20  4  0  0  0  0
 20 21  4  0  0  0  0
 21 22  4  0  0  0  0
 21 24  1  0  0  0  0
 22 23  4  0  0  0  0
 24 25  4  0  0  0  0
 24 29  4  0  0  0  0
 25 26  4  0  0  0  0
 26 27  4  0  0  0  0
 27 28  4  0  0  0  0
 28 29  4  0  0  0  0
 30 31  4  0  0  0  0
 31 32  4  0  0  0  0
 32 33  4  0  0  0  0
 33 34  1  0  0  0  0
M  CHG  2   7   1   8  -1
M  END
>  <Name_Molregno>
388325

>  <5-HT1A>
6.18

>  <5-HT2A>
6.98

>  <5-HT2C>
6.95

>  <DOPAMINE D2>
5.94

>  <DOPAMINE D3>
7.31

$$$$
388326
  Marvin  02231216192D 0   1.00000     0.00000     0

 33 36  0  0  0  0  0  0  0  0999 V2000
    0.1324    0.0160    0.0000 O   0  0  0  0  0  0  0  0  0
    0.8468    0.4285    0.0000 C   0  0  0  0  0  0  0  0  0
    0.1324   -0.8090    0.0000 C   0  0  0  0  0  0  0  0  0
    0.8468   -1.2215    0.0000 C   0  0  0  0  0  0  0  0  0
    0.8468   -2.0465    0.0000 C   0  0  0  0  0  0  0  0  0
    0.1324   -2.4590    0.0000 C   0  0  0  0  0  0  0  0  0
   -0.5821   -2.0465    0.0000 C   0  0  0  0  0  0  0  0  0
   -0.5821   -1.2215    0.0000 C   0  0  0  0  0  0  0  0  0
   -1.2966   -0.8090    0.0000 N   0  0  0  0  0  0  0  0  0
   -2.0111   -1.2215    0.0000 C   0  0  0  0  0  0  0  0  0
   -2.7255   -0.8090    0.0000 C   0  0  0  0  0  0  0  0  0
   -2.7255    0.0160    0.0000 N   0  0  0  0  0  0  0  0  0
   -2.0111    0.4285    0.0000 C   0  0  0  0  0  0  0  0  0
   -1.2966    0.0160    0.0000 C   0  0  0  0  0  0  0  0  0
   -3.4400    0.4285    0.0000 C   0  0  0  0  0  0  0  0  0
   -4.1545    0.0160    0.0000 C   0  0  0  0  0  0  0  0  0
   -4.8689    0.4285    0.0000 C   0  0  0  0  0  0  0  0  0
   -5.5834    0.0160    0.0000 C   0  0  0  0  0  0  0  0  0
   -6.2979    0.4285    0.0000 N   0  0  0  0  0  0  0  0  0
   -7.0124    0.0160    0.0000 C   0  0  0  0  0  0  0  0  0
   -7.0124   -0.8090    0.0000 O   0  0  0  0  0  0  0  0  0
   -7.7268    0.4285    0.0000 C   0  0  0  0  0  0  0  0  0
   -8.4413    0.0160    0.0000 C   0  0  0  0  0  0  0  0  0
   -9.1558    0.4285    0.0000 C   0  0  0  0  0  0  0  0  0
   -9.1558    1.2535    0.0000 C   0  0  0  0  0  0  0  0  0
   -8.4413    1.6660    0.0000 C   0  0  0  0  0  0  0  0  0
   -7.7268    1.2535    0.0000 C   0  0  0  0  0  0  0  0  0
   -9.8702    1.6660    0.0000 C   0  0  0  0  0  0  0  0  0
  -10.5847    1.2535    0.0000 N   0  0  0  0  0  0  0  0  0
  -11.2992    1.6660    0.0000 C   0  0  0  0  0  0  0  0  0
  -11.2992    2.4910    0.0000 C   0  0  0  0  0  0  0  0  0
  -10.5847    2.9035    0.0000 C   0  0  0  0  0  0  0  0  0
   -9.8702    2.4910    0.0000 C   0  0  0  0  0  0  0  0  0
  1  2  1  0  0  0  0
  1  3  1  0  0  0  0
  3  4  4  0  0  0  0
  3  8  4  0  0  0  0
  4  5  4  0  0  0  0
  5  6  4  0  0  0  0
  6  7  4  0  0  0  0
  7  8  4  0  0  0  0
  8  9  1  0  0  0  0
  9 10  1  0  0  0  0
  9 14  1  0  0  0  0
 10 11  1  0  0  0  0
 11 12  1  0  0  0  0
 12 13  1  0  0  0  0
 12 15  1  0  0  0  0
 13 14  1  0  0  0  0
 15 16  1  0  0  0  0
 16 17  2  0  0  0  0
 17 18  1  0  0  0  0
 18 19  1  0  0  0  0
 19 20  1  0  0  0  0
 20 21  2  0  0  0  0
 20 22  1  0  0  0  0
 22 23  4  0  0  0  0
 22 27  4  0  0  0  0
 23 24  4  0  0  0  0
 24 25  4  0  0  0  0
 25 26  4  0  0  0  0
 25 28  1  0  0  0  0
 26 27  4  0  0  0  0
 28 29  4  0  0  0  0
 28 33  4  0  0  0  0
 29 30  4  0  0  0  0
 30 31  4  0  0  0  0
 31 32  4  0  0  0  0
 32 33  4  0  0  0  0
M  END
>  <Name_Molregno>
388326

>  <5-HT1A>
7.66

>  <5-HT2A>
7.12

>  <5-HT2C>
6.59

>  <DOPAMINE D2>
7.16

>  <DOPAMINE D3>
8.54

$$$$
388327
  Marvin  02231216192D 0   1.00000     0.00000     0

 34 38  0  0  0  0  0  0  0  0999 V2000
   -8.4799   -3.3542    0.0000 O   0  0  0  0  0  0  0  0  0
   -8.7349   -4.1389    0.0000 C   0  0  0  0  0  0  0  0  0
   -9.0320   -2.7411    0.0000 C   0  0  0  0  0  0  0  0  0
   -9.8389   -2.9127    0.0000 C   0  0  0  0  0  0  0  0  0
  -10.3910   -2.2996    0.0000 C   0  0  0  0  0  0  0  0  0
  -10.1360   -1.5150    0.0000 C   0  0  0  0  0  0  0  0  0
   -9.3291   -1.3434    0.0000 C   0  0  0  0  0  0  0  0  0
   -8.7770   -1.9565    0.0000 C   0  0  0  0  0  0  0  0  0
   -7.9700   -1.7850    0.0000 N   0  0  0  0  0  0  0  0  0
   -7.7151   -1.0004    0.0000 C   0  0  0  0  0  0  0  0  0
   -6.9081   -0.8288    0.0000 C   0  0  0  0  0  0  0  0  0
   -6.3561   -1.4419    0.0000 N   0  0  0  0  0  0  0  0  0
   -6.6110   -2.2266    0.0000 C   0  0  0  0  0  0  0  0  0
   -7.4180   -2.3981    0.0000 C   0  0  0  0  0  0  0  0  0
   -5.5491   -1.2704    0.0000 C   0  0  0  0  0  0  0  0  0
   -5.2942   -0.4858    0.0000 C   0  0  0  0  0  0  0  0  0
   -4.4872   -0.3143    0.0000 C   0  0  0  0  0  0  0  0  0
   -4.2323    0.4704    0.0000 C   0  0  0  0  0  0  0  0  0
   -4.7843    1.0834    0.0000 N   0  0  0  0  0  0  0  0  0
   -4.5294    1.8681    0.0000 C   0  0  0  0  0  0  0  0  0
   -5.0814    2.4812    0.0000 O   0  0  0  0  0  0  0  0  0
   -3.7224    2.0396    0.0000 C   0  0  0  0  0  0  0  0  0
   -3.1704    1.4265    0.0000 C   0  0  0  0  0  0  0  0  0
   -2.3634    1.5980    0.0000 C   0  0  0  0  0  0  0  0  0
   -1.6960    1.1131    0.0000 C   0  0  0  0  0  0  0  0  0
   -1.0285    1.5980    0.0000 C   0  0  0  0  0  0  0  0  0
   -1.2835    2.3827    0.0000 C   0  0  0  0  0  0  0  0  0
   -2.1085    2.3827    0.0000 C   0  0  0  0  0  0  0  0  0
   -2.6605    2.9957    0.0000 C   0  0  0  0  0  0  0  0  0
   -3.4675    2.8242    0.0000 C   0  0  0  0  0  0  0  0  0
   -0.7314    2.9957    0.0000 C   0  0  0  0  0  0  0  0  0
    0.0755    2.8242    0.0000 C   0  0  0  0  0  0  0  0  0
    0.3305    2.0396    0.0000 C   0  0  0  0  0  0  0  0  0
   -0.2216    1.4265    0.0000 C   0  0  0  0  0  0  0  0  0
  1  2  1  0  0  0  0
  1  3  1  0  0  0  0
  3  4  4  0  0  0  0
  3  8  4  0  0  0  0
  4  5  4  0  0  0  0
  5  6  4  0  0  0  0
  6  7  4  0  0  0  0
  7  8  4  0  0  0  0
  8  9  1  0  0  0  0
  9 10  1  0  0  0  0
  9 14  1  0  0  0  0
 10 11  1  0  0  0  0
 11 12  1  0  0  0  0
 12 13  1  0  0  0  0
 12 15  1  0  0  0  0
 13 14  1  0  0  0  0
 15 16  1  0  0  0  0
 16 17  2  0  0  0  0
 17 18  1  0  0  0  0
 18 19  1  0  0  0  0
 19 20  1  0  0  0  0
 20 21  2  0  0  0  0
 20 22  1  0  0  0  0
 22 23  4  0  0  0  0
 22 30  4  0  0  0  0
 23 24  4  0  0  0  0
 24 25  1  0  0  0  0
 24 28  4  0  0  0  0
 25 26  1  0  0  0  0
 26 27  4  0  0  0  0
 26 34  4  0  0  0  0
 27 28  1  0  0  0  0
 27 31  4  0  0  0  0
 28 29  4  0  0  0  0
 29 30  4  0  0  0  0
 31 32  4  0  0  0  0
 32 33  4  0  0  0  0
 33 34  4  0  0  0  0
M  END
>  <Name_Molregno>
388327

>  <5-HT1A>
7.14

>  <5-HT2A>
7.18

>  <5-HT2C>
6.75

>  <DOPAMINE D2>
7.32

>  <DOPAMINE D3>
8.92

$$$$
388328
  Marvin  02231216192D 0   1.00000     0.00000     0

 34 37  0  0  1  0  0  0  0  0999 V2000
   -0.1300   -0.0292    0.0000 Cl  0  0  0  0  0  0  0  0  0
   -0.1300   -0.8542    0.0000 C   0  0  0  0  0  0  0  0  0
    0.5845   -1.2667    0.0000 C   0  0  0  0  0  0  0  0  0
    1.2990   -0.8542    0.0000 N   0  0  0  0  0  0  0  0  0
    1.2990   -0.0292    0.0000 C   0  0  0  0  0  0  0  0  0
    2.0134    0.3833    0.0000 C   0  0  0  0  0  0  0  0  0
    2.7279   -0.0292    0.0000 N   0  0  0  0  0  0  0  0  0
    2.7279   -0.8542    0.0000 C   0  0  0  0  0  0  0  0  0
    2.0134   -1.2667    0.0000 C   0  0  0  0  0  0  0  0  0
    3.4424    0.3833    0.0000 C   0  0  0  0  0  0  0  0  0
    4.1568   -0.0292    0.0000 C   0  0  0  0  0  0  0  0  0
    4.1568   -0.8542    0.0000 O   0  0  0  0  0  0  0  0  0
    4.8713    0.3833    0.0000 C   0  0  0  0  0  0  0  0  0
    5.5858   -0.0292    0.0000 C   0  0  0  0  0  0  0  0  0
    6.3003    0.3833    0.0000 N   0  0  0  0  0  0  0  0  0
    7.0147   -0.0292    0.0000 C   0  0  0  0  0  0  0  0  0
    7.0147   -0.8542    0.0000 O   0  0  0  0  0  0  0  0  0
    7.7292    0.3833    0.0000 C   0  0  0  0  0  0  0  0  0
    7.7292    1.2083    0.0000 C   0  0  0  0  0  0  0  0  0
    8.4437    1.6208    0.0000 C   0  0  0  0  0  0  0  0  0
    9.1581    1.2083    0.0000 C   0  0  0  0  0  0  0  0  0
    9.1581    0.3833    0.0000 C   0  0  0  0  0  0  0  0  0
    8.4437   -0.0292    0.0000 C   0  0  0  0  0  0  0  0  0
    9.8726    1.6208    0.0000 C   0  0  0  0  0  0  0  0  0
    9.8726    2.4458    0.0000 N   0  0  0  0  0  0  0  0  0
   10.5871    2.8583    0.0000 C   0  0  0  0  0  0  0  0  0
   11.3016    2.4458    0.0000 C   0  0  0  0  0  0  0  0  0
   11.3016    1.6208    0.0000 C   0  0  0  0  0  0  0  0  0
   10.5871    1.2083    0.0000 C   0  0  0  0  0  0  0  0  0
    0.5845   -2.0917    0.0000 C   0  0  0  0  0  0  0  0  0
   -0.1300   -2.5042    0.0000 C   0  0  0  0  0  0  0  0  0
   -0.8444   -2.0917    0.0000 C   0  0  0  0  0  0  0  0  0
   -0.8444   -1.2667    0.0000 C   0  0  0  0  0  0  0  0  0
   -1.5589   -0.8542    0.0000 Cl  0  0  0  0  0  0  0  0  0
  1  2  1  0  0  0  0
  2  3  4  0  0  0  0
  2 33  4  0  0  0  0
  3  4  1  0  0  0  0
  3 30  4  0  0  0  0
  4  5  1  0  0  0  0
  4  9  1  0  0  0  0
  5  6  1  0  0  0  0
  6  7  1  0  0  0  0
  7  8  1  0  0  0  0
  7 10  1  0  0  0  0
  8  9  1  0  0  0  0
 10 11  1  0  0  0  0
 11 12  1  0  0  0  0
 11 13  1  0  0  0  0
 13 14  1  0  0  0  0
 14 15  1  0  0  0  0
 15 16  1  0  0  0  0
 16 17  2  0  0  0  0
 16 18  1  0  0  0  0
 18 19  4  0  0  0  0
 18 23  4  0  0  0  0
 19 20  4  0  0  0  0
 20 21  4  0  0  0  0
 21 22  4  0  0  0  0
 21 24  1  0  0  0  0
 22 23  4  0  0  0  0
 24 25  4  0  0  0  0
 24 29  4  0  0  0  0
 25 26  4  0  0  0  0
 26 27  4  0  0  0  0
 27 28  4  0  0  0  0
 28 29  4  0  0  0  0
 30 31  4  0  0  0  0
 31 32  4  0  0  0  0
 32 33  4  0  0  0  0
 33 34  1  0  0  0  0
M  END
>  <Name_Molregno>
388328

>  <5-HT1A>
7.46

>  <5-HT2A>
7.37

>  <5-HT2C>
6.94

>  <DOPAMINE D2>
6.57

>  <DOPAMINE D3>
8.52

>  <DOPAMINE D4>
5.34

$$$$
388330
  Marvin  02231216192D 0   1.00000     0.00000     0

 35 39  0  0  1  0  0  0  0  0999 V2000
  -10.2586   -0.0048    0.0000 Cl  0  0  0  0  0  0  0  0  0
  -10.2586   -0.8298    0.0000 C   0  0  0  0  0  0  0  0  0
   -9.5441   -1.2423    0.0000 C   0  0  0  0  0  0  0  0  0
   -8.8297   -0.8298    0.0000 N   0  0  0  0  0  0  0  0  0
   -8.8297   -0.0048    0.0000 C   0  0  0  0  0  0  0  0  0
   -8.1152    0.4077    0.0000 C   0  0  0  0  0  0  0  0  0
   -7.4007   -0.0048    0.0000 N   0  0  0  0  0  0  0  0  0
   -7.4007   -0.8298    0.0000 C   0  0  0  0  0  0  0  0  0
   -8.1152   -1.2423    0.0000 C   0  0  0  0  0  0  0  0  0
   -6.6862    0.4077    0.0000 C   0  0  0  0  0  0  0  0  0
   -5.9718   -0.0048    0.0000 C   0  0  0  0  0  0  0  0  0
   -5.9718   -0.8298    0.0000 O   0  0  0  0  0  0  0  0  0
   -5.2573    0.4077    0.0000 C   0  0  0  0  0  0  0  0  0
   -4.5428   -0.0048    0.0000 C   0  0  0  0  0  0  0  0  0
   -3.8284    0.4077    0.0000 N   0  0  0  0  0  0  0  0  0
   -3.1139   -0.0048    0.0000 C   0  0  0  0  0  0  0  0  0
   -3.1139   -0.8298    0.0000 O   0  0  0  0  0  0  0  0  0
   -2.3994    0.4077    0.0000 C   0  0  0  0  0  0  0  0  0
   -1.6850   -0.0048    0.0000 C   0  0  0  0  0  0  0  0  0
   -0.9705    0.4077    0.0000 C   0  0  0  0  0  0  0  0  0
   -0.1859    0.1527    0.0000 C   0  0  0  0  0  0  0  0  0
    0.2991    0.8202    0.0000 C   0  0  0  0  0  0  0  0  0
   -0.1859    1.4876    0.0000 C   0  0  0  0  0  0  0  0  0
   -0.9705    1.2327    0.0000 C   0  0  0  0  0  0  0  0  0
   -1.6850    1.6452    0.0000 C   0  0  0  0  0  0  0  0  0
   -2.3994    1.2327    0.0000 C   0  0  0  0  0  0  0  0  0
    0.1497    2.2413    0.0000 C   0  0  0  0  0  0  0  0  0
    0.9702    2.3275    0.0000 C   0  0  0  0  0  0  0  0  0
    1.4551    1.6601    0.0000 C   0  0  0  0  0  0  0  0  0
    1.1195    0.9064    0.0000 C   0  0  0  0  0  0  0  0  0
   -9.5441   -2.0673    0.0000 C   0  0  0  0  0  0  0  0  0
  -10.2586   -2.4798    0.0000 C   0  0  0  0  0  0  0  0  0
  -10.9731   -2.0673    0.0000 C   0  0  0  0  0  0  0  0  0
  -10.9731   -1.2423    0.0000 C   0  0  0  0  0  0  0  0  0
  -11.6875   -0.8298    0.0000 Cl  0  0  0  0  0  0  0  0  0
  1  2  1  0  0  0  0
  2  3  4  0  0  0  0
  2 34  4  0  0  0  0
  3  4  1  0  0  0  0
  3 31  4  0  0  0  0
  4  5  1  0  0  0  0
  4  9  1  0  0  0  0
  5  6  1  0  0  0  0
  6  7  1  0  0  0  0
  7  8  1  0  0  0  0
  7 10  1  0  0  0  0
  8  9  1  0  0  0  0
 10 11  1  0  0  0  0
 11 12  1  0  0  0  0
 11 13  1  0  0  0  0
 13 14  1  0  0  0  0
 14 15  1  0  0  0  0
 15 16  1  0  0  0  0
 16 17  2  0  0  0  0
 16 18  1  0  0  0  0
 18 19  4  0  0  0  0
 18 26  4  0  0  0  0
 19 20  4  0  0  0  0
 20 21  1  0  0  0  0
 20 24  4  0  0  0  0
 21 22  1  0  0  0  0
 22 23  4  0  0  0  0
 22 30  4  0  0  0  0
 23 24  1  0  0  0  0
 23 27  4  0  0  0  0
 24 25  4  0  0  0  0
 25 26  4  0  0  0  0
 27 28  4  0  0  0  0
 28 29  4  0  0  0  0
 29 30  4  0  0  0  0
 31 32  4  0  0  0  0
 32 33  4  0  0  0  0
 33 34  4  0  0  0  0
 34 35  1  0  0  0  0
M  END
>  <Name_Molregno>
388330

>  <5-HT1A>
5.74

>  <5-HT2A>
6.26

>  <5-HT2C>
5.55

>  <DOPAMINE D2>
6.5

>  <DOPAMINE D3>
8.74

$$$$
388332
  Marvin  02231216192D 0   1.00000     0.00000     0

 34 37  0  0  1  0  0  0  0  0999 V2000
   -9.9552    0.3013    0.0000 O   0  0  0  0  0  0  0  0  0
  -10.6697   -0.1112    0.0000 C   0  0  0  0  0  0  0  0  0
   -9.9552    1.1263    0.0000 C   0  0  0  0  0  0  0  0  0
  -10.6697    1.5388    0.0000 C   0  0  0  0  0  0  0  0  0
  -10.6697    2.3638    0.0000 C   0  0  0  0  0  0  0  0  0
   -9.9552    2.7763    0.0000 C   0  0  0  0  0  0  0  0  0
   -9.2407    2.3638    0.0000 C   0  0  0  0  0  0  0  0  0
   -9.2407    1.5388    0.0000 C   0  0  0  0  0  0  0  0  0
   -8.5263    1.1263    0.0000 N   0  0  0  0  0  0  0  0  0
   -7.8118    1.5388    0.0000 C   0  0  0  0  0  0  0  0  0
   -7.0973    1.1263    0.0000 C   0  0  0  0  0  0  0  0  0
   -7.0973    0.3013    0.0000 N   0  0  0  0  0  0  0  0  0
   -7.8118   -0.1112    0.0000 C   0  0  0  0  0  0  0  0  0
   -8.5263    0.3013    0.0000 C   0  0  0  0  0  0  0  0  0
   -6.3828   -0.1112    0.0000 C   0  0  0  0  0  0  0  0  0
   -5.6684    0.3013    0.0000 C   0  0  0  0  0  0  0  0  0
   -5.6684    1.1263    0.0000 O   0  0  0  0  0  0  0  0  0
   -4.9539   -0.1112    0.0000 C   0  0  0  0  0  0  0  0  0
   -4.2394    0.3013    0.0000 C   0  0  0  0  0  0  0  0  0
   -3.5250   -0.1112    0.0000 N   0  0  0  0  0  0  0  0  0
   -2.8105    0.3013    0.0000 C   0  0  0  0  0  0  0  0  0
   -2.8105    1.1263    0.0000 O   0  0  0  0  0  0  0  0  0
   -2.0960   -0.1112    0.0000 C   0  0  0  0  0  0  0  0  0
   -1.3815    0.3013    0.0000 C   0  0  0  0  0  0  0  0  0
   -0.6671   -0.1112    0.0000 C   0  0  0  0  0  0  0  0  0
   -0.6671   -0.9362    0.0000 C   0  0  0  0  0  0  0  0  0
   -1.3815   -1.3487    0.0000 C   0  0  0  0  0  0  0  0  0
   -2.0960   -0.9362    0.0000 C   0  0  0  0  0  0  0  0  0
    0.0474   -1.3487    0.0000 C   0  0  0  0  0  0  0  0  0
    0.7619   -0.9362    0.0000 N   0  0  0  0  0  0  0  0  0
    1.4763   -1.3487    0.0000 C   0  0  0  0  0  0  0  0  0
    1.4763   -2.1737    0.0000 C   0  0  0  0  0  0  0  0  0
    0.7619   -2.5862    0.0000 C   0  0  0  0  0  0  0  0  0
    0.0474   -2.1737    0.0000 C   0  0  0  0  0  0  0  0  0
  1  2  1  0  0  0  0
  1  3  1  0  0  0  0
  3  4  4  0  0  0  0
  3  8  4  0  0  0  0
  4  5  4  0  0  0  0
  5  6  4  0  0  0  0
  6  7  4  0  0  0  0
  7  8  4  0  0  0  0
  8  9  1  0  0  0  0
  9 10  1  0  0  0  0
  9 14  1  0  0  0  0
 10 11  1  0  0  0  0
 11 12  1  0  0  0  0
 12 13  1  0  0  0  0
 12 15  1  0  0  0  0
 13 14  1  0  0  0  0
 15 16  1  0  0  0  0
 16 17  1  0  0  0  0
 16 18  1  0  0  0  0
 18 19  1  0  0  0  0
 19 20  1  0  0  0  0
 20 21  1  0  0  0  0
 21 22  2  0  0  0  0
 21 23  1  0  0  0  0
 23 24  4  0  0  0  0
 23 28  4  0  0  0  0
 24 25  4  0  0  0  0
 25 26  4  0  0  0  0
 26 27  4  0  0  0  0
 26 29  1  0  0  0  0
 27 28  4  0  0  0  0
 29 30  4  0  0  0  0
 29 34  4  0  0  0  0
 30 31  4  0  0  0  0
 31 32  4  0  0  0  0
 32 33  4  0  0  0  0
 33 34  4  0  0  0  0
M  END
>  <Name_Molregno>
388332

>  <5-HT1A>
7.44

>  <5-HT2A>
6.16

>  <5-HT2C>
5.4

>  <DOPAMINE D2>
6.55

>  <DOPAMINE D3>
8.55

>  <DOPAMINE D4>
5.83

$$$$
388336
  Marvin  02231216192D 0   1.00000     0.00000     0

 35 39  0  0  1  0  0  0  0  0999 V2000
   -8.3216   -2.2511    0.0000 O   0  0  0  0  0  0  0  0  0
   -8.3216   -3.0761    0.0000 C   0  0  0  0  0  0  0  0  0
   -9.0361   -1.8386    0.0000 C   0  0  0  0  0  0  0  0  0
   -9.7506   -2.2511    0.0000 C   0  0  0  0  0  0  0  0  0
  -10.4651   -1.8386    0.0000 C   0  0  0  0  0  0  0  0  0
  -10.4651   -1.0136    0.0000 C   0  0  0  0  0  0  0  0  0
   -9.7506   -0.6011    0.0000 C   0  0  0  0  0  0  0  0  0
   -9.0361   -1.0136    0.0000 C   0  0  0  0  0  0  0  0  0
   -8.3216   -0.6011    0.0000 N   0  0  0  0  0  0  0  0  0
   -8.3216    0.2239    0.0000 C   0  0  0  0  0  0  0  0  0
   -7.6072    0.6364    0.0000 C   0  0  0  0  0  0  0  0  0
   -6.8927    0.2239    0.0000 N   0  0  0  0  0  0  0  0  0
   -6.8927   -0.6011    0.0000 C   0  0  0  0  0  0  0  0  0
   -7.6072   -1.0136    0.0000 C   0  0  0  0  0  0  0  0  0
   -6.1782    0.6364    0.0000 C   0  0  0  0  0  0  0  0  0
   -5.4638    0.2239    0.0000 C   0  0  0  0  0  0  0  0  0
   -5.4638   -0.6011    0.0000 O   0  0  0  0  0  0  0  0  0
   -4.7493    0.6364    0.0000 C   0  0  0  0  0  0  0  0  0
   -4.0348    0.2239    0.0000 C   0  0  0  0  0  0  0  0  0
   -3.3203    0.6364    0.0000 N   0  0  0  0  0  0  0  0  0
   -2.6059    0.2239    0.0000 C   0  0  0  0  0  0  0  0  0
   -2.6059   -0.6011    0.0000 O   0  0  0  0  0  0  0  0  0
   -1.8914    0.6364    0.0000 C   0  0  0  0  0  0  0  0  0
   -1.1769    0.2239    0.0000 C   0  0  0  0  0  0  0  0  0
   -0.4625    0.6364    0.0000 C   0  0  0  0  0  0  0  0  0
    0.3222    0.3815    0.0000 C   0  0  0  0  0  0  0  0  0
    0.8071    1.0489    0.0000 C   0  0  0  0  0  0  0  0  0
    0.3222    1.7163    0.0000 C   0  0  0  0  0  0  0  0  0
   -0.4625    1.4614    0.0000 C   0  0  0  0  0  0  0  0  0
   -1.1769    1.8739    0.0000 C   0  0  0  0  0  0  0  0  0
   -1.8914    1.4614    0.0000 C   0  0  0  0  0  0  0  0  0
    0.6577    2.4700    0.0000 C   0  0  0  0  0  0  0  0  0
    1.4782    2.5562    0.0000 C   0  0  0  0  0  0  0  0  0
    1.9631    1.8888    0.0000 C   0  0  0  0  0  0  0  0  0
    1.6276    1.1351    0.0000 C   0  0  0  0  0  0  0  0  0
  1  2  1  0  0  0  0
  1  3  1  0  0  0  0
  3  4  4  0  0  0  0
  3  8  4  0  0  0  0
  4  5  4  0  0  0  0
  5  6  4  0  0  0  0
  6  7  4  0  0  0  0
  7  8  4  0  0  0  0
  8  9  1  0  0  0  0
  9 10  1  0  0  0  0
  9 14  1  0  0  0  0
 10 11  1  0  0  0  0
 11 12  1  0  0  0  0
 12 13  1  0  0  0  0
 12 15  1  0  0  0  0
 13 14  1  0  0  0  0
 15 16  1  0  0  0  0
 16 17  1  0  0  0  0
 16 18  1  0  0  0  0
 18 19  1  0  0  0  0
 19 20  1  0  0  0  0
 20 21  1  0  0  0  0
 21 22  2  0  0  0  0
 21 23  1  0  0  0  0
 23 24  4  0  0  0  0
 23 31  4  0  0  0  0
 24 25  4  0  0  0  0
 25 26  1  0  0  0  0
 25 29  4  0  0  0  0
 26 27  1  0  0  0  0
 27 28  4  0  0  0  0
 27 35  4  0  0  0  0
 28 29  1  0  0  0  0
 28 32  4  0  0  0  0
 29 30  4  0  0  0  0
 30 31  4  0  0  0  0
 32 33  4  0  0  0  0
 33 34  4  0  0  0  0
 34 35  4  0  0  0  0
M  END
>  <Name_Molregno>
388336

>  <DOPAMINE D2>
6.6

>  <DOPAMINE D3>
8.74

>  <DOPAMINE D4>
5.91

$$$$
388337
  Marvin  02231216192D 0   1.00000     0.00000     0

 37 40  0  0  1  0  0  0  0  0999 V2000
   -7.2387    2.0399    0.0000 Cl  0  0  0  0  0  0  0  0  0
   -7.6512    1.3254    0.0000 C   0  0  0  0  0  0  0  0  0
   -7.2387    0.6109    0.0000 C   0  0  0  0  0  0  0  0  0
   -6.4137    0.6109    0.0000 N   0  0  0  0  0  0  0  0  0
   -6.0012    1.3254    0.0000 C   0  0  0  0  0  0  0  0  0
   -5.1762    1.3254    0.0000 C   0  0  0  0  0  0  0  0  0
   -4.7637    0.6109    0.0000 N   0  0  0  0  0  0  0  0  0
   -5.1762   -0.1036    0.0000 C   0  0  0  0  0  0  0  0  0
   -6.0012   -0.1036    0.0000 C   0  0  0  0  0  0  0  0  0
   -3.9387    0.6109    0.0000 C   0  0  0  0  0  0  0  0  0
   -3.5262   -0.1036    0.0000 C   0  0  0  0  0  0  0  0  0
   -3.9387   -0.8180    0.0000 O   0  0  0  0  0  0  0  0  0
   -3.5262   -1.5325    0.0000 C   0  0  0  0  0  0  0  0  0
   -2.7012   -1.5325    0.0000 O   0  0  0  0  0  0  0  0  0
   -3.9387   -2.2470    0.0000 C   0  0  0  0  0  0  0  0  0
   -2.7012   -0.1036    0.0000 C   0  0  0  0  0  0  0  0  0
   -2.2887   -0.8180    0.0000 C   0  0  0  0  0  0  0  0  0
   -1.4637   -0.8180    0.0000 N   0  0  0  0  0  0  0  0  0
   -1.0512   -1.5325    0.0000 C   0  0  0  0  0  0  0  0  0
   -0.2262   -1.5325    0.0000 O   0  0  0  0  0  0  0  0  0
   -1.4637   -2.2470    0.0000 C   0  0  0  0  0  0  0  0  0
   -1.0512   -2.9614    0.0000 C   0  0  0  0  0  0  0  0  0
   -1.4637   -3.6759    0.0000 C   0  0  0  0  0  0  0  0  0
   -2.2887   -3.6759    0.0000 C   0  0  0  0  0  0  0  0  0
   -2.7012   -2.9614    0.0000 C   0  0  0  0  0  0  0  0  0
   -2.2887   -2.2470    0.0000 C   0  0  0  0  0  0  0  0  0
   -2.7012   -4.3904    0.0000 C   0  0  0  0  0  0  0  0  0
   -2.2887   -5.1049    0.0000 N   0  0  0  0  0  0  0  0  0
   -2.7012   -5.8193    0.0000 C   0  0  0  0  0  0  0  0  0
   -3.5262   -5.8193    0.0000 C   0  0  0  0  0  0  0  0  0
   -3.9387   -5.1049    0.0000 C   0  0  0  0  0  0  0  0  0
   -3.5262   -4.3904    0.0000 C   0  0  0  0  0  0  0  0  0
   -7.6512   -0.1036    0.0000 C   0  0  0  0  0  0  0  0  0
   -8.4762   -0.1036    0.0000 C   0  0  0  0  0  0  0  0  0
   -8.8887    0.6109    0.0000 C   0  0  0  0  0  0  0  0  0
   -8.4762    1.3254    0.0000 C   0  0  0  0  0  0  0  0  0
   -8.8887    2.0399    0.0000 Cl  0  0  0  0  0  0  0  0  0
  1  2  1  0  0  0  0
  2  3  4  0  0  0  0
  2 36  4  0  0  0  0
  3  4  1  0  0  0  0
  3 33  4  0  0  0  0
  4  5  1  0  0  0  0
  4  9  1  0  0  0  0
  5  6  1  0  0  0  0
  6  7  1  0  0  0  0
  7  8  1  0  0  0  0
  7 10  1  0  0  0  0
  8  9  1  0  0  0  0
 10 11  1  0  0  0  0
 11 12  1  0  0  0  0
 11 16  1  0  0  0  0
 12 13  1  0  0  0  0
 13 14  2  0  0  0  0
 13 15  1  0  0  0  0
 16 17  1  0  0  0  0
 17 18  1  0  0  0  0
 18 19  1  0  0  0  0
 19 20  2  0  0  0  0
 19 21  1  0  0  0  0
 21 22  4  0  0  0  0
 21 26  4  0  0  0  0
 22 23  4  0  0  0  0
 23 24  4  0  0  0  0
 24 25  4  0  0  0  0
 24 27  1  0  0  0  0
 25 26  4  0  0  0  0
 27 28  4  0  0  0  0
 27 32  4  0  0  0  0
 28 29  4  0  0  0  0
 29 30  4  0  0  0  0
 30 31  4  0  0  0  0
 31 32  4  0  0  0  0
 33 34  4  0  0  0  0
 34 35  4  0  0  0  0
 35 36  4  0  0  0  0
 36 37  1  0  0  0  0
M  END
>  <Name_Molregno>
388337

>  <5-HT1A>
6.93

>  <5-HT2A>
7.05

>  <5-HT2C>
7.07

>  <DOPAMINE D2>
6.87

>  <DOPAMINE D3>
7.93

$$$$
388338
  Marvin  02231216192D 0   1.00000     0.00000     0

 34 37  0  0  1  0  0  0  0  0999 V2000
   -9.9564   -0.0271    0.0000 Cl  0  0  0  0  0  0  0  0  0
   -9.9564   -0.8521    0.0000 C   0  0  0  0  0  0  0  0  0
   -9.2419   -1.2646    0.0000 C   0  0  0  0  0  0  0  0  0
   -8.5275   -0.8521    0.0000 N   0  0  0  0  0  0  0  0  0
   -8.5275   -0.0271    0.0000 C   0  0  0  0  0  0  0  0  0
   -7.8130    0.3854    0.0000 C   0  0  0  0  0  0  0  0  0
   -7.0985   -0.0271    0.0000 N   0  0  0  0  0  0  0  0  0
   -7.0985   -0.8521    0.0000 C   0  0  0  0  0  0  0  0  0
   -7.8130   -1.2646    0.0000 C   0  0  0  0  0  0  0  0  0
   -6.3841    0.3854    0.0000 C   0  0  0  0  0  0  0  0  0
   -5.6696   -0.0271    0.0000 C   0  0  0  0  0  0  0  0  0
   -4.9551    0.3854    0.0000 C   0  0  0  0  0  0  0  0  0
   -4.9551    1.2104    0.0000 O   0  0  0  0  0  0  0  0  0
   -4.2406   -0.0271    0.0000 C   0  0  0  0  0  0  0  0  0
   -3.5262    0.3854    0.0000 N   0  0  0  0  0  0  0  0  0
   -2.8117   -0.0271    0.0000 C   0  0  0  0  0  0  0  0  0
   -2.8117   -0.8521    0.0000 O   0  0  0  0  0  0  0  0  0
   -2.0972    0.3854    0.0000 C   0  0  0  0  0  0  0  0  0
   -2.0972    1.2104    0.0000 C   0  0  0  0  0  0  0  0  0
   -1.3828    1.6229    0.0000 C   0  0  0  0  0  0  0  0  0
   -0.6683    1.2104    0.0000 C   0  0  0  0  0  0  0  0  0
   -0.6683    0.3854    0.0000 C   0  0  0  0  0  0  0  0  0
   -1.3828   -0.0271    0.0000 C   0  0  0  0  0  0  0  0  0
    0.0462    1.6229    0.0000 C   0  0  0  0  0  0  0  0  0
    0.0462    2.4479    0.0000 N   0  0  0  0  0  0  0  0  0
    0.7607    2.8604    0.0000 C   0  0  0  0  0  0  0  0  0
    1.4751    2.4479    0.0000 C   0  0  0  0  0  0  0  0  0
    1.4751    1.6229    0.0000 C   0  0  0  0  0  0  0  0  0
    0.7607    1.2104    0.0000 C   0  0  0  0  0  0  0  0  0
   -9.2419   -2.0896    0.0000 C   0  0  0  0  0  0  0  0  0
   -9.9564   -2.5021    0.0000 C   0  0  0  0  0  0  0  0  0
  -10.6709   -2.0896    0.0000 C   0  0  0  0  0  0  0  0  0
  -10.6709   -1.2646    0.0000 C   0  0  0  0  0  0  0  0  0
  -11.3853   -0.8521    0.0000 Cl  0  0  0  0  0  0  0  0  0
  1  2  1  0  0  0  0
  2  3  4  0  0  0  0
  2 33  4  0  0  0  0
  3  4  1  0  0  0  0
  3 30  4  0  0  0  0
  4  5  1  0  0  0  0
  4  9  1  0  0  0  0
  5  6  1  0  0  0  0
  6  7  1  0  0  0  0
  7  8  1  0  0  0  0
  7 10  1  0  0  0  0
  8  9  1  0  0  0  0
 10 11  1  0  0  0  0
 11 12  1  0  0  0  0
 12 13  1  0  0  0  0
 12 14  1  0  0  0  0
 14 15  1  0  0  0  0
 15 16  1  0  0  0  0
 16 17  2  0  0  0  0
 16 18  1  0  0  0  0
 18 19  4  0  0  0  0
 18 23  4  0  0  0  0
 19 20  4  0  0  0  0
 20 21  4  0  0  0  0
 21 22  4  0  0  0  0
 21 24  1  0  0  0  0
 22 23  4  0  0  0  0
 24 25  4  0  0  0  0
 24 29  4  0  0  0  0
 25 26  4  0  0  0  0
 26 27  4  0  0  0  0
 27 28  4  0  0  0  0
 28 29  4  0  0  0  0
 30 31  4  0  0  0  0
 31 32  4  0  0  0  0
 32 33  4  0  0  0  0
 33 34  1  0  0  0  0
M  END
>  <Name_Molregno>
388338

>  <5-HT1A>
7.82

>  <5-HT2A>
7.81

>  <5-HT2C>
7.6

>  <DOPAMINE D2>
7.55

>  <DOPAMINE D3>
9.3

$$$$
388341
  Marvin  02231216192D 0   1.00000     0.00000     0

 35 39  0  0  1  0  0  0  0  0999 V2000
   -0.1356   -0.0011    0.0000 Cl  0  0  0  0  0  0  0  0  0
   -0.1356   -0.8261    0.0000 C   0  0  0  0  0  0  0  0  0
    0.5789   -1.2386    0.0000 C   0  0  0  0  0  0  0  0  0
    1.2934   -0.8261    0.0000 N   0  0  0  0  0  0  0  0  0
    1.2934   -0.0011    0.0000 C   0  0  0  0  0  0  0  0  0
    2.0078    0.4114    0.0000 C   0  0  0  0  0  0  0  0  0
    2.7223   -0.0011    0.0000 N   0  0  0  0  0  0  0  0  0
    2.7223   -0.8261    0.0000 C   0  0  0  0  0  0  0  0  0
    2.0078   -1.2386    0.0000 C   0  0  0  0  0  0  0  0  0
    3.4368    0.4114    0.0000 C   0  0  0  0  0  0  0  0  0
    4.1512   -0.0011    0.0000 C   0  0  0  0  0  0  0  0  0
    4.8657    0.4114    0.0000 C   0  0  0  0  0  0  0  0  0
    4.8657    1.2364    0.0000 O   0  0  0  0  0  0  0  0  0
    5.5802   -0.0011    0.0000 C   0  0  0  0  0  0  0  0  0
    6.2947    0.4114    0.0000 N   0  0  0  0  0  0  0  0  0
    7.0091   -0.0011    0.0000 C   0  0  0  0  0  0  0  0  0
    7.0091   -0.8261    0.0000 O   0  0  0  0  0  0  0  0  0
    7.7236    0.4114    0.0000 C   0  0  0  0  0  0  0  0  0
    8.4381   -0.0011    0.0000 C   0  0  0  0  0  0  0  0  0
    9.1525    0.4114    0.0000 C   0  0  0  0  0  0  0  0  0
    9.9372    0.1565    0.0000 C   0  0  0  0  0  0  0  0  0
   10.4221    0.8239    0.0000 C   0  0  0  0  0  0  0  0  0
    9.9372    1.4913    0.0000 C   0  0  0  0  0  0  0  0  0
    9.1525    1.2364    0.0000 C   0  0  0  0  0  0  0  0  0
    8.4381    1.6489    0.0000 C   0  0  0  0  0  0  0  0  0
    7.7236    1.2364    0.0000 C   0  0  0  0  0  0  0  0  0
   10.2727    2.2450    0.0000 C   0  0  0  0  0  0  0  0  0
   11.0932    2.3313    0.0000 C   0  0  0  0  0  0  0  0  0
   11.5781    1.6638    0.0000 C   0  0  0  0  0  0  0  0  0
   11.2426    0.9101    0.0000 C   0  0  0  0  0  0  0  0  0
    0.5789   -2.0636    0.0000 C   0  0  0  0  0  0  0  0  0
   -0.1356   -2.4761    0.0000 C   0  0  0  0  0  0  0  0  0
   -0.8501   -2.0636    0.0000 C   0  0  0  0  0  0  0  0  0
   -0.8501   -1.2386    0.0000 C   0  0  0  0  0  0  0  0  0
   -1.5645   -0.8261    0.0000 Cl  0  0  0  0  0  0  0  0  0
  1  2  1  0  0  0  0
  2  3  4  0  0  0  0
  2 34  4  0  0  0  0
  3  4  1  0  0  0  0
  3 31  4  0  0  0  0
  4  5  1  0  0  0  0
  4  9  1  0  0  0  0
  5  6  1  0  0  0  0
  6  7  1  0  0  0  0
  7  8  1  0  0  0  0
  7 10  1  0  0  0  0
  8  9  1  0  0  0  0
 10 11  1  0  0  0  0
 11 12  1  0  0  0  0
 12 13  1  0  0  0  0
 12 14  1  0  0  0  0
 14 15  1  0  0  0  0
 15 16  1  0  0  0  0
 16 17  2  0  0  0  0
 16 18  1  0  0  0  0
 18 19  4  0  0  0  0
 18 26  4  0  0  0  0
 19 20  4  0  0  0  0
 20 21  1  0  0  0  0
 20 24  4  0  0  0  0
 21 22  1  0  0  0  0
 22 23  4  0  0  0  0
 22 30  4  0  0  0  0
 23 24  1  0  0  0  0
 23 27  4  0  0  0  0
 24 25  4  0  0  0  0
 25 26  4  0  0  0  0
 27 28  4  0  0  0  0
 28 29  4  0  0  0  0
 29 30  4  0  0  0  0
 31 32  4  0  0  0  0
 32 33  4  0  0  0  0
 33 34  4  0  0  0  0
 34 35  1  0  0  0  0
M  END
>  <Name_Molregno>
388341

>  <DOPAMINE D2>
7.08

>  <DOPAMINE D3>
8.6

$$$$
388342
  Marvin  02231216192D 0   1.00000     0.00000     0

 35 39  0  0  1  0  0  0  0  0999 V2000
   -9.0131   -2.3430    0.0000 O   0  0  0  0  0  0  0  0  0
   -9.0131   -3.1680    0.0000 C   0  0  0  0  0  0  0  0  0
   -9.7276   -1.9305    0.0000 C   0  0  0  0  0  0  0  0  0
  -10.4421   -2.3430    0.0000 C   0  0  0  0  0  0  0  0  0
  -11.1566   -1.9305    0.0000 C   0  0  0  0  0  0  0  0  0
  -11.1566   -1.1055    0.0000 C   0  0  0  0  0  0  0  0  0
  -10.4421   -0.6930    0.0000 C   0  0  0  0  0  0  0  0  0
   -9.7276   -1.1055    0.0000 C   0  0  0  0  0  0  0  0  0
   -9.0131   -0.6930    0.0000 N   0  0  0  0  0  0  0  0  0
   -9.0131    0.1320    0.0000 C   0  0  0  0  0  0  0  0  0
   -8.2987    0.5445    0.0000 C   0  0  0  0  0  0  0  0  0
   -7.5842    0.1320    0.0000 N   0  0  0  0  0  0  0  0  0
   -7.5842   -0.6930    0.0000 C   0  0  0  0  0  0  0  0  0
   -8.2987   -1.1055    0.0000 C   0  0  0  0  0  0  0  0  0
   -6.8697    0.5445    0.0000 C   0  0  0  0  0  0  0  0  0
   -6.1553    0.1320    0.0000 C   0  0  0  0  0  0  0  0  0
   -5.4408    0.5445    0.0000 C   0  0  0  0  0  0  0  0  0
   -5.4408    1.3695    0.0000 O   0  0  0  0  0  0  0  0  0
   -4.7263    0.1320    0.0000 C   0  0  0  0  0  0  0  0  0
   -4.0119    0.5445    0.0000 N   0  0  0  0  0  0  0  0  0
   -3.2974    0.1320    0.0000 C   0  0  0  0  0  0  0  0  0
   -3.2974   -0.6930    0.0000 O   0  0  0  0  0  0  0  0  0
   -2.5829    0.5445    0.0000 C   0  0  0  0  0  0  0  0  0
   -1.8684    0.1320    0.0000 C   0  0  0  0  0  0  0  0  0
   -1.1540    0.5445    0.0000 C   0  0  0  0  0  0  0  0  0
   -0.3693    0.2896    0.0000 C   0  0  0  0  0  0  0  0  0
    0.1156    0.9570    0.0000 C   0  0  0  0  0  0  0  0  0
   -0.3693    1.6244    0.0000 C   0  0  0  0  0  0  0  0  0
   -1.1540    1.3695    0.0000 C   0  0  0  0  0  0  0  0  0
   -1.8684    1.7820    0.0000 C   0  0  0  0  0  0  0  0  0
   -2.5829    1.3695    0.0000 C   0  0  0  0  0  0  0  0  0
   -0.0338    2.3781    0.0000 C   0  0  0  0  0  0  0  0  0
    0.7867    2.4643    0.0000 C   0  0  0  0  0  0  0  0  0
    1.2716    1.7969    0.0000 C   0  0  0  0  0  0  0  0  0
    0.9361    1.0432    0.0000 C   0  0  0  0  0  0  0  0  0
  1  2  1  0  0  0  0
  1  3  1  0  0  0  0
  3  4  4  0  0  0  0
  3  8  4  0  0  0  0
  4  5  4  0  0  0  0
  5  6  4  0  0  0  0
  6  7  4  0  0  0  0
  7  8  4  0  0  0  0
  8  9  1  0  0  0  0
  9 10  1  0  0  0  0
  9 14  1  0  0  0  0
 10 11  1  0  0  0  0
 11 12  1  0  0  0  0
 12 13  1  0  0  0  0
 12 15  1  0  0  0  0
 13 14  1  0  0  0  0
 15 16  1  0  0  0  0
 16 17  1  0  0  0  0
 17 18  1  0  0  0  0
 17 19  1  0  0  0  0
 19 20  1  0  0  0  0
 20 21  1  0  0  0  0
 21 22  2  0  0  0  0
 21 23  1  0  0  0  0
 23 24  4  0  0  0  0
 23 31  4  0  0  0  0
 24 25  4  0  0  0  0
 25 26  1  0  0  0  0
 25 29  4  0  0  0  0
 26 27  1  0  0  0  0
 27 28  4  0  0  0  0
 27 35  4  0  0  0  0
 28 29  1  0  0  0  0
 28 32  4  0  0  0  0
 29 30  4  0  0  0  0
 30 31  4  0  0  0  0
 32 33  4  0  0  0  0
 33 34  4  0  0  0  0
 34 35  4  0  0  0  0
M  END
>  <Name_Molregno>
388342

>  <DOPAMINE D2>
7.16

>  <DOPAMINE D3>
8.89

$$$$
388343
  Marvin  02231216192D 0   1.00000     0.00000     0

 34 38  0  0  1  0  0  0  0  0999 V2000
    4.7092    4.0677    0.0000 Cl  0  0  0  0  0  0  0  0  0
    3.9947    3.6552    0.0000 C   0  0  0  0  0  0  0  0  0
    3.9947    2.8302    0.0000 C   0  0  0  0  0  0  0  0  0
    4.7092    2.4177    0.0000 N   0  0  0  0  0  0  0  0  0
    5.4236    2.8302    0.0000 C   0  0  0  0  0  0  0  0  0
    6.1381    2.4177    0.0000 C   0  0  0  0  0  0  0  0  0
    6.1381    1.5927    0.0000 N   0  0  0  0  0  0  0  0  0
    5.4236    1.1802    0.0000 C   0  0  0  0  0  0  0  0  0
    4.7092    1.5927    0.0000 C   0  0  0  0  0  0  0  0  0
    6.8526    1.1802    0.0000 C   0  0  0  0  0  0  0  0  0
    6.8526    0.3552    0.0000 C   0  0  0  0  0  0  0  0  0
    7.2651   -0.3592    0.0000 C   0  0  0  0  0  0  0  0  0
    6.4401   -0.3592    0.0000 C   0  0  0  0  0  0  0  0  0
    5.7256   -0.7717    0.0000 C   0  0  0  0  0  0  0  0  0
    5.7256   -1.5967    0.0000 N   0  0  0  0  0  0  0  0  0
    5.0111   -2.0092    0.0000 C   0  0  0  0  0  0  0  0  0
    4.2967   -1.5967    0.0000 O   0  0  0  0  0  0  0  0  0
    5.0111   -2.8342    0.0000 C   0  0  0  0  0  0  0  0  0
    5.7256   -3.2467    0.0000 C   0  0  0  0  0  0  0  0  0
    5.7256   -4.0717    0.0000 C   0  0  0  0  0  0  0  0  0
    5.0111   -4.4842    0.0000 C   0  0  0  0  0  0  0  0  0
    4.2967   -4.0717    0.0000 C   0  0  0  0  0  0  0  0  0
    4.2967   -3.2467    0.0000 C   0  0  0  0  0  0  0  0  0
    5.0111   -5.3092    0.0000 C   0  0  0  0  0  0  0  0  0
    5.7256   -5.7217    0.0000 N   0  0  0  0  0  0  0  0  0
    5.7256   -6.5467    0.0000 C   0  0  0  0  0  0  0  0  0
    5.0111   -6.9592    0.0000 C   0  0  0  0  0  0  0  0  0
    4.2967   -6.5467    0.0000 C   0  0  0  0  0  0  0  0  0
    4.2967   -5.7217    0.0000 C   0  0  0  0  0  0  0  0  0
    3.2802    2.4177    0.0000 C   0  0  0  0  0  0  0  0  0
    2.5658    2.8302    0.0000 C   0  0  0  0  0  0  0  0  0
    2.5658    3.6552    0.0000 C   0  0  0  0  0  0  0  0  0
    3.2802    4.0677    0.0000 C   0  0  0  0  0  0  0  0  0
    3.2802    4.8927    0.0000 Cl  0  0  0  0  0  0  0  0  0
  1  2  1  0  0  0  0
  2  3  4  0  0  0  0
  2 33  4  0  0  0  0
  3  4  1  0  0  0  0
  3 30  4  0  0  0  0
  4  5  1  0  0  0  0
  4  9  1  0  0  0  0
  5  6  1  0  0  0  0
  6  7  1  0  0  0  0
  7  8  1  0  0  0  0
  7 10  1  0  0  0  0
  8  9  1  0  0  0  0
 10 11  1  0  0  0  0
 11 12  1  0  0  0  0
 11 13  1  0  0  0  0
 12 13  1  0  0  0  0
 13 14  1  0  0  0  0
 14 15  1  0  0  0  0
 15 16  1  0  0  0  0
 16 17  2  0  0  0  0
 16 18  1  0  0  0  0
 18 19  4  0  0  0  0
 18 23  4  0  0  0  0
 19 20  4  0  0  0  0
 20 21  4  0  0  0  0
 21 22  4  0  0  0  0
 21 24  1  0  0  0  0
 22 23  4  0  0  0  0
 24 25  4  0  0  0  0
 24 29  4  0  0  0  0
 25 26  4  0  0  0  0
 26 27  4  0  0  0  0
 27 28  4  0  0  0  0
 28 29  4  0  0  0  0
 30 31  4  0  0  0  0
 31 32  4  0  0  0  0
 32 33  4  0  0  0  0
 33 34  1  0  0  0  0
M  END
>  <Name_Molregno>
388343

>  <5-HT1A>
6.62

>  <5-HT2A>
6.69

>  <5-HT2C>
6.65

>  <DOPAMINE D2>
6.63

>  <DOPAMINE D3>
7.9

>  <DOPAMINE D4>
5.84

$$$$
388516
  Marvin  02231216192D 0   1.00000     0.00000     0

 33 37  0  0  0  0  0  0  0  0999 V2000
    0.3018   -2.4939    0.0000 O   0  0  0  0  0  0  0  0  0
   -0.1107   -3.2084    0.0000 C   0  0  0  0  0  0  0  0  0
   -0.1107   -1.7794    0.0000 C   0  0  0  0  0  0  0  0  0
   -0.9357   -1.7794    0.0000 C   0  0  0  0  0  0  0  0  0
   -1.3482   -1.0650    0.0000 C   0  0  0  0  0  0  0  0  0
   -0.9357   -0.3505    0.0000 C   0  0  0  0  0  0  0  0  0
   -0.1107   -0.3505    0.0000 C   0  0  0  0  0  0  0  0  0
    0.3018   -1.0650    0.0000 C   0  0  0  0  0  0  0  0  0
    1.1268   -1.0650    0.0000 N   0  0  0  0  0  0  0  0  0
    1.5393   -0.3505    0.0000 C   0  0  0  0  0  0  0  0  0
    2.3643   -0.3505    0.0000 C   0  0  0  0  0  0  0  0  0
    2.7768   -1.0650    0.0000 N   0  0  0  0  0  0  0  0  0
    2.3643   -1.7794    0.0000 C   0  0  0  0  0  0  0  0  0
    1.5393   -1.7794    0.0000 C   0  0  0  0  0  0  0  0  0
    3.6018   -1.0650    0.0000 C   0  0  0  0  0  0  0  0  0
    4.0143   -0.3505    0.0000 C   0  0  0  0  0  0  0  0  0
    4.8393   -0.3505    0.0000 C   0  0  0  0  0  0  0  0  0
    5.2518    0.3640    0.0000 O   0  0  0  0  0  0  0  0  0
    6.0768    0.3640    0.0000 C   0  0  0  0  0  0  0  0  0
    6.4893    1.0784    0.0000 C   0  0  0  0  0  0  0  0  0
    7.3143    1.0784    0.0000 C   0  0  0  0  0  0  0  0  0
    7.7268    0.3640    0.0000 C   0  0  0  0  0  0  0  0  0
    7.3143   -0.3505    0.0000 C   0  0  0  0  0  0  0  0  0
    6.4893   -0.3505    0.0000 C   0  0  0  0  0  0  0  0  0
    8.5518    0.3640    0.0000 C   0  0  0  0  0  0  0  0  0
    9.0368   -0.3035    0.0000 N   0  0  0  0  0  0  0  0  0
    9.8214   -0.0485    0.0000 C   0  0  0  0  0  0  0  0  0
    9.8214    0.7765    0.0000 N   0  0  0  0  0  0  0  0  0
    9.0368    1.0314    0.0000 C   0  0  0  0  0  0  0  0  0
   10.5358    1.1890    0.0000 C   0  0  0  0  0  0  0  0  0
   11.2503    0.7765    0.0000 C   0  0  0  0  0  0  0  0  0
   11.2503   -0.0485    0.0000 C   0  0  0  0  0  0  0  0  0
   10.5358   -0.4610    0.0000 C   0  0  0  0  0  0  0  0  0
  1  2  1  0  0  0  0
  1  3  1  0  0  0  0
  3  4  4  0  0  0  0
  3  8  4  0  0  0  0
  4  5  4  0  0  0  0
  5  6  4  0  0  0  0
  6  7  4  0  0  0  0
  7  8  4  0  0  0  0
  8  9  1  0  0  0  0
  9 10  1  0  0  0  0
  9 14  1  0  0  0  0
 10 11  1  0  0  0  0
 11 12  1  0  0  0  0
 12 13  1  0  0  0  0
 12 15  1  0  0  0  0
 13 14  1  0  0  0  0
 15 16  1  0  0  0  0
 16 17  1  0  0  0  0
 17 18  1  0  0  0  0
 18 19  1  0  0  0  0
 19 20  4  0  0  0  0
 19 24  4  0  0  0  0
 20 21  4  0  0  0  0
 21 22  4  0  0  0  0
 22 23  4  0  0  0  0
 22 25  1  0  0  0  0
 23 24  4  0  0  0  0
 25 26  4  0  0  0  0
 25 29  4  0  0  0  0
 26 27  4  0  0  0  0
 27 28  4  0  0  0  0
 27 33  4  0  0  0  0
 28 29  4  0  0  0  0
 28 30  4  0  0  0  0
 30 31  4  0  0  0  0
 31 32  4  0  0  0  0
 32 33  4  0  0  0  0
M  END
>  <Name_Molregno>
388516

>  <DOPAMINE D3>
8.8

$$$$
388517
  Marvin  02231216192D 0   1.00000     0.00000     0

 33 37  0  0  0  0  0  0  0  0999 V2000
   -9.1941    2.5282    0.0000 Cl  0  0  0  0  0  0  0  0  0
   -9.6066    1.8138    0.0000 C   0  0  0  0  0  0  0  0  0
   -9.1941    1.0993    0.0000 C   0  0  0  0  0  0  0  0  0
   -8.3691    1.0993    0.0000 N   0  0  0  0  0  0  0  0  0
   -7.9566    1.8138    0.0000 C   0  0  0  0  0  0  0  0  0
   -7.1316    1.8138    0.0000 C   0  0  0  0  0  0  0  0  0
   -6.7191    1.0993    0.0000 N   0  0  0  0  0  0  0  0  0
   -7.1316    0.3848    0.0000 C   0  0  0  0  0  0  0  0  0
   -7.9566    0.3848    0.0000 C   0  0  0  0  0  0  0  0  0
   -5.8941    1.0993    0.0000 C   0  0  0  0  0  0  0  0  0
   -5.4816    0.3848    0.0000 C   0  0  0  0  0  0  0  0  0
   -4.6566    0.3848    0.0000 C   0  0  0  0  0  0  0  0  0
   -4.2441   -0.3296    0.0000 O   0  0  0  0  0  0  0  0  0
   -3.4191   -0.3296    0.0000 C   0  0  0  0  0  0  0  0  0
   -3.0066    0.3848    0.0000 C   0  0  0  0  0  0  0  0  0
   -2.1816    0.3848    0.0000 C   0  0  0  0  0  0  0  0  0
   -1.7691   -0.3296    0.0000 C   0  0  0  0  0  0  0  0  0
   -2.1816   -1.0441    0.0000 C   0  0  0  0  0  0  0  0  0
   -3.0066   -1.0441    0.0000 C   0  0  0  0  0  0  0  0  0
   -0.9441   -0.3296    0.0000 C   0  0  0  0  0  0  0  0  0
   -0.4592   -0.9971    0.0000 N   0  0  0  0  0  0  0  0  0
    0.3254   -0.7421    0.0000 C   0  0  0  0  0  0  0  0  0
    0.3254    0.0829    0.0000 N   0  0  0  0  0  0  0  0  0
   -0.4592    0.3378    0.0000 C   0  0  0  0  0  0  0  0  0
    1.0399    0.4954    0.0000 C   0  0  0  0  0  0  0  0  0
    1.7544    0.0829    0.0000 C   0  0  0  0  0  0  0  0  0
    1.7544   -0.7421    0.0000 C   0  0  0  0  0  0  0  0  0
    1.0399   -1.1546    0.0000 C   0  0  0  0  0  0  0  0  0
   -9.6066    0.3848    0.0000 C   0  0  0  0  0  0  0  0  0
  -10.4316    0.3848    0.0000 C   0  0  0  0  0  0  0  0  0
  -10.8441    1.0993    0.0000 C   0  0  0  0  0  0  0  0  0
  -10.4316    1.8138    0.0000 C   0  0  0  0  0  0  0  0  0
  -10.8441    2.5282    0.0000 Cl  0  0  0  0  0  0  0  0  0
  1  2  1  0  0  0  0
  2  3  4  0  0  0  0
  2 32  4  0  0  0  0
  3  4  1  0  0  0  0
  3 29  4  0  0  0  0
  4  5  1  0  0  0  0
  4  9  1  0  0  0  0
  5  6  1  0  0  0  0
  6  7  1  0  0  0  0
  7  8  1  0  0  0  0
  7 10  1  0  0  0  0
  8  9  1  0  0  0  0
 10 11  1  0  0  0  0
 11 12  1  0  0  0  0
 12 13  1  0  0  0  0
 13 14  1  0  0  0  0
 14 15  4  0  0  0  0
 14 19  4  0  0  0  0
 15 16  4  0  0  0  0
 16 17  4  0  0  0  0
 17 18  4  0  0  0  0
 17 20  1  0  0  0  0
 18 19  4  0  0  0  0
 20 21  4  0  0  0  0
 20 24  4  0  0  0  0
 21 22  4  0  0  0  0
 22 23  4  0  0  0  0
 22 28  4  0  0  0  0
 23 24  4  0  0  0  0
 23 25  4  0  0  0  0
 25 26  4  0  0  0  0
 26 27  4  0  0  0  0
 27 28  4  0  0  0  0
 29 30  4  0  0  0  0
 30 31  4  0  0  0  0
 31 32  4  0  0  0  0
 32 33  1  0  0  0  0
M  END
>  <Name_Molregno>
388517

>  <DOPAMINE D3>
6.81

$$$$
388518
  Marvin  02231216192D 0   1.00000     0.00000     0

 34 38  0  0  0  0  0  0  0  0999 V2000
    0.2907   -2.6180    0.0000 O   0  0  0  0  0  0  0  0  0
   -0.1218   -3.3325    0.0000 C   0  0  0  0  0  0  0  0  0
   -0.1218   -1.9036    0.0000 C   0  0  0  0  0  0  0  0  0
   -0.9468   -1.9036    0.0000 C   0  0  0  0  0  0  0  0  0
   -1.3593   -1.1891    0.0000 C   0  0  0  0  0  0  0  0  0
   -0.9468   -0.4746    0.0000 C   0  0  0  0  0  0  0  0  0
   -0.1218   -0.4746    0.0000 C   0  0  0  0  0  0  0  0  0
    0.2907   -1.1891    0.0000 C   0  0  0  0  0  0  0  0  0
    1.1157   -1.1891    0.0000 N   0  0  0  0  0  0  0  0  0
    1.5282   -0.4746    0.0000 C   0  0  0  0  0  0  0  0  0
    2.3532   -0.4746    0.0000 C   0  0  0  0  0  0  0  0  0
    2.7657   -1.1891    0.0000 N   0  0  0  0  0  0  0  0  0
    2.3532   -1.9036    0.0000 C   0  0  0  0  0  0  0  0  0
    1.5282   -1.9036    0.0000 C   0  0  0  0  0  0  0  0  0
    3.5907   -1.1891    0.0000 C   0  0  0  0  0  0  0  0  0
    4.0032   -0.4746    0.0000 C   0  0  0  0  0  0  0  0  0
    4.8282   -0.4746    0.0000 C   0  0  0  0  0  0  0  0  0
    5.2407    0.2399    0.0000 O   0  0  0  0  0  0  0  0  0
    6.0657    0.2399    0.0000 C   0  0  0  0  0  0  0  0  0
    6.4782    0.9543    0.0000 C   0  0  0  0  0  0  0  0  0
    7.3032    0.9543    0.0000 C   0  0  0  0  0  0  0  0  0
    7.7157    0.2399    0.0000 C   0  0  0  0  0  0  0  0  0
    7.3032   -0.4746    0.0000 C   0  0  0  0  0  0  0  0  0
    6.4782   -0.4746    0.0000 C   0  0  0  0  0  0  0  0  0
    8.5407    0.2399    0.0000 C   0  0  0  0  0  0  0  0  0
    9.0257   -0.4276    0.0000 N   0  0  0  0  0  0  0  0  0
    9.8103   -0.1726    0.0000 C   0  0  0  0  0  0  0  0  0
    9.8103    0.6524    0.0000 N   0  0  0  0  0  0  0  0  0
   10.5247    1.0649    0.0000 C   0  0  0  0  0  0  0  0  0
   11.2392    0.6524    0.0000 C   0  0  0  0  0  0  0  0  0
   11.2392   -0.1726    0.0000 C   0  0  0  0  0  0  0  0  0
   10.5247   -0.5851    0.0000 C   0  0  0  0  0  0  0  0  0
   11.9537    1.0649    0.0000 C   0  0  0  0  0  0  0  0  0
    9.0257    0.9073    0.0000 C   0  0  0  0  0  0  0  0  0
  1  2  1  0  0  0  0
  1  3  1  0  0  0  0
  3  4  4  0  0  0  0
  3  8  4  0  0  0  0
  4  5  4  0  0  0  0
  5  6  4  0  0  0  0
  6  7  4  0  0  0  0
  7  8  4  0  0  0  0
  8  9  1  0  0  0  0
  9 10  1  0  0  0  0
  9 14  1  0  0  0  0
 10 11  1  0  0  0  0
 11 12  1  0  0  0  0
 12 13  1  0  0  0  0
 12 15  1  0  0  0  0
 13 14  1  0  0  0  0
 15 16  1  0  0  0  0
 16 17  1  0  0  0  0
 17 18  1  0  0  0  0
 18 19  1  0  0  0  0
 19 20  4  0  0  0  0
 19 24  4  0  0  0  0
 20 21  4  0  0  0  0
 21 22  4  0  0  0  0
 22 23  4  0  0  0  0
 22 25  1  0  0  0  0
 23 24  4  0  0  0  0
 25 26  4  0  0  0  0
 25 34  4  0  0  0  0
 26 27  4  0  0  0  0
 27 28  4  0  0  0  0
 27 32  4  0  0  0  0
 28 29  4  0  0  0  0
 28 34  4  0  0  0  0
 29 30  4  0  0  0  0
 30 31  4  0  0  0  0
 30 33  1  0  0  0  0
 31 32  4  0  0  0  0
M  END
>  <Name_Molregno>
388518

>  <DOPAMINE D3>
6.75

$$$$
388520
  Marvin  02231216192D 0   1.00000     0.00000     0

 34 38  0  0  0  0  0  0  0  0999 V2000
   -9.6150    2.5209    0.0000 Cl  0  0  0  0  0  0  0  0  0
  -10.0275    1.8064    0.0000 C   0  0  0  0  0  0  0  0  0
   -9.6150    1.0920    0.0000 C   0  0  0  0  0  0  0  0  0
   -8.7900    1.0920    0.0000 N   0  0  0  0  0  0  0  0  0
   -8.3775    1.8064    0.0000 C   0  0  0  0  0  0  0  0  0
   -7.5525    1.8064    0.0000 C   0  0  0  0  0  0  0  0  0
   -7.1400    1.0920    0.0000 N   0  0  0  0  0  0  0  0  0
   -7.5525    0.3775    0.0000 C   0  0  0  0  0  0  0  0  0
   -8.3775    0.3775    0.0000 C   0  0  0  0  0  0  0  0  0
   -6.3150    1.0920    0.0000 C   0  0  0  0  0  0  0  0  0
   -5.9025    0.3775    0.0000 C   0  0  0  0  0  0  0  0  0
   -5.0775    0.3775    0.0000 C   0  0  0  0  0  0  0  0  0
   -4.6650   -0.3370    0.0000 O   0  0  0  0  0  0  0  0  0
   -3.8400   -0.3370    0.0000 C   0  0  0  0  0  0  0  0  0
   -3.4275    0.3775    0.0000 C   0  0  0  0  0  0  0  0  0
   -2.6025    0.3775    0.0000 C   0  0  0  0  0  0  0  0  0
   -2.1900   -0.3370    0.0000 C   0  0  0  0  0  0  0  0  0
   -2.6025   -1.0515    0.0000 C   0  0  0  0  0  0  0  0  0
   -3.4275   -1.0515    0.0000 C   0  0  0  0  0  0  0  0  0
   -1.3650   -0.3370    0.0000 C   0  0  0  0  0  0  0  0  0
   -0.8801   -1.0044    0.0000 N   0  0  0  0  0  0  0  0  0
   -0.0955   -0.7495    0.0000 C   0  0  0  0  0  0  0  0  0
   -0.0955    0.0755    0.0000 N   0  0  0  0  0  0  0  0  0
    0.6190    0.4880    0.0000 C   0  0  0  0  0  0  0  0  0
    1.3335    0.0755    0.0000 C   0  0  0  0  0  0  0  0  0
    1.3335   -0.7495    0.0000 C   0  0  0  0  0  0  0  0  0
    0.6190   -1.1620    0.0000 C   0  0  0  0  0  0  0  0  0
    2.0479    0.4880    0.0000 C   0  0  0  0  0  0  0  0  0
   -0.8801    0.3305    0.0000 C   0  0  0  0  0  0  0  0  0
  -10.0275    0.3775    0.0000 C   0  0  0  0  0  0  0  0  0
  -10.8525    0.3775    0.0000 C   0  0  0  0  0  0  0  0  0
  -11.2650    1.0920    0.0000 C   0  0  0  0  0  0  0  0  0
  -10.8525    1.8064    0.0000 C   0  0  0  0  0  0  0  0  0
  -11.2650    2.5209    0.0000 Cl  0  0  0  0  0  0  0  0  0
  1  2  1  0  0  0  0
  2  3  4  0  0  0  0
  2 33  4  0  0  0  0
  3  4  1  0  0  0  0
  3 30  4  0  0  0  0
  4  5  1  0  0  0  0
  4  9  1  0  0  0  0
  5  6  1  0  0  0  0
  6  7  1  0  0  0  0
  7  8  1  0  0  0  0
  7 10  1  0  0  0  0
  8  9  1  0  0  0  0
 10 11  1  0  0  0  0
 11 12  1  0  0  0  0
 12 13  1  0  0  0  0
 13 14  1  0  0  0  0
 14 15  4  0  0  0  0
 14 19  4  0  0  0  0
 15 16  4  0  0  0  0
 16 17  4  0  0  0  0
 17 18  4  0  0  0  0
 17 20  1  0  0  0  0
 18 19  4  0  0  0  0
 20 21  4  0  0  0  0
 20 29  4  0  0  0  0
 21 22  4  0  0  0  0
 22 23  4  0  0  0  0
 22 27  4  0  0  0  0
 23 24  4  0  0  0  0
 23 29  4  0  0  0  0
 24 25  4  0  0  0  0
 25 26  4  0  0  0  0
 25 28  1  0  0  0  0
 26 27  4  0  0  0  0
 30 31  4  0  0  0  0
 31 32  4  0  0  0  0
 32 33  4  0  0  0  0
 33 34  1  0  0  0  0
M  END
>  <Name_Molregno>
388520

>  <DOPAMINE D3>
7.54

$$$$
388521
  Marvin  02231216192D 0   1.00000     0.00000     0

 34 38  0  0  0  0  0  0  0  0999 V2000
   -9.6686   -2.5695    0.0000 O   0  0  0  0  0  0  0  0  0
  -10.0811   -3.2840    0.0000 C   0  0  0  0  0  0  0  0  0
  -10.0811   -1.8550    0.0000 C   0  0  0  0  0  0  0  0  0
  -10.9061   -1.8550    0.0000 C   0  0  0  0  0  0  0  0  0
  -11.3186   -1.1406    0.0000 C   0  0  0  0  0  0  0  0  0
  -10.9061   -0.4261    0.0000 C   0  0  0  0  0  0  0  0  0
  -10.0811   -0.4261    0.0000 C   0  0  0  0  0  0  0  0  0
   -9.6686   -1.1406    0.0000 C   0  0  0  0  0  0  0  0  0
   -8.8436   -1.1406    0.0000 N   0  0  0  0  0  0  0  0  0
   -8.4311   -0.4261    0.0000 C   0  0  0  0  0  0  0  0  0
   -7.6061   -0.4261    0.0000 C   0  0  0  0  0  0  0  0  0
   -7.1936   -1.1406    0.0000 N   0  0  0  0  0  0  0  0  0
   -7.6061   -1.8550    0.0000 C   0  0  0  0  0  0  0  0  0
   -8.4311   -1.8550    0.0000 C   0  0  0  0  0  0  0  0  0
   -6.3686   -1.1406    0.0000 C   0  0  0  0  0  0  0  0  0
   -5.9561   -0.4261    0.0000 C   0  0  0  0  0  0  0  0  0
   -5.1311   -0.4261    0.0000 C   0  0  0  0  0  0  0  0  0
   -4.7186    0.2884    0.0000 O   0  0  0  0  0  0  0  0  0
   -3.8936    0.2884    0.0000 C   0  0  0  0  0  0  0  0  0
   -3.4811    1.0029    0.0000 C   0  0  0  0  0  0  0  0  0
   -2.6561    1.0029    0.0000 C   0  0  0  0  0  0  0  0  0
   -2.2436    0.2884    0.0000 C   0  0  0  0  0  0  0  0  0
   -2.6561   -0.4261    0.0000 C   0  0  0  0  0  0  0  0  0
   -3.4811   -0.4261    0.0000 C   0  0  0  0  0  0  0  0  0
   -1.4186    0.2884    0.0000 C   0  0  0  0  0  0  0  0  0
   -0.9337   -0.3790    0.0000 N   0  0  0  0  0  0  0  0  0
   -0.1491   -0.1241    0.0000 C   0  0  0  0  0  0  0  0  0
   -0.1491    0.7009    0.0000 N   0  0  0  0  0  0  0  0  0
   -0.9337    0.9558    0.0000 C   0  0  0  0  0  0  0  0  0
    0.5654    1.1134    0.0000 C   0  0  0  0  0  0  0  0  0
    1.2798    0.7009    0.0000 C   0  0  0  0  0  0  0  0  0
    1.2798   -0.1241    0.0000 C   0  0  0  0  0  0  0  0  0
    0.5654   -0.5366    0.0000 C   0  0  0  0  0  0  0  0  0
    1.9943   -0.5366    0.0000 C   0  0  0  0  0  0  0  0  0
  1  2  1  0  0  0  0
  1  3  1  0  0  0  0
  3  4  4  0  0  0  0
  3  8  4  0  0  0  0
  4  5  4  0  0  0  0
  5  6  4  0  0  0  0
  6  7  4  0  0  0  0
  7  8  4  0  0  0  0
  8  9  1  0  0  0  0
  9 10  1  0  0  0  0
  9 14  1  0  0  0  0
 10 11  1  0  0  0  0
 11 12  1  0  0  0  0
 12 13  1  0  0  0  0
 12 15  1  0  0  0  0
 13 14  1  0  0  0  0
 15 16  1  0  0  0  0
 16 17  1  0  0  0  0
 17 18  1  0  0  0  0
 18 19  1  0  0  0  0
 19 20  4  0  0  0  0
 19 24  4  0  0  0  0
 20 21  4  0  0  0  0
 21 22  4  0  0  0  0
 22 23  4  0  0  0  0
 22 25  1  0  0  0  0
 23 24  4  0  0  0  0
 25 26  4  0  0  0  0
 25 29  4  0  0  0  0
 26 27  4  0  0  0  0
 27 28  4  0  0  0  0
 27 33  4  0  0  0  0
 28 29  4  0  0  0  0
 28 30  4  0  0  0  0
 30 31  4  0  0  0  0
 31 32  4  0  0  0  0
 32 33  4  0  0  0  0
 32 34  1  0  0  0  0
M  END
>  <Name_Molregno>
388521

>  <DOPAMINE D3>
7.15

$$$$
388522
  Marvin  02231216192D 0   1.00000     0.00000     0

 34 38  0  0  0  0  0  0  0  0999 V2000
    0.3099    2.5694    0.0000 Cl  0  0  0  0  0  0  0  0  0
   -0.1026    1.8550    0.0000 C   0  0  0  0  0  0  0  0  0
    0.3099    1.1405    0.0000 C   0  0  0  0  0  0  0  0  0
    1.1349    1.1405    0.0000 N   0  0  0  0  0  0  0  0  0
    1.5474    1.8550    0.0000 C   0  0  0  0  0  0  0  0  0
    2.3724    1.8550    0.0000 C   0  0  0  0  0  0  0  0  0
    2.7849    1.1405    0.0000 N   0  0  0  0  0  0  0  0  0
    2.3724    0.4260    0.0000 C   0  0  0  0  0  0  0  0  0
    1.5474    0.4260    0.0000 C   0  0  0  0  0  0  0  0  0
    3.6099    1.1405    0.0000 C   0  0  0  0  0  0  0  0  0
    4.0224    0.4260    0.0000 C   0  0  0  0  0  0  0  0  0
    4.8474    0.4260    0.0000 C   0  0  0  0  0  0  0  0  0
    5.2599   -0.2885    0.0000 O   0  0  0  0  0  0  0  0  0
    6.0849   -0.2885    0.0000 C   0  0  0  0  0  0  0  0  0
    6.4974    0.4260    0.0000 C   0  0  0  0  0  0  0  0  0
    7.3224    0.4260    0.0000 C   0  0  0  0  0  0  0  0  0
    7.7349   -0.2885    0.0000 C   0  0  0  0  0  0  0  0  0
    7.3224   -1.0029    0.0000 C   0  0  0  0  0  0  0  0  0
    6.4974   -1.0029    0.0000 C   0  0  0  0  0  0  0  0  0
    8.5599   -0.2885    0.0000 C   0  0  0  0  0  0  0  0  0
    9.0448   -0.9559    0.0000 N   0  0  0  0  0  0  0  0  0
    9.8295   -0.7010    0.0000 C   0  0  0  0  0  0  0  0  0
    9.8295    0.1240    0.0000 N   0  0  0  0  0  0  0  0  0
    9.0448    0.3790    0.0000 C   0  0  0  0  0  0  0  0  0
   10.5439    0.5365    0.0000 C   0  0  0  0  0  0  0  0  0
   11.2584    0.1240    0.0000 C   0  0  0  0  0  0  0  0  0
   11.2584   -0.7010    0.0000 C   0  0  0  0  0  0  0  0  0
   10.5439   -1.1135    0.0000 C   0  0  0  0  0  0  0  0  0
   11.9729   -1.1135    0.0000 C   0  0  0  0  0  0  0  0  0
   -0.1026    0.4260    0.0000 C   0  0  0  0  0  0  0  0  0
   -0.9276    0.4260    0.0000 C   0  0  0  0  0  0  0  0  0
   -1.3401    1.1405    0.0000 C   0  0  0  0  0  0  0  0  0
   -0.9276    1.8550    0.0000 C   0  0  0  0  0  0  0  0  0
   -1.3401    2.5694    0.0000 Cl  0  0  0  0  0  0  0  0  0
  1  2  1  0  0  0  0
  2  3  4  0  0  0  0
  2 33  4  0  0  0  0
  3  4  1  0  0  0  0
  3 30  4  0  0  0  0
  4  5  1  0  0  0  0
  4  9  1  0  0  0  0
  5  6  1  0  0  0  0
  6  7  1  0  0  0  0
  7  8  1  0  0  0  0
  7 10  1  0  0  0  0
  8  9  1  0  0  0  0
 10 11  1  0  0  0  0
 11 12  1  0  0  0  0
 12 13  1  0  0  0  0
 13 14  1  0  0  0  0
 14 15  4  0  0  0  0
 14 19  4  0  0  0  0
 15 16  4  0  0  0  0
 16 17  4  0  0  0  0
 17 18  4  0  0  0  0
 17 20  1  0  0  0  0
 18 19  4  0  0  0  0
 20 21  4  0  0  0  0
 20 24  4  0  0  0  0
 21 22  4  0  0  0  0
 22 23  4  0  0  0  0
 22 28  4  0  0  0  0
 23 24  4  0  0  0  0
 23 25  4  0  0  0  0
 25 26  4  0  0  0  0
 26 27  4  0  0  0  0
 27 28  4  0  0  0  0
 27 29  1  0  0  0  0
 30 31  4  0  0  0  0
 31 32  4  0  0  0  0
 32 33  4  0  0  0  0
 33 34  1  0  0  0  0
M  END
>  <Name_Molregno>
388522

>  <DOPAMINE D3>
8.1

$$$$
388523
  Marvin  02231216192D 0   1.00000     0.00000     0

 34 38  0  0  0  0  0  0  0  0999 V2000
   -9.6062   -2.4701    0.0000 O   0  0  0  0  0  0  0  0  0
  -10.0187   -3.1845    0.0000 C   0  0  0  0  0  0  0  0  0
  -10.0187   -1.7556    0.0000 C   0  0  0  0  0  0  0  0  0
  -10.8437   -1.7556    0.0000 C   0  0  0  0  0  0  0  0  0
  -11.2562   -1.0411    0.0000 C   0  0  0  0  0  0  0  0  0
  -10.8437   -0.3267    0.0000 C   0  0  0  0  0  0  0  0  0
  -10.0187   -0.3267    0.0000 C   0  0  0  0  0  0  0  0  0
   -9.6062   -1.0411    0.0000 C   0  0  0  0  0  0  0  0  0
   -8.7812   -1.0411    0.0000 N   0  0  0  0  0  0  0  0  0
   -8.3687   -0.3267    0.0000 C   0  0  0  0  0  0  0  0  0
   -7.5437   -0.3267    0.0000 C   0  0  0  0  0  0  0  0  0
   -7.1312   -1.0411    0.0000 N   0  0  0  0  0  0  0  0  0
   -7.5437   -1.7556    0.0000 C   0  0  0  0  0  0  0  0  0
   -8.3687   -1.7556    0.0000 C   0  0  0  0  0  0  0  0  0
   -6.3062   -1.0411    0.0000 C   0  0  0  0  0  0  0  0  0
   -5.8937   -0.3267    0.0000 C   0  0  0  0  0  0  0  0  0
   -5.0687   -0.3267    0.0000 C   0  0  0  0  0  0  0  0  0
   -4.6562    0.3878    0.0000 O   0  0  0  0  0  0  0  0  0
   -3.8312    0.3878    0.0000 C   0  0  0  0  0  0  0  0  0
   -3.4187    1.1023    0.0000 C   0  0  0  0  0  0  0  0  0
   -2.5937    1.1023    0.0000 C   0  0  0  0  0  0  0  0  0
   -2.1812    0.3878    0.0000 C   0  0  0  0  0  0  0  0  0
   -2.5937   -0.3267    0.0000 C   0  0  0  0  0  0  0  0  0
   -3.4187   -0.3267    0.0000 C   0  0  0  0  0  0  0  0  0
   -1.3562    0.3878    0.0000 C   0  0  0  0  0  0  0  0  0
   -0.8713   -0.2796    0.0000 N   0  0  0  0  0  0  0  0  0
   -0.0866   -0.0247    0.0000 C   0  0  0  0  0  0  0  0  0
   -0.0866    0.8003    0.0000 N   0  0  0  0  0  0  0  0  0
   -0.8713    1.0553    0.0000 C   0  0  0  0  0  0  0  0  0
    0.6278    1.2128    0.0000 C   0  0  0  0  0  0  0  0  0
    1.3423    0.8003    0.0000 C   0  0  0  0  0  0  0  0  0
    1.3423   -0.0247    0.0000 C   0  0  0  0  0  0  0  0  0
    0.6278   -0.4372    0.0000 C   0  0  0  0  0  0  0  0  0
    0.6278   -1.2622    0.0000 C   0  0  0  0  0  0  0  0  0
  1  2  1  0  0  0  0
  1  3  1  0  0  0  0
  3  4  4  0  0  0  0
  3  8  4  0  0  0  0
  4  5  4  0  0  0  0
  5  6  4  0  0  0  0
  6  7  4  0  0  0  0
  7  8  4  0  0  0  0
  8  9  1  0  0  0  0
  9 10  1  0  0  0  0
  9 14  1  0  0  0  0
 10 11  1  0  0  0  0
 11 12  1  0  0  0  0
 12 13  1  0  0  0  0
 12 15  1  0  0  0  0
 13 14  1  0  0  0  0
 15 16  1  0  0  0  0
 16 17  1  0  0  0  0
 17 18  1  0  0  0  0
 18 19  1  0  0  0  0
 19 20  4  0  0  0  0
 19 24  4  0  0  0  0
 20 21  4  0  0  0  0
 21 22  4  0  0  0  0
 22 23  4  0  0  0  0
 22 25  1  0  0  0  0
 23 24  4  0  0  0  0
 25 26  4  0  0  0  0
 25 29  4  0  0  0  0
 26 27  4  0  0  0  0
 27 28  4  0  0  0  0
 27 33  4  0  0  0  0
 28 29  4  0  0  0  0
 28 30  4  0  0  0  0
 30 31  4  0  0  0  0
 31 32  4  0  0  0  0
 32 33  4  0  0  0  0
 33 34  1  0  0  0  0
M  END
>  <Name_Molregno>
388523

>  <DOPAMINE D3>
7.3

$$$$
388524
  Marvin  02231216192D 0   1.00000     0.00000     0

 34 38  0  0  0  0  0  0  0  0999 V2000
    0.3237    2.6032    0.0000 Cl  0  0  0  0  0  0  0  0  0
   -0.0888    1.8887    0.0000 C   0  0  0  0  0  0  0  0  0
    0.3237    1.1742    0.0000 C   0  0  0  0  0  0  0  0  0
    1.1487    1.1742    0.0000 N   0  0  0  0  0  0  0  0  0
    1.5612    1.8887    0.0000 C   0  0  0  0  0  0  0  0  0
    2.3862    1.8887    0.0000 C   0  0  0  0  0  0  0  0  0
    2.7987    1.1742    0.0000 N   0  0  0  0  0  0  0  0  0
    2.3862    0.4598    0.0000 C   0  0  0  0  0  0  0  0  0
    1.5612    0.4598    0.0000 C   0  0  0  0  0  0  0  0  0
    3.6237    1.1742    0.0000 C   0  0  0  0  0  0  0  0  0
    4.0362    0.4598    0.0000 C   0  0  0  0  0  0  0  0  0
    4.8612    0.4598    0.0000 C   0  0  0  0  0  0  0  0  0
    5.2737   -0.2547    0.0000 O   0  0  0  0  0  0  0  0  0
    6.0987   -0.2547    0.0000 C   0  0  0  0  0  0  0  0  0
    6.5112    0.4598    0.0000 C   0  0  0  0  0  0  0  0  0
    7.3362    0.4598    0.0000 C   0  0  0  0  0  0  0  0  0
    7.7487   -0.2547    0.0000 C   0  0  0  0  0  0  0  0  0
    7.3362   -0.9692    0.0000 C   0  0  0  0  0  0  0  0  0
    6.5112   -0.9692    0.0000 C   0  0  0  0  0  0  0  0  0
    8.5737   -0.2547    0.0000 C   0  0  0  0  0  0  0  0  0
    9.0586   -0.9221    0.0000 N   0  0  0  0  0  0  0  0  0
    9.8433   -0.6672    0.0000 C   0  0  0  0  0  0  0  0  0
    9.8433    0.1578    0.0000 N   0  0  0  0  0  0  0  0  0
    9.0586    0.4127    0.0000 C   0  0  0  0  0  0  0  0  0
   10.5577    0.5703    0.0000 C   0  0  0  0  0  0  0  0  0
   11.2722    0.1578    0.0000 C   0  0  0  0  0  0  0  0  0
   11.2722   -0.6672    0.0000 C   0  0  0  0  0  0  0  0  0
   10.5577   -1.0797    0.0000 C   0  0  0  0  0  0  0  0  0
   10.5577   -1.9047    0.0000 C   0  0  0  0  0  0  0  0  0
   -0.0888    0.4598    0.0000 C   0  0  0  0  0  0  0  0  0
   -0.9138    0.4598    0.0000 C   0  0  0  0  0  0  0  0  0
   -1.3263    1.1742    0.0000 C   0  0  0  0  0  0  0  0  0
   -0.9138    1.8887    0.0000 C   0  0  0  0  0  0  0  0  0
   -1.3263    2.6032    0.0000 Cl  0  0  0  0  0  0  0  0  0
  1  2  1  0  0  0  0
  2  3  4  0  0  0  0
  2 33  4  0  0  0  0
  3  4  1  0  0  0  0
  3 30  4  0  0  0  0
  4  5  1  0  0  0  0
  4  9  1  0  0  0  0
  5  6  1  0  0  0  0
  6  7  1  0  0  0  0
  7  8  1  0  0  0  0
  7 10  1  0  0  0  0
  8  9  1  0  0  0  0
 10 11  1  0  0  0  0
 11 12  1  0  0  0  0
 12 13  1  0  0  0  0
 13 14  1  0  0  0  0
 14 15  4  0  0  0  0
 14 19  4  0  0  0  0
 15 16  4  0  0  0  0
 16 17  4  0  0  0  0
 17 18  4  0  0  0  0
 17 20  1  0  0  0  0
 18 19  4  0  0  0  0
 20 21  4  0  0  0  0
 20 24  4  0  0  0  0
 21 22  4  0  0  0  0
 22 23  4  0  0  0  0
 22 28  4  0  0  0  0
 23 24  4  0  0  0  0
 23 25  4  0  0  0  0
 25 26  4  0  0  0  0
 26 27  4  0  0  0  0
 27 28  4  0  0  0  0
 28 29  1  0  0  0  0
 30 31  4  0  0  0  0
 31 32  4  0  0  0  0
 32 33  4  0  0  0  0
 33 34  1  0  0  0  0
M  END
>  <Name_Molregno>
388524

>  <DOPAMINE D3>
6.65

$$$$
388525
  Marvin  02231216192D 0   1.00000     0.00000     0

 34 38  0  0  0  0  0  0  0  0999 V2000
   -7.8564   -2.3319    0.0000 O   0  0  0  0  0  0  0  0  0
   -7.4439   -3.0464    0.0000 C   0  0  0  0  0  0  0  0  0
   -8.6814   -2.3319    0.0000 C   0  0  0  0  0  0  0  0  0
   -9.0939   -3.0464    0.0000 C   0  0  0  0  0  0  0  0  0
   -9.9189   -3.0464    0.0000 C   0  0  0  0  0  0  0  0  0
  -10.3314   -2.3319    0.0000 C   0  0  0  0  0  0  0  0  0
   -9.9189   -1.6174    0.0000 C   0  0  0  0  0  0  0  0  0
   -9.0939   -1.6174    0.0000 C   0  0  0  0  0  0  0  0  0
   -8.6814   -0.9030    0.0000 N   0  0  0  0  0  0  0  0  0
   -9.0939   -0.1885    0.0000 C   0  0  0  0  0  0  0  0  0
   -8.6814    0.5260    0.0000 C   0  0  0  0  0  0  0  0  0
   -7.8564    0.5260    0.0000 N   0  0  0  0  0  0  0  0  0
   -7.4439   -0.1885    0.0000 C   0  0  0  0  0  0  0  0  0
   -7.8564   -0.9030    0.0000 C   0  0  0  0  0  0  0  0  0
   -7.4439    1.2404    0.0000 C   0  0  0  0  0  0  0  0  0
   -6.6189    1.2404    0.0000 C   0  0  0  0  0  0  0  0  0
   -6.2064    1.9549    0.0000 C   0  0  0  0  0  0  0  0  0
   -5.3814    1.9549    0.0000 C   0  0  0  0  0  0  0  0  0
   -4.9689    2.6694    0.0000 O   0  0  0  0  0  0  0  0  0
   -4.1439    2.6694    0.0000 C   0  0  0  0  0  0  0  0  0
   -3.7314    3.3839    0.0000 C   0  0  0  0  0  0  0  0  0
   -2.9064    3.3839    0.0000 C   0  0  0  0  0  0  0  0  0
   -2.4939    2.6694    0.0000 C   0  0  0  0  0  0  0  0  0
   -2.9064    1.9549    0.0000 C   0  0  0  0  0  0  0  0  0
   -3.7314    1.9549    0.0000 C   0  0  0  0  0  0  0  0  0
   -1.6689    2.6694    0.0000 C   0  0  0  0  0  0  0  0  0
   -1.1840    2.0019    0.0000 N   0  0  0  0  0  0  0  0  0
   -0.3994    2.2569    0.0000 C   0  0  0  0  0  0  0  0  0
   -0.3994    3.0819    0.0000 N   0  0  0  0  0  0  0  0  0
   -1.1840    3.3368    0.0000 C   0  0  0  0  0  0  0  0  0
    0.3151    3.4944    0.0000 C   0  0  0  0  0  0  0  0  0
    1.0296    3.0819    0.0000 C   0  0  0  0  0  0  0  0  0
    1.0296    2.2569    0.0000 C   0  0  0  0  0  0  0  0  0
    0.3151    1.8444    0.0000 C   0  0  0  0  0  0  0  0  0
  1  2  1  0  0  0  0
  1  3  1  0  0  0  0
  3  4  4  0  0  0  0
  3  8  4  0  0  0  0
  4  5  4  0  0  0  0
  5  6  4  0  0  0  0
  6  7  4  0  0  0  0
  7  8  4  0  0  0  0
  8  9  1  0  0  0  0
  9 10  1  0  0  0  0
  9 14  1  0  0  0  0
 10 11  1  0  0  0  0
 11 12  1  0  0  0  0
 12 13  1  0  0  0  0
 12 15  1  0  0  0  0
 13 14  1  0  0  0  0
 15 16  1  0  0  0  0
 16 17  1  0  0  0  0
 17 18  1  0  0  0  0
 18 19  1  0  0  0  0
 19 20  1  0  0  0  0
 20 21  4  0  0  0  0
 20 25  4  0  0  0  0
 21 22  4  0  0  0  0
 22 23  4  0  0  0  0
 23 24  4  0  0  0  0
 23 26  1  0  0  0  0
 24 25  4  0  0  0  0
 26 27  4  0  0  0  0
 26 30  4  0  0  0  0
 27 28  4  0  0  0  0
 28 29  4  0  0  0  0
 28 34  4  0  0  0  0
 29 30  4  0  0  0  0
 29 31  4  0  0  0  0
 31 32  4  0  0  0  0
 32 33  4  0  0  0  0
 33 34  4  0  0  0  0
M  END
>  <Name_Molregno>
388525

>  <DOPAMINE D3>
9.14

$$$$
388526
  Marvin  02231216192D 0   1.00000     0.00000     0

 34 38  0  0  0  0  0  0  0  0999 V2000
    0.0900   -2.7557    0.0000 Cl  0  0  0  0  0  0  0  0  0
    0.5025   -3.4701    0.0000 C   0  0  0  0  0  0  0  0  0
    1.3275   -3.4701    0.0000 C   0  0  0  0  0  0  0  0  0
    1.7400   -2.7557    0.0000 N   0  0  0  0  0  0  0  0  0
    1.3275   -2.0412    0.0000 C   0  0  0  0  0  0  0  0  0
    1.7400   -1.3267    0.0000 C   0  0  0  0  0  0  0  0  0
    2.5650   -1.3267    0.0000 N   0  0  0  0  0  0  0  0  0
    2.9775   -2.0412    0.0000 C   0  0  0  0  0  0  0  0  0
    2.5650   -2.7557    0.0000 C   0  0  0  0  0  0  0  0  0
    2.9775   -0.6123    0.0000 C   0  0  0  0  0  0  0  0  0
    3.8025   -0.6123    0.0000 C   0  0  0  0  0  0  0  0  0
    4.2150    0.1022    0.0000 C   0  0  0  0  0  0  0  0  0
    5.0400    0.1022    0.0000 C   0  0  0  0  0  0  0  0  0
    5.4525    0.8167    0.0000 O   0  0  0  0  0  0  0  0  0
    6.2775    0.8167    0.0000 C   0  0  0  0  0  0  0  0  0
    6.6900    1.5312    0.0000 C   0  0  0  0  0  0  0  0  0
    7.5150    1.5312    0.0000 C   0  0  0  0  0  0  0  0  0
    7.9275    0.8167    0.0000 C   0  0  0  0  0  0  0  0  0
    7.5150    0.1022    0.0000 C   0  0  0  0  0  0  0  0  0
    6.6900    0.1022    0.0000 C   0  0  0  0  0  0  0  0  0
    8.7525    0.8167    0.0000 C   0  0  0  0  0  0  0  0  0
    9.2374    0.1492    0.0000 N   0  0  0  0  0  0  0  0  0
   10.0220    0.4042    0.0000 C   0  0  0  0  0  0  0  0  0
   10.0220    1.2292    0.0000 N   0  0  0  0  0  0  0  0  0
    9.2374    1.4841    0.0000 C   0  0  0  0  0  0  0  0  0
   10.7365    1.6417    0.0000 C   0  0  0  0  0  0  0  0  0
   11.4509    1.2292    0.0000 C   0  0  0  0  0  0  0  0  0
   11.4509    0.4042    0.0000 C   0  0  0  0  0  0  0  0  0
   10.7365   -0.0083    0.0000 C   0  0  0  0  0  0  0  0  0
    1.7400   -4.1846    0.0000 C   0  0  0  0  0  0  0  0  0
    1.3275   -4.8991    0.0000 C   0  0  0  0  0  0  0  0  0
    0.5025   -4.8991    0.0000 C   0  0  0  0  0  0  0  0  0
    0.0900   -4.1846    0.0000 C   0  0  0  0  0  0  0  0  0
   -0.7350   -4.1846    0.0000 Cl  0  0  0  0  0  0  0  0  0
  1  2  1  0  0  0  0
  2  3  4  0  0  0  0
  2 33  4  0  0  0  0
  3  4  1  0  0  0  0
  3 30  4  0  0  0  0
  4  5  1  0  0  0  0
  4  9  1  0  0  0  0
  5  6  1  0  0  0  0
  6  7  1  0  0  0  0
  7  8  1  0  0  0  0
  7 10  1  0  0  0  0
  8  9  1  0  0  0  0
 10 11  1  0  0  0  0
 11 12  1  0  0  0  0
 12 13  1  0  0  0  0
 13 14  1  0  0  0  0
 14 15  1  0  0  0  0
 15 16  4  0  0  0  0
 15 20  4  0  0  0  0
 16 17  4  0  0  0  0
 17 18  4  0  0  0  0
 18 19  4  0  0  0  0
 18 21  1  0  0  0  0
 19 20  4  0  0  0  0
 21 22  4  0  0  0  0
 21 25  4  0  0  0  0
 22 23  4  0  0  0  0
 23 24  4  0  0  0  0
 23 29  4  0  0  0  0
 24 25  4  0  0  0  0
 24 26  4  0  0  0  0
 26 27  4  0  0  0  0
 27 28  4  0  0  0  0
 28 29  4  0  0  0  0
 30 31  4  0  0  0  0
 31 32  4  0  0  0  0
 32 33  4  0  0  0  0
 33 34  1  0  0  0  0
M  END
>  <Name_Molregno>
388526

>  <DOPAMINE D3>
7.42

$$$$
388527
  Marvin  02231216192D 0   1.00000     0.00000     0

 35 39  0  0  0  0  0  0  0  0999 V2000
   -8.2510   -2.3260    0.0000 O   0  0  0  0  0  0  0  0  0
   -7.8385   -3.0404    0.0000 C   0  0  0  0  0  0  0  0  0
   -9.0760   -2.3260    0.0000 C   0  0  0  0  0  0  0  0  0
   -9.4885   -3.0404    0.0000 C   0  0  0  0  0  0  0  0  0
  -10.3135   -3.0404    0.0000 C   0  0  0  0  0  0  0  0  0
  -10.7260   -2.3260    0.0000 C   0  0  0  0  0  0  0  0  0
  -10.3135   -1.6115    0.0000 C   0  0  0  0  0  0  0  0  0
   -9.4885   -1.6115    0.0000 C   0  0  0  0  0  0  0  0  0
   -9.0760   -0.8970    0.0000 N   0  0  0  0  0  0  0  0  0
   -9.4885   -0.1825    0.0000 C   0  0  0  0  0  0  0  0  0
   -9.0760    0.5319    0.0000 C   0  0  0  0  0  0  0  0  0
   -8.2510    0.5319    0.0000 N   0  0  0  0  0  0  0  0  0
   -7.8385   -0.1825    0.0000 C   0  0  0  0  0  0  0  0  0
   -8.2510   -0.8970    0.0000 C   0  0  0  0  0  0  0  0  0
   -7.8385    1.2464    0.0000 C   0  0  0  0  0  0  0  0  0
   -7.0135    1.2464    0.0000 C   0  0  0  0  0  0  0  0  0
   -6.6010    1.9609    0.0000 C   0  0  0  0  0  0  0  0  0
   -5.7760    1.9609    0.0000 C   0  0  0  0  0  0  0  0  0
   -5.3635    2.6753    0.0000 O   0  0  0  0  0  0  0  0  0
   -4.5385    2.6753    0.0000 C   0  0  0  0  0  0  0  0  0
   -4.1260    3.3898    0.0000 C   0  0  0  0  0  0  0  0  0
   -3.3010    3.3898    0.0000 C   0  0  0  0  0  0  0  0  0
   -2.8885    2.6753    0.0000 C   0  0  0  0  0  0  0  0  0
   -3.3010    1.9609    0.0000 C   0  0  0  0  0  0  0  0  0
   -4.1260    1.9609    0.0000 C   0  0  0  0  0  0  0  0  0
   -2.0635    2.6753    0.0000 C   0  0  0  0  0  0  0  0  0
   -1.5786    2.0079    0.0000 N   0  0  0  0  0  0  0  0  0
   -0.7940    2.2628    0.0000 C   0  0  0  0  0  0  0  0  0
   -0.7940    3.0878    0.0000 N   0  0  0  0  0  0  0  0  0
   -0.0795    3.5003    0.0000 C   0  0  0  0  0  0  0  0  0
    0.6350    3.0878    0.0000 C   0  0  0  0  0  0  0  0  0
    0.6350    2.2628    0.0000 C   0  0  0  0  0  0  0  0  0
   -0.0795    1.8503    0.0000 C   0  0  0  0  0  0  0  0  0
    1.3494    3.5003    0.0000 C   0  0  0  0  0  0  0  0  0
   -1.5786    3.3428    0.0000 C   0  0  0  0  0  0  0  0  0
  1  2  1  0  0  0  0
  1  3  1  0  0  0  0
  3  4  4  0  0  0  0
  3  8  4  0  0  0  0
  4  5  4  0  0  0  0
  5  6  4  0  0  0  0
  6  7  4  0  0  0  0
  7  8  4  0  0  0  0
  8  9  1  0  0  0  0
  9 10  1  0  0  0  0
  9 14  1  0  0  0  0
 10 11  1  0  0  0  0
 11 12  1  0  0  0  0
 12 13  1  0  0  0  0
 12 15  1  0  0  0  0
 13 14  1  0  0  0  0
 15 16  1  0  0  0  0
 16 17  1  0  0  0  0
 17 18  1  0  0  0  0
 18 19  1  0  0  0  0
 19 20  1  0  0  0  0
 20 21  4  0  0  0  0
 20 25  4  0  0  0  0
 21 22  4  0  0  0  0
 22 23  4  0  0  0  0
 23 24  4  0  0  0  0
 23 26  1  0  0  0  0
 24 25  4  0  0  0  0
 26 27  4  0  0  0  0
 26 35  4  0  0  0  0
 27 28  4  0  0  0  0
 28 29  4  0  0  0  0
 28 33  4  0  0  0  0
 29 30  4  0  0  0  0
 29 35  4  0  0  0  0
 30 31  4  0  0  0  0
 31 32  4  0  0  0  0
 31 34  1  0  0  0  0
 32 33  4  0  0  0  0
M  END
>  <Name_Molregno>
388527

>  <DOPAMINE D3>
6.84

$$$$
388528
  Marvin  02231216192D 0   1.00000     0.00000     0

 35 39  0  0  0  0  0  0  0  0999 V2000
    0.1033   -2.8168    0.0000 Cl  0  0  0  0  0  0  0  0  0
    0.5158   -3.5313    0.0000 C   0  0  0  0  0  0  0  0  0
    1.3408   -3.5313    0.0000 C   0  0  0  0  0  0  0  0  0
    1.7533   -2.8168    0.0000 N   0  0  0  0  0  0  0  0  0
    1.3408   -2.1023    0.0000 C   0  0  0  0  0  0  0  0  0
    1.7533   -1.3878    0.0000 C   0  0  0  0  0  0  0  0  0
    2.5783   -1.3878    0.0000 N   0  0  0  0  0  0  0  0  0
    2.9908   -2.1023    0.0000 C   0  0  0  0  0  0  0  0  0
    2.5783   -2.8168    0.0000 C   0  0  0  0  0  0  0  0  0
    2.9908   -0.6734    0.0000 C   0  0  0  0  0  0  0  0  0
    3.8158   -0.6734    0.0000 C   0  0  0  0  0  0  0  0  0
    4.2283    0.0411    0.0000 C   0  0  0  0  0  0  0  0  0
    5.0533    0.0411    0.0000 C   0  0  0  0  0  0  0  0  0
    5.4658    0.7556    0.0000 O   0  0  0  0  0  0  0  0  0
    6.2908    0.7556    0.0000 C   0  0  0  0  0  0  0  0  0
    6.7033    1.4700    0.0000 C   0  0  0  0  0  0  0  0  0
    7.5283    1.4700    0.0000 C   0  0  0  0  0  0  0  0  0
    7.9408    0.7556    0.0000 C   0  0  0  0  0  0  0  0  0
    7.5283    0.0411    0.0000 C   0  0  0  0  0  0  0  0  0
    6.7033    0.0411    0.0000 C   0  0  0  0  0  0  0  0  0
    8.7658    0.7556    0.0000 C   0  0  0  0  0  0  0  0  0
    9.2507    0.0881    0.0000 N   0  0  0  0  0  0  0  0  0
   10.0353    0.3431    0.0000 C   0  0  0  0  0  0  0  0  0
   10.0353    1.1681    0.0000 N   0  0  0  0  0  0  0  0  0
   10.7498    1.5806    0.0000 C   0  0  0  0  0  0  0  0  0
   11.4642    1.1681    0.0000 C   0  0  0  0  0  0  0  0  0
   11.4642    0.3431    0.0000 C   0  0  0  0  0  0  0  0  0
   10.7498   -0.0694    0.0000 C   0  0  0  0  0  0  0  0  0
   12.1787    1.5806    0.0000 C   0  0  0  0  0  0  0  0  0
    9.2507    1.4230    0.0000 C   0  0  0  0  0  0  0  0  0
    1.7533   -4.2457    0.0000 C   0  0  0  0  0  0  0  0  0
    1.3408   -4.9602    0.0000 C   0  0  0  0  0  0  0  0  0
    0.5158   -4.9602    0.0000 C   0  0  0  0  0  0  0  0  0
    0.1033   -4.2457    0.0000 C   0  0  0  0  0  0  0  0  0
   -0.7217   -4.2457    0.0000 Cl  0  0  0  0  0  0  0  0  0
  1  2  1  0  0  0  0
  2  3  4  0  0  0  0
  2 34  4  0  0  0  0
  3  4  1  0  0  0  0
  3 31  4  0  0  0  0
  4  5  1  0  0  0  0
  4  9  1  0  0  0  0
  5  6  1  0  0  0  0
  6  7  1  0  0  0  0
  7  8  1  0  0  0  0
  7 10  1  0  0  0  0
  8  9  1  0  0  0  0
 10 11  1  0  0  0  0
 11 12  1  0  0  0  0
 12 13  1  0  0  0  0
 13 14  1  0  0  0  0
 14 15  1  0  0  0  0
 15 16  4  0  0  0  0
 15 20  4  0  0  0  0
 16 17  4  0  0  0  0
 17 18  4  0  0  0  0
 18 19  4  0  0  0  0
 18 21  1  0  0  0  0
 19 20  4  0  0  0  0
 21 22  4  0  0  0  0
 21 30  4  0  0  0  0
 22 23  4  0  0  0  0
 23 24  4  0  0  0  0
 23 28  4  0  0  0  0
 24 25  4  0  0  0  0
 24 30  4  0  0  0  0
 25 26  4  0  0  0  0
 26 27  4  0  0  0  0
 26 29  1  0  0  0  0
 27 28  4  0  0  0  0
 31 32  4  0  0  0  0
 32 33  4  0  0  0  0
 33 34  4  0  0  0  0
 34 35  1  0  0  0  0
M  END
>  <Name_Molregno>
388528

>  <DOPAMINE D3>
8.1

$$$$
388531
  Marvin  02231216192D 0   1.00000     0.00000     0

 35 39  0  0  0  0  0  0  0  0999 V2000
   -8.2510   -2.2788    0.0000 O   0  0  0  0  0  0  0  0  0
   -7.8385   -2.9933    0.0000 C   0  0  0  0  0  0  0  0  0
   -9.0760   -2.2788    0.0000 C   0  0  0  0  0  0  0  0  0
   -9.4885   -2.9933    0.0000 C   0  0  0  0  0  0  0  0  0
  -10.3135   -2.9933    0.0000 C   0  0  0  0  0  0  0  0  0
  -10.7260   -2.2788    0.0000 C   0  0  0  0  0  0  0  0  0
  -10.3135   -1.5643    0.0000 C   0  0  0  0  0  0  0  0  0
   -9.4885   -1.5643    0.0000 C   0  0  0  0  0  0  0  0  0
   -9.0760   -0.8499    0.0000 N   0  0  0  0  0  0  0  0  0
   -9.4885   -0.1354    0.0000 C   0  0  0  0  0  0  0  0  0
   -9.0760    0.5791    0.0000 C   0  0  0  0  0  0  0  0  0
   -8.2510    0.5791    0.0000 N   0  0  0  0  0  0  0  0  0
   -7.8385   -0.1354    0.0000 C   0  0  0  0  0  0  0  0  0
   -8.2510   -0.8499    0.0000 C   0  0  0  0  0  0  0  0  0
   -7.8385    1.2935    0.0000 C   0  0  0  0  0  0  0  0  0
   -7.0135    1.2935    0.0000 C   0  0  0  0  0  0  0  0  0
   -6.6010    2.0080    0.0000 C   0  0  0  0  0  0  0  0  0
   -5.7760    2.0080    0.0000 C   0  0  0  0  0  0  0  0  0
   -5.3635    2.7225    0.0000 O   0  0  0  0  0  0  0  0  0
   -4.5385    2.7225    0.0000 C   0  0  0  0  0  0  0  0  0
   -4.1260    3.4370    0.0000 C   0  0  0  0  0  0  0  0  0
   -3.3010    3.4370    0.0000 C   0  0  0  0  0  0  0  0  0
   -2.8885    2.7225    0.0000 C   0  0  0  0  0  0  0  0  0
   -3.3010    2.0080    0.0000 C   0  0  0  0  0  0  0  0  0
   -4.1260    2.0080    0.0000 C   0  0  0  0  0  0  0  0  0
   -2.0635    2.7225    0.0000 C   0  0  0  0  0  0  0  0  0
   -1.5786    2.0550    0.0000 N   0  0  0  0  0  0  0  0  0
   -0.7940    2.3100    0.0000 C   0  0  0  0  0  0  0  0  0
   -0.7940    3.1350    0.0000 N   0  0  0  0  0  0  0  0  0
   -1.5786    3.3899    0.0000 C   0  0  0  0  0  0  0  0  0
   -0.0795    3.5475    0.0000 C   0  0  0  0  0  0  0  0  0
    0.6350    3.1350    0.0000 C   0  0  0  0  0  0  0  0  0
    0.6350    2.3100    0.0000 C   0  0  0  0  0  0  0  0  0
   -0.0795    1.8975    0.0000 C   0  0  0  0  0  0  0  0  0
    1.3494    1.8975    0.0000 C   0  0  0  0  0  0  0  0  0
  1  2  1  0  0  0  0
  1  3  1  0  0  0  0
  3  4  4  0  0  0  0
  3  8  4  0  0  0  0
  4  5  4  0  0  0  0
  5  6  4  0  0  0  0
  6  7  4  0  0  0  0
  7  8  4  0  0  0  0
  8  9  1  0  0  0  0
  9 10  1  0  0  0  0
  9 14  1  0  0  0  0
 10 11  1  0  0  0  0
 11 12  1  0  0  0  0
 12 13  1  0  0  0  0
 12 15  1  0  0  0  0
 13 14  1  0  0  0  0
 15 16  1  0  0  0  0
 16 17  1  0  0  0  0
 17 18  1  0  0  0  0
 18 19  1  0  0  0  0
 19 20  1  0  0  0  0
 20 21  4  0  0  0  0
 20 25  4  0  0  0  0
 21 22  4  0  0  0  0
 22 23  4  0  0  0  0
 23 24  4  0  0  0  0
 23 26  1  0  0  0  0
 24 25  4  0  0  0  0
 26 27  4  0  0  0  0
 26 30  4  0  0  0  0
 27 28  4  0  0  0  0
 28 29  4  0  0  0  0
 28 34  4  0  0  0  0
 29 30  4  0  0  0  0
 29 31  4  0  0  0  0
 31 32  4  0  0  0  0
 32 33  4  0  0  0  0
 33 34  4  0  0  0  0
 33 35  1  0  0  0  0
M  END
>  <Name_Molregno>
388531

>  <DOPAMINE D3>
7.4

$$$$
388532
  Marvin  02231216192D 0   1.00000     0.00000     0

 35 39  0  0  0  0  0  0  0  0999 V2000
  -10.5332   -2.7696    0.0000 Cl  0  0  0  0  0  0  0  0  0
  -10.1207   -3.4841    0.0000 C   0  0  0  0  0  0  0  0  0
   -9.2957   -3.4841    0.0000 C   0  0  0  0  0  0  0  0  0
   -8.8832   -2.7696    0.0000 N   0  0  0  0  0  0  0  0  0
   -9.2957   -2.0552    0.0000 C   0  0  0  0  0  0  0  0  0
   -8.8832   -1.3407    0.0000 C   0  0  0  0  0  0  0  0  0
   -8.0582   -1.3407    0.0000 N   0  0  0  0  0  0  0  0  0
   -7.6457   -2.0552    0.0000 C   0  0  0  0  0  0  0  0  0
   -8.0582   -2.7696    0.0000 C   0  0  0  0  0  0  0  0  0
   -7.6457   -0.6262    0.0000 C   0  0  0  0  0  0  0  0  0
   -6.8207   -0.6262    0.0000 C   0  0  0  0  0  0  0  0  0
   -6.4082    0.0882    0.0000 C   0  0  0  0  0  0  0  0  0
   -5.5832    0.0882    0.0000 C   0  0  0  0  0  0  0  0  0
   -5.1707    0.8027    0.0000 O   0  0  0  0  0  0  0  0  0
   -4.3457    0.8027    0.0000 C   0  0  0  0  0  0  0  0  0
   -3.9332    1.5172    0.0000 C   0  0  0  0  0  0  0  0  0
   -3.1082    1.5172    0.0000 C   0  0  0  0  0  0  0  0  0
   -2.6957    0.8027    0.0000 C   0  0  0  0  0  0  0  0  0
   -3.1082    0.0882    0.0000 C   0  0  0  0  0  0  0  0  0
   -3.9332    0.0882    0.0000 C   0  0  0  0  0  0  0  0  0
   -1.8707    0.8027    0.0000 C   0  0  0  0  0  0  0  0  0
   -1.3858    0.1353    0.0000 N   0  0  0  0  0  0  0  0  0
   -0.6012    0.3902    0.0000 C   0  0  0  0  0  0  0  0  0
   -0.6012    1.2152    0.0000 N   0  0  0  0  0  0  0  0  0
   -1.3858    1.4702    0.0000 C   0  0  0  0  0  0  0  0  0
    0.1133    1.6277    0.0000 C   0  0  0  0  0  0  0  0  0
    0.8278    1.2152    0.0000 C   0  0  0  0  0  0  0  0  0
    0.8278    0.3902    0.0000 C   0  0  0  0  0  0  0  0  0
    0.1133   -0.0223    0.0000 C   0  0  0  0  0  0  0  0  0
    1.5422   -0.0223    0.0000 C   0  0  0  0  0  0  0  0  0
   -8.8832   -4.1986    0.0000 C   0  0  0  0  0  0  0  0  0
   -9.2957   -4.9131    0.0000 C   0  0  0  0  0  0  0  0  0
  -10.1207   -4.9131    0.0000 C   0  0  0  0  0  0  0  0  0
  -10.5332   -4.1986    0.0000 C   0  0  0  0  0  0  0  0  0
  -11.3582   -4.1986    0.0000 Cl  0  0  0  0  0  0  0  0  0
  1  2  1  0  0  0  0
  2  3  4  0  0  0  0
  2 34  4  0  0  0  0
  3  4  1  0  0  0  0
  3 31  4  0  0  0  0
  4  5  1  0  0  0  0
  4  9  1  0  0  0  0
  5  6  1  0  0  0  0
  6  7  1  0  0  0  0
  7  8  1  0  0  0  0
  7 10  1  0  0  0  0
  8  9  1  0  0  0  0
 10 11  1  0  0  0  0
 11 12  1  0  0  0  0
 12 13  1  0  0  0  0
 13 14  1  0  0  0  0
 14 15  1  0  0  0  0
 15 16  4  0  0  0  0
 15 20  4  0  0  0  0
 16 17  4  0  0  0  0
 17 18  4  0  0  0  0
 18 19  4  0  0  0  0
 18 21  1  0  0  0  0
 19 20  4  0  0  0  0
 21 22  4  0  0  0  0
 21 25  4  0  0  0  0
 22 23  4  0  0  0  0
 23 24  4  0  0  0  0
 23 29  4  0  0  0  0
 24 25  4  0  0  0  0
 24 26  4  0  0  0  0
 26 27  4  0  0  0  0
 27 28  4  0  0  0  0
 28 29  4  0  0  0  0
 28 30  1  0  0  0  0
 31 32  4  0  0  0  0
 32 33  4  0  0  0  0
 33 34  4  0  0  0  0
 34 35  1  0  0  0  0
M  END
>  <Name_Molregno>
388532

>  <DOPAMINE D3>
7.22

$$$$
388535
  Marvin  02231216192D 0   1.00000     0.00000     0

 35 39  0  0  0  0  0  0  0  0999 V2000
   -8.1893   -2.3073    0.0000 O   0  0  0  0  0  0  0  0  0
   -7.7768   -3.0218    0.0000 C   0  0  0  0  0  0  0  0  0
   -9.0143   -2.3073    0.0000 C   0  0  0  0  0  0  0  0  0
   -9.4268   -3.0218    0.0000 C   0  0  0  0  0  0  0  0  0
  -10.2518   -3.0218    0.0000 C   0  0  0  0  0  0  0  0  0
  -10.6643   -2.3073    0.0000 C   0  0  0  0  0  0  0  0  0
  -10.2518   -1.5928    0.0000 C   0  0  0  0  0  0  0  0  0
   -9.4268   -1.5928    0.0000 C   0  0  0  0  0  0  0  0  0
   -9.0143   -0.8784    0.0000 N   0  0  0  0  0  0  0  0  0
   -9.4268   -0.1639    0.0000 C   0  0  0  0  0  0  0  0  0
   -9.0143    0.5506    0.0000 C   0  0  0  0  0  0  0  0  0
   -8.1893    0.5506    0.0000 N   0  0  0  0  0  0  0  0  0
   -7.7768   -0.1639    0.0000 C   0  0  0  0  0  0  0  0  0
   -8.1893   -0.8784    0.0000 C   0  0  0  0  0  0  0  0  0
   -7.7768    1.2650    0.0000 C   0  0  0  0  0  0  0  0  0
   -6.9518    1.2650    0.0000 C   0  0  0  0  0  0  0  0  0
   -6.5393    1.9795    0.0000 C   0  0  0  0  0  0  0  0  0
   -5.7143    1.9795    0.0000 C   0  0  0  0  0  0  0  0  0
   -5.3018    2.6940    0.0000 O   0  0  0  0  0  0  0  0  0
   -4.4768    2.6940    0.0000 C   0  0  0  0  0  0  0  0  0
   -4.0643    3.4085    0.0000 C   0  0  0  0  0  0  0  0  0
   -3.2393    3.4085    0.0000 C   0  0  0  0  0  0  0  0  0
   -2.8268    2.6940    0.0000 C   0  0  0  0  0  0  0  0  0
   -3.2393    1.9795    0.0000 C   0  0  0  0  0  0  0  0  0
   -4.0643    1.9795    0.0000 C   0  0  0  0  0  0  0  0  0
   -2.0018    2.6940    0.0000 C   0  0  0  0  0  0  0  0  0
   -1.5169    2.0265    0.0000 N   0  0  0  0  0  0  0  0  0
   -0.7322    2.2815    0.0000 C   0  0  0  0  0  0  0  0  0
   -0.7322    3.1065    0.0000 N   0  0  0  0  0  0  0  0  0
   -1.5169    3.3614    0.0000 C   0  0  0  0  0  0  0  0  0
   -0.0178    3.5190    0.0000 C   0  0  0  0  0  0  0  0  0
    0.6967    3.1065    0.0000 C   0  0  0  0  0  0  0  0  0
    0.6967    2.2815    0.0000 C   0  0  0  0  0  0  0  0  0
   -0.0178    1.8690    0.0000 C   0  0  0  0  0  0  0  0  0
   -0.0178    1.0440    0.0000 C   0  0  0  0  0  0  0  0  0
  1  2  1  0  0  0  0
  1  3  1  0  0  0  0
  3  4  4  0  0  0  0
  3  8  4  0  0  0  0
  4  5  4  0  0  0  0
  5  6  4  0  0  0  0
  6  7  4  0  0  0  0
  7  8  4  0  0  0  0
  8  9  1  0  0  0  0
  9 10  1  0  0  0  0
  9 14  1  0  0  0  0
 10 11  1  0  0  0  0
 11 12  1  0  0  0  0
 12 13  1  0  0  0  0
 12 15  1  0  0  0  0
 13 14  1  0  0  0  0
 15 16  1  0  0  0  0
 16 17  1  0  0  0  0
 17 18  1  0  0  0  0
 18 19  1  0  0  0  0
 19 20  1  0  0  0  0
 20 21  4  0  0  0  0
 20 25  4  0  0  0  0
 21 22  4  0  0  0  0
 22 23  4  0  0  0  0
 23 24  4  0  0  0  0
 23 26  1  0  0  0  0
 24 25  4  0  0  0  0
 26 27  4  0  0  0  0
 26 30  4  0  0  0  0
 27 28  4  0  0  0  0
 28 29  4  0  0  0  0
 28 34  4  0  0  0  0
 29 30  4  0  0  0  0
 29 31  4  0  0  0  0
 31 32  4  0  0  0  0
 32 33  4  0  0  0  0
 33 34  4  0  0  0  0
 34 35  1  0  0  0  0
M  END
>  <Name_Molregno>
388535

>  <DOPAMINE D3>
6.41

$$$$
388540
  Marvin  02231216192D 0   1.00000     0.00000     0

 35 39  0  0  0  0  0  0  0  0999 V2000
  -10.4713   -2.6943    0.0000 Cl  0  0  0  0  0  0  0  0  0
  -10.0588   -3.4088    0.0000 C   0  0  0  0  0  0  0  0  0
   -9.2338   -3.4088    0.0000 C   0  0  0  0  0  0  0  0  0
   -8.8213   -2.6943    0.0000 N   0  0  0  0  0  0  0  0  0
   -9.2338   -1.9798    0.0000 C   0  0  0  0  0  0  0  0  0
   -8.8213   -1.2654    0.0000 C   0  0  0  0  0  0  0  0  0
   -7.9963   -1.2654    0.0000 N   0  0  0  0  0  0  0  0  0
   -7.5838   -1.9798    0.0000 C   0  0  0  0  0  0  0  0  0
   -7.9963   -2.6943    0.0000 C   0  0  0  0  0  0  0  0  0
   -7.5838   -0.5509    0.0000 C   0  0  0  0  0  0  0  0  0
   -6.7588   -0.5509    0.0000 C   0  0  0  0  0  0  0  0  0
   -6.3463    0.1636    0.0000 C   0  0  0  0  0  0  0  0  0
   -5.5213    0.1636    0.0000 C   0  0  0  0  0  0  0  0  0
   -5.1088    0.8780    0.0000 O   0  0  0  0  0  0  0  0  0
   -4.2838    0.8780    0.0000 C   0  0  0  0  0  0  0  0  0
   -3.8713    1.5925    0.0000 C   0  0  0  0  0  0  0  0  0
   -3.0463    1.5925    0.0000 C   0  0  0  0  0  0  0  0  0
   -2.6338    0.8780    0.0000 C   0  0  0  0  0  0  0  0  0
   -3.0463    0.1636    0.0000 C   0  0  0  0  0  0  0  0  0
   -3.8713    0.1636    0.0000 C   0  0  0  0  0  0  0  0  0
   -1.8088    0.8780    0.0000 C   0  0  0  0  0  0  0  0  0
   -1.3239    0.2106    0.0000 N   0  0  0  0  0  0  0  0  0
   -0.5393    0.4655    0.0000 C   0  0  0  0  0  0  0  0  0
   -0.5393    1.2905    0.0000 N   0  0  0  0  0  0  0  0  0
   -1.3239    1.5455    0.0000 C   0  0  0  0  0  0  0  0  0
    0.1752    1.7030    0.0000 C   0  0  0  0  0  0  0  0  0
    0.8897    1.2905    0.0000 C   0  0  0  0  0  0  0  0  0
    0.8897    0.4655    0.0000 C   0  0  0  0  0  0  0  0  0
    0.1752    0.0530    0.0000 C   0  0  0  0  0  0  0  0  0
    0.1752   -0.7720    0.0000 C   0  0  0  0  0  0  0  0  0
   -8.8213   -4.1233    0.0000 C   0  0  0  0  0  0  0  0  0
   -9.2338   -4.8377    0.0000 C   0  0  0  0  0  0  0  0  0
  -10.0588   -4.8377    0.0000 C   0  0  0  0  0  0  0  0  0
  -10.4713   -4.1233    0.0000 C   0  0  0  0  0  0  0  0  0
  -11.2963   -4.1233    0.0000 Cl  0  0  0  0  0  0  0  0  0
  1  2  1  0  0  0  0
  2  3  4  0  0  0  0
  2 34  4  0  0  0  0
  3  4  1  0  0  0  0
  3 31  4  0  0  0  0
  4  5  1  0  0  0  0
  4  9  1  0  0  0  0
  5  6  1  0  0  0  0
  6  7  1  0  0  0  0
  7  8  1  0  0  0  0
  7 10  1  0  0  0  0
  8  9  1  0  0  0  0
 10 11  1  0  0  0  0
 11 12  1  0  0  0  0
 12 13  1  0  0  0  0
 13 14  1  0  0  0  0
 14 15  1  0  0  0  0
 15 16  4  0  0  0  0
 15 20  4  0  0  0  0
 16 17  4  0  0  0  0
 17 18  4  0  0  0  0
 18 19  4  0  0  0  0
 18 21  1  0  0  0  0
 19 20  4  0  0  0  0
 21 22  4  0  0  0  0
 21 25  4  0  0  0  0
 22 23  4  0  0  0  0
 23 24  4  0  0  0  0
 23 29  4  0  0  0  0
 24 25  4  0  0  0  0
 24 26  4  0  0  0  0
 26 27  4  0  0  0  0
 27 28  4  0  0  0  0
 28 29  4  0  0  0  0
 29 30  1  0  0  0  0
 31 32  4  0  0  0  0
 32 33  4  0  0  0  0
 33 34  4  0  0  0  0
 34 35  1  0  0  0  0
M  END
>  <Name_Molregno>
388540

>  <DOPAMINE D3>
7.26

$$$$
388818
  Marvin  02231216192D 0   1.00000     0.00000     0

 21 23  0  0  0  0  0  0  0  0999 V2000
    0.4061   -1.1671    0.0000 O   0  0  0  0  0  0  0  0  0
    1.1206   -0.7546    0.0000 C   0  0  0  0  0  0  0  0  0
    1.1206    0.0704    0.0000 C   0  0  0  0  0  0  0  0  0
    1.8351    0.4829    0.0000 C   0  0  0  0  0  0  0  0  0
    1.8351    1.3079    0.0000 C   0  0  0  0  0  0  0  0  0
    2.5966    1.7928    0.0000 C   0  0  0  0  0  0  0  0  0
    2.8515    2.5774    0.0000 C   0  0  0  0  0  0  0  0  0
    3.6765    2.5774    0.0000 N   0  0  0  0  0  0  0  0  0
    3.9314    1.7928    0.0000 C   0  0  0  0  0  0  0  0  0
    4.6930    1.3079    0.0000 C   0  0  0  0  0  0  0  0  0
    4.6930    0.4829    0.0000 C   0  0  0  0  0  0  0  0  0
    3.9785    0.0704    0.0000 C   0  0  0  0  0  0  0  0  0
    3.2640    0.4829    0.0000 C   0  0  0  0  0  0  0  0  0
    2.5495    0.0704    0.0000 C   0  0  0  0  0  0  0  0  0
    2.5495   -0.7546    0.0000 C   0  0  0  0  0  0  0  0  0
    1.8351   -1.1671    0.0000 C   0  0  0  0  0  0  0  0  0
    3.9785   -0.7546    0.0000 C   0  0  0  0  0  0  0  0  0
    4.6930   -1.1671    0.0000 C   0  0  0  0  0  0  0  0  0
    5.4074   -0.7546    0.0000 C   0  0  0  0  0  0  0  0  0
    5.4074    0.0704    0.0000 C   0  0  0  0  0  0  0  0  0
    4.1614    3.2449    0.0000 C   0  0  0  0  0  0  0  0  0
  1  2  1  0  0  0  0
  2  3  4  0  0  0  0
  2 16  4  0  0  0  0
  3  4  4  0  0  0  0
  4  5  1  0  0  0  0
  4 14  4  0  0  0  0
  5  6  1  0  0  0  0
  6  7  1  0  0  0  0
  7  8  1  0  0  0  0
  8  9  1  0  0  0  0
  8 21  1  0  0  0  0
  9 10  1  0  0  0  0
 10 11  1  0  0  0  0
 11 12  4  0  0  0  0
 11 20  4  0  0  0  0
 12 13  1  0  0  0  0
 12 17  4  0  0  0  0
 13 14  1  0  0  0  0
 14 15  4  0  0  0  0
 15 16  4  0  0  0  0
 17 18  4  0  0  0  0
 18 19  4  0  0  0  0
 19 20  4  0  0  0  0
M  END
>  <Name_Molregno>
388818

>  <DOPAMINE D1>
7.86

>  <DOPAMINE D3>
5.21

>  <DOPAMINE D5>
7.77

$$$$
388820
  Marvin  02231216192D 0   1.00000     0.00000     0

 22 24  0  0  0  0  0  0  0  0999 V2000
   -5.6423   -1.0758    0.0000 O   0  0  0  0  0  0  0  0  0
   -5.6423   -1.9008    0.0000 C   0  0  0  0  0  0  0  0  0
   -4.9278   -0.6633    0.0000 C   0  0  0  0  0  0  0  0  0
   -4.9278    0.1617    0.0000 C   0  0  0  0  0  0  0  0  0
   -4.2133    0.5742    0.0000 C   0  0  0  0  0  0  0  0  0
   -4.2133    1.3992    0.0000 C   0  0  0  0  0  0  0  0  0
   -3.4518    1.8841    0.0000 C   0  0  0  0  0  0  0  0  0
   -3.1969    2.6687    0.0000 C   0  0  0  0  0  0  0  0  0
   -2.3719    2.6687    0.0000 N   0  0  0  0  0  0  0  0  0
   -2.1170    1.8841    0.0000 C   0  0  0  0  0  0  0  0  0
   -1.3555    1.3992    0.0000 C   0  0  0  0  0  0  0  0  0
   -1.3555    0.5742    0.0000 C   0  0  0  0  0  0  0  0  0
   -2.0699    0.1617    0.0000 C   0  0  0  0  0  0  0  0  0
   -2.7844    0.5742    0.0000 C   0  0  0  0  0  0  0  0  0
   -3.4989    0.1617    0.0000 C   0  0  0  0  0  0  0  0  0
   -3.4989   -0.6633    0.0000 C   0  0  0  0  0  0  0  0  0
   -4.2133   -1.0758    0.0000 C   0  0  0  0  0  0  0  0  0
   -2.0699   -0.6633    0.0000 C   0  0  0  0  0  0  0  0  0
   -1.3555   -1.0758    0.0000 C   0  0  0  0  0  0  0  0  0
   -0.6410   -0.6633    0.0000 C   0  0  0  0  0  0  0  0  0
   -0.6410    0.1617    0.0000 C   0  0  0  0  0  0  0  0  0
   -1.8870    3.3362    0.0000 C   0  0  0  0  0  0  0  0  0
  1  2  1  0  0  0  0
  1  3  1  0  0  0  0
  3  4  4  0  0  0  0
  3 17  4  0  0  0  0
  4  5  4  0  0  0  0
  5  6  1  0  0  0  0
  5 15  4  0  0  0  0
  6  7  1  0  0  0  0
  7  8  1  0  0  0  0
  8  9  1  0  0  0  0
  9 10  1  0  0  0  0
  9 22  1  0  0  0  0
 10 11  1  0  0  0  0
 11 12  1  0  0  0  0
 12 13  4  0  0  0  0
 12 21  4  0  0  0  0
 13 14  1  0  0  0  0
 13 18  4  0  0  0  0
 14 15  1  0  0  0  0
 15 16  4  0  0  0  0
 16 17  4  0  0  0  0
 18 19  4  0  0  0  0
 19 20  4  0  0  0  0
 20 21  4  0  0  0  0
M  END
>  <Name_Molregno>
388820

>  <DOPAMINE D1>
7.54

>  <DOPAMINE D2>
7.61

>  <DOPAMINE D3>
5.5

>  <DOPAMINE D5>
7.26

$$$$
388822
  Marvin  02231216192D 0   1.00000     0.00000     0

 21 23  0  0  0  0  0  0  0  0999 V2000
    0.4312   -1.1445    0.0000 O   0  0  0  0  0  0  0  0  0
    1.1457   -0.7320    0.0000 C   0  0  0  0  0  0  0  0  0
    1.1457    0.0930    0.0000 C   0  0  0  0  0  0  0  0  0
    1.8601    0.5055    0.0000 C   0  0  0  0  0  0  0  0  0
    1.8601    1.3305    0.0000 C   0  0  0  0  0  0  0  0  0
    2.6217    1.8155    0.0000 C   0  0  0  0  0  0  0  0  0
    2.8766    2.6001    0.0000 N   0  0  0  0  0  0  0  0  0
    3.7016    2.6001    0.0000 C   0  0  0  0  0  0  0  0  0
    3.9565    1.8155    0.0000 C   0  0  0  0  0  0  0  0  0
    4.7180    1.3305    0.0000 C   0  0  0  0  0  0  0  0  0
    4.7180    0.5055    0.0000 C   0  0  0  0  0  0  0  0  0
    4.0036    0.0930    0.0000 C   0  0  0  0  0  0  0  0  0
    3.2891    0.5055    0.0000 C   0  0  0  0  0  0  0  0  0
    2.5746    0.0930    0.0000 C   0  0  0  0  0  0  0  0  0
    2.5746   -0.7320    0.0000 C   0  0  0  0  0  0  0  0  0
    1.8601   -1.1445    0.0000 C   0  0  0  0  0  0  0  0  0
    4.0036   -0.7320    0.0000 C   0  0  0  0  0  0  0  0  0
    4.7180   -1.1445    0.0000 C   0  0  0  0  0  0  0  0  0
    5.4325   -0.7320    0.0000 C   0  0  0  0  0  0  0  0  0
    5.4325    0.0930    0.0000 C   0  0  0  0  0  0  0  0  0
    2.3917    3.2675    0.0000 C   0  0  0  0  0  0  0  0  0
  1  2  1  0  0  0  0
  2  3  4  0  0  0  0
  2 16  4  0  0  0  0
  3  4  4  0  0  0  0
  4  5  1  0  0  0  0
  4 14  4  0  0  0  0
  5  6  1  0  0  0  0
  6  7  1  0  0  0  0
  7  8  1  0  0  0  0
  7 21  1  0  0  0  0
  8  9  1  0  0  0  0
  9 10  1  0  0  0  0
 10 11  1  0  0  0  0
 11 12  4  0  0  0  0
 11 20  4  0  0  0  0
 12 13  1  0  0  0  0
 12 17  4  0  0  0  0
 13 14  1  0  0  0  0
 14 15  4  0  0  0  0
 15 16  4  0  0  0  0
 17 18  4  0  0  0  0
 18 19  4  0  0  0  0
 19 20  4  0  0  0  0
M  END
>  <Name_Molregno>
388822

>  <DOPAMINE D1>
8.53

>  <DOPAMINE D2>
7.38

>  <DOPAMINE D3>
7

>  <DOPAMINE D5>
8.01

$$$$
388823
  Marvin  02231216192D 0   1.00000     0.00000     0

 22 24  0  0  0  0  0  0  0  0999 V2000
   -5.5048   -1.0661    0.0000 O   0  0  0  0  0  0  0  0  0
   -5.5048   -1.8911    0.0000 C   0  0  0  0  0  0  0  0  0
   -4.7903   -0.6536    0.0000 C   0  0  0  0  0  0  0  0  0
   -4.7903    0.1714    0.0000 C   0  0  0  0  0  0  0  0  0
   -4.0758    0.5839    0.0000 C   0  0  0  0  0  0  0  0  0
   -4.0758    1.4089    0.0000 C   0  0  0  0  0  0  0  0  0
   -3.3143    1.8938    0.0000 C   0  0  0  0  0  0  0  0  0
   -3.0594    2.6784    0.0000 N   0  0  0  0  0  0  0  0  0
   -2.2344    2.6784    0.0000 C   0  0  0  0  0  0  0  0  0
   -1.9795    1.8938    0.0000 C   0  0  0  0  0  0  0  0  0
   -1.2179    1.4089    0.0000 C   0  0  0  0  0  0  0  0  0
   -1.2179    0.5839    0.0000 C   0  0  0  0  0  0  0  0  0
   -1.9324    0.1714    0.0000 C   0  0  0  0  0  0  0  0  0
   -2.6469    0.5839    0.0000 C   0  0  0  0  0  0  0  0  0
   -3.3613    0.1714    0.0000 C   0  0  0  0  0  0  0  0  0
   -3.3613   -0.6536    0.0000 C   0  0  0  0  0  0  0  0  0
   -4.0758   -1.0661    0.0000 C   0  0  0  0  0  0  0  0  0
   -1.9324   -0.6536    0.0000 C   0  0  0  0  0  0  0  0  0
   -1.2179   -1.0661    0.0000 C   0  0  0  0  0  0  0  0  0
   -0.5035   -0.6536    0.0000 C   0  0  0  0  0  0  0  0  0
   -0.5035    0.1714    0.0000 C   0  0  0  0  0  0  0  0  0
   -3.5443    3.3458    0.0000 C   0  0  0  0  0  0  0  0  0
  1  2  1  0  0  0  0
  1  3  1  0  0  0  0
  3  4  4  0  0  0  0
  3 17  4  0  0  0  0
  4  5  4  0  0  0  0
  5  6  1  0  0  0  0
  5 15  4  0  0  0  0
  6  7  1  0  0  0  0
  7  8  1  0  0  0  0
  8  9  1  0  0  0  0
  8 22  1  0  0  0  0
  9 10  1  0  0  0  0
 10 11  1  0  0  0  0
 11 12  1  0  0  0  0
 12 13  4  0  0  0  0
 12 21  4  0  0  0  0
 13 14  1  0  0  0  0
 13 18  4  0  0  0  0
 14 15  1  0  0  0  0
 15 16  4  0  0  0  0
 16 17  4  0  0  0  0
 18 19  4  0  0  0  0
 19 20  4  0  0  0  0
 20 21  4  0  0  0  0
M  END
>  <Name_Molregno>
388823

>  <DOPAMINE D1>
7.69

>  <DOPAMINE D2>
7.06

>  <DOPAMINE D3>
6.29

>  <DOPAMINE D5>
8.34

$$$$
388825
  Marvin  02231216192D 0   1.00000     0.00000     0

 22 24  0  0  0  0  0  0  0  0999 V2000
    0.0764   -0.4273    0.0000 O   0  0  0  0  0  0  0  0  0
    0.7909   -0.0148    0.0000 C   0  0  0  0  0  0  0  0  0
    0.7909    0.8102    0.0000 C   0  0  0  0  0  0  0  0  0
    1.5054    1.2227    0.0000 C   0  0  0  0  0  0  0  0  0
    1.5054    2.0477    0.0000 C   0  0  0  0  0  0  0  0  0
    2.2198    2.4602    0.0000 C   0  0  0  0  0  0  0  0  0
    2.2198    3.2852    0.0000 C   0  0  0  0  0  0  0  0  0
    2.9343    3.6977    0.0000 N   0  0  0  0  0  0  0  0  0
    3.6488    3.2852    0.0000 C   0  0  0  0  0  0  0  0  0
    3.6488    2.4602    0.0000 C   0  0  0  0  0  0  0  0  0
    4.3633    2.0477    0.0000 C   0  0  0  0  0  0  0  0  0
    4.3633    1.2227    0.0000 C   0  0  0  0  0  0  0  0  0
    3.6488    0.8102    0.0000 C   0  0  0  0  0  0  0  0  0
    2.9343    1.2227    0.0000 C   0  0  0  0  0  0  0  0  0
    2.2198    0.8102    0.0000 C   0  0  0  0  0  0  0  0  0
    2.2198   -0.0148    0.0000 C   0  0  0  0  0  0  0  0  0
    1.5054   -0.4273    0.0000 C   0  0  0  0  0  0  0  0  0
    3.6488   -0.0148    0.0000 C   0  0  0  0  0  0  0  0  0
    4.3633   -0.4273    0.0000 C   0  0  0  0  0  0  0  0  0
    5.0777   -0.0148    0.0000 C   0  0  0  0  0  0  0  0  0
    5.0777    0.8102    0.0000 C   0  0  0  0  0  0  0  0  0
    2.9343    4.5227    0.0000 C   0  0  0  0  0  0  0  0  0
  1  2  1  0  0  0  0
  2  3  4  0  0  0  0
  2 17  4  0  0  0  0
  3  4  4  0  0  0  0
  4  5  1  0  0  0  0
  4 15  4  0  0  0  0
  5  6  1  0  0  0  0
  6  7  1  0  0  0  0
  7  8  1  0  0  0  0
  8  9  1  0  0  0  0
  8 22  1  0  0  0  0
  9 10  1  0  0  0  0
 10 11  1  0  0  0  0
 11 12  1  0  0  0  0
 12 13  4  0  0  0  0
 12 21  4  0  0  0  0
 13 14  1  0  0  0  0
 13 18  4  0  0  0  0
 14 15  1  0  0  0  0
 15 16  4  0  0  0  0
 16 17  4  0  0  0  0
 18 19  4  0  0  0  0
 19 20  4  0  0  0  0
 20 21  4  0  0  0  0
M  END
>  <Name_Molregno>
388825

>  <DOPAMINE D1>
7.08

>  <DOPAMINE D3>
5.4

>  <DOPAMINE D5>
7.02

$$$$
388826
  Marvin  02231216192D 0   1.00000     0.00000     0

 23 25  0  0  0  0  0  0  0  0999 V2000
    0.3435   -1.6273    0.0000 O   0  0  0  0  0  0  0  0  0
    0.3435   -2.4523    0.0000 C   0  0  0  0  0  0  0  0  0
    1.0580   -1.2148    0.0000 C   0  0  0  0  0  0  0  0  0
    1.0580   -0.3898    0.0000 C   0  0  0  0  0  0  0  0  0
    1.7725    0.0227    0.0000 C   0  0  0  0  0  0  0  0  0
    1.7725    0.8477    0.0000 C   0  0  0  0  0  0  0  0  0
    2.4869    1.2602    0.0000 C   0  0  0  0  0  0  0  0  0
    2.4869    2.0852    0.0000 C   0  0  0  0  0  0  0  0  0
    3.2014    2.4977    0.0000 N   0  0  0  0  0  0  0  0  0
    3.9159    2.0852    0.0000 C   0  0  0  0  0  0  0  0  0
    3.9159    1.2602    0.0000 C   0  0  0  0  0  0  0  0  0
    4.6303    0.8477    0.0000 C   0  0  0  0  0  0  0  0  0
    4.6303    0.0227    0.0000 C   0  0  0  0  0  0  0  0  0
    3.9159   -0.3898    0.0000 C   0  0  0  0  0  0  0  0  0
    3.2014    0.0227    0.0000 C   0  0  0  0  0  0  0  0  0
    2.4869   -0.3898    0.0000 C   0  0  0  0  0  0  0  0  0
    2.4869   -1.2148    0.0000 C   0  0  0  0  0  0  0  0  0
    1.7725   -1.6273    0.0000 C   0  0  0  0  0  0  0  0  0
    3.9159   -1.2148    0.0000 C   0  0  0  0  0  0  0  0  0
    4.6303   -1.6273    0.0000 C   0  0  0  0  0  0  0  0  0
    5.3448   -1.2148    0.0000 C   0  0  0  0  0  0  0  0  0
    5.3448   -0.3898    0.0000 C   0  0  0  0  0  0  0  0  0
    3.2014    3.3227    0.0000 C   0  0  0  0  0  0  0  0  0
  1  2  1  0  0  0  0
  1  3  1  0  0  0  0
  3  4  4  0  0  0  0
  3 18  4  0  0  0  0
  4  5  4  0  0  0  0
  5  6  1  0  0  0  0
  5 16  4  0  0  0  0
  6  7  1  0  0  0  0
  7  8  1  0  0  0  0
  8  9  1  0  0  0  0
  9 10  1  0  0  0  0
  9 23  1  0  0  0  0
 10 11  1  0  0  0  0
 11 12  1  0  0  0  0
 12 13  1  0  0  0  0
 13 14  4  0  0  0  0
 13 22  4  0  0  0  0
 14 15  1  0  0  0  0
 14 19  4  0  0  0  0
 15 16  1  0  0  0  0
 16 17  4  0  0  0  0
 17 18  4  0  0  0  0
 19 20  4  0  0  0  0
 20 21  4  0  0  0  0
 21 22  4  0  0  0  0
M  END
>  <Name_Molregno>
388826

>  <DOPAMINE D1>
7.63

>  <DOPAMINE D3>
5.87

>  <DOPAMINE D5>
7.28

$$$$
388828
  Marvin  02231216192D 0   1.00000     0.00000     0

 22 25  0  0  1  0  0  0  0  0999 V2000
   -1.8111   -3.7737    0.0000 O   0  0  0  0  0  0  0  0  0
   -2.4763   -4.2617    0.0000 C   0  0  0  0  0  0  0  0  0
   -1.9011   -2.9537    0.0000 C   0  0  0  0  0  0  0  0  0
   -1.2358   -2.4657    0.0000 C   0  0  0  0  0  0  0  0  0
   -1.3258   -1.6456    0.0000 C   0  0  0  0  0  0  0  0  0
   -0.5953   -1.2623    0.0000 C   0  0  0  0  0  0  0  0  0
   -0.4396   -0.4521    0.0000 C   0  0  0  0  0  0  0  0  0
   -0.9759    0.1748    0.0000 C   0  0  0  0  0  0  0  0  0
   -1.8004    0.1464    0.0000 N   0  0  0  0  0  0  0  0  0
   -2.2922   -0.5160    0.0000 C   0  0  0  0  0  0  0  0  0
   -2.0810   -1.3135    0.0000 C   0  0  0  0  0  0  0  0  0
   -2.7462   -1.8015    0.0000 C   0  0  0  0  0  0  0  0  0
   -2.6563   -2.6216    0.0000 C   0  0  0  0  0  0  0  0  0
   -3.1167   -0.5445    0.0000 C   0  0  0  0  0  0  0  0  0
   -3.6531    0.0824    0.0000 C   0  0  0  0  0  0  0  0  0
   -3.4973    0.8926    0.0000 C   0  0  0  0  0  0  0  0  0
   -2.7668    1.2760    0.0000 C   0  0  0  0  0  0  0  0  0
   -2.0116    0.9439    0.0000 C   0  0  0  0  0  0  0  0  0
   -4.4641   -0.0686    0.0000 C   0  0  0  0  0  0  0  0  0
   -4.7389   -0.8465    0.0000 C   0  0  0  0  0  0  0  0  0
   -4.2025   -1.4734    0.0000 C   0  0  0  0  0  0  0  0  0
   -3.3915   -1.3224    0.0000 C   0  0  0  0  0  0  0  0  0
  1  2  1  0  0  0  0
  1  3  1  0  0  0  0
  3  4  4  0  0  0  0
  3 13  4  0  0  0  0
  4  5  4  0  0  0  0
  5  6  1  0  0  0  0
  5 11  4  0  0  0  0
  6  7  1  0  0  0  0
  7  8  1  0  0  0  0
  8  9  1  0  0  0  0
  9 10  1  0  0  0  0
  9 18  1  0  0  0  0
 10 11  1  0  0  0  0
 10 14  1  0  0  0  0
 11 12  4  0  0  0  0
 12 13  4  0  0  0  0
 14 15  4  0  0  0  0
 14 22  4  0  0  0  0
 15 16  1  0  0  0  0
 15 19  4  0  0  0  0
 16 17  1  0  0  0  0
 17 18  1  0  0  0  0
 19 20  4  0  0  0  0
 20 21  4  0  0  0  0
 21 22  4  0  0  0  0
M  END
>  <Name_Molregno>
388828

>  <DOPAMINE D1>
5

>  <DOPAMINE D3>
5

>  <DOPAMINE D5>
5

$$$$
388830
  Marvin  02231216192D 0   1.00000     0.00000     0

 20 22  0  0  0  0  0  0  0  0999 V2000
    0.3919   -1.1491    0.0000 O   0  0  0  0  0  0  0  0  0
    1.1064   -0.7366    0.0000 C   0  0  0  0  0  0  0  0  0
    1.1064    0.0884    0.0000 C   0  0  0  0  0  0  0  0  0
    1.8209    0.5009    0.0000 C   0  0  0  0  0  0  0  0  0
    1.8209    1.3259    0.0000 C   0  0  0  0  0  0  0  0  0
    2.5824    1.8108    0.0000 C   0  0  0  0  0  0  0  0  0
    2.8373    2.5955    0.0000 C   0  0  0  0  0  0  0  0  0
    3.6623    2.5955    0.0000 N   0  0  0  0  0  0  0  0  0
    3.9172    1.8108    0.0000 C   0  0  0  0  0  0  0  0  0
    4.6788    1.3259    0.0000 C   0  0  0  0  0  0  0  0  0
    4.6788    0.5009    0.0000 C   0  0  0  0  0  0  0  0  0
    3.9643    0.0884    0.0000 C   0  0  0  0  0  0  0  0  0
    3.2498    0.5009    0.0000 C   0  0  0  0  0  0  0  0  0
    2.5354    0.0884    0.0000 C   0  0  0  0  0  0  0  0  0
    2.5354   -0.7366    0.0000 C   0  0  0  0  0  0  0  0  0
    1.8209   -1.1491    0.0000 C   0  0  0  0  0  0  0  0  0
    3.9643   -0.7366    0.0000 C   0  0  0  0  0  0  0  0  0
    4.6788   -1.1491    0.0000 C   0  0  0  0  0  0  0  0  0
    5.3932   -0.7366    0.0000 C   0  0  0  0  0  0  0  0  0
    5.3932    0.0884    0.0000 C   0  0  0  0  0  0  0  0  0
  1  2  1  0  0  0  0
  2  3  4  0  0  0  0
  2 16  4  0  0  0  0
  3  4  4  0  0  0  0
  4  5  1  0  0  0  0
  4 14  4  0  0  0  0
  5  6  1  0  0  0  0
  6  7  1  0  0  0  0
  7  8  1  0  0  0  0
  8  9  1  0  0  0  0
  9 10  1  0  0  0  0
 10 11  1  0  0  0  0
 11 12  4  0  0  0  0
 11 20  4  0  0  0  0
 12 13  1  0  0  0  0
 12 17  4  0  0  0  0
 13 14  1  0  0  0  0
 14 15  4  0  0  0  0
 15 16  4  0  0  0  0
 17 18  4  0  0  0  0
 18 19  4  0  0  0  0
 19 20  4  0  0  0  0
M  END
>  <Name_Molregno>
388830

>  <DOPAMINE D1>
6.54

>  <DOPAMINE D3>
5.16

>  <DOPAMINE D5>
6.5

$$$$
388833
  Marvin  02231216192D 0   1.00000     0.00000     0

 22 24  0  0  0  0  0  0  0  0999 V2000
    6.9053    1.3157    0.0000 Cl  0  0  0  0  0  0  0  0  0
    6.0895    1.4387    0.0000 C   0  0  0  0  0  0  0  0  0
    5.5751    0.7936    0.0000 C   0  0  0  0  0  0  0  0  0
    4.7594    0.9166    0.0000 C   0  0  0  0  0  0  0  0  0
    4.4579    1.6846    0.0000 C   0  0  0  0  0  0  0  0  0
    4.9723    2.3296    0.0000 C   0  0  0  0  0  0  0  0  0
    5.7881    2.2066    0.0000 C   0  0  0  0  0  0  0  0  0
    6.3025    2.8516    0.0000 O   0  0  0  0  0  0  0  0  0
    6.0011    3.6196    0.0000 C   0  0  0  0  0  0  0  0  0
    4.2450    0.2716    0.0000 C   0  0  0  0  0  0  0  0  0
    3.4292    0.3946    0.0000 C   0  0  0  0  0  0  0  0  0
    2.9148   -0.2505    0.0000 N   0  0  0  0  0  0  0  0  0
    3.2728   -0.9938    0.0000 C   0  0  0  0  0  0  0  0  0
    2.9148   -1.7371    0.0000 C   0  0  0  0  0  0  0  0  0
    2.1105   -1.9206    0.0000 C   0  0  0  0  0  0  0  0  0
    1.4655   -1.4063    0.0000 C   0  0  0  0  0  0  0  0  0
    1.4655   -0.5813    0.0000 C   0  0  0  0  0  0  0  0  0
    2.1105   -0.0669    0.0000 C   0  0  0  0  0  0  0  0  0
    0.7510   -0.1688    0.0000 C   0  0  0  0  0  0  0  0  0
    0.0365   -0.5813    0.0000 C   0  0  0  0  0  0  0  0  0
    0.0365   -1.4063    0.0000 C   0  0  0  0  0  0  0  0  0
    0.7510   -1.8188    0.0000 C   0  0  0  0  0  0  0  0  0
  1  2  1  0  0  0  0
  2  3  4  0  0  0  0
  2  7  4  0  0  0  0
  3  4  4  0  0  0  0
  4  5  4  0  0  0  0
  4 10  1  0  0  0  0
  5  6  4  0  0  0  0
  6  7  4  0  0  0  0
  7  8  1  0  0  0  0
  8  9  1  0  0  0  0
 10 11  1  0  0  0  0
 11 12  1  0  0  0  0
 12 13  1  0  0  0  0
 12 18  1  0  0  0  0
 13 14  1  0  0  0  0
 14 15  1  0  0  0  0
 15 16  1  0  0  0  0
 16 17  4  0  0  0  0
 16 22  4  0  0  0  0
 17 18  1  0  0  0  0
 17 19  4  0  0  0  0
 19 20  4  0  0  0  0
 20 21  4  0  0  0  0
 21 22  4  0  0  0  0
M  END
>  <Name_Molregno>
388833

>  <DOPAMINE D1>
5

>  <DOPAMINE D3>
5

>  <DOPAMINE D5>
5

$$$$
388835
  Marvin  02231216192D 0   1.00000     0.00000     0

 22 25  0  0  1  0  0  0  0  0999 V2000
    5.2148   -0.9932    0.0000 Cl  0  0  0  0  0  0  0  0  0
    4.5505   -0.5040    0.0000 C   0  0  0  0  0  0  0  0  0
    4.6420    0.3159    0.0000 C   0  0  0  0  0  0  0  0  0
    3.9777    0.8051    0.0000 C   0  0  0  0  0  0  0  0  0
    4.0693    1.6251    0.0000 C   0  0  0  0  0  0  0  0  0
    3.4050    2.1143    0.0000 C   0  0  0  0  0  0  0  0  0
    2.6491    1.7836    0.0000 N   0  0  0  0  0  0  0  0  0
    2.5576    0.9637    0.0000 C   0  0  0  0  0  0  0  0  0
    3.2219    0.4745    0.0000 C   0  0  0  0  0  0  0  0  0
    3.1304   -0.3455    0.0000 C   0  0  0  0  0  0  0  0  0
    3.7947   -0.8347    0.0000 C   0  0  0  0  0  0  0  0  0
    3.7032   -1.6546    0.0000 O   0  0  0  0  0  0  0  0  0
    2.9473   -1.9853    0.0000 C   0  0  0  0  0  0  0  0  0
    1.8595    0.5240    0.0000 C   0  0  0  0  0  0  0  0  0
    1.0805    0.7957    0.0000 C   0  0  0  0  0  0  0  0  0
    0.8072    1.5741    0.0000 C   0  0  0  0  0  0  0  0  0
    1.2454    2.2731    0.0000 C   0  0  0  0  0  0  0  0  0
    2.0652    2.3663    0.0000 C   0  0  0  0  0  0  0  0  0
    0.4558    0.2569    0.0000 C   0  0  0  0  0  0  0  0  0
    0.6100   -0.5535    0.0000 C   0  0  0  0  0  0  0  0  0
    1.3890   -0.8252    0.0000 C   0  0  0  0  0  0  0  0  0
    2.0137   -0.2864    0.0000 C   0  0  0  0  0  0  0  0  0
  1  2  1  0  0  0  0
  2  3  4  0  0  0  0
  2 11  4  0  0  0  0
  3  4  4  0  0  0  0
  4  5  1  0  0  0  0
  4  9  4  0  0  0  0
  5  6  1  0  0  0  0
  6  7  1  0  0  0  0
  7  8  1  0  0  0  0
  7 18  1  0  0  0  0
  8  9  1  0  0  0  0
  8 14  1  0  0  0  0
  9 10  4  0  0  0  0
 10 11  4  0  0  0  0
 11 12  1  0  0  0  0
 12 13  1  0  0  0  0
 14 15  4  0  0  0  0
 14 22  4  0  0  0  0
 15 16  1  0  0  0  0
 15 19  4  0  0  0  0
 16 17  1  0  0  0  0
 17 18  1  0  0  0  0
 19 20  4  0  0  0  0
 20 21  4  0  0  0  0
 21 22  4  0  0  0  0
M  END
>  <Name_Molregno>
388835

>  <DOPAMINE D1>
5

>  <DOPAMINE D3>
5

>  <DOPAMINE D5>
5

$$$$
388837
  Marvin  02231216192D 0   1.00000     0.00000     0

 22 24  0  0  0  0  0  0  0  0999 V2000
   -3.9149    0.4801    0.0000 O   0  0  0  0  0  0  0  0  0
   -4.6986    0.7377    0.0000 C   0  0  0  0  0  0  0  0  0
   -3.7460   -0.3274    0.0000 C   0  0  0  0  0  0  0  0  0
   -2.9623   -0.5850    0.0000 C   0  0  0  0  0  0  0  0  0
   -2.7934   -1.3925    0.0000 C   0  0  0  0  0  0  0  0  0
   -1.9243   -1.6369    0.0000 C   0  0  0  0  0  0  0  0  0
   -1.1695   -1.3038    0.0000 C   0  0  0  0  0  0  0  0  0
   -0.6195   -1.9187    0.0000 C   0  0  0  0  0  0  0  0  0
   -1.0344   -2.6318    0.0000 C   0  0  0  0  0  0  0  0  0
   -0.8882   -3.5227    0.0000 C   0  0  0  0  0  0  0  0  0
   -1.5031   -4.0727    0.0000 C   0  0  0  0  0  0  0  0  0
   -2.2869   -3.8151    0.0000 N   0  0  0  0  0  0  0  0  0
   -2.4557   -3.0076    0.0000 C   0  0  0  0  0  0  0  0  0
   -3.2395   -2.7501    0.0000 C   0  0  0  0  0  0  0  0  0
   -3.4084   -1.9425    0.0000 C   0  0  0  0  0  0  0  0  0
   -4.1921   -1.6850    0.0000 C   0  0  0  0  0  0  0  0  0
   -4.3610   -0.8774    0.0000 C   0  0  0  0  0  0  0  0  0
   -2.9018   -4.3651    0.0000 C   0  0  0  0  0  0  0  0  0
    0.1880   -1.7499    0.0000 C   0  0  0  0  0  0  0  0  0
    0.4455   -0.9661    0.0000 C   0  0  0  0  0  0  0  0  0
   -0.1044   -0.3512    0.0000 C   0  0  0  0  0  0  0  0  0
   -0.9120   -0.5200    0.0000 C   0  0  0  0  0  0  0  0  0
  1  2  1  0  0  0  0
  1  3  1  0  0  0  0
  3  4  4  0  0  0  0
  3 17  4  0  0  0  0
  4  5  4  0  0  0  0
  5  6  1  0  0  0  0
  5 15  4  0  0  0  0
  6  7  1  0  0  0  0
  7  8  4  0  0  0  0
  7 22  4  0  0  0  0
  8  9  1  0  0  0  0
  8 19  4  0  0  0  0
  9 10  1  0  0  0  0
 10 11  1  0  0  0  0
 11 12  1  0  0  0  0
 12 13  1  0  0  0  0
 12 18  1  0  0  0  0
 13 14  1  0  0  0  0
 14 15  1  0  0  0  0
 15 16  4  0  0  0  0
 16 17  4  0  0  0  0
 19 20  4  0  0  0  0
 20 21  4  0  0  0  0
 21 22  4  0  0  0  0
M  END
>  <Name_Molregno>
388837

>  <DOPAMINE D1>
6.86

>  <DOPAMINE D3>
4.62

>  <DOPAMINE D5>
7.12

$$$$
388839
  Marvin  02231216192D 0   1.00000     0.00000     0

 21 23  0  0  0  0  0  0  0  0999 V2000
   -4.1818    0.5216    0.0000 O   0  0  0  0  0  0  0  0  0
   -4.0130   -0.2859    0.0000 C   0  0  0  0  0  0  0  0  0
   -3.2292   -0.5435    0.0000 C   0  0  0  0  0  0  0  0  0
   -3.0604   -1.3510    0.0000 C   0  0  0  0  0  0  0  0  0
   -2.1913   -1.5953    0.0000 C   0  0  0  0  0  0  0  0  0
   -1.4365   -1.2623    0.0000 C   0  0  0  0  0  0  0  0  0
   -0.8865   -1.8772    0.0000 C   0  0  0  0  0  0  0  0  0
   -1.3014   -2.5903    0.0000 C   0  0  0  0  0  0  0  0  0
   -1.1552   -3.4812    0.0000 C   0  0  0  0  0  0  0  0  0
   -1.7701   -4.0312    0.0000 C   0  0  0  0  0  0  0  0  0
   -2.5539   -3.7736    0.0000 N   0  0  0  0  0  0  0  0  0
   -2.7227   -2.9661    0.0000 C   0  0  0  0  0  0  0  0  0
   -3.5065   -2.7085    0.0000 C   0  0  0  0  0  0  0  0  0
   -3.6753   -1.9010    0.0000 C   0  0  0  0  0  0  0  0  0
   -4.4591   -1.6434    0.0000 C   0  0  0  0  0  0  0  0  0
   -4.6279   -0.8359    0.0000 C   0  0  0  0  0  0  0  0  0
   -3.1688   -4.3236    0.0000 C   0  0  0  0  0  0  0  0  0
   -0.0790   -1.7084    0.0000 C   0  0  0  0  0  0  0  0  0
    0.1786   -0.9246    0.0000 C   0  0  0  0  0  0  0  0  0
   -0.3714   -0.3097    0.0000 C   0  0  0  0  0  0  0  0  0
   -1.1789   -0.4785    0.0000 C   0  0  0  0  0  0  0  0  0
  1  2  1  0  0  0  0
  2  3  4  0  0  0  0
  2 16  4  0  0  0  0
  3  4  4  0  0  0  0
  4  5  1  0  0  0  0
  4 14  4  0  0  0  0
  5  6  1  0  0  0  0
  6  7  4  0  0  0  0
  6 21  4  0  0  0  0
  7  8  1  0  0  0  0
  7 18  4  0  0  0  0
  8  9  1  0  0  0  0
  9 10  1  0  0  0  0
 10 11  1  0  0  0  0
 11 12  1  0  0  0  0
 11 17  1  0  0  0  0
 12 13  1  0  0  0  0
 13 14  1  0  0  0  0
 14 15  4  0  0  0  0
 15 16  4  0  0  0  0
 18 19  4  0  0  0  0
 19 20  4  0  0  0  0
 20 21  4  0  0  0  0
M  END
>  <Name_Molregno>
388839

>  <DOPAMINE D1>
7.15

>  <DOPAMINE D3>
6.11

>  <DOPAMINE D5>
7.16

$$$$
388843
  Marvin  02231216192D 0   1.00000     0.00000     0

 24 26  0  0  0  0  0  0  0  0999 V2000
    0.5307    3.8725    0.0000 O   0  0  0  0  0  0  0  0  0
   -0.2531    4.1300    0.0000 C   0  0  0  0  0  0  0  0  0
    0.6995    3.0649    0.0000 C   0  0  0  0  0  0  0  0  0
    1.4833    2.8074    0.0000 C   0  0  0  0  0  0  0  0  0
    1.6521    1.9998    0.0000 C   0  0  0  0  0  0  0  0  0
    2.5212    1.7555    0.0000 C   0  0  0  0  0  0  0  0  0
    3.2760    2.0886    0.0000 C   0  0  0  0  0  0  0  0  0
    3.8260    1.4736    0.0000 C   0  0  0  0  0  0  0  0  0
    3.4111    0.7605    0.0000 C   0  0  0  0  0  0  0  0  0
    3.5573   -0.1303    0.0000 C   0  0  0  0  0  0  0  0  0
    2.9424   -0.6803    0.0000 C   0  0  0  0  0  0  0  0  0
    2.1586   -0.4228    0.0000 N   0  0  0  0  0  0  0  0  0
    1.9898    0.3848    0.0000 C   0  0  0  0  0  0  0  0  0
    1.2060    0.6423    0.0000 C   0  0  0  0  0  0  0  0  0
    1.0372    1.4499    0.0000 C   0  0  0  0  0  0  0  0  0
    0.2534    1.7074    0.0000 C   0  0  0  0  0  0  0  0  0
    0.0846    2.5149    0.0000 C   0  0  0  0  0  0  0  0  0
   -0.6992    2.7725    0.0000 O   0  0  0  0  0  0  0  0  0
   -1.3141    2.2225    0.0000 C   0  0  0  0  0  0  0  0  0
    1.5437   -0.9728    0.0000 C   0  0  0  0  0  0  0  0  0
    4.6335    1.6425    0.0000 C   0  0  0  0  0  0  0  0  0
    4.8911    2.4262    0.0000 C   0  0  0  0  0  0  0  0  0
    4.3411    3.0412    0.0000 C   0  0  0  0  0  0  0  0  0
    3.5336    2.8723    0.0000 C   0  0  0  0  0  0  0  0  0
  1  2  1  0  0  0  0
  1  3  1  0  0  0  0
  3  4  4  0  0  0  0
  3 17  4  0  0  0  0
  4  5  4  0  0  0  0
  5  6  1  0  0  0  0
  5 15  4  0  0  0  0
  6  7  1  0  0  0  0
  7  8  4  0  0  0  0
  7 24  4  0  0  0  0
  8  9  1  0  0  0  0
  8 21  4  0  0  0  0
  9 10  1  0  0  0  0
 10 11  1  0  0  0  0
 11 12  1  0  0  0  0
 12 13  1  0  0  0  0
 12 20  1  0  0  0  0
 13 14  1  0  0  0  0
 14 15  1  0  0  0  0
 15 16  4  0  0  0  0
 16 17  4  0  0  0  0
 17 18  1  0  0  0  0
 18 19  1  0  0  0  0
 21 22  4  0  0  0  0
 22 23  4  0  0  0  0
 23 24  4  0  0  0  0
M  END
>  <Name_Molregno>
388843

>  <DOPAMINE D1>
6.24

>  <DOPAMINE D3>
4.83

>  <DOPAMINE D5>
6.29

$$$$
389011
  Marvin  02231216192D 0   1.00000     0.00000     0

 25 26  0  0  1  0  0  0  0  0999 V2000
   -2.9244    1.8604    0.0000 S   0  0  0  0  0  0  0  0  0
   -3.7494    1.8604    0.0000 O   0  0  0  0  0  0  0  0  0
   -2.0994    1.8604    0.0000 O   0  0  0  0  0  0  0  0  0
   -2.9244    2.6854    0.0000 C   0  0  0  0  0  0  0  0  0
   -3.6388    3.0979    0.0000 C   0  0  0  0  0  0  0  0  0
   -2.9244    1.0354    0.0000 C   0  0  0  0  0  0  0  0  0
   -2.2099    0.6229    0.0000 C   0  0  0  0  0  0  0  0  0
   -2.2099   -0.2021    0.0000 C   0  0  0  0  0  0  0  0  0
   -1.4954   -0.6146    0.0000 C   0  0  0  0  0  0  0  0  0
   -0.7810   -0.2021    0.0000 O   0  0  0  0  0  0  0  0  0
   -1.4954   -1.4396    0.0000 N   0  0  0  0  0  0  0  0  0
   -0.7810   -1.8521    0.0000 C   0  0  0  0  0  0  0  0  0
   -0.7810   -2.6771    0.0000 C   0  0  0  0  0  0  0  0  0
   -0.1135   -3.1620    0.0000 N   0  0  0  0  0  0  0  0  0
   -0.3685   -3.9466    0.0000 C   0  0  0  0  0  0  0  0  0
   -1.1935   -3.9466    0.0000 C   0  0  0  0  0  0  0  0  0
   -1.4484   -3.1620    0.0000 C   0  0  0  0  0  0  0  0  0
    0.6711   -2.9071    0.0000 C   0  0  0  0  0  0  0  0  0
    1.2842   -3.4591    0.0000 C   0  0  0  0  0  0  0  0  0
   -2.9244   -0.6146    0.0000 C   0  0  0  0  0  0  0  0  0
   -2.9244   -1.4396    0.0000 O   0  0  0  0  0  0  0  0  0
   -3.6388   -1.8521    0.0000 C   0  0  0  0  0  0  0  0  0
   -3.6388   -0.2021    0.0000 C   0  0  0  0  0  0  0  0  0
   -3.6388    0.6229    0.0000 C   0  0  0  0  0  0  0  0  0
   -4.3533    1.0354    0.0000 N   0  0  0  0  0  0  0  0  0
  1  2  2  0  0  0  0
  1  3  2  0  0  0  0
  1  4  1  0  0  0  0
  1  6  1  0  0  0  0
  4  5  1  0  0  0  0
  6  7  4  0  0  0  0
  6 24  4  0  0  0  0
  7  8  4  0  0  0  0
  8  9  1  0  0  0  0
  8 20  4  0  0  0  0
  9 10  2  0  0  0  0
  9 11  1  0  0  0  0
 11 12  1  0  0  0  0
 12 13  1  0  0  0  0
 13 14  1  0  0  0  0
 13 17  1  0  0  0  0
 14 15  1  0  0  0  0
 14 18  1  0  0  0  0
 15 16  1  0  0  0  0
 16 17  1  0  0  0  0
 18 19  1  0  0  0  0
 20 21  1  0  0  0  0
 20 23  4  0  0  0  0
 21 22  1  0  0  0  0
 23 24  4  0  0  0  0
 24 25  1  0  0  0  0
M  END
>  <Name_Molregno>
389011

>  <5-HT1A>
5

>  <5-HT1B>
5.76

>  <5-HT1D>
5.87

>  <5-HT1E>
5

>  <5-HT2A>
5.64

>  <5-HT2C>
5

>  <5-HT3>
5

>  <5-HT5>
5

>  <5-HT6>
5.38

>  <5-HT7>
7.47

>  <Alpha-1A>
5

>  <Alpha-1B>
5

>  <Alpha-2A>
5.95

>  <Alpha-2C>
5.81

>  <Beta-1>
5

>  <Beta-2>
5

>  <DOPAMINE D1>
5

>  <DOPAMINE D2>
8.71

>  <DOPAMINE D3>
8.51

>  <DOPAMINE D4>
5.63

>  <DOPAMINE D5>
5

>  <Dopamine transporter>
5

>  <HISTAMINE H1>
5

>  <HISTAMINE H2>
5

>  <HISTAMINE H4>
5

>  <Muscarinic acetylcholine receptor M1>
5

>  <Muscarinic acetylcholine receptor M2>
5

>  <Muscarinic acetylcholine receptor M3>
5

>  <Muscarinic acetylcholine receptor M4>
5

>  <Muscarinic acetylcholine receptor M5>
5

>  <Norepinephrine transporter>
5

>  <Serotonin transporter>
5

$$$$
389957
  Marvin  02231216192D 0   1.00000     0.00000     0

 38 43  0  0  0  0  0  0  0  0999 V2000
    0.2438    0.6796    0.0000 S   0  0  0  0  0  0  0  0  0
   -0.0917   -0.0741    0.0000 C   0  0  0  0  0  0  0  0  0
    0.3932   -0.7415    0.0000 C   0  0  0  0  0  0  0  0  0
    0.0577   -1.4952    0.0000 C   0  0  0  0  0  0  0  0  0
    0.5426   -2.1626    0.0000 N   0  0  0  0  0  0  0  0  0
    1.3543   -2.0153    0.0000 C   0  0  0  0  0  0  0  0  0
    1.9756   -2.5581    0.0000 C   0  0  0  0  0  0  0  0  0
    1.9386   -3.3823    0.0000 C   0  0  0  0  0  0  0  0  0
    2.6923   -3.7178    0.0000 C   0  0  0  0  0  0  0  0  0
    2.7785   -4.5383    0.0000 C   0  0  0  0  0  0  0  0  0
    2.1111   -5.0232    0.0000 C   0  0  0  0  0  0  0  0  0
    1.3574   -4.6877    0.0000 C   0  0  0  0  0  0  0  0  0
    1.2711   -3.8672    0.0000 C   0  0  0  0  0  0  0  0  0
    0.4759   -3.6477    0.0000 C   0  0  0  0  0  0  0  0  0
    0.1516   -2.8891    0.0000 C   0  0  0  0  0  0  0  0  0
    3.5322   -4.8739    0.0000 C   0  0  0  0  0  0  0  0  0
    4.2466   -4.4614    0.0000 O   0  0  0  0  0  0  0  0  0
    4.8597   -5.0134    0.0000 C   0  0  0  0  0  0  0  0  0
    4.5242   -5.7671    0.0000 C   0  0  0  0  0  0  0  0  0
    3.7037   -5.6808    0.0000 N   0  0  0  0  0  0  0  0  0
    5.6667   -4.8419    0.0000 C   0  0  0  0  0  0  0  0  0
   -0.2411    1.3471    0.0000 C   0  0  0  0  0  0  0  0  0
   -1.0661    1.3471    0.0000 N   0  0  0  0  0  0  0  0  0
   -1.3210    2.1317    0.0000 N   0  0  0  0  0  0  0  0  0
   -0.6536    2.6166    0.0000 C   0  0  0  0  0  0  0  0  0
    0.0139    2.1317    0.0000 N   0  0  0  0  0  0  0  0  0
    0.7985    2.3866    0.0000 C   0  0  0  0  0  0  0  0  0
   -0.6536    3.4416    0.0000 C   0  0  0  0  0  0  0  0  0
    0.0609    3.8541    0.0000 C   0  0  0  0  0  0  0  0  0
    0.0609    4.6791    0.0000 C   0  0  0  0  0  0  0  0  0
    0.7754    5.0916    0.0000 N   0  0  0  0  0  0  0  0  0
    1.4898    4.6791    0.0000 C   0  0  0  0  0  0  0  0  0
    1.4898    3.8541    0.0000 C   0  0  0  0  0  0  0  0  0
    0.7754    3.4416    0.0000 C   0  0  0  0  0  0  0  0  0
    2.2043    5.0916    0.0000 C   0  0  0  0  0  0  0  0  0
   -0.6536    5.0916    0.0000 C   0  0  0  0  0  0  0  0  0
   -1.3680    4.6791    0.0000 C   0  0  0  0  0  0  0  0  0
   -1.3680    3.8541    0.0000 C   0  0  0  0  0  0  0  0  0
  1  2  1  0  0  0  0
  1 22  1  0  0  0  0
  2  3  1  0  0  0  0
  3  4  1  0  0  0  0
  4  5  1  0  0  0  0
  5  6  1  0  0  0  0
  5 15  1  0  0  0  0
  6  7  1  0  0  0  0
  7  8  1  0  0  0  0
  8  9  4  0  0  0  0
  8 13  4  0  0  0  0
  9 10  4  0  0  0  0
 10 11  4  0  0  0  0
 10 16  1  0  0  0  0
 11 12  4  0  0  0  0
 12 13  4  0  0  0  0
 13 14  1  0  0  0  0
 14 15  1  0  0  0  0
 16 17  4  0  0  0  0
 16 20  4  0  0  0  0
 17 18  4  0  0  0  0
 18 19  4  0  0  0  0
 18 21  1  0  0  0  0
 19 20  4  0  0  0  0
 22 23  4  0  0  0  0
 22 26  4  0  0  0  0
 23 24  4  0  0  0  0
 24 25  4  0  0  0  0
 25 26  4  0  0  0  0
 25 28  1  0  0  0  0
 26 27  1  0  0  0  0
 28 29  4  0  0  0  0
 28 38  4  0  0  0  0
 29 30  4  0  0  0  0
 29 34  4  0  0  0  0
 30 31  4  0  0  0  0
 30 36  4  0  0  0  0
 31 32  4  0  0  0  0
 32 33  4  0  0  0  0
 32 35  1  0  0  0  0
 33 34  4  0  0  0  0
 36 37  4  0  0  0  0
 37 38  4  0  0  0  0
M  END
>  <Name_Molregno>
389957

>  <DOPAMINE D2>
6.1

>  <DOPAMINE D3>
8.7

$$$$
389958
  Marvin  02231216192D 0   1.00000     0.00000     0

 32 36  0  0  0  0  0  0  0  0999 V2000
   10.1673    2.4986    0.0000 S   0  0  0  0  0  0  0  0  0
   10.9519    2.7535    0.0000 C   0  0  0  0  0  0  0  0  0
   11.4368    2.0861    0.0000 C   0  0  0  0  0  0  0  0  0
   10.9519    1.4186    0.0000 C   0  0  0  0  0  0  0  0  0
   10.1673    1.6736    0.0000 C   0  0  0  0  0  0  0  0  0
    9.4998    1.1887    0.0000 C   0  0  0  0  0  0  0  0  0
    9.4998    0.3637    0.0000 N   0  0  0  0  0  0  0  0  0
    8.7152    0.1087    0.0000 N   0  0  0  0  0  0  0  0  0
    8.2303    0.7762    0.0000 C   0  0  0  0  0  0  0  0  0
    7.4053    0.7762    0.0000 S   0  0  0  0  0  0  0  0  0
    6.9928    0.0617    0.0000 C   0  0  0  0  0  0  0  0  0
    6.1678    0.0617    0.0000 C   0  0  0  0  0  0  0  0  0
    5.7553   -0.6528    0.0000 C   0  0  0  0  0  0  0  0  0
    4.9303   -0.6528    0.0000 N   0  0  0  0  0  0  0  0  0
    4.5723   -1.3961    0.0000 C   0  0  0  0  0  0  0  0  0
    3.7680   -1.5797    0.0000 C   0  0  0  0  0  0  0  0  0
    3.1230   -1.0653    0.0000 C   0  0  0  0  0  0  0  0  0
    2.4085   -1.4778    0.0000 C   0  0  0  0  0  0  0  0  0
    1.6941   -1.0653    0.0000 C   0  0  0  0  0  0  0  0  0
    1.6941   -0.2403    0.0000 C   0  0  0  0  0  0  0  0  0
    2.4085    0.1722    0.0000 C   0  0  0  0  0  0  0  0  0
    3.1230   -0.2403    0.0000 C   0  0  0  0  0  0  0  0  0
    3.7680    0.2741    0.0000 C   0  0  0  0  0  0  0  0  0
    4.5723    0.0905    0.0000 C   0  0  0  0  0  0  0  0  0
    0.9796   -1.4778    0.0000 C   0  0  0  0  0  0  0  0  0
    0.8934   -2.2983    0.0000 O   0  0  0  0  0  0  0  0  0
    0.0864   -2.4698    0.0000 C   0  0  0  0  0  0  0  0  0
   -0.3261   -1.7553    0.0000 C   0  0  0  0  0  0  0  0  0
    0.2259   -1.1422    0.0000 N   0  0  0  0  0  0  0  0  0
   -0.2492   -3.2235    0.0000 C   0  0  0  0  0  0  0  0  0
    8.7152    1.4436    0.0000 N   0  0  0  0  0  0  0  0  0
    8.4603    2.2282    0.0000 C   0  0  0  0  0  0  0  0  0
  1  2  4  0  0  0  0
  1  5  4  0  0  0  0
  2  3  4  0  0  0  0
  3  4  4  0  0  0  0
  4  5  4  0  0  0  0
  5  6  1  0  0  0  0
  6  7  4  0  0  0  0
  6 31  4  0  0  0  0
  7  8  4  0  0  0  0
  8  9  4  0  0  0  0
  9 10  1  0  0  0  0
  9 31  4  0  0  0  0
 10 11  1  0  0  0  0
 11 12  1  0  0  0  0
 12 13  1  0  0  0  0
 13 14  1  0  0  0  0
 14 15  1  0  0  0  0
 14 24  1  0  0  0  0
 15 16  1  0  0  0  0
 16 17  1  0  0  0  0
 17 18  4  0  0  0  0
 17 22  4  0  0  0  0
 18 19  4  0  0  0  0
 19 20  4  0  0  0  0
 19 25  1  0  0  0  0
 20 21  4  0  0  0  0
 21 22  4  0  0  0  0
 22 23  1  0  0  0  0
 23 24  1  0  0  0  0
 25 26  4  0  0  0  0
 25 29  4  0  0  0  0
 26 27  4  0  0  0  0
 27 28  4  0  0  0  0
 27 30  1  0  0  0  0
 28 29  4  0  0  0  0
 31 32  1  0  0  0  0
M  END
>  <Name_Molregno>
389958

>  <DOPAMINE D2>
6.6

>  <DOPAMINE D3>
8.5

$$$$
389959
  Marvin  02231216192D 0   1.00000     0.00000     0

 36 41  0  0  0  0  0  0  0  0999 V2000
    2.4834    0.7644    0.0000 S   0  0  0  0  0  0  0  0  0
    1.7297    1.0999    0.0000 C   0  0  0  0  0  0  0  0  0
    1.0623    0.6150    0.0000 C   0  0  0  0  0  0  0  0  0
    0.3086    0.9506    0.0000 C   0  0  0  0  0  0  0  0  0
   -0.3589    0.4657    0.0000 N   0  0  0  0  0  0  0  0  0
   -0.2115   -0.3461    0.0000 C   0  0  0  0  0  0  0  0  0
   -0.7543   -0.9674    0.0000 C   0  0  0  0  0  0  0  0  0
   -1.5785   -0.9304    0.0000 C   0  0  0  0  0  0  0  0  0
   -1.9141   -1.6840    0.0000 C   0  0  0  0  0  0  0  0  0
   -2.7346   -1.7703    0.0000 C   0  0  0  0  0  0  0  0  0
   -3.2195   -1.1028    0.0000 C   0  0  0  0  0  0  0  0  0
   -2.8839   -0.3491    0.0000 C   0  0  0  0  0  0  0  0  0
   -2.0634   -0.2629    0.0000 C   0  0  0  0  0  0  0  0  0
   -1.8440    0.5324    0.0000 C   0  0  0  0  0  0  0  0  0
   -1.0853    0.8566    0.0000 C   0  0  0  0  0  0  0  0  0
   -3.0701   -2.5239    0.0000 C   0  0  0  0  0  0  0  0  0
   -2.6576   -3.2384    0.0000 O   0  0  0  0  0  0  0  0  0
   -3.2096   -3.8515    0.0000 C   0  0  0  0  0  0  0  0  0
   -3.9633   -3.5159    0.0000 C   0  0  0  0  0  0  0  0  0
   -3.8771   -2.6955    0.0000 N   0  0  0  0  0  0  0  0  0
   -3.0381   -4.6585    0.0000 C   0  0  0  0  0  0  0  0  0
    3.1508    1.2493    0.0000 C   0  0  0  0  0  0  0  0  0
    3.1508    2.0743    0.0000 N   0  0  0  0  0  0  0  0  0
    3.9354    2.3293    0.0000 N   0  0  0  0  0  0  0  0  0
    4.4204    1.6618    0.0000 C   0  0  0  0  0  0  0  0  0
    3.9354    0.9944    0.0000 N   0  0  0  0  0  0  0  0  0
    4.1904    0.2098    0.0000 C   0  0  0  0  0  0  0  0  0
    5.2454    1.6618    0.0000 C   0  0  0  0  0  0  0  0  0
    5.7303    0.9944    0.0000 N   0  0  0  0  0  0  0  0  0
    6.5149    1.2493    0.0000 C   0  0  0  0  0  0  0  0  0
    6.5149    2.0743    0.0000 C   0  0  0  0  0  0  0  0  0
    5.7303    2.3293    0.0000 C   0  0  0  0  0  0  0  0  0
    7.2294    2.4868    0.0000 C   0  0  0  0  0  0  0  0  0
    7.9438    2.0743    0.0000 C   0  0  0  0  0  0  0  0  0
    7.9438    1.2493    0.0000 C   0  0  0  0  0  0  0  0  0
    7.2294    0.8368    0.0000 C   0  0  0  0  0  0  0  0  0
  1  2  1  0  0  0  0
  1 22  1  0  0  0  0
  2  3  1  0  0  0  0
  3  4  1  0  0  0  0
  4  5  1  0  0  0  0
  5  6  1  0  0  0  0
  5 15  1  0  0  0  0
  6  7  1  0  0  0  0
  7  8  1  0  0  0  0
  8  9  4  0  0  0  0
  8 13  4  0  0  0  0
  9 10  4  0  0  0  0
 10 11  4  0  0  0  0
 10 16  1  0  0  0  0
 11 12  4  0  0  0  0
 12 13  4  0  0  0  0
 13 14  1  0  0  0  0
 14 15  1  0  0  0  0
 16 17  4  0  0  0  0
 16 20  4  0  0  0  0
 17 18  4  0  0  0  0
 18 19  4  0  0  0  0
 18 21  1  0  0  0  0
 19 20  4  0  0  0  0
 22 23  4  0  0  0  0
 22 26  4  0  0  0  0
 23 24  4  0  0  0  0
 24 25  4  0  0  0  0
 25 26  4  0  0  0  0
 25 28  1  0  0  0  0
 26 27  1  0  0  0  0
 28 29  4  0  0  0  0
 28 32  4  0  0  0  0
 29 30  4  0  0  0  0
 30 31  4  0  0  0  0
 30 36  4  0  0  0  0
 31 32  4  0  0  0  0
 31 33  4  0  0  0  0
 33 34  4  0  0  0  0
 34 35  4  0  0  0  0
 35 36  4  0  0  0  0
M  STY  1   1 DAT
M  SAL   1  1  29
M  SDT   1 MRV_IMPLICIT_H                                        
M  SDD   1     0.0000    0.0000    DR    ALL  0       0  
M  SED   1 IMPL_H1
M  END
>  <Name_Molregno>
389959

>  <DOPAMINE D2>
6

>  <DOPAMINE D3>
8.9

$$$$
389960
  Marvin  02231216192D 0   1.00000     0.00000     0

 36 41  0  0  0  0  0  0  0  0999 V2000
    0.0852    0.0915    0.0000 S   0  0  0  0  0  0  0  0  0
    0.5702   -0.5759    0.0000 C   0  0  0  0  0  0  0  0  0
    1.3906   -0.4897    0.0000 C   0  0  0  0  0  0  0  0  0
    1.8756   -1.1571    0.0000 C   0  0  0  0  0  0  0  0  0
    2.6960   -1.0709    0.0000 N   0  0  0  0  0  0  0  0  0
    2.9743   -0.2942    0.0000 C   0  0  0  0  0  0  0  0  0
    3.7551   -0.0276    0.0000 C   0  0  0  0  0  0  0  0  0
    4.4503   -0.4717    0.0000 C   0  0  0  0  0  0  0  0  0
    5.1177    0.0132    0.0000 C   0  0  0  0  0  0  0  0  0
    5.8714   -0.3223    0.0000 C   0  0  0  0  0  0  0  0  0
    5.9577   -1.1428    0.0000 C   0  0  0  0  0  0  0  0  0
    5.2902   -1.6277    0.0000 C   0  0  0  0  0  0  0  0  0
    4.5365   -1.2922    0.0000 C   0  0  0  0  0  0  0  0  0
    3.9488   -1.8712    0.0000 C   0  0  0  0  0  0  0  0  0
    3.1297   -1.7727    0.0000 C   0  0  0  0  0  0  0  0  0
    6.5389    0.1626    0.0000 C   0  0  0  0  0  0  0  0  0
    6.5389    0.9876    0.0000 O   0  0  0  0  0  0  0  0  0
    7.3235    1.2425    0.0000 C   0  0  0  0  0  0  0  0  0
    7.8084    0.5751    0.0000 C   0  0  0  0  0  0  0  0  0
    7.3235   -0.0924    0.0000 N   0  0  0  0  0  0  0  0  0
    7.5784    2.0271    0.0000 C   0  0  0  0  0  0  0  0  0
   -0.7352    0.0053    0.0000 C   0  0  0  0  0  0  0  0  0
   -1.1477   -0.7092    0.0000 N   0  0  0  0  0  0  0  0  0
   -1.9547   -0.5376    0.0000 N   0  0  0  0  0  0  0  0  0
   -2.0409    0.2828    0.0000 C   0  0  0  0  0  0  0  0  0
   -1.2873    0.6184    0.0000 N   0  0  0  0  0  0  0  0  0
   -1.1157    1.4254    0.0000 C   0  0  0  0  0  0  0  0  0
   -2.7554    0.6953    0.0000 C   0  0  0  0  0  0  0  0  0
   -3.4699    0.2828    0.0000 C   0  0  0  0  0  0  0  0  0
   -4.1844    0.6953    0.0000 C   0  0  0  0  0  0  0  0  0
   -4.1844    1.5203    0.0000 C   0  0  0  0  0  0  0  0  0
   -4.9690    1.7753    0.0000 N   0  0  0  0  0  0  0  0  0
   -5.4539    1.1078    0.0000 C   0  0  0  0  0  0  0  0  0
   -4.9690    0.4404    0.0000 C   0  0  0  0  0  0  0  0  0
   -3.4699    1.9328    0.0000 C   0  0  0  0  0  0  0  0  0
   -2.7554    1.5203    0.0000 C   0  0  0  0  0  0  0  0  0
  1  2  1  0  0  0  0
  1 22  1  0  0  0  0
  2  3  1  0  0  0  0
  3  4  1  0  0  0  0
  4  5  1  0  0  0  0
  5  6  1  0  0  0  0
  5 15  1  0  0  0  0
  6  7  1  0  0  0  0
  7  8  1  0  0  0  0
  8  9  4  0  0  0  0
  8 13  4  0  0  0  0
  9 10  4  0  0  0  0
 10 11  4  0  0  0  0
 10 16  1  0  0  0  0
 11 12  4  0  0  0  0
 12 13  4  0  0  0  0
 13 14  1  0  0  0  0
 14 15  1  0  0  0  0
 16 17  4  0  0  0  0
 16 20  4  0  0  0  0
 17 18  4  0  0  0  0
 18 19  4  0  0  0  0
 18 21  1  0  0  0  0
 19 20  4  0  0  0  0
 22 23  4  0  0  0  0
 22 26  4  0  0  0  0
 23 24  4  0  0  0  0
 24 25  4  0  0  0  0
 25 26  4  0  0  0  0
 25 28  1  0  0  0  0
 26 27  1  0  0  0  0
 28 29  4  0  0  0  0
 28 36  4  0  0  0  0
 29 30  4  0  0  0  0
 30 31  4  0  0  0  0
 30 34  4  0  0  0  0
 31 32  4  0  0  0  0
 31 35  4  0  0  0  0
 32 33  4  0  0  0  0
 33 34  4  0  0  0  0
 35 36  4  0  0  0  0
M  STY  1   1 DAT
M  SAL   1  1  32
M  SDT   1 MRV_IMPLICIT_H                                        
M  SDD   1     0.0000    0.0000    DR    ALL  0       0  
M  SED   1 IMPL_H1
M  END
>  <Name_Molregno>
389960

>  <DOPAMINE D2>
6.2

>  <DOPAMINE D3>
8.8

$$$$
389961
  Marvin  02231216192D 0   1.00000     0.00000     0

 33 37  0  0  0  0  0  0  0  0999 V2000
    3.9048   -0.4910    0.0000 S   0  0  0  0  0  0  0  0  0
    3.4923    0.2235    0.0000 C   0  0  0  0  0  0  0  0  0
    2.6673    0.2235    0.0000 C   0  0  0  0  0  0  0  0  0
    2.2548    0.9380    0.0000 C   0  0  0  0  0  0  0  0  0
    1.4298    0.9380    0.0000 N   0  0  0  0  0  0  0  0  0
    1.0719    0.1947    0.0000 C   0  0  0  0  0  0  0  0  0
    0.2675    0.0111    0.0000 C   0  0  0  0  0  0  0  0  0
   -0.3775    0.5255    0.0000 C   0  0  0  0  0  0  0  0  0
   -1.0919    0.1130    0.0000 C   0  0  0  0  0  0  0  0  0
   -1.8064    0.5255    0.0000 C   0  0  0  0  0  0  0  0  0
   -1.8064    1.3505    0.0000 C   0  0  0  0  0  0  0  0  0
   -1.0919    1.7630    0.0000 C   0  0  0  0  0  0  0  0  0
   -0.3775    1.3505    0.0000 C   0  0  0  0  0  0  0  0  0
    0.2675    1.8649    0.0000 C   0  0  0  0  0  0  0  0  0
    1.0719    1.6813    0.0000 C   0  0  0  0  0  0  0  0  0
   -2.5209    0.1130    0.0000 C   0  0  0  0  0  0  0  0  0
   -2.6071   -0.7075    0.0000 O   0  0  0  0  0  0  0  0  0
   -3.4141   -0.8790    0.0000 C   0  0  0  0  0  0  0  0  0
   -3.8266   -0.1646    0.0000 C   0  0  0  0  0  0  0  0  0
   -3.2746    0.4485    0.0000 N   0  0  0  0  0  0  0  0  0
   -3.7497   -1.6327    0.0000 C   0  0  0  0  0  0  0  0  0
    4.7298   -0.4910    0.0000 C   0  0  0  0  0  0  0  0  0
    5.2147    0.1765    0.0000 N   0  0  0  0  0  0  0  0  0
    5.9993   -0.0785    0.0000 N   0  0  0  0  0  0  0  0  0
    5.9993   -0.9035    0.0000 C   0  0  0  0  0  0  0  0  0
    5.2147   -1.1584    0.0000 N   0  0  0  0  0  0  0  0  0
    4.9598   -1.9430    0.0000 C   0  0  0  0  0  0  0  0  0
    6.6668   -1.3884    0.0000 C   0  0  0  0  0  0  0  0  0
    7.4514   -1.1334    0.0000 N   0  0  0  0  0  0  0  0  0
    7.9363   -1.8009    0.0000 C   0  0  0  0  0  0  0  0  0
    7.4514   -2.4683    0.0000 C   0  0  0  0  0  0  0  0  0
    6.6668   -2.2134    0.0000 C   0  0  0  0  0  0  0  0  0
    7.7063   -0.3488    0.0000 C   0  0  0  0  0  0  0  0  0
  1  2  1  0  0  0  0
  1 22  1  0  0  0  0
  2  3  1  0  0  0  0
  3  4  1  0  0  0  0
  4  5  1  0  0  0  0
  5  6  1  0  0  0  0
  5 15  1  0  0  0  0
  6  7  1  0  0  0  0
  7  8  1  0  0  0  0
  8  9  4  0  0  0  0
  8 13  4  0  0  0  0
  9 10  4  0  0  0  0
 10 11  4  0  0  0  0
 10 16  1  0  0  0  0
 11 12  4  0  0  0  0
 12 13  4  0  0  0  0
 13 14  1  0  0  0  0
 14 15  1  0  0  0  0
 16 17  4  0  0  0  0
 16 20  4  0  0  0  0
 17 18  4  0  0  0  0
 18 19  4  0  0  0  0
 18 21  1  0  0  0  0
 19 20  4  0  0  0  0
 22 23  4  0  0  0  0
 22 26  4  0  0  0  0
 23 24  4  0  0  0  0
 24 25  4  0  0  0  0
 25 26  4  0  0  0  0
 25 28  1  0  0  0  0
 26 27  1  0  0  0  0
 28 29  4  0  0  0  0
 28 32  4  0  0  0  0
 29 30  4  0  0  0  0
 29 33  1  0  0  0  0
 30 31  4  0  0  0  0
 31 32  4  0  0  0  0
M  END
>  <Name_Molregno>
389961

>  <DOPAMINE D2>
5.9

>  <DOPAMINE D3>
8.8

$$$$
389962
  Marvin  02231216192D 0   1.00000     0.00000     0

 38 43  0  0  0  0  0  0  0  0999 V2000
    0.2631    1.3038    0.0000 S   0  0  0  0  0  0  0  0  0
   -0.0725    0.5502    0.0000 C   0  0  0  0  0  0  0  0  0
    0.4124   -0.1173    0.0000 C   0  0  0  0  0  0  0  0  0
    0.0769   -0.8709    0.0000 C   0  0  0  0  0  0  0  0  0
    0.5618   -1.5384    0.0000 N   0  0  0  0  0  0  0  0  0
    1.3735   -1.3911    0.0000 C   0  0  0  0  0  0  0  0  0
    1.9948   -1.9339    0.0000 C   0  0  0  0  0  0  0  0  0
    1.9578   -2.7580    0.0000 C   0  0  0  0  0  0  0  0  0
    2.7115   -3.0936    0.0000 C   0  0  0  0  0  0  0  0  0
    2.7977   -3.9141    0.0000 C   0  0  0  0  0  0  0  0  0
    2.1303   -4.3990    0.0000 C   0  0  0  0  0  0  0  0  0
    1.3766   -4.0634    0.0000 C   0  0  0  0  0  0  0  0  0
    1.2904   -3.2430    0.0000 C   0  0  0  0  0  0  0  0  0
    0.4951   -3.0235    0.0000 C   0  0  0  0  0  0  0  0  0
    0.1708   -2.2649    0.0000 C   0  0  0  0  0  0  0  0  0
    3.5514   -4.2496    0.0000 C   0  0  0  0  0  0  0  0  0
    4.2659   -3.8371    0.0000 N   0  0  0  0  0  0  0  0  0
    4.8790   -4.3892    0.0000 O   0  0  0  0  0  0  0  0  0
    4.5434   -5.1428    0.0000 C   0  0  0  0  0  0  0  0  0
    3.7229   -5.0566    0.0000 C   0  0  0  0  0  0  0  0  0
    4.9559   -5.8573    0.0000 C   0  0  0  0  0  0  0  0  0
   -0.2219    1.9713    0.0000 C   0  0  0  0  0  0  0  0  0
   -1.0469    1.9713    0.0000 N   0  0  0  0  0  0  0  0  0
   -1.3018    2.7559    0.0000 N   0  0  0  0  0  0  0  0  0
   -0.6344    3.2408    0.0000 C   0  0  0  0  0  0  0  0  0
    0.0331    2.7559    0.0000 N   0  0  0  0  0  0  0  0  0
    0.8177    3.0108    0.0000 C   0  0  0  0  0  0  0  0  0
   -0.6344    4.0658    0.0000 C   0  0  0  0  0  0  0  0  0
    0.0801    4.4783    0.0000 C   0  0  0  0  0  0  0  0  0
    0.0801    5.3033    0.0000 C   0  0  0  0  0  0  0  0  0
    0.7946    5.7158    0.0000 N   0  0  0  0  0  0  0  0  0
    1.5090    5.3033    0.0000 C   0  0  0  0  0  0  0  0  0
    1.5090    4.4783    0.0000 C   0  0  0  0  0  0  0  0  0
    0.7946    4.0658    0.0000 C   0  0  0  0  0  0  0  0  0
    2.2235    5.7158    0.0000 C   0  0  0  0  0  0  0  0  0
   -0.6344    5.7158    0.0000 C   0  0  0  0  0  0  0  0  0
   -1.3488    5.3033    0.0000 C   0  0  0  0  0  0  0  0  0
   -1.3488    4.4783    0.0000 C   0  0  0  0  0  0  0  0  0
  1  2  1  0  0  0  0
  1 22  1  0  0  0  0
  2  3  1  0  0  0  0
  3  4  1  0  0  0  0
  4  5  1  0  0  0  0
  5  6  1  0  0  0  0
  5 15  1  0  0  0  0
  6  7  1  0  0  0  0
  7  8  1  0  0  0  0
  8  9  4  0  0  0  0
  8 13  4  0  0  0  0
  9 10  4  0  0  0  0
 10 11  4  0  0  0  0
 10 16  1  0  0  0  0
 11 12  4  0  0  0  0
 12 13  4  0  0  0  0
 13 14  1  0  0  0  0
 14 15  1  0  0  0  0
 16 17  4  0  0  0  0
 16 20  4  0  0  0  0
 17 18  4  0  0  0  0
 18 19  4  0  0  0  0
 19 20  4  0  0  0  0
 19 21  1  0  0  0  0
 22 23  4  0  0  0  0
 22 26  4  0  0  0  0
 23 24  4  0  0  0  0
 24 25  4  0  0  0  0
 25 26  4  0  0  0  0
 25 28  1  0  0  0  0
 26 27  1  0  0  0  0
 28 29  4  0  0  0  0
 28 38  4  0  0  0  0
 29 30  4  0  0  0  0
 29 34  4  0  0  0  0
 30 31  4  0  0  0  0
 30 36  4  0  0  0  0
 31 32  4  0  0  0  0
 32 33  4  0  0  0  0
 32 35  1  0  0  0  0
 33 34  4  0  0  0  0
 36 37  4  0  0  0  0
 37 38  4  0  0  0  0
M  END
>  <Name_Molregno>
389962

>  <DOPAMINE D2>
6

>  <DOPAMINE D3>
8.7

$$$$
389963
  Marvin  02231216192D 0   1.00000     0.00000     0

 38 43  0  0  0  0  0  0  0  0999 V2000
    1.3092    0.8755    0.0000 S   0  0  0  0  0  0  0  0  0
    0.4887    0.7892    0.0000 C   0  0  0  0  0  0  0  0  0
    0.1532    0.0356    0.0000 C   0  0  0  0  0  0  0  0  0
   -0.6673   -0.0507    0.0000 C   0  0  0  0  0  0  0  0  0
   -1.0029   -0.8043    0.0000 N   0  0  0  0  0  0  0  0  0
   -0.4694   -1.4337    0.0000 C   0  0  0  0  0  0  0  0  0
   -0.6289   -2.2431    0.0000 C   0  0  0  0  0  0  0  0  0
   -1.3611   -2.6231    0.0000 C   0  0  0  0  0  0  0  0  0
   -1.2749   -3.4436    0.0000 C   0  0  0  0  0  0  0  0  0
   -1.9423   -3.9286    0.0000 C   0  0  0  0  0  0  0  0  0
   -2.6960   -3.5930    0.0000 C   0  0  0  0  0  0  0  0  0
   -2.7823   -2.7725    0.0000 C   0  0  0  0  0  0  0  0  0
   -2.1148   -2.2876    0.0000 C   0  0  0  0  0  0  0  0  0
   -2.3224   -1.4891    0.0000 C   0  0  0  0  0  0  0  0  0
   -1.8275   -0.8290    0.0000 C   0  0  0  0  0  0  0  0  0
   -1.8561   -4.7490    0.0000 C   0  0  0  0  0  0  0  0  0
   -1.1416   -5.1615    0.0000 N   0  0  0  0  0  0  0  0  0
   -1.3132   -5.9685    0.0000 O   0  0  0  0  0  0  0  0  0
   -2.1336   -6.0547    0.0000 C   0  0  0  0  0  0  0  0  0
   -2.4692   -5.3011    0.0000 C   0  0  0  0  0  0  0  0  0
   -2.5461   -6.7692    0.0000 C   0  0  0  0  0  0  0  0  0
    1.6447    1.6292    0.0000 C   0  0  0  0  0  0  0  0  0
    1.2322    2.3436    0.0000 N   0  0  0  0  0  0  0  0  0
    1.7843    2.9567    0.0000 N   0  0  0  0  0  0  0  0  0
    2.5380    2.6212    0.0000 C   0  0  0  0  0  0  0  0  0
    2.4517    1.8007    0.0000 N   0  0  0  0  0  0  0  0  0
    3.0648    1.2487    0.0000 C   0  0  0  0  0  0  0  0  0
    3.2524    3.0337    0.0000 C   0  0  0  0  0  0  0  0  0
    3.9669    2.6212    0.0000 C   0  0  0  0  0  0  0  0  0
    4.6814    3.0337    0.0000 C   0  0  0  0  0  0  0  0  0
    4.6814    3.8587    0.0000 C   0  0  0  0  0  0  0  0  0
    5.3958    4.2712    0.0000 N   0  0  0  0  0  0  0  0  0
    6.1103    3.8587    0.0000 C   0  0  0  0  0  0  0  0  0
    6.1103    3.0337    0.0000 C   0  0  0  0  0  0  0  0  0
    5.3958    2.6212    0.0000 C   0  0  0  0  0  0  0  0  0
    6.8248    4.2712    0.0000 C   0  0  0  0  0  0  0  0  0
    3.9669    4.2712    0.0000 C   0  0  0  0  0  0  0  0  0
    3.2524    3.8587    0.0000 C   0  0  0  0  0  0  0  0  0
  1  2  1  0  0  0  0
  1 22  1  0  0  0  0
  2  3  1  0  0  0  0
  3  4  1  0  0  0  0
  4  5  1  0  0  0  0
  5  6  1  0  0  0  0
  5 15  1  0  0  0  0
  6  7  1  0  0  0  0
  7  8  1  0  0  0  0
  8  9  4  0  0  0  0
  8 13  4  0  0  0  0
  9 10  4  0  0  0  0
 10 11  4  0  0  0  0
 10 16  1  0  0  0  0
 11 12  4  0  0  0  0
 12 13  4  0  0  0  0
 13 14  1  0  0  0  0
 14 15  1  0  0  0  0
 16 17  4  0  0  0  0
 16 20  4  0  0  0  0
 17 18  4  0  0  0  0
 18 19  4  0  0  0  0
 19 20  4  0  0  0  0
 19 21  1  0  0  0  0
 22 23  4  0  0  0  0
 22 26  4  0  0  0  0
 23 24  4  0  0  0  0
 24 25  4  0  0  0  0
 25 26  4  0  0  0  0
 25 28  1  0  0  0  0
 26 27  1  0  0  0  0
 28 29  4  0  0  0  0
 28 38  4  0  0  0  0
 29 30  4  0  0  0  0
 30 31  4  0  0  0  0
 30 35  4  0  0  0  0
 31 32  4  0  0  0  0
 31 37  4  0  0  0  0
 32 33  4  0  0  0  0
 33 34  4  0  0  0  0
 33 36  1  0  0  0  0
 34 35  4  0  0  0  0
 37 38  4  0  0  0  0
M  END
>  <Name_Molregno>
389963

>  <DOPAMINE D2>
5.7

>  <DOPAMINE D3>
9

$$$$
389964
  Marvin  02231216192D 0   1.00000     0.00000     0

 39 44  0  0  0  0  0  0  0  0999 V2000
    1.5830   -0.0551    0.0000 S   0  0  0  0  0  0  0  0  0
    1.0981    0.6124    0.0000 C   0  0  0  0  0  0  0  0  0
    0.2776    0.5261    0.0000 C   0  0  0  0  0  0  0  0  0
   -0.2073    1.1936    0.0000 C   0  0  0  0  0  0  0  0  0
   -1.0278    1.1073    0.0000 N   0  0  0  0  0  0  0  0  0
   -1.3061    0.3307    0.0000 C   0  0  0  0  0  0  0  0  0
   -2.0868    0.0640    0.0000 C   0  0  0  0  0  0  0  0  0
   -2.7820    0.5082    0.0000 C   0  0  0  0  0  0  0  0  0
   -3.4495    0.0233    0.0000 C   0  0  0  0  0  0  0  0  0
   -4.2031    0.3588    0.0000 C   0  0  0  0  0  0  0  0  0
   -4.2894    1.1793    0.0000 C   0  0  0  0  0  0  0  0  0
   -3.6219    1.6642    0.0000 C   0  0  0  0  0  0  0  0  0
   -2.8683    1.3287    0.0000 C   0  0  0  0  0  0  0  0  0
   -2.2806    1.9076    0.0000 C   0  0  0  0  0  0  0  0  0
   -1.4615    1.8091    0.0000 C   0  0  0  0  0  0  0  0  0
   -4.8706   -0.1261    0.0000 C   0  0  0  0  0  0  0  0  0
   -4.8706   -0.9511    0.0000 N   0  0  0  0  0  0  0  0  0
   -5.6552   -1.2060    0.0000 O   0  0  0  0  0  0  0  0  0
   -6.1401   -0.5386    0.0000 C   0  0  0  0  0  0  0  0  0
   -5.6552    0.1288    0.0000 C   0  0  0  0  0  0  0  0  0
   -6.9651   -0.5386    0.0000 C   0  0  0  0  0  0  0  0  0
    2.4035    0.0312    0.0000 C   0  0  0  0  0  0  0  0  0
    2.8160    0.7456    0.0000 N   0  0  0  0  0  0  0  0  0
    3.6230    0.5741    0.0000 N   0  0  0  0  0  0  0  0  0
    3.7092   -0.2464    0.0000 C   0  0  0  0  0  0  0  0  0
    2.9556   -0.5819    0.0000 N   0  0  0  0  0  0  0  0  0
    2.7840   -1.3889    0.0000 C   0  0  0  0  0  0  0  0  0
    4.4237   -0.6589    0.0000 C   0  0  0  0  0  0  0  0  0
    5.1382   -0.2464    0.0000 C   0  0  0  0  0  0  0  0  0
    5.8526   -0.6589    0.0000 C   0  0  0  0  0  0  0  0  0
    6.5671   -0.2464    0.0000 N   0  0  0  0  0  0  0  0  0
    7.2816   -0.6589    0.0000 C   0  0  0  0  0  0  0  0  0
    7.9961   -0.2464    0.0000 C   0  0  0  0  0  0  0  0  0
    7.2816   -1.4839    0.0000 C   0  0  0  0  0  0  0  0  0
    6.5671   -1.8964    0.0000 N   0  0  0  0  0  0  0  0  0
    5.8526   -1.4839    0.0000 C   0  0  0  0  0  0  0  0  0
    5.1382   -1.8964    0.0000 C   0  0  0  0  0  0  0  0  0
    4.4237   -1.4839    0.0000 C   0  0  0  0  0  0  0  0  0
    7.9961   -1.8964    0.0000 C   0  0  0  0  0  0  0  0  0
  1  2  1  0  0  0  0
  1 22  1  0  0  0  0
  2  3  1  0  0  0  0
  3  4  1  0  0  0  0
  4  5  1  0  0  0  0
  5  6  1  0  0  0  0
  5 15  1  0  0  0  0
  6  7  1  0  0  0  0
  7  8  1  0  0  0  0
  8  9  4  0  0  0  0
  8 13  4  0  0  0  0
  9 10  4  0  0  0  0
 10 11  4  0  0  0  0
 10 16  1  0  0  0  0
 11 12  4  0  0  0  0
 12 13  4  0  0  0  0
 13 14  1  0  0  0  0
 14 15  1  0  0  0  0
 16 17  4  0  0  0  0
 16 20  4  0  0  0  0
 17 18  4  0  0  0  0
 18 19  4  0  0  0  0
 19 20  4  0  0  0  0
 19 21  1  0  0  0  0
 22 23  4  0  0  0  0
 22 26  4  0  0  0  0
 23 24  4  0  0  0  0
 24 25  4  0  0  0  0
 25 26  4  0  0  0  0
 25 28  1  0  0  0  0
 26 27  1  0  0  0  0
 28 29  4  0  0  0  0
 28 38  4  0  0  0  0
 29 30  4  0  0  0  0
 30 31  4  0  0  0  0
 30 36  4  0  0  0  0
 31 32  4  0  0  0  0
 32 33  1  0  0  0  0
 32 34  4  0  0  0  0
 34 35  4  0  0  0  0
 34 39  1  0  0  0  0
 35 36  4  0  0  0  0
 36 37  4  0  0  0  0
 37 38  4  0  0  0  0
M  END
>  <Name_Molregno>
389964

>  <DOPAMINE D2>
5.2

>  <DOPAMINE D3>
8.2

$$$$
389965
  Marvin  02231216192D 0   1.00000     0.00000     0

 33 37  0  0  0  0  0  0  0  0999 V2000
    3.8676    0.0939    0.0000 S   0  0  0  0  0  0  0  0  0
    3.4551    0.8084    0.0000 C   0  0  0  0  0  0  0  0  0
    2.6301    0.8084    0.0000 C   0  0  0  0  0  0  0  0  0
    2.2176    1.5228    0.0000 C   0  0  0  0  0  0  0  0  0
    1.3926    1.5228    0.0000 N   0  0  0  0  0  0  0  0  0
    1.0346    0.7795    0.0000 C   0  0  0  0  0  0  0  0  0
    0.2303    0.5960    0.0000 C   0  0  0  0  0  0  0  0  0
   -0.4147    1.1103    0.0000 C   0  0  0  0  0  0  0  0  0
   -1.1292    0.6978    0.0000 C   0  0  0  0  0  0  0  0  0
   -1.8437    1.1103    0.0000 C   0  0  0  0  0  0  0  0  0
   -1.8437    1.9353    0.0000 C   0  0  0  0  0  0  0  0  0
   -1.1292    2.3478    0.0000 C   0  0  0  0  0  0  0  0  0
   -0.4147    1.9353    0.0000 C   0  0  0  0  0  0  0  0  0
    0.2303    2.4497    0.0000 C   0  0  0  0  0  0  0  0  0
    1.0346    2.2661    0.0000 C   0  0  0  0  0  0  0  0  0
   -2.5581    0.6978    0.0000 C   0  0  0  0  0  0  0  0  0
   -2.6444   -0.1226    0.0000 N   0  0  0  0  0  0  0  0  0
   -3.4513   -0.2942    0.0000 O   0  0  0  0  0  0  0  0  0
   -3.8638    0.4203    0.0000 C   0  0  0  0  0  0  0  0  0
   -3.3118    1.0334    0.0000 C   0  0  0  0  0  0  0  0  0
   -4.6843    0.5065    0.0000 C   0  0  0  0  0  0  0  0  0
    4.6926    0.0939    0.0000 C   0  0  0  0  0  0  0  0  0
    5.1775    0.7613    0.0000 N   0  0  0  0  0  0  0  0  0
    5.9621    0.5064    0.0000 N   0  0  0  0  0  0  0  0  0
    5.9621   -0.3186    0.0000 C   0  0  0  0  0  0  0  0  0
    5.1775   -0.5735    0.0000 N   0  0  0  0  0  0  0  0  0
    4.9225   -1.3582    0.0000 C   0  0  0  0  0  0  0  0  0
    6.6295   -0.8035    0.0000 C   0  0  0  0  0  0  0  0  0
    7.3832   -0.4680    0.0000 C   0  0  0  0  0  0  0  0  0
    8.0507   -0.9529    0.0000 C   0  0  0  0  0  0  0  0  0
    7.9644   -1.7734    0.0000 C   0  0  0  0  0  0  0  0  0
    7.2107   -2.1089    0.0000 C   0  0  0  0  0  0  0  0  0
    6.5433   -1.6240    0.0000 C   0  0  0  0  0  0  0  0  0
  1  2  1  0  0  0  0
  1 22  1  0  0  0  0
  2  3  1  0  0  0  0
  3  4  1  0  0  0  0
  4  5  1  0  0  0  0
  5  6  1  0  0  0  0
  5 15  1  0  0  0  0
  6  7  1  0  0  0  0
  7  8  1  0  0  0  0
  8  9  4  0  0  0  0
  8 13  4  0  0  0  0
  9 10  4  0  0  0  0
 10 11  4  0  0  0  0
 10 16  1  0  0  0  0
 11 12  4  0  0  0  0
 12 13  4  0  0  0  0
 13 14  1  0  0  0  0
 14 15  1  0  0  0  0
 16 17  4  0  0  0  0
 16 20  4  0  0  0  0
 17 18  4  0  0  0  0
 18 19  4  0  0  0  0
 19 20  4  0  0  0  0
 19 21  1  0  0  0  0
 22 23  4  0  0  0  0
 22 26  4  0  0  0  0
 23 24  4  0  0  0  0
 24 25  4  0  0  0  0
 25 26  4  0  0  0  0
 25 28  1  0  0  0  0
 26 27  1  0  0  0  0
 28 29  4  0  0  0  0
 28 33  4  0  0  0  0
 29 30  4  0  0  0  0
 30 31  4  0  0  0  0
 31 32  4  0  0  0  0
 32 33  4  0  0  0  0
M  END
>  <Name_Molregno>
389965

>  <DOPAMINE D2>
6.4

>  <DOPAMINE D3>
8.8

$$$$
389966
  Marvin  02231216192D 0   1.00000     0.00000     0

 35 39  0  0  0  0  0  0  0  0999 V2000
    3.0378   -0.5110    0.0000 S   0  0  0  0  0  0  0  0  0
    2.6253    0.2035    0.0000 C   0  0  0  0  0  0  0  0  0
    1.8003    0.2035    0.0000 C   0  0  0  0  0  0  0  0  0
    1.3878    0.9179    0.0000 C   0  0  0  0  0  0  0  0  0
    0.5628    0.9179    0.0000 N   0  0  0  0  0  0  0  0  0
    0.2048    0.1746    0.0000 C   0  0  0  0  0  0  0  0  0
   -0.5995   -0.0090    0.0000 C   0  0  0  0  0  0  0  0  0
   -1.2445    0.5054    0.0000 C   0  0  0  0  0  0  0  0  0
   -1.9590    0.0929    0.0000 C   0  0  0  0  0  0  0  0  0
   -2.6734    0.5054    0.0000 C   0  0  0  0  0  0  0  0  0
   -2.6734    1.3304    0.0000 C   0  0  0  0  0  0  0  0  0
   -1.9590    1.7429    0.0000 C   0  0  0  0  0  0  0  0  0
   -1.2445    1.3304    0.0000 C   0  0  0  0  0  0  0  0  0
   -0.5995    1.8448    0.0000 C   0  0  0  0  0  0  0  0  0
    0.2048    1.6612    0.0000 C   0  0  0  0  0  0  0  0  0
   -3.3879    0.0929    0.0000 C   0  0  0  0  0  0  0  0  0
   -3.4741   -0.7276    0.0000 N   0  0  0  0  0  0  0  0  0
   -4.2811   -0.8991    0.0000 O   0  0  0  0  0  0  0  0  0
   -4.6936   -0.1846    0.0000 C   0  0  0  0  0  0  0  0  0
   -4.1416    0.4285    0.0000 C   0  0  0  0  0  0  0  0  0
   -5.5141   -0.0984    0.0000 C   0  0  0  0  0  0  0  0  0
    3.8628   -0.5110    0.0000 C   0  0  0  0  0  0  0  0  0
    4.3477    0.1564    0.0000 N   0  0  0  0  0  0  0  0  0
    5.1323   -0.0985    0.0000 N   0  0  0  0  0  0  0  0  0
    5.1323   -0.9235    0.0000 C   0  0  0  0  0  0  0  0  0
    4.3477   -1.1785    0.0000 N   0  0  0  0  0  0  0  0  0
    4.0928   -1.9631    0.0000 C   0  0  0  0  0  0  0  0  0
    5.7998   -1.4084    0.0000 C   0  0  0  0  0  0  0  0  0
    6.5534   -1.0729    0.0000 C   0  0  0  0  0  0  0  0  0
    7.2209   -1.5578    0.0000 C   0  0  0  0  0  0  0  0  0
    7.1346   -2.3783    0.0000 C   0  0  0  0  0  0  0  0  0
    6.3810   -2.7138    0.0000 C   0  0  0  0  0  0  0  0  0
    5.7135   -2.2289    0.0000 C   0  0  0  0  0  0  0  0  0
    7.8021   -2.8632    0.0000 C   0  0  0  0  0  0  0  0  0
    8.4695   -3.3481    0.0000 N   0  0  0  0  0  0  0  0  0
  1  2  1  0  0  0  0
  1 22  1  0  0  0  0
  2  3  1  0  0  0  0
  3  4  1  0  0  0  0
  4  5  1  0  0  0  0
  5  6  1  0  0  0  0
  5 15  1  0  0  0  0
  6  7  1  0  0  0  0
  7  8  1  0  0  0  0
  8  9  4  0  0  0  0
  8 13  4  0  0  0  0
  9 10  4  0  0  0  0
 10 11  4  0  0  0  0
 10 16  1  0  0  0  0
 11 12  4  0  0  0  0
 12 13  4  0  0  0  0
 13 14  1  0  0  0  0
 14 15  1  0  0  0  0
 16 17  4  0  0  0  0
 16 20  4  0  0  0  0
 17 18  4  0  0  0  0
 18 19  4  0  0  0  0
 19 20  4  0  0  0  0
 19 21  1  0  0  0  0
 22 23  4  0  0  0  0
 22 26  4  0  0  0  0
 23 24  4  0  0  0  0
 24 25  4  0  0  0  0
 25 26  4  0  0  0  0
 25 28  1  0  0  0  0
 26 27  1  0  0  0  0
 28 29  4  0  0  0  0
 28 33  4  0  0  0  0
 29 30  4  0  0  0  0
 30 31  4  0  0  0  0
 31 32  4  0  0  0  0
 31 34  1  0  0  0  0
 32 33  4  0  0  0  0
 34 35  3  0  0  0  0
M  END
>  <Name_Molregno>
389966

>  <DOPAMINE D2>
6.4

>  <DOPAMINE D3>
8.4

$$$$
389967
  Marvin  02231216192D 0   1.00000     0.00000     0

 37 41  0  0  0  0  0  0  0  0999 V2000
    2.3778   -0.0316    0.0000 S   0  0  0  0  0  0  0  0  0
    1.9653    0.6828    0.0000 C   0  0  0  0  0  0  0  0  0
    1.1403    0.6828    0.0000 C   0  0  0  0  0  0  0  0  0
    0.7278    1.3973    0.0000 C   0  0  0  0  0  0  0  0  0
   -0.0972    1.3973    0.0000 N   0  0  0  0  0  0  0  0  0
   -0.4551    0.6540    0.0000 C   0  0  0  0  0  0  0  0  0
   -1.2595    0.4704    0.0000 C   0  0  0  0  0  0  0  0  0
   -1.9045    0.9848    0.0000 C   0  0  0  0  0  0  0  0  0
   -2.6189    0.5723    0.0000 C   0  0  0  0  0  0  0  0  0
   -3.3334    0.9848    0.0000 C   0  0  0  0  0  0  0  0  0
   -3.3334    1.8098    0.0000 C   0  0  0  0  0  0  0  0  0
   -2.6189    2.2223    0.0000 C   0  0  0  0  0  0  0  0  0
   -1.9045    1.8098    0.0000 C   0  0  0  0  0  0  0  0  0
   -1.2595    2.3242    0.0000 C   0  0  0  0  0  0  0  0  0
   -0.4551    2.1406    0.0000 C   0  0  0  0  0  0  0  0  0
   -4.0479    0.5723    0.0000 C   0  0  0  0  0  0  0  0  0
   -4.1341   -0.2482    0.0000 N   0  0  0  0  0  0  0  0  0
   -4.9411   -0.4197    0.0000 O   0  0  0  0  0  0  0  0  0
   -5.3536    0.2948    0.0000 C   0  0  0  0  0  0  0  0  0
   -4.8016    0.9079    0.0000 C   0  0  0  0  0  0  0  0  0
   -6.1741    0.3810    0.0000 C   0  0  0  0  0  0  0  0  0
    3.2028   -0.0316    0.0000 C   0  0  0  0  0  0  0  0  0
    3.6877    0.6358    0.0000 N   0  0  0  0  0  0  0  0  0
    4.4723    0.3809    0.0000 N   0  0  0  0  0  0  0  0  0
    4.4723   -0.4441    0.0000 C   0  0  0  0  0  0  0  0  0
    3.6877   -0.6991    0.0000 N   0  0  0  0  0  0  0  0  0
    3.4328   -1.4837    0.0000 C   0  0  0  0  0  0  0  0  0
    5.1398   -0.9291    0.0000 C   0  0  0  0  0  0  0  0  0
    5.8935   -0.5935    0.0000 C   0  0  0  0  0  0  0  0  0
    6.5609   -1.0784    0.0000 C   0  0  0  0  0  0  0  0  0
    6.4747   -1.8989    0.0000 C   0  0  0  0  0  0  0  0  0
    5.7210   -2.2345    0.0000 C   0  0  0  0  0  0  0  0  0
    5.0536   -1.7495    0.0000 C   0  0  0  0  0  0  0  0  0
    7.1421   -2.3838    0.0000 C   0  0  0  0  0  0  0  0  0
    7.8095   -2.8687    0.0000 F   0  0  0  0  0  0  0  0  0
    6.6572   -3.0513    0.0000 F   0  0  0  0  0  0  0  0  0
    7.6270   -1.7164    0.0000 F   0  0  0  0  0  0  0  0  0
  1  2  1  0  0  0  0
  1 22  1  0  0  0  0
  2  3  1  0  0  0  0
  3  4  1  0  0  0  0
  4  5  1  0  0  0  0
  5  6  1  0  0  0  0
  5 15  1  0  0  0  0
  6  7  1  0  0  0  0
  7  8  1  0  0  0  0
  8  9  4  0  0  0  0
  8 13  4  0  0  0  0
  9 10  4  0  0  0  0
 10 11  4  0  0  0  0
 10 16  1  0  0  0  0
 11 12  4  0  0  0  0
 12 13  4  0  0  0  0
 13 14  1  0  0  0  0
 14 15  1  0  0  0  0
 16 17  4  0  0  0  0
 16 20  4  0  0  0  0
 17 18  4  0  0  0  0
 18 19  4  0  0  0  0
 19 20  4  0  0  0  0
 19 21  1  0  0  0  0
 22 23  4  0  0  0  0
 22 26  4  0  0  0  0
 23 24  4  0  0  0  0
 24 25  4  0  0  0  0
 25 26  4  0  0  0  0
 25 28  1  0  0  0  0
 26 27  1  0  0  0  0
 28 29  4  0  0  0  0
 28 33  4  0  0  0  0
 29 30  4  0  0  0  0
 30 31  4  0  0  0  0
 31 32  4  0  0  0  0
 31 34  1  0  0  0  0
 32 33  4  0  0  0  0
 34 35  1  0  0  0  0
 34 36  1  0  0  0  0
 34 37  1  0  0  0  0
M  END
>  <Name_Molregno>
389967

>  <DOPAMINE D2>
6.3

>  <DOPAMINE D3>
8.5

$$$$
389968
  Marvin  02231216192D 0   1.00000     0.00000     0

 34 38  0  0  0  0  0  0  0  0999 V2000
    3.5036   -0.2748    0.0000 S   0  0  0  0  0  0  0  0  0
    3.0911    0.4397    0.0000 C   0  0  0  0  0  0  0  0  0
    2.2661    0.4397    0.0000 C   0  0  0  0  0  0  0  0  0
    1.8536    1.1542    0.0000 C   0  0  0  0  0  0  0  0  0
    1.0286    1.1542    0.0000 N   0  0  0  0  0  0  0  0  0
    0.6706    0.4109    0.0000 C   0  0  0  0  0  0  0  0  0
   -0.1337    0.2273    0.0000 C   0  0  0  0  0  0  0  0  0
   -0.7787    0.7417    0.0000 C   0  0  0  0  0  0  0  0  0
   -1.4931    0.3292    0.0000 C   0  0  0  0  0  0  0  0  0
   -2.2076    0.7417    0.0000 C   0  0  0  0  0  0  0  0  0
   -2.2076    1.5667    0.0000 C   0  0  0  0  0  0  0  0  0
   -1.4931    1.9792    0.0000 C   0  0  0  0  0  0  0  0  0
   -0.7787    1.5667    0.0000 C   0  0  0  0  0  0  0  0  0
   -0.1337    2.0810    0.0000 C   0  0  0  0  0  0  0  0  0
    0.6706    1.8975    0.0000 C   0  0  0  0  0  0  0  0  0
   -2.9221    0.3292    0.0000 C   0  0  0  0  0  0  0  0  0
   -3.0083   -0.4913    0.0000 N   0  0  0  0  0  0  0  0  0
   -3.8153   -0.6628    0.0000 O   0  0  0  0  0  0  0  0  0
   -4.2278    0.0516    0.0000 C   0  0  0  0  0  0  0  0  0
   -3.6758    0.6647    0.0000 C   0  0  0  0  0  0  0  0  0
   -5.0483    0.1379    0.0000 C   0  0  0  0  0  0  0  0  0
    4.3286   -0.2748    0.0000 C   0  0  0  0  0  0  0  0  0
    4.8135    0.3927    0.0000 N   0  0  0  0  0  0  0  0  0
    5.5981    0.1377    0.0000 N   0  0  0  0  0  0  0  0  0
    5.5981   -0.6873    0.0000 C   0  0  0  0  0  0  0  0  0
    4.8135   -0.9422    0.0000 N   0  0  0  0  0  0  0  0  0
    4.5586   -1.7268    0.0000 C   0  0  0  0  0  0  0  0  0
    6.2656   -1.1722    0.0000 C   0  0  0  0  0  0  0  0  0
    7.0193   -0.8366    0.0000 C   0  0  0  0  0  0  0  0  0
    7.6867   -1.3216    0.0000 C   0  0  0  0  0  0  0  0  0
    7.6005   -2.1420    0.0000 C   0  0  0  0  0  0  0  0  0
    6.8468   -2.4776    0.0000 C   0  0  0  0  0  0  0  0  0
    6.1794   -1.9927    0.0000 C   0  0  0  0  0  0  0  0  0
    8.2679   -2.6270    0.0000 C   0  0  0  0  0  0  0  0  0
  1  2  1  0  0  0  0
  1 22  1  0  0  0  0
  2  3  1  0  0  0  0
  3  4  1  0  0  0  0
  4  5  1  0  0  0  0
  5  6  1  0  0  0  0
  5 15  1  0  0  0  0
  6  7  1  0  0  0  0
  7  8  1  0  0  0  0
  8  9  4  0  0  0  0
  8 13  4  0  0  0  0
  9 10  4  0  0  0  0
 10 11  4  0  0  0  0
 10 16  1  0  0  0  0
 11 12  4  0  0  0  0
 12 13  4  0  0  0  0
 13 14  1  0  0  0  0
 14 15  1  0  0  0  0
 16 17  4  0  0  0  0
 16 20  4  0  0  0  0
 17 18  4  0  0  0  0
 18 19  4  0  0  0  0
 19 20  4  0  0  0  0
 19 21  1  0  0  0  0
 22 23  4  0  0  0  0
 22 26  4  0  0  0  0
 23 24  4  0  0  0  0
 24 25  4  0  0  0  0
 25 26  4  0  0  0  0
 25 28  1  0  0  0  0
 26 27  1  0  0  0  0
 28 29  4  0  0  0  0
 28 33  4  0  0  0  0
 29 30  4  0  0  0  0
 30 31  4  0  0  0  0
 31 32  4  0  0  0  0
 31 34  1  0  0  0  0
 32 33  4  0  0  0  0
M  END
>  <Name_Molregno>
389968

>  <DOPAMINE D2>
6.4

>  <DOPAMINE D3>
8.8

$$$$
389969
  Marvin  02231216192D 0   1.00000     0.00000     0

 33 37  0  0  0  0  0  0  0  0999 V2000
    3.8676    0.0939    0.0000 S   0  0  0  0  0  0  0  0  0
    3.4551    0.8084    0.0000 C   0  0  0  0  0  0  0  0  0
    2.6301    0.8084    0.0000 C   0  0  0  0  0  0  0  0  0
    2.2176    1.5228    0.0000 C   0  0  0  0  0  0  0  0  0
    1.3926    1.5228    0.0000 N   0  0  0  0  0  0  0  0  0
    1.0346    0.7795    0.0000 C   0  0  0  0  0  0  0  0  0
    0.2303    0.5960    0.0000 C   0  0  0  0  0  0  0  0  0
   -0.4147    1.1103    0.0000 C   0  0  0  0  0  0  0  0  0
   -1.1292    0.6978    0.0000 C   0  0  0  0  0  0  0  0  0
   -1.8437    1.1103    0.0000 C   0  0  0  0  0  0  0  0  0
   -1.8437    1.9353    0.0000 C   0  0  0  0  0  0  0  0  0
   -1.1292    2.3478    0.0000 C   0  0  0  0  0  0  0  0  0
   -0.4147    1.9353    0.0000 C   0  0  0  0  0  0  0  0  0
    0.2303    2.4497    0.0000 C   0  0  0  0  0  0  0  0  0
    1.0346    2.2661    0.0000 C   0  0  0  0  0  0  0  0  0
   -2.5581    0.6978    0.0000 C   0  0  0  0  0  0  0  0  0
   -2.6444   -0.1226    0.0000 N   0  0  0  0  0  0  0  0  0
   -3.4513   -0.2942    0.0000 O   0  0  0  0  0  0  0  0  0
   -3.8638    0.4203    0.0000 C   0  0  0  0  0  0  0  0  0
   -3.3118    1.0334    0.0000 C   0  0  0  0  0  0  0  0  0
   -4.6843    0.5065    0.0000 C   0  0  0  0  0  0  0  0  0
    4.6926    0.0939    0.0000 C   0  0  0  0  0  0  0  0  0
    5.1775    0.7613    0.0000 N   0  0  0  0  0  0  0  0  0
    5.9621    0.5064    0.0000 N   0  0  0  0  0  0  0  0  0
    5.9621   -0.3186    0.0000 C   0  0  0  0  0  0  0  0  0
    5.1775   -0.5735    0.0000 N   0  0  0  0  0  0  0  0  0
    4.9225   -1.3582    0.0000 C   0  0  0  0  0  0  0  0  0
    6.6295   -0.8035    0.0000 C   0  0  0  0  0  0  0  0  0
    7.3832   -0.4680    0.0000 N   0  0  0  0  0  0  0  0  0
    8.0507   -0.9529    0.0000 C   0  0  0  0  0  0  0  0  0
    7.9644   -1.7734    0.0000 C   0  0  0  0  0  0  0  0  0
    7.2107   -2.1089    0.0000 C   0  0  0  0  0  0  0  0  0
    6.5433   -1.6240    0.0000 C   0  0  0  0  0  0  0  0  0
  1  2  1  0  0  0  0
  1 22  1  0  0  0  0
  2  3  1  0  0  0  0
  3  4  1  0  0  0  0
  4  5  1  0  0  0  0
  5  6  1  0  0  0  0
  5 15  1  0  0  0  0
  6  7  1  0  0  0  0
  7  8  1  0  0  0  0
  8  9  4  0  0  0  0
  8 13  4  0  0  0  0
  9 10  4  0  0  0  0
 10 11  4  0  0  0  0
 10 16  1  0  0  0  0
 11 12  4  0  0  0  0
 12 13  4  0  0  0  0
 13 14  1  0  0  0  0
 14 15  1  0  0  0  0
 16 17  4  0  0  0  0
 16 20  4  0  0  0  0
 17 18  4  0  0  0  0
 18 19  4  0  0  0  0
 19 20  4  0  0  0  0
 19 21  1  0  0  0  0
 22 23  4  0  0  0  0
 22 26  4  0  0  0  0
 23 24  4  0  0  0  0
 24 25  4  0  0  0  0
 25 26  4  0  0  0  0
 25 28  1  0  0  0  0
 26 27  1  0  0  0  0
 28 29  4  0  0  0  0
 28 33  4  0  0  0  0
 29 30  4  0  0  0  0
 30 31  4  0  0  0  0
 31 32  4  0  0  0  0
 32 33  4  0  0  0  0
M  END
>  <Name_Molregno>
389969

>  <DOPAMINE D2>
5.8

>  <DOPAMINE D3>
8.6

$$$$
389970
  Marvin  02231216192D 0   1.00000     0.00000     0

 33 37  0  0  0  0  0  0  0  0999 V2000
    3.8676    0.0939    0.0000 S   0  0  0  0  0  0  0  0  0
    3.4551    0.8084    0.0000 C   0  0  0  0  0  0  0  0  0
    2.6301    0.8084    0.0000 C   0  0  0  0  0  0  0  0  0
    2.2176    1.5228    0.0000 C   0  0  0  0  0  0  0  0  0
    1.3926    1.5228    0.0000 N   0  0  0  0  0  0  0  0  0
    1.0346    0.7795    0.0000 C   0  0  0  0  0  0  0  0  0
    0.2303    0.5960    0.0000 C   0  0  0  0  0  0  0  0  0
   -0.4147    1.1103    0.0000 C   0  0  0  0  0  0  0  0  0
   -1.1292    0.6978    0.0000 C   0  0  0  0  0  0  0  0  0
   -1.8437    1.1103    0.0000 C   0  0  0  0  0  0  0  0  0
   -1.8437    1.9353    0.0000 C   0  0  0  0  0  0  0  0  0
   -1.1292    2.3478    0.0000 C   0  0  0  0  0  0  0  0  0
   -0.4147    1.9353    0.0000 C   0  0  0  0  0  0  0  0  0
    0.2303    2.4497    0.0000 C   0  0  0  0  0  0  0  0  0
    1.0346    2.2661    0.0000 C   0  0  0  0  0  0  0  0  0
   -2.5581    0.6978    0.0000 C   0  0  0  0  0  0  0  0  0
   -2.6444   -0.1226    0.0000 N   0  0  0  0  0  0  0  0  0
   -3.4513   -0.2942    0.0000 O   0  0  0  0  0  0  0  0  0
   -3.8638    0.4203    0.0000 C   0  0  0  0  0  0  0  0  0
   -3.3118    1.0334    0.0000 C   0  0  0  0  0  0  0  0  0
   -4.6843    0.5065    0.0000 C   0  0  0  0  0  0  0  0  0
    4.6926    0.0939    0.0000 C   0  0  0  0  0  0  0  0  0
    5.1775    0.7613    0.0000 N   0  0  0  0  0  0  0  0  0
    5.9621    0.5064    0.0000 N   0  0  0  0  0  0  0  0  0
    5.9621   -0.3186    0.0000 C   0  0  0  0  0  0  0  0  0
    5.1775   -0.5735    0.0000 N   0  0  0  0  0  0  0  0  0
    4.9225   -1.3582    0.0000 C   0  0  0  0  0  0  0  0  0
    6.6295   -0.8035    0.0000 C   0  0  0  0  0  0  0  0  0
    7.3832   -0.4680    0.0000 C   0  0  0  0  0  0  0  0  0
    8.0507   -0.9529    0.0000 C   0  0  0  0  0  0  0  0  0
    7.9644   -1.7734    0.0000 N   0  0  0  0  0  0  0  0  0
    7.2107   -2.1089    0.0000 C   0  0  0  0  0  0  0  0  0
    6.5433   -1.6240    0.0000 C   0  0  0  0  0  0  0  0  0
  1  2  1  0  0  0  0
  1 22  1  0  0  0  0
  2  3  1  0  0  0  0
  3  4  1  0  0  0  0
  4  5  1  0  0  0  0
  5  6  1  0  0  0  0
  5 15  1  0  0  0  0
  6  7  1  0  0  0  0
  7  8  1  0  0  0  0
  8  9  4  0  0  0  0
  8 13  4  0  0  0  0
  9 10  4  0  0  0  0
 10 11  4  0  0  0  0
 10 16  1  0  0  0  0
 11 12  4  0  0  0  0
 12 13  4  0  0  0  0
 13 14  1  0  0  0  0
 14 15  1  0  0  0  0
 16 17  4  0  0  0  0
 16 20  4  0  0  0  0
 17 18  4  0  0  0  0
 18 19  4  0  0  0  0
 19 20  4  0  0  0  0
 19 21  1  0  0  0  0
 22 23  4  0  0  0  0
 22 26  4  0  0  0  0
 23 24  4  0  0  0  0
 24 25  4  0  0  0  0
 25 26  4  0  0  0  0
 25 28  1  0  0  0  0
 26 27  1  0  0  0  0
 28 29  4  0  0  0  0
 28 33  4  0  0  0  0
 29 30  4  0  0  0  0
 30 31  4  0  0  0  0
 31 32  4  0  0  0  0
 32 33  4  0  0  0  0
M  END
>  <Name_Molregno>
389970

>  <DOPAMINE D2>
6

>  <DOPAMINE D3>
7.6

$$$$
389971
  Marvin  02231216192D 0   1.00000     0.00000     0

 32 36  0  0  0  0  0  0  0  0999 V2000
   10.1953    2.4500    0.0000 S   0  0  0  0  0  0  0  0  0
   10.9799    2.7050    0.0000 C   0  0  0  0  0  0  0  0  0
   11.4649    2.0375    0.0000 C   0  0  0  0  0  0  0  0  0
   10.9799    1.3701    0.0000 C   0  0  0  0  0  0  0  0  0
   10.1953    1.6250    0.0000 C   0  0  0  0  0  0  0  0  0
    9.5279    1.1401    0.0000 C   0  0  0  0  0  0  0  0  0
    9.5279    0.3151    0.0000 N   0  0  0  0  0  0  0  0  0
    8.7433    0.0602    0.0000 N   0  0  0  0  0  0  0  0  0
    8.2583    0.7276    0.0000 C   0  0  0  0  0  0  0  0  0
    7.4333    0.7276    0.0000 S   0  0  0  0  0  0  0  0  0
    7.0208    0.0131    0.0000 C   0  0  0  0  0  0  0  0  0
    6.1958    0.0131    0.0000 C   0  0  0  0  0  0  0  0  0
    5.7833   -0.7014    0.0000 C   0  0  0  0  0  0  0  0  0
    4.9583   -0.7014    0.0000 N   0  0  0  0  0  0  0  0  0
    4.6004   -1.4447    0.0000 C   0  0  0  0  0  0  0  0  0
    3.7961   -1.6282    0.0000 C   0  0  0  0  0  0  0  0  0
    3.1511   -1.1139    0.0000 C   0  0  0  0  0  0  0  0  0
    2.4366   -1.5264    0.0000 C   0  0  0  0  0  0  0  0  0
    1.7221   -1.1139    0.0000 C   0  0  0  0  0  0  0  0  0
    1.7221   -0.2889    0.0000 C   0  0  0  0  0  0  0  0  0
    2.4366    0.1236    0.0000 C   0  0  0  0  0  0  0  0  0
    3.1511   -0.2889    0.0000 C   0  0  0  0  0  0  0  0  0
    3.7961    0.2255    0.0000 C   0  0  0  0  0  0  0  0  0
    4.6004    0.0419    0.0000 C   0  0  0  0  0  0  0  0  0
    1.0076   -1.5264    0.0000 C   0  0  0  0  0  0  0  0  0
    0.9214   -2.3468    0.0000 N   0  0  0  0  0  0  0  0  0
    0.1144   -2.5184    0.0000 O   0  0  0  0  0  0  0  0  0
   -0.2981   -1.8039    0.0000 C   0  0  0  0  0  0  0  0  0
    0.2540   -1.1908    0.0000 C   0  0  0  0  0  0  0  0  0
   -1.1185   -1.7177    0.0000 C   0  0  0  0  0  0  0  0  0
    8.7433    1.3950    0.0000 N   0  0  0  0  0  0  0  0  0
    8.4883    2.1797    0.0000 C   0  0  0  0  0  0  0  0  0
  1  2  4  0  0  0  0
  1  5  4  0  0  0  0
  2  3  4  0  0  0  0
  3  4  4  0  0  0  0
  4  5  4  0  0  0  0
  5  6  1  0  0  0  0
  6  7  4  0  0  0  0
  6 31  4  0  0  0  0
  7  8  4  0  0  0  0
  8  9  4  0  0  0  0
  9 10  1  0  0  0  0
  9 31  4  0  0  0  0
 10 11  1  0  0  0  0
 11 12  1  0  0  0  0
 12 13  1  0  0  0  0
 13 14  1  0  0  0  0
 14 15  1  0  0  0  0
 14 24  1  0  0  0  0
 15 16  1  0  0  0  0
 16 17  1  0  0  0  0
 17 18  4  0  0  0  0
 17 22  4  0  0  0  0
 18 19  4  0  0  0  0
 19 20  4  0  0  0  0
 19 25  1  0  0  0  0
 20 21  4  0  0  0  0
 21 22  4  0  0  0  0
 22 23  1  0  0  0  0
 23 24  1  0  0  0  0
 25 26  4  0  0  0  0
 25 29  4  0  0  0  0
 26 27  4  0  0  0  0
 27 28  4  0  0  0  0
 28 29  4  0  0  0  0
 28 30  1  0  0  0  0
 31 32  1  0  0  0  0
M  END
>  <Name_Molregno>
389971

>  <DOPAMINE D2>
6.6

>  <DOPAMINE D3>
8.9

$$$$
389972
  Marvin  02231216192D 0   1.00000     0.00000     0

 33 37  0  0  0  0  0  0  0  0999 V2000
    3.9320   -0.2131    0.0000 S   0  0  0  0  0  0  0  0  0
    3.5195    0.5013    0.0000 C   0  0  0  0  0  0  0  0  0
    2.6945    0.5013    0.0000 C   0  0  0  0  0  0  0  0  0
    2.2820    1.2158    0.0000 C   0  0  0  0  0  0  0  0  0
    1.4570    1.2158    0.0000 N   0  0  0  0  0  0  0  0  0
    1.0990    0.4725    0.0000 C   0  0  0  0  0  0  0  0  0
    0.2947    0.2889    0.0000 C   0  0  0  0  0  0  0  0  0
   -0.3503    0.8033    0.0000 C   0  0  0  0  0  0  0  0  0
   -1.0648    0.3908    0.0000 C   0  0  0  0  0  0  0  0  0
   -1.7792    0.8033    0.0000 C   0  0  0  0  0  0  0  0  0
   -1.7792    1.6283    0.0000 C   0  0  0  0  0  0  0  0  0
   -1.0648    2.0408    0.0000 C   0  0  0  0  0  0  0  0  0
   -0.3503    1.6283    0.0000 C   0  0  0  0  0  0  0  0  0
    0.2947    2.1427    0.0000 C   0  0  0  0  0  0  0  0  0
    1.0990    1.9591    0.0000 C   0  0  0  0  0  0  0  0  0
   -2.4937    0.3908    0.0000 C   0  0  0  0  0  0  0  0  0
   -2.5799   -0.4297    0.0000 N   0  0  0  0  0  0  0  0  0
   -3.3869   -0.6012    0.0000 O   0  0  0  0  0  0  0  0  0
   -3.7994    0.1133    0.0000 C   0  0  0  0  0  0  0  0  0
   -3.2474    0.7264    0.0000 C   0  0  0  0  0  0  0  0  0
   -4.6199    0.1995    0.0000 C   0  0  0  0  0  0  0  0  0
    4.7570   -0.2131    0.0000 C   0  0  0  0  0  0  0  0  0
    5.2419    0.4543    0.0000 N   0  0  0  0  0  0  0  0  0
    6.0265    0.1994    0.0000 N   0  0  0  0  0  0  0  0  0
    6.0265   -0.6256    0.0000 C   0  0  0  0  0  0  0  0  0
    5.2419   -0.8806    0.0000 N   0  0  0  0  0  0  0  0  0
    4.9870   -1.6652    0.0000 C   0  0  0  0  0  0  0  0  0
    6.6940   -1.1105    0.0000 C   0  0  0  0  0  0  0  0  0
    7.4786   -0.8556    0.0000 N   0  0  0  0  0  0  0  0  0
    7.9635   -1.5230    0.0000 C   0  0  0  0  0  0  0  0  0
    7.4786   -2.1905    0.0000 C   0  0  0  0  0  0  0  0  0
    6.6940   -1.9355    0.0000 C   0  0  0  0  0  0  0  0  0
    7.7335   -0.0710    0.0000 C   0  0  0  0  0  0  0  0  0
  1  2  1  0  0  0  0
  1 22  1  0  0  0  0
  2  3  1  0  0  0  0
  3  4  1  0  0  0  0
  4  5  1  0  0  0  0
  5  6  1  0  0  0  0
  5 15  1  0  0  0  0
  6  7  1  0  0  0  0
  7  8  1  0  0  0  0
  8  9  4  0  0  0  0
  8 13  4  0  0  0  0
  9 10  4  0  0  0  0
 10 11  4  0  0  0  0
 10 16  1  0  0  0  0
 11 12  4  0  0  0  0
 12 13  4  0  0  0  0
 13 14  1  0  0  0  0
 14 15  1  0  0  0  0
 16 17  4  0  0  0  0
 16 20  4  0  0  0  0
 17 18  4  0  0  0  0
 18 19  4  0  0  0  0
 19 20  4  0  0  0  0
 19 21  1  0  0  0  0
 22 23  4  0  0  0  0
 22 26  4  0  0  0  0
 23 24  4  0  0  0  0
 24 25  4  0  0  0  0
 25 26  4  0  0  0  0
 25 28  1  0  0  0  0
 26 27  1  0  0  0  0
 28 29  4  0  0  0  0
 28 32  4  0  0  0  0
 29 30  4  0  0  0  0
 29 33  1  0  0  0  0
 30 31  4  0  0  0  0
 31 32  4  0  0  0  0
M  END
>  <Name_Molregno>
389972

>  <DOPAMINE D2>
6.4

>  <DOPAMINE D3>
9.1

$$$$
389973
  Marvin  02231216192D 0   1.00000     0.00000     0

 34 38  0  0  0  0  0  0  0  0999 V2000
   -1.4790    2.1332    0.0000 Cl  0  0  0  0  0  0  0  0  0
   -0.7254    1.7977    0.0000 C   0  0  0  0  0  0  0  0  0
   -0.0579    2.2826    0.0000 C   0  0  0  0  0  0  0  0  0
    0.6958    1.9470    0.0000 C   0  0  0  0  0  0  0  0  0
    0.7820    1.1265    0.0000 C   0  0  0  0  0  0  0  0  0
    0.1146    0.6416    0.0000 C   0  0  0  0  0  0  0  0  0
   -0.6391    0.9772    0.0000 C   0  0  0  0  0  0  0  0  0
   -1.3066    0.4923    0.0000 C   0  0  0  0  0  0  0  0  0
   -1.3066   -0.3327    0.0000 N   0  0  0  0  0  0  0  0  0
   -2.0912   -0.5877    0.0000 N   0  0  0  0  0  0  0  0  0
   -2.5761    0.0798    0.0000 C   0  0  0  0  0  0  0  0  0
   -3.4011    0.0798    0.0000 S   0  0  0  0  0  0  0  0  0
   -3.8136   -0.6347    0.0000 C   0  0  0  0  0  0  0  0  0
   -4.6386   -0.6347    0.0000 C   0  0  0  0  0  0  0  0  0
   -5.0511   -1.3492    0.0000 C   0  0  0  0  0  0  0  0  0
   -5.8761   -1.3492    0.0000 N   0  0  0  0  0  0  0  0  0
   -6.2341   -2.0925    0.0000 C   0  0  0  0  0  0  0  0  0
   -7.0384   -2.2761    0.0000 C   0  0  0  0  0  0  0  0  0
   -7.6834   -1.7617    0.0000 C   0  0  0  0  0  0  0  0  0
   -8.3979   -2.1742    0.0000 C   0  0  0  0  0  0  0  0  0
   -9.1123   -1.7617    0.0000 C   0  0  0  0  0  0  0  0  0
   -9.1123   -0.9367    0.0000 C   0  0  0  0  0  0  0  0  0
   -8.3979   -0.5242    0.0000 C   0  0  0  0  0  0  0  0  0
   -7.6834   -0.9367    0.0000 C   0  0  0  0  0  0  0  0  0
   -7.0384   -0.4223    0.0000 C   0  0  0  0  0  0  0  0  0
   -6.2341   -0.6059    0.0000 C   0  0  0  0  0  0  0  0  0
   -9.8268   -2.1742    0.0000 C   0  0  0  0  0  0  0  0  0
   -9.9130   -2.9947    0.0000 N   0  0  0  0  0  0  0  0  0
  -10.7200   -3.1662    0.0000 O   0  0  0  0  0  0  0  0  0
  -11.1325   -2.4517    0.0000 C   0  0  0  0  0  0  0  0  0
  -10.5805   -1.8386    0.0000 C   0  0  0  0  0  0  0  0  0
  -11.9530   -2.3655    0.0000 C   0  0  0  0  0  0  0  0  0
   -2.0912    0.7472    0.0000 N   0  0  0  0  0  0  0  0  0
   -2.3461    1.5318    0.0000 C   0  0  0  0  0  0  0  0  0
  1  2  1  0  0  0  0
  2  3  4  0  0  0  0
  2  7  4  0  0  0  0
  3  4  4  0  0  0  0
  4  5  4  0  0  0  0
  5  6  4  0  0  0  0
  6  7  4  0  0  0  0
  7  8  1  0  0  0  0
  8  9  4  0  0  0  0
  8 33  4  0  0  0  0
  9 10  4  0  0  0  0
 10 11  4  0  0  0  0
 11 12  1  0  0  0  0
 11 33  4  0  0  0  0
 12 13  1  0  0  0  0
 13 14  1  0  0  0  0
 14 15  1  0  0  0  0
 15 16  1  0  0  0  0
 16 17  1  0  0  0  0
 16 26  1  0  0  0  0
 17 18  1  0  0  0  0
 18 19  1  0  0  0  0
 19 20  4  0  0  0  0
 19 24  4  0  0  0  0
 20 21  4  0  0  0  0
 21 22  4  0  0  0  0
 21 27  1  0  0  0  0
 22 23  4  0  0  0  0
 23 24  4  0  0  0  0
 24 25  1  0  0  0  0
 25 26  1  0  0  0  0
 27 28  4  0  0  0  0
 27 31  4  0  0  0  0
 28 29  4  0  0  0  0
 29 30  4  0  0  0  0
 30 31  4  0  0  0  0
 30 32  1  0  0  0  0
 33 34  1  0  0  0  0
M  END
>  <Name_Molregno>
389973

>  <DOPAMINE D2>
6.5

>  <DOPAMINE D3>
8.6

$$$$
389974
  Marvin  02231216192D 0   1.00000     0.00000     0

 34 38  0  0  0  0  0  0  0  0999 V2000
   13.2258    2.1502    0.0000 Cl  0  0  0  0  0  0  0  0  0
   12.4722    2.4858    0.0000 C   0  0  0  0  0  0  0  0  0
   11.8047    2.0009    0.0000 C   0  0  0  0  0  0  0  0  0
   11.0511    2.3364    0.0000 C   0  0  0  0  0  0  0  0  0
   10.9648    3.1569    0.0000 C   0  0  0  0  0  0  0  0  0
   11.6323    3.6418    0.0000 C   0  0  0  0  0  0  0  0  0
   12.3859    3.3063    0.0000 C   0  0  0  0  0  0  0  0  0
   10.3836    1.8515    0.0000 C   0  0  0  0  0  0  0  0  0
   10.3836    1.0265    0.0000 N   0  0  0  0  0  0  0  0  0
    9.5990    0.7716    0.0000 N   0  0  0  0  0  0  0  0  0
    9.1141    1.4390    0.0000 C   0  0  0  0  0  0  0  0  0
    8.2891    1.4390    0.0000 S   0  0  0  0  0  0  0  0  0
    7.8766    0.7245    0.0000 C   0  0  0  0  0  0  0  0  0
    7.0516    0.7245    0.0000 C   0  0  0  0  0  0  0  0  0
    6.6391    0.0101    0.0000 C   0  0  0  0  0  0  0  0  0
    5.8141    0.0101    0.0000 N   0  0  0  0  0  0  0  0  0
    5.4561   -0.7332    0.0000 C   0  0  0  0  0  0  0  0  0
    4.6518   -0.9168    0.0000 C   0  0  0  0  0  0  0  0  0
    4.0068   -0.4024    0.0000 C   0  0  0  0  0  0  0  0  0
    3.2923   -0.8149    0.0000 C   0  0  0  0  0  0  0  0  0
    2.5779   -0.4024    0.0000 C   0  0  0  0  0  0  0  0  0
    2.5779    0.4226    0.0000 C   0  0  0  0  0  0  0  0  0
    3.2923    0.8351    0.0000 C   0  0  0  0  0  0  0  0  0
    4.0068    0.4226    0.0000 C   0  0  0  0  0  0  0  0  0
    4.6518    0.9370    0.0000 C   0  0  0  0  0  0  0  0  0
    5.4561    0.7534    0.0000 C   0  0  0  0  0  0  0  0  0
    1.8634   -0.8149    0.0000 C   0  0  0  0  0  0  0  0  0
    1.7771   -1.6354    0.0000 N   0  0  0  0  0  0  0  0  0
    0.9702   -1.8069    0.0000 O   0  0  0  0  0  0  0  0  0
    0.5577   -1.0925    0.0000 C   0  0  0  0  0  0  0  0  0
    1.1097   -0.4794    0.0000 C   0  0  0  0  0  0  0  0  0
   -0.2628   -1.0062    0.0000 C   0  0  0  0  0  0  0  0  0
    9.5990    2.1065    0.0000 N   0  0  0  0  0  0  0  0  0
    9.3441    2.8911    0.0000 C   0  0  0  0  0  0  0  0  0
  1  2  1  0  0  0  0
  2  3  4  0  0  0  0
  2  7  4  0  0  0  0
  3  4  4  0  0  0  0
  4  5  4  0  0  0  0
  4  8  1  0  0  0  0
  5  6  4  0  0  0  0
  6  7  4  0  0  0  0
  8  9  4  0  0  0  0
  8 33  4  0  0  0  0
  9 10  4  0  0  0  0
 10 11  4  0  0  0  0
 11 12  1  0  0  0  0
 11 33  4  0  0  0  0
 12 13  1  0  0  0  0
 13 14  1  0  0  0  0
 14 15  1  0  0  0  0
 15 16  1  0  0  0  0
 16 17  1  0  0  0  0
 16 26  1  0  0  0  0
 17 18  1  0  0  0  0
 18 19  1  0  0  0  0
 19 20  4  0  0  0  0
 19 24  4  0  0  0  0
 20 21  4  0  0  0  0
 21 22  4  0  0  0  0
 21 27  1  0  0  0  0
 22 23  4  0  0  0  0
 23 24  4  0  0  0  0
 24 25  1  0  0  0  0
 25 26  1  0  0  0  0
 27 28  4  0  0  0  0
 27 31  4  0  0  0  0
 28 29  4  0  0  0  0
 29 30  4  0  0  0  0
 30 31  4  0  0  0  0
 30 32  1  0  0  0  0
 33 34  1  0  0  0  0
M  END
>  <Name_Molregno>
389974

>  <DOPAMINE D2>
6.7

>  <DOPAMINE D3>
8.8

$$$$
389975
  Marvin  02231216192D 0   1.00000     0.00000     0

 34 38  0  0  0  0  0  0  0  0999 V2000
   13.4030    3.6846    0.0000 Cl  0  0  0  0  0  0  0  0  0
   12.7356    3.1996    0.0000 C   0  0  0  0  0  0  0  0  0
   12.8218    2.3792    0.0000 C   0  0  0  0  0  0  0  0  0
   12.1544    1.8942    0.0000 C   0  0  0  0  0  0  0  0  0
   11.4007    2.2298    0.0000 C   0  0  0  0  0  0  0  0  0
   11.3145    3.0503    0.0000 C   0  0  0  0  0  0  0  0  0
   11.9819    3.5352    0.0000 C   0  0  0  0  0  0  0  0  0
   10.7333    1.7449    0.0000 C   0  0  0  0  0  0  0  0  0
   10.7333    0.9199    0.0000 N   0  0  0  0  0  0  0  0  0
    9.9487    0.6649    0.0000 N   0  0  0  0  0  0  0  0  0
    9.4637    1.3324    0.0000 C   0  0  0  0  0  0  0  0  0
    8.6387    1.3324    0.0000 S   0  0  0  0  0  0  0  0  0
    8.2262    0.6179    0.0000 C   0  0  0  0  0  0  0  0  0
    7.4012    0.6179    0.0000 C   0  0  0  0  0  0  0  0  0
    6.9887   -0.0966    0.0000 C   0  0  0  0  0  0  0  0  0
    6.1637   -0.0966    0.0000 N   0  0  0  0  0  0  0  0  0
    5.8058   -0.8399    0.0000 C   0  0  0  0  0  0  0  0  0
    5.0015   -1.0234    0.0000 C   0  0  0  0  0  0  0  0  0
    4.3565   -0.5091    0.0000 C   0  0  0  0  0  0  0  0  0
    3.6420   -0.9216    0.0000 C   0  0  0  0  0  0  0  0  0
    2.9275   -0.5091    0.0000 C   0  0  0  0  0  0  0  0  0
    2.9275    0.3159    0.0000 C   0  0  0  0  0  0  0  0  0
    3.6420    0.7284    0.0000 C   0  0  0  0  0  0  0  0  0
    4.3565    0.3159    0.0000 C   0  0  0  0  0  0  0  0  0
    5.0015    0.8303    0.0000 C   0  0  0  0  0  0  0  0  0
    5.8058    0.6467    0.0000 C   0  0  0  0  0  0  0  0  0
    2.2130   -0.9216    0.0000 C   0  0  0  0  0  0  0  0  0
    2.1268   -1.7420    0.0000 N   0  0  0  0  0  0  0  0  0
    1.3198   -1.9136    0.0000 O   0  0  0  0  0  0  0  0  0
    0.9073   -1.1991    0.0000 C   0  0  0  0  0  0  0  0  0
    1.4594   -0.5860    0.0000 C   0  0  0  0  0  0  0  0  0
    0.0869   -1.1129    0.0000 C   0  0  0  0  0  0  0  0  0
    9.9487    1.9998    0.0000 N   0  0  0  0  0  0  0  0  0
    9.6937    2.7844    0.0000 C   0  0  0  0  0  0  0  0  0
  1  2  1  0  0  0  0
  2  3  4  0  0  0  0
  2  7  4  0  0  0  0
  3  4  4  0  0  0  0
  4  5  4  0  0  0  0
  5  6  4  0  0  0  0
  5  8  1  0  0  0  0
  6  7  4  0  0  0  0
  8  9  4  0  0  0  0
  8 33  4  0  0  0  0
  9 10  4  0  0  0  0
 10 11  4  0  0  0  0
 11 12  1  0  0  0  0
 11 33  4  0  0  0  0
 12 13  1  0  0  0  0
 13 14  1  0  0  0  0
 14 15  1  0  0  0  0
 15 16  1  0  0  0  0
 16 17  1  0  0  0  0
 16 26  1  0  0  0  0
 17 18  1  0  0  0  0
 18 19  1  0  0  0  0
 19 20  4  0  0  0  0
 19 24  4  0  0  0  0
 20 21  4  0  0  0  0
 21 22  4  0  0  0  0
 21 27  1  0  0  0  0
 22 23  4  0  0  0  0
 23 24  4  0  0  0  0
 24 25  1  0  0  0  0
 25 26  1  0  0  0  0
 27 28  4  0  0  0  0
 27 31  4  0  0  0  0
 28 29  4  0  0  0  0
 29 30  4  0  0  0  0
 30 31  4  0  0  0  0
 30 32  1  0  0  0  0
 33 34  1  0  0  0  0
M  END
>  <Name_Molregno>
389975

>  <DOPAMINE D2>
6.4

>  <DOPAMINE D3>
9.2

$$$$
389976
  Marvin  02231216192D 0   1.00000     0.00000     0

 35 39  0  0  0  0  0  0  0  0999 V2000
   12.8492    2.0346    0.0000 Cl  0  0  0  0  0  0  0  0  0
   12.0955    2.3701    0.0000 C   0  0  0  0  0  0  0  0  0
   11.4280    1.8852    0.0000 C   0  0  0  0  0  0  0  0  0
   10.6744    2.2208    0.0000 C   0  0  0  0  0  0  0  0  0
   10.5881    3.0413    0.0000 C   0  0  0  0  0  0  0  0  0
   11.2556    3.5262    0.0000 C   0  0  0  0  0  0  0  0  0
   12.0093    3.1906    0.0000 C   0  0  0  0  0  0  0  0  0
   12.6767    3.6755    0.0000 Cl  0  0  0  0  0  0  0  0  0
   10.0069    1.7358    0.0000 C   0  0  0  0  0  0  0  0  0
   10.0069    0.9108    0.0000 N   0  0  0  0  0  0  0  0  0
    9.2223    0.6559    0.0000 N   0  0  0  0  0  0  0  0  0
    8.7374    1.3233    0.0000 C   0  0  0  0  0  0  0  0  0
    7.9124    1.3233    0.0000 S   0  0  0  0  0  0  0  0  0
    7.4999    0.6089    0.0000 C   0  0  0  0  0  0  0  0  0
    6.6749    0.6089    0.0000 C   0  0  0  0  0  0  0  0  0
    6.2624   -0.1056    0.0000 C   0  0  0  0  0  0  0  0  0
    5.4374   -0.1056    0.0000 N   0  0  0  0  0  0  0  0  0
    5.0794   -0.8489    0.0000 C   0  0  0  0  0  0  0  0  0
    4.2751   -1.0325    0.0000 C   0  0  0  0  0  0  0  0  0
    3.6301   -0.5181    0.0000 C   0  0  0  0  0  0  0  0  0
    2.9156   -0.9306    0.0000 C   0  0  0  0  0  0  0  0  0
    2.2012   -0.5181    0.0000 C   0  0  0  0  0  0  0  0  0
    2.2012    0.3069    0.0000 C   0  0  0  0  0  0  0  0  0
    2.9156    0.7194    0.0000 C   0  0  0  0  0  0  0  0  0
    3.6301    0.3069    0.0000 C   0  0  0  0  0  0  0  0  0
    4.2751    0.8213    0.0000 C   0  0  0  0  0  0  0  0  0
    5.0794    0.6377    0.0000 C   0  0  0  0  0  0  0  0  0
    1.4867   -0.9306    0.0000 C   0  0  0  0  0  0  0  0  0
    1.4005   -1.7511    0.0000 N   0  0  0  0  0  0  0  0  0
    0.5935   -1.9226    0.0000 O   0  0  0  0  0  0  0  0  0
    0.1810   -1.2081    0.0000 C   0  0  0  0  0  0  0  0  0
    0.7330   -0.5950    0.0000 C   0  0  0  0  0  0  0  0  0
   -0.6395   -1.1219    0.0000 C   0  0  0  0  0  0  0  0  0
    9.2223    1.9908    0.0000 N   0  0  0  0  0  0  0  0  0
    8.9674    2.7754    0.0000 C   0  0  0  0  0  0  0  0  0
  1  2  1  0  0  0  0
  2  3  4  0  0  0  0
  2  7  4  0  0  0  0
  3  4  4  0  0  0  0
  4  5  4  0  0  0  0
  4  9  1  0  0  0  0
  5  6  4  0  0  0  0
  6  7  4  0  0  0  0
  7  8  1  0  0  0  0
  9 10  4  0  0  0  0
  9 34  4  0  0  0  0
 10 11  4  0  0  0  0
 11 12  4  0  0  0  0
 12 13  1  0  0  0  0
 12 34  4  0  0  0  0
 13 14  1  0  0  0  0
 14 15  1  0  0  0  0
 15 16  1  0  0  0  0
 16 17  1  0  0  0  0
 17 18  1  0  0  0  0
 17 27  1  0  0  0  0
 18 19  1  0  0  0  0
 19 20  1  0  0  0  0
 20 21  4  0  0  0  0
 20 25  4  0  0  0  0
 21 22  4  0  0  0  0
 22 23  4  0  0  0  0
 22 28  1  0  0  0  0
 23 24  4  0  0  0  0
 24 25  4  0  0  0  0
 25 26  1  0  0  0  0
 26 27  1  0  0  0  0
 28 29  4  0  0  0  0
 28 32  4  0  0  0  0
 29 30  4  0  0  0  0
 30 31  4  0  0  0  0
 31 32  4  0  0  0  0
 31 33  1  0  0  0  0
 34 35  1  0  0  0  0
M  END
>  <Name_Molregno>
389976

>  <DOPAMINE D2>
6.3

>  <DOPAMINE D3>
9

$$$$
389977
  Marvin  02231216192D 0   1.00000     0.00000     0

 34 38  0  0  0  0  0  0  0  0999 V2000
    3.5077   -0.4032    0.0000 S   0  0  0  0  0  0  0  0  0
    3.0952    0.3113    0.0000 C   0  0  0  0  0  0  0  0  0
    2.2702    0.3113    0.0000 C   0  0  0  0  0  0  0  0  0
    1.8577    1.0257    0.0000 C   0  0  0  0  0  0  0  0  0
    1.0327    1.0257    0.0000 N   0  0  0  0  0  0  0  0  0
    0.6747    0.2824    0.0000 C   0  0  0  0  0  0  0  0  0
   -0.1296    0.0989    0.0000 C   0  0  0  0  0  0  0  0  0
   -0.7746    0.6132    0.0000 C   0  0  0  0  0  0  0  0  0
   -1.4891    0.2007    0.0000 C   0  0  0  0  0  0  0  0  0
   -2.2035    0.6132    0.0000 C   0  0  0  0  0  0  0  0  0
   -2.2035    1.4382    0.0000 C   0  0  0  0  0  0  0  0  0
   -1.4891    1.8507    0.0000 C   0  0  0  0  0  0  0  0  0
   -0.7746    1.4382    0.0000 C   0  0  0  0  0  0  0  0  0
   -0.1296    1.9526    0.0000 C   0  0  0  0  0  0  0  0  0
    0.6747    1.7690    0.0000 C   0  0  0  0  0  0  0  0  0
   -2.9180    0.2007    0.0000 C   0  0  0  0  0  0  0  0  0
   -3.0042   -0.6197    0.0000 N   0  0  0  0  0  0  0  0  0
   -3.8112   -0.7913    0.0000 O   0  0  0  0  0  0  0  0  0
   -4.2237   -0.0768    0.0000 C   0  0  0  0  0  0  0  0  0
   -3.6717    0.5363    0.0000 C   0  0  0  0  0  0  0  0  0
   -5.0442    0.0094    0.0000 C   0  0  0  0  0  0  0  0  0
    4.3327   -0.4032    0.0000 C   0  0  0  0  0  0  0  0  0
    4.8176    0.2642    0.0000 N   0  0  0  0  0  0  0  0  0
    5.6022    0.0093    0.0000 N   0  0  0  0  0  0  0  0  0
    5.6022   -0.8157    0.0000 C   0  0  0  0  0  0  0  0  0
    4.8176   -1.0706    0.0000 N   0  0  0  0  0  0  0  0  0
    4.5627   -1.8553    0.0000 C   0  0  0  0  0  0  0  0  0
    6.2697   -1.3006    0.0000 C   0  0  0  0  0  0  0  0  0
    7.0233   -0.9651    0.0000 C   0  0  0  0  0  0  0  0  0
    7.6908   -1.4500    0.0000 C   0  0  0  0  0  0  0  0  0
    8.4445   -1.1144    0.0000 F   0  0  0  0  0  0  0  0  0
    7.6045   -2.2705    0.0000 C   0  0  0  0  0  0  0  0  0
    6.8509   -2.6060    0.0000 C   0  0  0  0  0  0  0  0  0
    6.1834   -2.1211    0.0000 C   0  0  0  0  0  0  0  0  0
  1  2  1  0  0  0  0
  1 22  1  0  0  0  0
  2  3  1  0  0  0  0
  3  4  1  0  0  0  0
  4  5  1  0  0  0  0
  5  6  1  0  0  0  0
  5 15  1  0  0  0  0
  6  7  1  0  0  0  0
  7  8  1  0  0  0  0
  8  9  4  0  0  0  0
  8 13  4  0  0  0  0
  9 10  4  0  0  0  0
 10 11  4  0  0  0  0
 10 16  1  0  0  0  0
 11 12  4  0  0  0  0
 12 13  4  0  0  0  0
 13 14  1  0  0  0  0
 14 15  1  0  0  0  0
 16 17  4  0  0  0  0
 16 20  4  0  0  0  0
 17 18  4  0  0  0  0
 18 19  4  0  0  0  0
 19 20  4  0  0  0  0
 19 21  1  0  0  0  0
 22 23  4  0  0  0  0
 22 26  4  0  0  0  0
 23 24  4  0  0  0  0
 24 25  4  0  0  0  0
 25 26  4  0  0  0  0
 25 28  1  0  0  0  0
 26 27  1  0  0  0  0
 28 29  4  0  0  0  0
 28 34  4  0  0  0  0
 29 30  4  0  0  0  0
 30 31  1  0  0  0  0
 30 32  4  0  0  0  0
 32 33  4  0  0  0  0
 33 34  4  0  0  0  0
M  END
>  <Name_Molregno>
389977

>  <DOPAMINE D2>
5.9

>  <DOPAMINE D3>
8.8

$$$$
389978
  Marvin  02231216192D 0   1.00000     0.00000     0

 28 31  0  0  0  0  0  0  0  0999 V2000
    5.9111   -0.8121    0.0000 S   0  0  0  0  0  0  0  0  0
    5.4986   -0.0976    0.0000 C   0  0  0  0  0  0  0  0  0
    4.6736   -0.0976    0.0000 C   0  0  0  0  0  0  0  0  0
    4.2611    0.6168    0.0000 C   0  0  0  0  0  0  0  0  0
    3.4361    0.6168    0.0000 N   0  0  0  0  0  0  0  0  0
    3.0781   -0.1265    0.0000 C   0  0  0  0  0  0  0  0  0
    2.2738   -0.3100    0.0000 C   0  0  0  0  0  0  0  0  0
    1.6288    0.2043    0.0000 C   0  0  0  0  0  0  0  0  0
    0.9143   -0.2082    0.0000 C   0  0  0  0  0  0  0  0  0
    0.1998    0.2043    0.0000 C   0  0  0  0  0  0  0  0  0
    0.1998    1.0293    0.0000 C   0  0  0  0  0  0  0  0  0
    0.9143    1.4418    0.0000 C   0  0  0  0  0  0  0  0  0
    1.6288    1.0293    0.0000 C   0  0  0  0  0  0  0  0  0
    2.2738    1.5437    0.0000 C   0  0  0  0  0  0  0  0  0
    3.0781    1.3601    0.0000 C   0  0  0  0  0  0  0  0  0
   -0.5146   -0.2082    0.0000 C   0  0  0  0  0  0  0  0  0
   -0.6009   -1.0286    0.0000 N   0  0  0  0  0  0  0  0  0
   -1.4078   -1.2002    0.0000 O   0  0  0  0  0  0  0  0  0
   -1.8203   -0.4857    0.0000 C   0  0  0  0  0  0  0  0  0
   -1.2683    0.1274    0.0000 C   0  0  0  0  0  0  0  0  0
   -2.6408   -0.3995    0.0000 C   0  0  0  0  0  0  0  0  0
    6.7361   -0.8121    0.0000 C   0  0  0  0  0  0  0  0  0
    7.2210   -0.1447    0.0000 N   0  0  0  0  0  0  0  0  0
    8.0056   -0.3996    0.0000 N   0  0  0  0  0  0  0  0  0
    8.0056   -1.2246    0.0000 C   0  0  0  0  0  0  0  0  0
    7.2210   -1.4795    0.0000 N   0  0  0  0  0  0  0  0  0
    6.9660   -2.2642    0.0000 C   0  0  0  0  0  0  0  0  0
    8.6730   -1.7095    0.0000 C   0  0  0  0  0  0  0  0  0
  1  2  1  0  0  0  0
  1 22  1  0  0  0  0
  2  3  1  0  0  0  0
  3  4  1  0  0  0  0
  4  5  1  0  0  0  0
  5  6  1  0  0  0  0
  5 15  1  0  0  0  0
  6  7  1  0  0  0  0
  7  8  1  0  0  0  0
  8  9  4  0  0  0  0
  8 13  4  0  0  0  0
  9 10  4  0  0  0  0
 10 11  4  0  0  0  0
 10 16  1  0  0  0  0
 11 12  4  0  0  0  0
 12 13  4  0  0  0  0
 13 14  1  0  0  0  0
 14 15  1  0  0  0  0
 16 17  4  0  0  0  0
 16 20  4  0  0  0  0
 17 18  4  0  0  0  0
 18 19  4  0  0  0  0
 19 20  4  0  0  0  0
 19 21  1  0  0  0  0
 22 23  4  0  0  0  0
 22 26  4  0  0  0  0
 23 24  4  0  0  0  0
 24 25  4  0  0  0  0
 25 26  4  0  0  0  0
 25 28  1  0  0  0  0
 26 27  1  0  0  0  0
M  END
>  <Name_Molregno>
389978

>  <DOPAMINE D2>
5.9

>  <DOPAMINE D3>
7.4

$$$$
389980
  Marvin  02231216192D 0   1.00000     0.00000     0

 31 34  0  0  0  0  0  0  0  0999 V2000
    4.7512   -0.6330    0.0000 S   0  0  0  0  0  0  0  0  0
    4.3387    0.0814    0.0000 C   0  0  0  0  0  0  0  0  0
    3.5137    0.0814    0.0000 C   0  0  0  0  0  0  0  0  0
    3.1012    0.7959    0.0000 C   0  0  0  0  0  0  0  0  0
    2.2762    0.7959    0.0000 N   0  0  0  0  0  0  0  0  0
    1.9182    0.0526    0.0000 C   0  0  0  0  0  0  0  0  0
    1.1139   -0.1310    0.0000 C   0  0  0  0  0  0  0  0  0
    0.4689    0.3834    0.0000 C   0  0  0  0  0  0  0  0  0
   -0.2456   -0.0291    0.0000 C   0  0  0  0  0  0  0  0  0
   -0.9600    0.3834    0.0000 C   0  0  0  0  0  0  0  0  0
   -0.9600    1.2084    0.0000 C   0  0  0  0  0  0  0  0  0
   -0.2456    1.6209    0.0000 C   0  0  0  0  0  0  0  0  0
    0.4689    1.2084    0.0000 C   0  0  0  0  0  0  0  0  0
    1.1139    1.7228    0.0000 C   0  0  0  0  0  0  0  0  0
    1.9182    1.5392    0.0000 C   0  0  0  0  0  0  0  0  0
   -1.6745   -0.0291    0.0000 C   0  0  0  0  0  0  0  0  0
   -1.7607   -0.8496    0.0000 N   0  0  0  0  0  0  0  0  0
   -2.5677   -1.0211    0.0000 O   0  0  0  0  0  0  0  0  0
   -2.9802   -0.3066    0.0000 C   0  0  0  0  0  0  0  0  0
   -2.4282    0.3065    0.0000 C   0  0  0  0  0  0  0  0  0
   -3.8007   -0.2204    0.0000 C   0  0  0  0  0  0  0  0  0
    5.5762   -0.6330    0.0000 C   0  0  0  0  0  0  0  0  0
    6.0611    0.0344    0.0000 N   0  0  0  0  0  0  0  0  0
    6.8457   -0.2205    0.0000 N   0  0  0  0  0  0  0  0  0
    6.8457   -1.0455    0.0000 C   0  0  0  0  0  0  0  0  0
    6.0611   -1.3005    0.0000 N   0  0  0  0  0  0  0  0  0
    5.8062   -2.0851    0.0000 C   0  0  0  0  0  0  0  0  0
    7.5132   -1.5305    0.0000 C   0  0  0  0  0  0  0  0  0
    8.1806   -2.0154    0.0000 F   0  0  0  0  0  0  0  0  0
    7.0282   -2.1979    0.0000 F   0  0  0  0  0  0  0  0  0
    7.9981   -0.8630    0.0000 F   0  0  0  0  0  0  0  0  0
  1  2  1  0  0  0  0
  1 22  1  0  0  0  0
  2  3  1  0  0  0  0
  3  4  1  0  0  0  0
  4  5  1  0  0  0  0
  5  6  1  0  0  0  0
  5 15  1  0  0  0  0
  6  7  1  0  0  0  0
  7  8  1  0  0  0  0
  8  9  4  0  0  0  0
  8 13  4  0  0  0  0
  9 10  4  0  0  0  0
 10 11  4  0  0  0  0
 10 16  1  0  0  0  0
 11 12  4  0  0  0  0
 12 13  4  0  0  0  0
 13 14  1  0  0  0  0
 14 15  1  0  0  0  0
 16 17  4  0  0  0  0
 16 20  4  0  0  0  0
 17 18  4  0  0  0  0
 18 19  4  0  0  0  0
 19 20  4  0  0  0  0
 19 21  1  0  0  0  0
 22 23  4  0  0  0  0
 22 26  4  0  0  0  0
 23 24  4  0  0  0  0
 24 25  4  0  0  0  0
 25 26  4  0  0  0  0
 25 28  1  0  0  0  0
 26 27  1  0  0  0  0
 28 29  1  0  0  0  0
 28 30  1  0  0  0  0
 28 31  1  0  0  0  0
M  END
>  <Name_Molregno>
389980

>  <DOPAMINE D2>
6.8

>  <DOPAMINE D3>
8

$$$$
389981
  Marvin  02231216192D 0   1.00000     0.00000     0

 30 33  0  0  0  0  0  0  0  0999 V2000
    5.0955   -0.6902    0.0000 S   0  0  0  0  0  0  0  0  0
    4.6830    0.0242    0.0000 C   0  0  0  0  0  0  0  0  0
    3.8580    0.0242    0.0000 C   0  0  0  0  0  0  0  0  0
    3.4455    0.7387    0.0000 C   0  0  0  0  0  0  0  0  0
    2.6205    0.7387    0.0000 N   0  0  0  0  0  0  0  0  0
    2.2625   -0.0046    0.0000 C   0  0  0  0  0  0  0  0  0
    1.4582   -0.1882    0.0000 C   0  0  0  0  0  0  0  0  0
    0.8132    0.3262    0.0000 C   0  0  0  0  0  0  0  0  0
    0.0987   -0.0863    0.0000 C   0  0  0  0  0  0  0  0  0
   -0.6157    0.3262    0.0000 C   0  0  0  0  0  0  0  0  0
   -0.6157    1.1512    0.0000 C   0  0  0  0  0  0  0  0  0
    0.0987    1.5637    0.0000 C   0  0  0  0  0  0  0  0  0
    0.8132    1.1512    0.0000 C   0  0  0  0  0  0  0  0  0
    1.4582    1.6656    0.0000 C   0  0  0  0  0  0  0  0  0
    2.2625    1.4820    0.0000 C   0  0  0  0  0  0  0  0  0
   -1.3302   -0.0863    0.0000 C   0  0  0  0  0  0  0  0  0
   -1.4164   -0.9068    0.0000 N   0  0  0  0  0  0  0  0  0
   -2.2234   -1.0783    0.0000 O   0  0  0  0  0  0  0  0  0
   -2.6359   -0.3638    0.0000 C   0  0  0  0  0  0  0  0  0
   -2.0839    0.2493    0.0000 C   0  0  0  0  0  0  0  0  0
   -3.4564   -0.2776    0.0000 C   0  0  0  0  0  0  0  0  0
    5.9205   -0.6902    0.0000 C   0  0  0  0  0  0  0  0  0
    6.4054   -0.0228    0.0000 N   0  0  0  0  0  0  0  0  0
    7.1900   -0.2777    0.0000 N   0  0  0  0  0  0  0  0  0
    7.1900   -1.1027    0.0000 C   0  0  0  0  0  0  0  0  0
    6.4054   -1.3577    0.0000 N   0  0  0  0  0  0  0  0  0
    6.1505   -2.1423    0.0000 C   0  0  0  0  0  0  0  0  0
    7.8575   -1.5877    0.0000 C   0  0  0  0  0  0  0  0  0
    8.6112   -1.2521    0.0000 C   0  0  0  0  0  0  0  0  0
    7.7712   -2.4081    0.0000 C   0  0  0  0  0  0  0  0  0
  1  2  1  0  0  0  0
  1 22  1  0  0  0  0
  2  3  1  0  0  0  0
  3  4  1  0  0  0  0
  4  5  1  0  0  0  0
  5  6  1  0  0  0  0
  5 15  1  0  0  0  0
  6  7  1  0  0  0  0
  7  8  1  0  0  0  0
  8  9  4  0  0  0  0
  8 13  4  0  0  0  0
  9 10  4  0  0  0  0
 10 11  4  0  0  0  0
 10 16  1  0  0  0  0
 11 12  4  0  0  0  0
 12 13  4  0  0  0  0
 13 14  1  0  0  0  0
 14 15  1  0  0  0  0
 16 17  4  0  0  0  0
 16 20  4  0  0  0  0
 17 18  4  0  0  0  0
 18 19  4  0  0  0  0
 19 20  4  0  0  0  0
 19 21  1  0  0  0  0
 22 23  4  0  0  0  0
 22 26  4  0  0  0  0
 23 24  4  0  0  0  0
 24 25  4  0  0  0  0
 25 26  4  0  0  0  0
 25 28  1  0  0  0  0
 26 27  1  0  0  0  0
 28 29  1  0  0  0  0
 28 30  1  0  0  0  0
M  END
>  <Name_Molregno>
389981

>  <DOPAMINE D2>
6.2

>  <DOPAMINE D3>
8

$$$$
389982
  Marvin  02231216192D 0   1.00000     0.00000     0

 31 34  0  0  0  0  0  0  0  0999 V2000
    4.7271   -0.6158    0.0000 S   0  0  0  0  0  0  0  0  0
    4.3146    0.0987    0.0000 C   0  0  0  0  0  0  0  0  0
    3.4896    0.0987    0.0000 C   0  0  0  0  0  0  0  0  0
    3.0771    0.8132    0.0000 C   0  0  0  0  0  0  0  0  0
    2.2521    0.8132    0.0000 N   0  0  0  0  0  0  0  0  0
    1.8941    0.0699    0.0000 C   0  0  0  0  0  0  0  0  0
    1.0898   -0.1137    0.0000 C   0  0  0  0  0  0  0  0  0
    0.4448    0.4007    0.0000 C   0  0  0  0  0  0  0  0  0
   -0.2697   -0.0118    0.0000 C   0  0  0  0  0  0  0  0  0
   -0.9841    0.4007    0.0000 C   0  0  0  0  0  0  0  0  0
   -0.9841    1.2257    0.0000 C   0  0  0  0  0  0  0  0  0
   -0.2697    1.6382    0.0000 C   0  0  0  0  0  0  0  0  0
    0.4448    1.2257    0.0000 C   0  0  0  0  0  0  0  0  0
    1.0898    1.7400    0.0000 C   0  0  0  0  0  0  0  0  0
    1.8941    1.5565    0.0000 C   0  0  0  0  0  0  0  0  0
   -1.6986   -0.0118    0.0000 C   0  0  0  0  0  0  0  0  0
   -1.7848   -0.8323    0.0000 N   0  0  0  0  0  0  0  0  0
   -2.5918   -1.0038    0.0000 O   0  0  0  0  0  0  0  0  0
   -3.0043   -0.2894    0.0000 C   0  0  0  0  0  0  0  0  0
   -2.4523    0.3237    0.0000 C   0  0  0  0  0  0  0  0  0
   -3.8248   -0.2031    0.0000 C   0  0  0  0  0  0  0  0  0
    5.5521   -0.6158    0.0000 C   0  0  0  0  0  0  0  0  0
    6.0370    0.0517    0.0000 N   0  0  0  0  0  0  0  0  0
    6.8216   -0.2033    0.0000 N   0  0  0  0  0  0  0  0  0
    6.8216   -1.0283    0.0000 C   0  0  0  0  0  0  0  0  0
    6.0370   -1.2832    0.0000 N   0  0  0  0  0  0  0  0  0
    5.7821   -2.0678    0.0000 C   0  0  0  0  0  0  0  0  0
    7.4891   -1.5132    0.0000 C   0  0  0  0  0  0  0  0  0
    8.1565   -1.9981    0.0000 C   0  0  0  0  0  0  0  0  0
    7.0042   -2.1806    0.0000 C   0  0  0  0  0  0  0  0  0
    7.9740   -0.8458    0.0000 C   0  0  0  0  0  0  0  0  0
  1  2  1  0  0  0  0
  1 22  1  0  0  0  0
  2  3  1  0  0  0  0
  3  4  1  0  0  0  0
  4  5  1  0  0  0  0
  5  6  1  0  0  0  0
  5 15  1  0  0  0  0
  6  7  1  0  0  0  0
  7  8  1  0  0  0  0
  8  9  4  0  0  0  0
  8 13  4  0  0  0  0
  9 10  4  0  0  0  0
 10 11  4  0  0  0  0
 10 16  1  0  0  0  0
 11 12  4  0  0  0  0
 12 13  4  0  0  0  0
 13 14  1  0  0  0  0
 14 15  1  0  0  0  0
 16 17  4  0  0  0  0
 16 20  4  0  0  0  0
 17 18  4  0  0  0  0
 18 19  4  0  0  0  0
 19 20  4  0  0  0  0
 19 21  1  0  0  0  0
 22 23  4  0  0  0  0
 22 26  4  0  0  0  0
 23 24  4  0  0  0  0
 24 25  4  0  0  0  0
 25 26  4  0  0  0  0
 25 28  1  0  0  0  0
 26 27  1  0  0  0  0
 28 29  1  0  0  0  0
 28 30  1  0  0  0  0
 28 31  1  0  0  0  0
M  END
>  <Name_Molregno>
389982

>  <DOPAMINE D2>
6.8

>  <DOPAMINE D3>
8.3

$$$$
390001
  Marvin  02231216192D 0   1.00000     0.00000     0

 32 36  0  0  0  0  0  0  0  0999 V2000
    4.2820   -0.2461    0.0000 S   0  0  0  0  0  0  0  0  0
    3.8695    0.4684    0.0000 C   0  0  0  0  0  0  0  0  0
    3.0445    0.4684    0.0000 C   0  0  0  0  0  0  0  0  0
    2.6320    1.1829    0.0000 C   0  0  0  0  0  0  0  0  0
    1.8070    1.1829    0.0000 N   0  0  0  0  0  0  0  0  0
    1.4490    0.4396    0.0000 C   0  0  0  0  0  0  0  0  0
    0.6447    0.2560    0.0000 C   0  0  0  0  0  0  0  0  0
   -0.0003    0.7704    0.0000 C   0  0  0  0  0  0  0  0  0
   -0.7148    0.3579    0.0000 C   0  0  0  0  0  0  0  0  0
   -1.4293    0.7704    0.0000 C   0  0  0  0  0  0  0  0  0
   -1.4293    1.5954    0.0000 C   0  0  0  0  0  0  0  0  0
   -0.7148    2.0079    0.0000 C   0  0  0  0  0  0  0  0  0
   -0.0003    1.5954    0.0000 C   0  0  0  0  0  0  0  0  0
    0.6447    2.1097    0.0000 C   0  0  0  0  0  0  0  0  0
    1.4490    1.9262    0.0000 C   0  0  0  0  0  0  0  0  0
   -2.1437    0.3579    0.0000 C   0  0  0  0  0  0  0  0  0
   -2.2300   -0.4626    0.0000 N   0  0  0  0  0  0  0  0  0
   -3.0369   -0.6341    0.0000 O   0  0  0  0  0  0  0  0  0
   -3.4494    0.0803    0.0000 C   0  0  0  0  0  0  0  0  0
   -2.8974    0.6934    0.0000 C   0  0  0  0  0  0  0  0  0
   -4.2699    0.1666    0.0000 C   0  0  0  0  0  0  0  0  0
    5.1070   -0.2461    0.0000 C   0  0  0  0  0  0  0  0  0
    5.5919    0.4214    0.0000 N   0  0  0  0  0  0  0  0  0
    6.3765    0.1664    0.0000 N   0  0  0  0  0  0  0  0  0
    6.3765   -0.6586    0.0000 C   0  0  0  0  0  0  0  0  0
    5.5919   -0.9135    0.0000 N   0  0  0  0  0  0  0  0  0
    5.3369   -1.6981    0.0000 C   0  0  0  0  0  0  0  0  0
    7.0439   -1.1435    0.0000 C   0  0  0  0  0  0  0  0  0
    7.8286   -0.8886    0.0000 C   0  0  0  0  0  0  0  0  0
    8.3135   -1.5560    0.0000 C   0  0  0  0  0  0  0  0  0
    7.8286   -2.2234    0.0000 C   0  0  0  0  0  0  0  0  0
    7.0439   -1.9685    0.0000 C   0  0  0  0  0  0  0  0  0
  1  2  1  0  0  0  0
  1 22  1  0  0  0  0
  2  3  1  0  0  0  0
  3  4  1  0  0  0  0
  4  5  1  0  0  0  0
  5  6  1  0  0  0  0
  5 15  1  0  0  0  0
  6  7  1  0  0  0  0
  7  8  1  0  0  0  0
  8  9  4  0  0  0  0
  8 13  4  0  0  0  0
  9 10  4  0  0  0  0
 10 11  4  0  0  0  0
 10 16  1  0  0  0  0
 11 12  4  0  0  0  0
 12 13  4  0  0  0  0
 13 14  1  0  0  0  0
 14 15  1  0  0  0  0
 16 17  4  0  0  0  0
 16 20  4  0  0  0  0
 17 18  4  0  0  0  0
 18 19  4  0  0  0  0
 19 20  4  0  0  0  0
 19 21  1  0  0  0  0
 22 23  4  0  0  0  0
 22 26  4  0  0  0  0
 23 24  4  0  0  0  0
 24 25  4  0  0  0  0
 25 26  4  0  0  0  0
 25 28  1  0  0  0  0
 26 27  1  0  0  0  0
 28 29  1  0  0  0  0
 28 32  1  0  0  0  0
 29 30  1  0  0  0  0
 30 31  1  0  0  0  0
 31 32  1  0  0  0  0
M  END
>  <Name_Molregno>
390001

>  <DOPAMINE D2>
6.6

>  <DOPAMINE D3>
8.7

$$$$
390002
  Marvin  02231216192D 0   1.00000     0.00000     0

 34 38  0  0  0  0  0  0  0  0999 V2000
    3.5036   -0.2748    0.0000 S   0  0  0  0  0  0  0  0  0
    3.0911    0.4397    0.0000 C   0  0  0  0  0  0  0  0  0
    2.2661    0.4397    0.0000 C   0  0  0  0  0  0  0  0  0
    1.8536    1.1542    0.0000 C   0  0  0  0  0  0  0  0  0
    1.0286    1.1542    0.0000 N   0  0  0  0  0  0  0  0  0
    0.6706    0.4109    0.0000 C   0  0  0  0  0  0  0  0  0
   -0.1337    0.2273    0.0000 C   0  0  0  0  0  0  0  0  0
   -0.7787    0.7417    0.0000 C   0  0  0  0  0  0  0  0  0
   -1.4931    0.3292    0.0000 C   0  0  0  0  0  0  0  0  0
   -2.2076    0.7417    0.0000 C   0  0  0  0  0  0  0  0  0
   -2.2076    1.5667    0.0000 C   0  0  0  0  0  0  0  0  0
   -1.4931    1.9792    0.0000 C   0  0  0  0  0  0  0  0  0
   -0.7787    1.5667    0.0000 C   0  0  0  0  0  0  0  0  0
   -0.1337    2.0810    0.0000 C   0  0  0  0  0  0  0  0  0
    0.6706    1.8975    0.0000 C   0  0  0  0  0  0  0  0  0
   -2.9221    0.3292    0.0000 C   0  0  0  0  0  0  0  0  0
   -3.0083   -0.4913    0.0000 N   0  0  0  0  0  0  0  0  0
   -3.8153   -0.6628    0.0000 O   0  0  0  0  0  0  0  0  0
   -4.2278    0.0516    0.0000 C   0  0  0  0  0  0  0  0  0
   -3.6758    0.6647    0.0000 C   0  0  0  0  0  0  0  0  0
   -5.0483    0.1379    0.0000 C   0  0  0  0  0  0  0  0  0
    4.3286   -0.2748    0.0000 C   0  0  0  0  0  0  0  0  0
    4.8135    0.3927    0.0000 N   0  0  0  0  0  0  0  0  0
    5.5981    0.1377    0.0000 N   0  0  0  0  0  0  0  0  0
    5.5981   -0.6873    0.0000 C   0  0  0  0  0  0  0  0  0
    4.8135   -0.9422    0.0000 N   0  0  0  0  0  0  0  0  0
    4.5586   -1.7268    0.0000 C   0  0  0  0  0  0  0  0  0
    6.2656   -1.1722    0.0000 C   0  0  0  0  0  0  0  0  0
    7.0193   -0.8366    0.0000 C   0  0  0  0  0  0  0  0  0
    7.6867   -1.3216    0.0000 C   0  0  0  0  0  0  0  0  0
    7.6005   -2.1420    0.0000 C   0  0  0  0  0  0  0  0  0
    6.8468   -2.4776    0.0000 C   0  0  0  0  0  0  0  0  0
    6.1794   -1.9927    0.0000 C   0  0  0  0  0  0  0  0  0
    8.2679   -2.6270    0.0000 C   0  0  0  0  0  0  0  0  0
  1  2  1  0  0  0  0
  1 22  1  0  0  0  0
  2  3  1  0  0  0  0
  3  4  1  0  0  0  0
  4  5  1  0  0  0  0
  5  6  1  0  0  0  0
  5 15  1  0  0  0  0
  6  7  1  0  0  0  0
  7  8  1  0  0  0  0
  8  9  4  0  0  0  0
  8 13  4  0  0  0  0
  9 10  4  0  0  0  0
 10 11  4  0  0  0  0
 10 16  1  0  0  0  0
 11 12  4  0  0  0  0
 12 13  4  0  0  0  0
 13 14  1  0  0  0  0
 14 15  1  0  0  0  0
 16 17  4  0  0  0  0
 16 20  4  0  0  0  0
 17 18  4  0  0  0  0
 18 19  4  0  0  0  0
 19 20  4  0  0  0  0
 19 21  1  0  0  0  0
 22 23  4  0  0  0  0
 22 26  4  0  0  0  0
 23 24  4  0  0  0  0
 24 25  4  0  0  0  0
 25 26  4  0  0  0  0
 25 28  1  0  0  0  0
 26 27  1  0  0  0  0
 28 29  1  0  0  0  0
 28 33  1  0  0  0  0
 29 30  1  0  0  0  0
 30 31  1  0  0  0  0
 31 32  1  0  0  0  0
 31 34  1  0  0  0  0
 32 33  1  0  0  0  0
M  END
>  <Name_Molregno>
390002

>  <DOPAMINE D2>
6.9

>  <DOPAMINE D3>
8.9

$$$$
390003
  Marvin  02231216192D 0   1.00000     0.00000     0

 33 37  0  0  0  0  0  0  0  0999 V2000
    3.8676    0.0939    0.0000 S   0  0  0  0  0  0  0  0  0
    3.4551    0.8084    0.0000 C   0  0  0  0  0  0  0  0  0
    2.6301    0.8084    0.0000 C   0  0  0  0  0  0  0  0  0
    2.2176    1.5228    0.0000 C   0  0  0  0  0  0  0  0  0
    1.3926    1.5228    0.0000 N   0  0  0  0  0  0  0  0  0
    1.0346    0.7795    0.0000 C   0  0  0  0  0  0  0  0  0
    0.2303    0.5960    0.0000 C   0  0  0  0  0  0  0  0  0
   -0.4147    1.1103    0.0000 C   0  0  0  0  0  0  0  0  0
   -1.1292    0.6978    0.0000 C   0  0  0  0  0  0  0  0  0
   -1.8437    1.1103    0.0000 C   0  0  0  0  0  0  0  0  0
   -1.8437    1.9353    0.0000 C   0  0  0  0  0  0  0  0  0
   -1.1292    2.3478    0.0000 C   0  0  0  0  0  0  0  0  0
   -0.4147    1.9353    0.0000 C   0  0  0  0  0  0  0  0  0
    0.2303    2.4497    0.0000 C   0  0  0  0  0  0  0  0  0
    1.0346    2.2661    0.0000 C   0  0  0  0  0  0  0  0  0
   -2.5581    0.6978    0.0000 C   0  0  0  0  0  0  0  0  0
   -2.6444   -0.1226    0.0000 N   0  0  0  0  0  0  0  0  0
   -3.4513   -0.2942    0.0000 O   0  0  0  0  0  0  0  0  0
   -3.8638    0.4203    0.0000 C   0  0  0  0  0  0  0  0  0
   -3.3118    1.0334    0.0000 C   0  0  0  0  0  0  0  0  0
   -4.6843    0.5065    0.0000 C   0  0  0  0  0  0  0  0  0
    4.6926    0.0939    0.0000 C   0  0  0  0  0  0  0  0  0
    5.1775    0.7613    0.0000 N   0  0  0  0  0  0  0  0  0
    5.9621    0.5064    0.0000 N   0  0  0  0  0  0  0  0  0
    5.9621   -0.3186    0.0000 C   0  0  0  0  0  0  0  0  0
    5.1775   -0.5735    0.0000 N   0  0  0  0  0  0  0  0  0
    4.9225   -1.3582    0.0000 C   0  0  0  0  0  0  0  0  0
    6.6295   -0.8035    0.0000 C   0  0  0  0  0  0  0  0  0
    7.3832   -0.4680    0.0000 C   0  0  0  0  0  0  0  0  0
    8.0507   -0.9529    0.0000 C   0  0  0  0  0  0  0  0  0
    7.9644   -1.7734    0.0000 O   0  0  0  0  0  0  0  0  0
    7.2107   -2.1089    0.0000 C   0  0  0  0  0  0  0  0  0
    6.5433   -1.6240    0.0000 C   0  0  0  0  0  0  0  0  0
  1  2  1  0  0  0  0
  1 22  1  0  0  0  0
  2  3  1  0  0  0  0
  3  4  1  0  0  0  0
  4  5  1  0  0  0  0
  5  6  1  0  0  0  0
  5 15  1  0  0  0  0
  6  7  1  0  0  0  0
  7  8  1  0  0  0  0
  8  9  4  0  0  0  0
  8 13  4  0  0  0  0
  9 10  4  0  0  0  0
 10 11  4  0  0  0  0
 10 16  1  0  0  0  0
 11 12  4  0  0  0  0
 12 13  4  0  0  0  0
 13 14  1  0  0  0  0
 14 15  1  0  0  0  0
 16 17  4  0  0  0  0
 16 20  4  0  0  0  0
 17 18  4  0  0  0  0
 18 19  4  0  0  0  0
 19 20  4  0  0  0  0
 19 21  1  0  0  0  0
 22 23  4  0  0  0  0
 22 26  4  0  0  0  0
 23 24  4  0  0  0  0
 24 25  4  0  0  0  0
 25 26  4  0  0  0  0
 25 28  1  0  0  0  0
 26 27  1  0  0  0  0
 28 29  1  0  0  0  0
 28 33  1  0  0  0  0
 29 30  1  0  0  0  0
 30 31  1  0  0  0  0
 31 32  1  0  0  0  0
 32 33  1  0  0  0  0
M  END
>  <Name_Molregno>
390003

>  <DOPAMINE D2>
5.9

>  <DOPAMINE D3>
8.9

$$$$
390004
  Marvin  02231216192D 0   1.00000     0.00000     0

 35 39  0  0  0  0  0  0  0  0999 V2000
    3.3747    0.0239    0.0000 S   0  0  0  0  0  0  0  0  0
    2.9622    0.7384    0.0000 C   0  0  0  0  0  0  0  0  0
    2.1372    0.7384    0.0000 C   0  0  0  0  0  0  0  0  0
    1.7247    1.4528    0.0000 C   0  0  0  0  0  0  0  0  0
    0.8997    1.4528    0.0000 N   0  0  0  0  0  0  0  0  0
    0.5418    0.7095    0.0000 C   0  0  0  0  0  0  0  0  0
   -0.2626    0.5260    0.0000 C   0  0  0  0  0  0  0  0  0
   -0.9076    1.0403    0.0000 C   0  0  0  0  0  0  0  0  0
   -1.6220    0.6278    0.0000 C   0  0  0  0  0  0  0  0  0
   -2.3365    1.0403    0.0000 C   0  0  0  0  0  0  0  0  0
   -2.3365    1.8653    0.0000 C   0  0  0  0  0  0  0  0  0
   -1.6220    2.2778    0.0000 C   0  0  0  0  0  0  0  0  0
   -0.9076    1.8653    0.0000 C   0  0  0  0  0  0  0  0  0
   -0.2626    2.3797    0.0000 C   0  0  0  0  0  0  0  0  0
    0.5418    2.1961    0.0000 C   0  0  0  0  0  0  0  0  0
   -3.0510    0.6278    0.0000 C   0  0  0  0  0  0  0  0  0
   -3.1372   -0.1926    0.0000 N   0  0  0  0  0  0  0  0  0
   -3.9442   -0.3642    0.0000 O   0  0  0  0  0  0  0  0  0
   -4.3567    0.3503    0.0000 C   0  0  0  0  0  0  0  0  0
   -3.8046    0.9634    0.0000 C   0  0  0  0  0  0  0  0  0
   -5.1772    0.4365    0.0000 C   0  0  0  0  0  0  0  0  0
    4.1997    0.0239    0.0000 C   0  0  0  0  0  0  0  0  0
    4.6846    0.6913    0.0000 N   0  0  0  0  0  0  0  0  0
    5.4693    0.4364    0.0000 N   0  0  0  0  0  0  0  0  0
    5.4693   -0.3886    0.0000 C   0  0  0  0  0  0  0  0  0
    4.6846   -0.6435    0.0000 N   0  0  0  0  0  0  0  0  0
    4.4297   -1.4282    0.0000 C   0  0  0  0  0  0  0  0  0
    6.1367   -0.8735    0.0000 C   0  0  0  0  0  0  0  0  0
    6.8904   -0.5380    0.0000 C   0  0  0  0  0  0  0  0  0
    7.5578   -1.0229    0.0000 C   0  0  0  0  0  0  0  0  0
    7.4716   -1.8434    0.0000 C   0  0  0  0  0  0  0  0  0
    6.7179   -2.1789    0.0000 C   0  0  0  0  0  0  0  0  0
    6.0505   -1.6940    0.0000 C   0  0  0  0  0  0  0  0  0
    5.2968   -2.0296    0.0000 O   0  0  0  0  0  0  0  0  0
    5.2106   -2.8501    0.0000 C   0  0  0  0  0  0  0  0  0
  1  2  1  0  0  0  0
  1 22  1  0  0  0  0
  2  3  1  0  0  0  0
  3  4  1  0  0  0  0
  4  5  1  0  0  0  0
  5  6  1  0  0  0  0
  5 15  1  0  0  0  0
  6  7  1  0  0  0  0
  7  8  1  0  0  0  0
  8  9  4  0  0  0  0
  8 13  4  0  0  0  0
  9 10  4  0  0  0  0
 10 11  4  0  0  0  0
 10 16  1  0  0  0  0
 11 12  4  0  0  0  0
 12 13  4  0  0  0  0
 13 14  1  0  0  0  0
 14 15  1  0  0  0  0
 16 17  4  0  0  0  0
 16 20  4  0  0  0  0
 17 18  4  0  0  0  0
 18 19  4  0  0  0  0
 19 20  4  0  0  0  0
 19 21  1  0  0  0  0
 22 23  4  0  0  0  0
 22 26  4  0  0  0  0
 23 24  4  0  0  0  0
 24 25  4  0  0  0  0
 25 26  4  0  0  0  0
 25 28  1  0  0  0  0
 26 27  1  0  0  0  0
 28 29  4  0  0  0  0
 28 33  4  0  0  0  0
 29 30  4  0  0  0  0
 30 31  4  0  0  0  0
 31 32  4  0  0  0  0
 32 33  4  0  0  0  0
 33 34  1  0  0  0  0
 34 35  1  0  0  0  0
M  END
>  <Name_Molregno>
390004

>  <DOPAMINE D2>
7.1

>  <DOPAMINE D3>
8.5

$$$$
390005
  Marvin  02231216192D 0   1.00000     0.00000     0

 35 39  0  0  0  0  0  0  0  0999 V2000
    3.1047   -0.4219    0.0000 S   0  0  0  0  0  0  0  0  0
    2.6922    0.2926    0.0000 C   0  0  0  0  0  0  0  0  0
    1.8672    0.2926    0.0000 C   0  0  0  0  0  0  0  0  0
    1.4547    1.0071    0.0000 C   0  0  0  0  0  0  0  0  0
    0.6297    1.0071    0.0000 N   0  0  0  0  0  0  0  0  0
    0.2717    0.2638    0.0000 C   0  0  0  0  0  0  0  0  0
   -0.5326    0.0802    0.0000 C   0  0  0  0  0  0  0  0  0
   -1.1776    0.5946    0.0000 C   0  0  0  0  0  0  0  0  0
   -1.8921    0.1821    0.0000 C   0  0  0  0  0  0  0  0  0
   -2.6066    0.5946    0.0000 C   0  0  0  0  0  0  0  0  0
   -2.6066    1.4196    0.0000 C   0  0  0  0  0  0  0  0  0
   -1.8921    1.8321    0.0000 C   0  0  0  0  0  0  0  0  0
   -1.1776    1.4196    0.0000 C   0  0  0  0  0  0  0  0  0
   -0.5326    1.9339    0.0000 C   0  0  0  0  0  0  0  0  0
    0.2717    1.7504    0.0000 C   0  0  0  0  0  0  0  0  0
   -3.3210    0.1821    0.0000 C   0  0  0  0  0  0  0  0  0
   -3.4073   -0.6384    0.0000 N   0  0  0  0  0  0  0  0  0
   -4.2142   -0.8100    0.0000 O   0  0  0  0  0  0  0  0  0
   -4.6267   -0.0955    0.0000 C   0  0  0  0  0  0  0  0  0
   -4.0747    0.5176    0.0000 C   0  0  0  0  0  0  0  0  0
   -5.4472   -0.0092    0.0000 C   0  0  0  0  0  0  0  0  0
    3.9297   -0.4219    0.0000 C   0  0  0  0  0  0  0  0  0
    4.4146    0.2456    0.0000 N   0  0  0  0  0  0  0  0  0
    5.1992   -0.0094    0.0000 N   0  0  0  0  0  0  0  0  0
    5.1992   -0.8344    0.0000 C   0  0  0  0  0  0  0  0  0
    4.4146   -1.0893    0.0000 N   0  0  0  0  0  0  0  0  0
    4.1596   -1.8739    0.0000 C   0  0  0  0  0  0  0  0  0
    5.8666   -1.3193    0.0000 C   0  0  0  0  0  0  0  0  0
    6.6203   -0.9838    0.0000 C   0  0  0  0  0  0  0  0  0
    7.2878   -1.4687    0.0000 C   0  0  0  0  0  0  0  0  0
    8.0414   -1.1331    0.0000 O   0  0  0  0  0  0  0  0  0
    8.1277   -0.3126    0.0000 C   0  0  0  0  0  0  0  0  0
    7.2015   -2.2892    0.0000 C   0  0  0  0  0  0  0  0  0
    6.4478   -2.6247    0.0000 C   0  0  0  0  0  0  0  0  0
    5.7804   -2.1398    0.0000 C   0  0  0  0  0  0  0  0  0
  1  2  1  0  0  0  0
  1 22  1  0  0  0  0
  2  3  1  0  0  0  0
  3  4  1  0  0  0  0
  4  5  1  0  0  0  0
  5  6  1  0  0  0  0
  5 15  1  0  0  0  0
  6  7  1  0  0  0  0
  7  8  1  0  0  0  0
  8  9  4  0  0  0  0
  8 13  4  0  0  0  0
  9 10  4  0  0  0  0
 10 11  4  0  0  0  0
 10 16  1  0  0  0  0
 11 12  4  0  0  0  0
 12 13  4  0  0  0  0
 13 14  1  0  0  0  0
 14 15  1  0  0  0  0
 16 17  4  0  0  0  0
 16 20  4  0  0  0  0
 17 18  4  0  0  0  0
 18 19  4  0  0  0  0
 19 20  4  0  0  0  0
 19 21  1  0  0  0  0
 22 23  4  0  0  0  0
 22 26  4  0  0  0  0
 23 24  4  0  0  0  0
 24 25  4  0  0  0  0
 25 26  4  0  0  0  0
 25 28  1  0  0  0  0
 26 27  1  0  0  0  0
 28 29  4  0  0  0  0
 28 35  4  0  0  0  0
 29 30  4  0  0  0  0
 30 31  1  0  0  0  0
 30 33  4  0  0  0  0
 31 32  1  0  0  0  0
 33 34  4  0  0  0  0
 34 35  4  0  0  0  0
M  END
>  <Name_Molregno>
390005

>  <DOPAMINE D2>
8.1

>  <DOPAMINE D3>
9.1

$$$$
390006
  Marvin  02231216192D 0   1.00000     0.00000     0

 35 39  0  0  0  0  0  0  0  0999 V2000
    3.0706   -0.3701    0.0000 S   0  0  0  0  0  0  0  0  0
    2.6581    0.3444    0.0000 C   0  0  0  0  0  0  0  0  0
    1.8331    0.3444    0.0000 C   0  0  0  0  0  0  0  0  0
    1.4206    1.0589    0.0000 C   0  0  0  0  0  0  0  0  0
    0.5956    1.0589    0.0000 N   0  0  0  0  0  0  0  0  0
    0.2377    0.3156    0.0000 C   0  0  0  0  0  0  0  0  0
   -0.5667    0.1320    0.0000 C   0  0  0  0  0  0  0  0  0
   -1.2117    0.6464    0.0000 C   0  0  0  0  0  0  0  0  0
   -1.9261    0.2339    0.0000 C   0  0  0  0  0  0  0  0  0
   -2.6406    0.6464    0.0000 C   0  0  0  0  0  0  0  0  0
   -2.6406    1.4714    0.0000 C   0  0  0  0  0  0  0  0  0
   -1.9261    1.8839    0.0000 C   0  0  0  0  0  0  0  0  0
   -1.2117    1.4714    0.0000 C   0  0  0  0  0  0  0  0  0
   -0.5667    1.9858    0.0000 C   0  0  0  0  0  0  0  0  0
    0.2377    1.8022    0.0000 C   0  0  0  0  0  0  0  0  0
   -3.3551    0.2339    0.0000 C   0  0  0  0  0  0  0  0  0
   -3.4413   -0.5866    0.0000 N   0  0  0  0  0  0  0  0  0
   -4.2483   -0.7581    0.0000 O   0  0  0  0  0  0  0  0  0
   -4.6608   -0.0436    0.0000 C   0  0  0  0  0  0  0  0  0
   -4.1088    0.5694    0.0000 C   0  0  0  0  0  0  0  0  0
   -5.4813    0.0426    0.0000 C   0  0  0  0  0  0  0  0  0
    3.8956   -0.3701    0.0000 C   0  0  0  0  0  0  0  0  0
    4.3805    0.2974    0.0000 N   0  0  0  0  0  0  0  0  0
    5.1651    0.0424    0.0000 N   0  0  0  0  0  0  0  0  0
    5.1651   -0.7826    0.0000 C   0  0  0  0  0  0  0  0  0
    4.3805   -1.0375    0.0000 N   0  0  0  0  0  0  0  0  0
    4.1256   -1.8221    0.0000 C   0  0  0  0  0  0  0  0  0
    5.8326   -1.2675    0.0000 C   0  0  0  0  0  0  0  0  0
    6.5863   -0.9319    0.0000 C   0  0  0  0  0  0  0  0  0
    7.2537   -1.4168    0.0000 C   0  0  0  0  0  0  0  0  0
    7.1675   -2.2373    0.0000 C   0  0  0  0  0  0  0  0  0
    7.8349   -2.7222    0.0000 O   0  0  0  0  0  0  0  0  0
    8.5886   -2.3867    0.0000 C   0  0  0  0  0  0  0  0  0
    6.4138   -2.5729    0.0000 C   0  0  0  0  0  0  0  0  0
    5.7464   -2.0880    0.0000 C   0  0  0  0  0  0  0  0  0
  1  2  1  0  0  0  0
  1 22  1  0  0  0  0
  2  3  1  0  0  0  0
  3  4  1  0  0  0  0
  4  5  1  0  0  0  0
  5  6  1  0  0  0  0
  5 15  1  0  0  0  0
  6  7  1  0  0  0  0
  7  8  1  0  0  0  0
  8  9  4  0  0  0  0
  8 13  4  0  0  0  0
  9 10  4  0  0  0  0
 10 11  4  0  0  0  0
 10 16  1  0  0  0  0
 11 12  4  0  0  0  0
 12 13  4  0  0  0  0
 13 14  1  0  0  0  0
 14 15  1  0  0  0  0
 16 17  4  0  0  0  0
 16 20  4  0  0  0  0
 17 18  4  0  0  0  0
 18 19  4  0  0  0  0
 19 20  4  0  0  0  0
 19 21  1  0  0  0  0
 22 23  4  0  0  0  0
 22 26  4  0  0  0  0
 23 24  4  0  0  0  0
 24 25  4  0  0  0  0
 25 26  4  0  0  0  0
 25 28  1  0  0  0  0
 26 27  1  0  0  0  0
 28 29  4  0  0  0  0
 28 35  4  0  0  0  0
 29 30  4  0  0  0  0
 30 31  4  0  0  0  0
 31 32  1  0  0  0  0
 31 34  4  0  0  0  0
 32 33  1  0  0  0  0
 34 35  4  0  0  0  0
M  END
>  <Name_Molregno>
390006

>  <DOPAMINE D2>
6.7

>  <DOPAMINE D3>
9.4

$$$$
390007
  Marvin  02231216192D 0   1.00000     0.00000     0

 35 39  0  0  0  0  0  0  0  0999 V2000
    3.0706   -0.3701    0.0000 S   0  0  0  0  0  0  0  0  0
    2.6581    0.3444    0.0000 C   0  0  0  0  0  0  0  0  0
    1.8331    0.3444    0.0000 C   0  0  0  0  0  0  0  0  0
    1.4206    1.0589    0.0000 C   0  0  0  0  0  0  0  0  0
    0.5956    1.0589    0.0000 N   0  0  0  0  0  0  0  0  0
    0.2377    0.3156    0.0000 C   0  0  0  0  0  0  0  0  0
   -0.5667    0.1320    0.0000 C   0  0  0  0  0  0  0  0  0
   -1.2117    0.6464    0.0000 C   0  0  0  0  0  0  0  0  0
   -1.9261    0.2339    0.0000 C   0  0  0  0  0  0  0  0  0
   -2.6406    0.6464    0.0000 C   0  0  0  0  0  0  0  0  0
   -2.6406    1.4714    0.0000 C   0  0  0  0  0  0  0  0  0
   -1.9261    1.8839    0.0000 C   0  0  0  0  0  0  0  0  0
   -1.2117    1.4714    0.0000 C   0  0  0  0  0  0  0  0  0
   -0.5667    1.9858    0.0000 C   0  0  0  0  0  0  0  0  0
    0.2377    1.8022    0.0000 C   0  0  0  0  0  0  0  0  0
   -3.3551    0.2339    0.0000 C   0  0  0  0  0  0  0  0  0
   -3.4413   -0.5866    0.0000 N   0  0  0  0  0  0  0  0  0
   -4.2483   -0.7581    0.0000 O   0  0  0  0  0  0  0  0  0
   -4.6608   -0.0436    0.0000 C   0  0  0  0  0  0  0  0  0
   -4.1088    0.5694    0.0000 C   0  0  0  0  0  0  0  0  0
   -5.4813    0.0426    0.0000 C   0  0  0  0  0  0  0  0  0
    3.8956   -0.3701    0.0000 C   0  0  0  0  0  0  0  0  0
    4.3805    0.2974    0.0000 N   0  0  0  0  0  0  0  0  0
    5.1651    0.0424    0.0000 N   0  0  0  0  0  0  0  0  0
    5.1651   -0.7826    0.0000 C   0  0  0  0  0  0  0  0  0
    4.3805   -1.0375    0.0000 N   0  0  0  0  0  0  0  0  0
    4.1256   -1.8221    0.0000 C   0  0  0  0  0  0  0  0  0
    5.8326   -1.2675    0.0000 C   0  0  0  0  0  0  0  0  0
    6.5863   -0.9319    0.0000 C   0  0  0  0  0  0  0  0  0
    7.2537   -1.4168    0.0000 C   0  0  0  0  0  0  0  0  0
    7.1675   -2.2373    0.0000 C   0  0  0  0  0  0  0  0  0
    7.8349   -2.7222    0.0000 O   0  0  0  0  0  0  0  0  0
    8.5886   -2.3867    0.0000 C   0  0  0  0  0  0  0  0  0
    6.4138   -2.5729    0.0000 N   0  0  0  0  0  0  0  0  0
    5.7464   -2.0880    0.0000 C   0  0  0  0  0  0  0  0  0
  1  2  1  0  0  0  0
  1 22  1  0  0  0  0
  2  3  1  0  0  0  0
  3  4  1  0  0  0  0
  4  5  1  0  0  0  0
  5  6  1  0  0  0  0
  5 15  1  0  0  0  0
  6  7  1  0  0  0  0
  7  8  1  0  0  0  0
  8  9  4  0  0  0  0
  8 13  4  0  0  0  0
  9 10  4  0  0  0  0
 10 11  4  0  0  0  0
 10 16  1  0  0  0  0
 11 12  4  0  0  0  0
 12 13  4  0  0  0  0
 13 14  1  0  0  0  0
 14 15  1  0  0  0  0
 16 17  4  0  0  0  0
 16 20  4  0  0  0  0
 17 18  4  0  0  0  0
 18 19  4  0  0  0  0
 19 20  4  0  0  0  0
 19 21  1  0  0  0  0
 22 23  4  0  0  0  0
 22 26  4  0  0  0  0
 23 24  4  0  0  0  0
 24 25  4  0  0  0  0
 25 26  4  0  0  0  0
 25 28  1  0  0  0  0
 26 27  1  0  0  0  0
 28 29  4  0  0  0  0
 28 35  4  0  0  0  0
 29 30  4  0  0  0  0
 30 31  4  0  0  0  0
 31 32  1  0  0  0  0
 31 34  4  0  0  0  0
 32 33  1  0  0  0  0
 34 35  4  0  0  0  0
M  END
>  <Name_Molregno>
390007

>  <DOPAMINE D2>
5.9

>  <DOPAMINE D3>
8.6

$$$$
390008
  Marvin  02231216192D 0   1.00000     0.00000     0

 39 44  0  0  0  0  0  0  0  0999 V2000
    0.3222    0.7886    0.0000 S   0  0  0  0  0  0  0  0  0
   -0.0134    0.0349    0.0000 C   0  0  0  0  0  0  0  0  0
    0.4715   -0.6325    0.0000 C   0  0  0  0  0  0  0  0  0
    0.1360   -1.3862    0.0000 C   0  0  0  0  0  0  0  0  0
    0.6209   -2.0537    0.0000 N   0  0  0  0  0  0  0  0  0
    1.4326   -1.9063    0.0000 C   0  0  0  0  0  0  0  0  0
    2.0539   -2.4491    0.0000 C   0  0  0  0  0  0  0  0  0
    2.0169   -3.2733    0.0000 C   0  0  0  0  0  0  0  0  0
    2.7706   -3.6089    0.0000 C   0  0  0  0  0  0  0  0  0
    2.8568   -4.4294    0.0000 C   0  0  0  0  0  0  0  0  0
    2.1894   -4.9143    0.0000 C   0  0  0  0  0  0  0  0  0
    1.4357   -4.5787    0.0000 C   0  0  0  0  0  0  0  0  0
    1.3495   -3.7582    0.0000 C   0  0  0  0  0  0  0  0  0
    0.5542   -3.5388    0.0000 C   0  0  0  0  0  0  0  0  0
    0.2299   -2.7801    0.0000 C   0  0  0  0  0  0  0  0  0
    3.6105   -4.7649    0.0000 C   0  0  0  0  0  0  0  0  0
    4.3250   -4.3524    0.0000 N   0  0  0  0  0  0  0  0  0
    4.9380   -4.9044    0.0000 N   0  0  0  0  0  0  0  0  0
    4.6025   -5.6581    0.0000 C   0  0  0  0  0  0  0  0  0
    3.7820   -5.5719    0.0000 C   0  0  0  0  0  0  0  0  0
    5.0150   -6.3726    0.0000 C   0  0  0  0  0  0  0  0  0
    4.4112   -3.5319    0.0000 C   0  0  0  0  0  0  0  0  0
   -0.1628    1.4560    0.0000 C   0  0  0  0  0  0  0  0  0
   -0.9878    1.4560    0.0000 N   0  0  0  0  0  0  0  0  0
   -1.2427    2.2406    0.0000 N   0  0  0  0  0  0  0  0  0
   -0.5753    2.7256    0.0000 C   0  0  0  0  0  0  0  0  0
    0.0922    2.2406    0.0000 N   0  0  0  0  0  0  0  0  0
    0.8768    2.4956    0.0000 C   0  0  0  0  0  0  0  0  0
   -0.5753    3.5506    0.0000 C   0  0  0  0  0  0  0  0  0
    0.1392    3.9631    0.0000 C   0  0  0  0  0  0  0  0  0
    0.1392    4.7881    0.0000 C   0  0  0  0  0  0  0  0  0
    0.8537    5.2006    0.0000 N   0  0  0  0  0  0  0  0  0
    1.5681    4.7881    0.0000 C   0  0  0  0  0  0  0  0  0
    1.5681    3.9631    0.0000 C   0  0  0  0  0  0  0  0  0
    0.8537    3.5506    0.0000 C   0  0  0  0  0  0  0  0  0
    2.2826    5.2006    0.0000 C   0  0  0  0  0  0  0  0  0
   -0.5753    5.2006    0.0000 C   0  0  0  0  0  0  0  0  0
   -1.2897    4.7881    0.0000 C   0  0  0  0  0  0  0  0  0
   -1.2897    3.9631    0.0000 C   0  0  0  0  0  0  0  0  0
  1  2  1  0  0  0  0
  1 23  1  0  0  0  0
  2  3  1  0  0  0  0
  3  4  1  0  0  0  0
  4  5  1  0  0  0  0
  5  6  1  0  0  0  0
  5 15  1  0  0  0  0
  6  7  1  0  0  0  0
  7  8  1  0  0  0  0
  8  9  4  0  0  0  0
  8 13  4  0  0  0  0
  9 10  4  0  0  0  0
 10 11  4  0  0  0  0
 10 16  1  0  0  0  0
 11 12  4  0  0  0  0
 12 13  4  0  0  0  0
 13 14  1  0  0  0  0
 14 15  1  0  0  0  0
 16 17  4  0  0  0  0
 16 20  4  0  0  0  0
 17 18  4  0  0  0  0
 17 22  1  0  0  0  0
 18 19  4  0  0  0  0
 19 20  4  0  0  0  0
 19 21  1  0  0  0  0
 23 24  4  0  0  0  0
 23 27  4  0  0  0  0
 24 25  4  0  0  0  0
 25 26  4  0  0  0  0
 26 27  4  0  0  0  0
 26 29  1  0  0  0  0
 27 28  1  0  0  0  0
 29 30  4  0  0  0  0
 29 39  4  0  0  0  0
 30 31  4  0  0  0  0
 30 35  4  0  0  0  0
 31 32  4  0  0  0  0
 31 37  4  0  0  0  0
 32 33  4  0  0  0  0
 33 34  4  0  0  0  0
 33 36  1  0  0  0  0
 34 35  4  0  0  0  0
 37 38  4  0  0  0  0
 38 39  4  0  0  0  0
M  END
>  <Name_Molregno>
390008

>  <5-HT1A>
6.2

>  <5-HT1B>
6.3

>  <5-HT1D>
6.7

>  <5-HT2A>
5.4

>  <5-HT2C>
5.4

>  <5-HT6>
5.9

>  <5-HT7>
5.7

>  <Alpha-1A>
6.2

>  <Alpha-1B>
5.7

>  <DOPAMINE D2>
6.25

>  <DOPAMINE D3>
8.7

>  <HISTAMINE H3>
6.5

$$$$
390009
  Marvin  02231216192D 0   1.00000     0.00000     0

 36 40  0  0  0  0  0  0  0  0999 V2000
    3.3902   -0.2906    0.0000 S   0  0  0  0  0  0  0  0  0
    2.9777    0.4239    0.0000 C   0  0  0  0  0  0  0  0  0
    2.1527    0.4239    0.0000 C   0  0  0  0  0  0  0  0  0
    1.7402    1.1384    0.0000 C   0  0  0  0  0  0  0  0  0
    0.9152    1.1384    0.0000 N   0  0  0  0  0  0  0  0  0
    0.5572    0.3951    0.0000 C   0  0  0  0  0  0  0  0  0
   -0.2471    0.2115    0.0000 C   0  0  0  0  0  0  0  0  0
   -0.8921    0.7259    0.0000 C   0  0  0  0  0  0  0  0  0
   -1.6066    0.3134    0.0000 C   0  0  0  0  0  0  0  0  0
   -2.3210    0.7259    0.0000 C   0  0  0  0  0  0  0  0  0
   -2.3210    1.5509    0.0000 C   0  0  0  0  0  0  0  0  0
   -1.6066    1.9634    0.0000 C   0  0  0  0  0  0  0  0  0
   -0.8921    1.5509    0.0000 C   0  0  0  0  0  0  0  0  0
   -0.2471    2.0652    0.0000 C   0  0  0  0  0  0  0  0  0
    0.5572    1.8817    0.0000 C   0  0  0  0  0  0  0  0  0
   -3.0355    0.3134    0.0000 C   0  0  0  0  0  0  0  0  0
   -3.1217   -0.5071    0.0000 N   0  0  0  0  0  0  0  0  0
   -3.9287   -0.6786    0.0000 N   0  0  0  0  0  0  0  0  0
   -4.3412    0.0358    0.0000 C   0  0  0  0  0  0  0  0  0
   -3.7892    0.6489    0.0000 C   0  0  0  0  0  0  0  0  0
   -5.1617    0.1221    0.0000 C   0  0  0  0  0  0  0  0  0
   -2.5086   -1.0591    0.0000 C   0  0  0  0  0  0  0  0  0
    4.2152   -0.2906    0.0000 C   0  0  0  0  0  0  0  0  0
    4.7001    0.3769    0.0000 N   0  0  0  0  0  0  0  0  0
    5.4847    0.1219    0.0000 N   0  0  0  0  0  0  0  0  0
    5.4847   -0.7031    0.0000 C   0  0  0  0  0  0  0  0  0
    4.7001   -0.9580    0.0000 N   0  0  0  0  0  0  0  0  0
    4.4452   -1.7426    0.0000 C   0  0  0  0  0  0  0  0  0
    6.1522   -1.1880    0.0000 C   0  0  0  0  0  0  0  0  0
    6.9059   -0.8524    0.0000 C   0  0  0  0  0  0  0  0  0
    7.5733   -1.3374    0.0000 C   0  0  0  0  0  0  0  0  0
    8.3270   -1.0018    0.0000 F   0  0  0  0  0  0  0  0  0
    7.4871   -2.1578    0.0000 C   0  0  0  0  0  0  0  0  0
    8.1545   -2.6428    0.0000 F   0  0  0  0  0  0  0  0  0
    6.7334   -2.4934    0.0000 C   0  0  0  0  0  0  0  0  0
    6.0659   -2.0085    0.0000 C   0  0  0  0  0  0  0  0  0
  1  2  1  0  0  0  0
  1 23  1  0  0  0  0
  2  3  1  0  0  0  0
  3  4  1  0  0  0  0
  4  5  1  0  0  0  0
  5  6  1  0  0  0  0
  5 15  1  0  0  0  0
  6  7  1  0  0  0  0
  7  8  1  0  0  0  0
  8  9  4  0  0  0  0
  8 13  4  0  0  0  0
  9 10  4  0  0  0  0
 10 11  4  0  0  0  0
 10 16  1  0  0  0  0
 11 12  4  0  0  0  0
 12 13  4  0  0  0  0
 13 14  1  0  0  0  0
 14 15  1  0  0  0  0
 16 17  4  0  0  0  0
 16 20  4  0  0  0  0
 17 18  4  0  0  0  0
 17 22  1  0  0  0  0
 18 19  4  0  0  0  0
 19 20  4  0  0  0  0
 19 21  1  0  0  0  0
 23 24  4  0  0  0  0
 23 27  4  0  0  0  0
 24 25  4  0  0  0  0
 25 26  4  0  0  0  0
 26 27  4  0  0  0  0
 26 29  1  0  0  0  0
 27 28  1  0  0  0  0
 29 30  4  0  0  0  0
 29 36  4  0  0  0  0
 30 31  4  0  0  0  0
 31 32  1  0  0  0  0
 31 33  4  0  0  0  0
 33 34  1  0  0  0  0
 33 35  4  0  0  0  0
 35 36  4  0  0  0  0
M  END
>  <Name_Molregno>
390009

>  <DOPAMINE D2>
6.2

>  <DOPAMINE D3>
8.8

$$$$
390010
  Marvin  02231216192D 0   1.00000     0.00000     0

 38 42  0  0  0  0  0  0  0  0999 V2000
    2.6490    0.0264    0.0000 S   0  0  0  0  0  0  0  0  0
    2.2365    0.7409    0.0000 C   0  0  0  0  0  0  0  0  0
    1.4115    0.7409    0.0000 C   0  0  0  0  0  0  0  0  0
    0.9990    1.4554    0.0000 C   0  0  0  0  0  0  0  0  0
    0.1740    1.4554    0.0000 N   0  0  0  0  0  0  0  0  0
   -0.1840    0.7121    0.0000 C   0  0  0  0  0  0  0  0  0
   -0.9883    0.5285    0.0000 C   0  0  0  0  0  0  0  0  0
   -1.6333    1.0429    0.0000 C   0  0  0  0  0  0  0  0  0
   -2.3478    0.6304    0.0000 C   0  0  0  0  0  0  0  0  0
   -3.0623    1.0429    0.0000 C   0  0  0  0  0  0  0  0  0
   -3.0623    1.8679    0.0000 C   0  0  0  0  0  0  0  0  0
   -2.3478    2.2804    0.0000 C   0  0  0  0  0  0  0  0  0
   -1.6333    1.8679    0.0000 C   0  0  0  0  0  0  0  0  0
   -0.9883    2.3823    0.0000 C   0  0  0  0  0  0  0  0  0
   -0.1840    2.1987    0.0000 C   0  0  0  0  0  0  0  0  0
   -3.7767    0.6304    0.0000 C   0  0  0  0  0  0  0  0  0
   -3.8630   -0.1901    0.0000 N   0  0  0  0  0  0  0  0  0
   -4.6699   -0.3616    0.0000 N   0  0  0  0  0  0  0  0  0
   -5.0824    0.3529    0.0000 C   0  0  0  0  0  0  0  0  0
   -4.5304    0.9659    0.0000 C   0  0  0  0  0  0  0  0  0
   -5.9029    0.4391    0.0000 C   0  0  0  0  0  0  0  0  0
   -3.2499   -0.7421    0.0000 C   0  0  0  0  0  0  0  0  0
    3.4740    0.0264    0.0000 C   0  0  0  0  0  0  0  0  0
    3.9589    0.6939    0.0000 N   0  0  0  0  0  0  0  0  0
    4.7435    0.4389    0.0000 N   0  0  0  0  0  0  0  0  0
    4.7435   -0.3861    0.0000 C   0  0  0  0  0  0  0  0  0
    3.9589   -0.6410    0.0000 N   0  0  0  0  0  0  0  0  0
    3.7039   -1.4256    0.0000 C   0  0  0  0  0  0  0  0  0
    5.4109   -0.8710    0.0000 C   0  0  0  0  0  0  0  0  0
    6.1646   -0.5354    0.0000 C   0  0  0  0  0  0  0  0  0
    6.8321   -1.0203    0.0000 C   0  0  0  0  0  0  0  0  0
    6.7458   -1.8408    0.0000 C   0  0  0  0  0  0  0  0  0
    5.9921   -2.1764    0.0000 C   0  0  0  0  0  0  0  0  0
    5.3247   -1.6915    0.0000 C   0  0  0  0  0  0  0  0  0
    7.4133   -2.3257    0.0000 C   0  0  0  0  0  0  0  0  0
    8.0807   -2.8107    0.0000 F   0  0  0  0  0  0  0  0  0
    6.9283   -2.9932    0.0000 F   0  0  0  0  0  0  0  0  0
    7.8982   -1.6583    0.0000 F   0  0  0  0  0  0  0  0  0
  1  2  1  0  0  0  0
  1 23  1  0  0  0  0
  2  3  1  0  0  0  0
  3  4  1  0  0  0  0
  4  5  1  0  0  0  0
  5  6  1  0  0  0  0
  5 15  1  0  0  0  0
  6  7  1  0  0  0  0
  7  8  1  0  0  0  0
  8  9  4  0  0  0  0
  8 13  4  0  0  0  0
  9 10  4  0  0  0  0
 10 11  4  0  0  0  0
 10 16  1  0  0  0  0
 11 12  4  0  0  0  0
 12 13  4  0  0  0  0
 13 14  1  0  0  0  0
 14 15  1  0  0  0  0
 16 17  4  0  0  0  0
 16 20  4  0  0  0  0
 17 18  4  0  0  0  0
 17 22  1  0  0  0  0
 18 19  4  0  0  0  0
 19 20  4  0  0  0  0
 19 21  1  0  0  0  0
 23 24  4  0  0  0  0
 23 27  4  0  0  0  0
 24 25  4  0  0  0  0
 25 26  4  0  0  0  0
 26 27  4  0  0  0  0
 26 29  1  0  0  0  0
 27 28  1  0  0  0  0
 29 30  4  0  0  0  0
 29 34  4  0  0  0  0
 30 31  4  0  0  0  0
 31 32  4  0  0  0  0
 32 33  4  0  0  0  0
 32 35  1  0  0  0  0
 33 34  4  0  0  0  0
 35 36  1  0  0  0  0
 35 37  1  0  0  0  0
 35 38  1  0  0  0  0
M  END
>  <Name_Molregno>
390010

>  <DOPAMINE D2>
6.3

>  <DOPAMINE D3>
8.1

$$$$
390011
  Marvin  02231216192D 0   1.00000     0.00000     0

 34 38  0  0  0  0  0  0  0  0999 V2000
    4.2407   -0.1160    0.0000 S   0  0  0  0  0  0  0  0  0
    3.8282    0.5985    0.0000 C   0  0  0  0  0  0  0  0  0
    3.0032    0.5985    0.0000 C   0  0  0  0  0  0  0  0  0
    2.5907    1.3129    0.0000 C   0  0  0  0  0  0  0  0  0
    1.7657    1.3129    0.0000 N   0  0  0  0  0  0  0  0  0
    1.4078    0.5696    0.0000 C   0  0  0  0  0  0  0  0  0
    0.6035    0.3860    0.0000 C   0  0  0  0  0  0  0  0  0
   -0.0416    0.9004    0.0000 C   0  0  0  0  0  0  0  0  0
   -0.7560    0.4879    0.0000 C   0  0  0  0  0  0  0  0  0
   -1.4705    0.9004    0.0000 C   0  0  0  0  0  0  0  0  0
   -1.4705    1.7254    0.0000 C   0  0  0  0  0  0  0  0  0
   -0.7560    2.1379    0.0000 C   0  0  0  0  0  0  0  0  0
   -0.0416    1.7254    0.0000 C   0  0  0  0  0  0  0  0  0
    0.6035    2.2398    0.0000 C   0  0  0  0  0  0  0  0  0
    1.4078    2.0562    0.0000 C   0  0  0  0  0  0  0  0  0
   -2.1850    0.4879    0.0000 C   0  0  0  0  0  0  0  0  0
   -2.2712   -0.3326    0.0000 N   0  0  0  0  0  0  0  0  0
   -3.0782   -0.5041    0.0000 N   0  0  0  0  0  0  0  0  0
   -3.4907    0.2104    0.0000 C   0  0  0  0  0  0  0  0  0
   -2.9386    0.8235    0.0000 C   0  0  0  0  0  0  0  0  0
   -4.3112    0.2966    0.0000 C   0  0  0  0  0  0  0  0  0
   -1.6581   -0.8846    0.0000 C   0  0  0  0  0  0  0  0  0
    5.0657   -0.1160    0.0000 C   0  0  0  0  0  0  0  0  0
    5.5506    0.5514    0.0000 N   0  0  0  0  0  0  0  0  0
    6.3353    0.2965    0.0000 N   0  0  0  0  0  0  0  0  0
    6.3353   -0.5285    0.0000 C   0  0  0  0  0  0  0  0  0
    5.5506   -0.7835    0.0000 N   0  0  0  0  0  0  0  0  0
    5.2957   -1.5681    0.0000 C   0  0  0  0  0  0  0  0  0
    7.0027   -1.0134    0.0000 C   0  0  0  0  0  0  0  0  0
    7.7873   -0.7585    0.0000 O   0  0  0  0  0  0  0  0  0
    8.2723   -1.4259    0.0000 C   0  0  0  0  0  0  0  0  0
    7.7873   -2.0934    0.0000 N   0  0  0  0  0  0  0  0  0
    7.0027   -1.8384    0.0000 C   0  0  0  0  0  0  0  0  0
    6.3353   -2.3234    0.0000 C   0  0  0  0  0  0  0  0  0
  1  2  1  0  0  0  0
  1 23  1  0  0  0  0
  2  3  1  0  0  0  0
  3  4  1  0  0  0  0
  4  5  1  0  0  0  0
  5  6  1  0  0  0  0
  5 15  1  0  0  0  0
  6  7  1  0  0  0  0
  7  8  1  0  0  0  0
  8  9  4  0  0  0  0
  8 13  4  0  0  0  0
  9 10  4  0  0  0  0
 10 11  4  0  0  0  0
 10 16  1  0  0  0  0
 11 12  4  0  0  0  0
 12 13  4  0  0  0  0
 13 14  1  0  0  0  0
 14 15  1  0  0  0  0
 16 17  4  0  0  0  0
 16 20  4  0  0  0  0
 17 18  4  0  0  0  0
 17 22  1  0  0  0  0
 18 19  4  0  0  0  0
 19 20  4  0  0  0  0
 19 21  1  0  0  0  0
 23 24  4  0  0  0  0
 23 27  4  0  0  0  0
 24 25  4  0  0  0  0
 25 26  4  0  0  0  0
 26 27  4  0  0  0  0
 26 29  1  0  0  0  0
 27 28  1  0  0  0  0
 29 30  4  0  0  0  0
 29 33  4  0  0  0  0
 30 31  4  0  0  0  0
 31 32  4  0  0  0  0
 32 33  4  0  0  0  0
 33 34  1  0  0  0  0
M  END
>  <Name_Molregno>
390011

>  <DOPAMINE D2>
6.1

>  <DOPAMINE D3>
7.9

$$$$
390012
  Marvin  02231216192D 0   1.00000     0.00000     0

 38 43  0  0  0  0  0  0  0  0999 V2000
    1.5661    0.0353    0.0000 S   0  0  0  0  0  0  0  0  0
    1.2305   -0.7183    0.0000 C   0  0  0  0  0  0  0  0  0
    1.7155   -1.3858    0.0000 C   0  0  0  0  0  0  0  0  0
    1.3799   -2.1394    0.0000 N   0  0  0  0  0  0  0  0  0
    1.9133   -2.7688    0.0000 C   0  0  0  0  0  0  0  0  0
    1.7539   -3.5782    0.0000 C   0  0  0  0  0  0  0  0  0
    1.0217   -3.9583    0.0000 C   0  0  0  0  0  0  0  0  0
    1.1079   -4.7787    0.0000 C   0  0  0  0  0  0  0  0  0
    0.4405   -5.2637    0.0000 C   0  0  0  0  0  0  0  0  0
   -0.3132   -4.9281    0.0000 C   0  0  0  0  0  0  0  0  0
   -0.3995   -4.1076    0.0000 C   0  0  0  0  0  0  0  0  0
    0.2680   -3.6227    0.0000 C   0  0  0  0  0  0  0  0  0
    0.0604   -2.8242    0.0000 C   0  0  0  0  0  0  0  0  0
    0.5553   -2.1641    0.0000 C   0  0  0  0  0  0  0  0  0
    0.5267   -6.0841    0.0000 C   0  0  0  0  0  0  0  0  0
    1.2412   -6.4966    0.0000 N   0  0  0  0  0  0  0  0  0
    1.0696   -7.3036    0.0000 N   0  0  0  0  0  0  0  0  0
    0.2492   -7.3898    0.0000 C   0  0  0  0  0  0  0  0  0
   -0.0864   -6.6362    0.0000 C   0  0  0  0  0  0  0  0  0
   -0.1633   -8.1043    0.0000 C   0  0  0  0  0  0  0  0  0
    1.9948   -6.1611    0.0000 C   0  0  0  0  0  0  0  0  0
    1.0812    0.7028    0.0000 C   0  0  0  0  0  0  0  0  0
    0.2562    0.7028    0.0000 N   0  0  0  0  0  0  0  0  0
    0.0012    1.4874    0.0000 N   0  0  0  0  0  0  0  0  0
    0.6687    1.9723    0.0000 C   0  0  0  0  0  0  0  0  0
    1.3361    1.4874    0.0000 N   0  0  0  0  0  0  0  0  0
    2.1207    1.7423    0.0000 C   0  0  0  0  0  0  0  0  0
    0.6687    2.7973    0.0000 C   0  0  0  0  0  0  0  0  0
    1.3831    3.2098    0.0000 C   0  0  0  0  0  0  0  0  0
    1.3831    4.0348    0.0000 C   0  0  0  0  0  0  0  0  0
    2.0976    4.4473    0.0000 N   0  0  0  0  0  0  0  0  0
    2.8121    4.0348    0.0000 C   0  0  0  0  0  0  0  0  0
    2.8121    3.2098    0.0000 C   0  0  0  0  0  0  0  0  0
    2.0976    2.7973    0.0000 C   0  0  0  0  0  0  0  0  0
    3.5266    4.4473    0.0000 C   0  0  0  0  0  0  0  0  0
    0.6687    4.4473    0.0000 C   0  0  0  0  0  0  0  0  0
   -0.0458    4.0348    0.0000 C   0  0  0  0  0  0  0  0  0
   -0.0458    3.2098    0.0000 C   0  0  0  0  0  0  0  0  0
  1  2  1  0  0  0  0
  1 22  1  0  0  0  0
  2  3  1  0  0  0  0
  3  4  1  0  0  0  0
  4  5  1  0  0  0  0
  4 14  1  0  0  0  0
  5  6  1  0  0  0  0
  6  7  1  0  0  0  0
  7  8  4  0  0  0  0
  7 12  4  0  0  0  0
  8  9  4  0  0  0  0
  9 10  4  0  0  0  0
  9 15  1  0  0  0  0
 10 11  4  0  0  0  0
 11 12  4  0  0  0  0
 12 13  1  0  0  0  0
 13 14  1  0  0  0  0
 15 16  4  0  0  0  0
 15 19  4  0  0  0  0
 16 17  4  0  0  0  0
 16 21  1  0  0  0  0
 17 18  4  0  0  0  0
 18 19  4  0  0  0  0
 18 20  1  0  0  0  0
 22 23  4  0  0  0  0
 22 26  4  0  0  0  0
 23 24  4  0  0  0  0
 24 25  4  0  0  0  0
 25 26  4  0  0  0  0
 25 28  1  0  0  0  0
 26 27  1  0  0  0  0
 28 29  4  0  0  0  0
 28 38  4  0  0  0  0
 29 30  4  0  0  0  0
 29 34  4  0  0  0  0
 30 31  4  0  0  0  0
 30 36  4  0  0  0  0
 31 32  4  0  0  0  0
 32 33  4  0  0  0  0
 32 35  1  0  0  0  0
 33 34  4  0  0  0  0
 36 37  4  0  0  0  0
 37 38  4  0  0  0  0
M  END
>  <Name_Molregno>
390012

>  <DOPAMINE D2>
6.2

>  <DOPAMINE D3>
7.8

$$$$
390013
  Marvin  02231216192D 0   1.00000     0.00000     0

 34 38  0  0  0  0  0  0  0  0999 V2000
    3.4129   -0.8696    0.0000 S   0  0  0  0  0  0  0  0  0
    2.5879   -0.8696    0.0000 C   0  0  0  0  0  0  0  0  0
    2.1754   -1.5841    0.0000 C   0  0  0  0  0  0  0  0  0
    1.3504   -1.5841    0.0000 N   0  0  0  0  0  0  0  0  0
    0.9924   -2.3274    0.0000 C   0  0  0  0  0  0  0  0  0
    0.1881   -2.5110    0.0000 C   0  0  0  0  0  0  0  0  0
   -0.4569   -1.9966    0.0000 C   0  0  0  0  0  0  0  0  0
   -1.1714   -2.4091    0.0000 C   0  0  0  0  0  0  0  0  0
   -1.8858   -1.9966    0.0000 C   0  0  0  0  0  0  0  0  0
   -1.8858   -1.1716    0.0000 C   0  0  0  0  0  0  0  0  0
   -1.1714   -0.7591    0.0000 C   0  0  0  0  0  0  0  0  0
   -0.4569   -1.1716    0.0000 C   0  0  0  0  0  0  0  0  0
    0.1881   -0.6572    0.0000 C   0  0  0  0  0  0  0  0  0
    0.9924   -0.8408    0.0000 C   0  0  0  0  0  0  0  0  0
   -2.6003   -2.4091    0.0000 C   0  0  0  0  0  0  0  0  0
   -2.6865   -3.2296    0.0000 N   0  0  0  0  0  0  0  0  0
   -3.4935   -3.4011    0.0000 N   0  0  0  0  0  0  0  0  0
   -3.9060   -2.6866    0.0000 C   0  0  0  0  0  0  0  0  0
   -3.3540   -2.0736    0.0000 C   0  0  0  0  0  0  0  0  0
   -4.7265   -2.6004    0.0000 C   0  0  0  0  0  0  0  0  0
   -2.0735   -3.7816    0.0000 C   0  0  0  0  0  0  0  0  0
    3.8254   -0.1552    0.0000 C   0  0  0  0  0  0  0  0  0
    3.4898    0.5985    0.0000 N   0  0  0  0  0  0  0  0  0
    4.1029    1.1505    0.0000 N   0  0  0  0  0  0  0  0  0
    4.8174    0.7380    0.0000 C   0  0  0  0  0  0  0  0  0
    4.6459   -0.0689    0.0000 N   0  0  0  0  0  0  0  0  0
    5.1979   -0.6820    0.0000 C   0  0  0  0  0  0  0  0  0
    5.5711    1.0736    0.0000 C   0  0  0  0  0  0  0  0  0
    5.6573    1.8941    0.0000 N   0  0  0  0  0  0  0  0  0
    6.4110    2.2296    0.0000 C   0  0  0  0  0  0  0  0  0
    7.0784    1.7447    0.0000 C   0  0  0  0  0  0  0  0  0
    6.9922    0.9242    0.0000 N   0  0  0  0  0  0  0  0  0
    6.2385    0.5887    0.0000 C   0  0  0  0  0  0  0  0  0
    7.8321    2.0803    0.0000 C   0  0  0  0  0  0  0  0  0
  1  2  1  0  0  0  0
  1 22  1  0  0  0  0
  2  3  1  0  0  0  0
  3  4  1  0  0  0  0
  4  5  1  0  0  0  0
  4 14  1  0  0  0  0
  5  6  1  0  0  0  0
  6  7  1  0  0  0  0
  7  8  4  0  0  0  0
  7 12  4  0  0  0  0
  8  9  4  0  0  0  0
  9 10  4  0  0  0  0
  9 15  1  0  0  0  0
 10 11  4  0  0  0  0
 11 12  4  0  0  0  0
 12 13  1  0  0  0  0
 13 14  1  0  0  0  0
 15 16  4  0  0  0  0
 15 19  4  0  0  0  0
 16 17  4  0  0  0  0
 16 21  1  0  0  0  0
 17 18  4  0  0  0  0
 18 19  4  0  0  0  0
 18 20  1  0  0  0  0
 22 23  4  0  0  0  0
 22 26  4  0  0  0  0
 23 24  4  0  0  0  0
 24 25  4  0  0  0  0
 25 26  4  0  0  0  0
 25 28  1  0  0  0  0
 26 27  1  0  0  0  0
 28 29  4  0  0  0  0
 28 33  4  0  0  0  0
 29 30  4  0  0  0  0
 30 31  4  0  0  0  0
 31 32  4  0  0  0  0
 31 34  1  0  0  0  0
 32 33  4  0  0  0  0
M  END
>  <Name_Molregno>
390013

>  <DOPAMINE D2>
6.2

>  <DOPAMINE D3>
8.3

$$$$
390014
  Marvin  02231216192D 0   1.00000     0.00000     0

 35 39  0  0  0  0  0  0  0  0999 V2000
    3.1011    0.7499    0.0000 S   0  0  0  0  0  0  0  0  0
    2.2761    0.7499    0.0000 C   0  0  0  0  0  0  0  0  0
    1.8636    0.0355    0.0000 C   0  0  0  0  0  0  0  0  0
    1.0386    0.0355    0.0000 N   0  0  0  0  0  0  0  0  0
    0.6806   -0.7078    0.0000 C   0  0  0  0  0  0  0  0  0
   -0.1237   -0.8914    0.0000 C   0  0  0  0  0  0  0  0  0
   -0.7687   -0.3770    0.0000 C   0  0  0  0  0  0  0  0  0
   -1.4832   -0.7895    0.0000 C   0  0  0  0  0  0  0  0  0
   -2.1977   -0.3770    0.0000 C   0  0  0  0  0  0  0  0  0
   -2.1977    0.4480    0.0000 C   0  0  0  0  0  0  0  0  0
   -1.4832    0.8605    0.0000 C   0  0  0  0  0  0  0  0  0
   -0.7687    0.4480    0.0000 C   0  0  0  0  0  0  0  0  0
   -0.1237    0.9623    0.0000 C   0  0  0  0  0  0  0  0  0
    0.6806    0.7788    0.0000 C   0  0  0  0  0  0  0  0  0
   -2.9121   -0.7895    0.0000 C   0  0  0  0  0  0  0  0  0
   -2.9984   -1.6100    0.0000 N   0  0  0  0  0  0  0  0  0
   -3.8053   -1.7816    0.0000 N   0  0  0  0  0  0  0  0  0
   -4.2178   -1.0671    0.0000 C   0  0  0  0  0  0  0  0  0
   -3.6658   -0.4540    0.0000 C   0  0  0  0  0  0  0  0  0
   -5.0383   -0.9808    0.0000 C   0  0  0  0  0  0  0  0  0
   -2.3853   -2.1621    0.0000 C   0  0  0  0  0  0  0  0  0
    3.5136    1.4644    0.0000 C   0  0  0  0  0  0  0  0  0
    3.1780    2.2181    0.0000 N   0  0  0  0  0  0  0  0  0
    3.7911    2.7701    0.0000 N   0  0  0  0  0  0  0  0  0
    4.5056    2.3576    0.0000 C   0  0  0  0  0  0  0  0  0
    4.3340    1.5506    0.0000 N   0  0  0  0  0  0  0  0  0
    4.8861    0.9375    0.0000 C   0  0  0  0  0  0  0  0  0
    5.2592    2.6932    0.0000 C   0  0  0  0  0  0  0  0  0
    5.3455    3.5136    0.0000 C   0  0  0  0  0  0  0  0  0
    6.0992    3.8492    0.0000 C   0  0  0  0  0  0  0  0  0
    6.1854    4.6697    0.0000 F   0  0  0  0  0  0  0  0  0
    6.7666    3.3643    0.0000 C   0  0  0  0  0  0  0  0  0
    7.5203    3.6998    0.0000 F   0  0  0  0  0  0  0  0  0
    6.6804    2.5438    0.0000 C   0  0  0  0  0  0  0  0  0
    5.9267    2.2082    0.0000 C   0  0  0  0  0  0  0  0  0
  1  2  1  0  0  0  0
  1 22  1  0  0  0  0
  2  3  1  0  0  0  0
  3  4  1  0  0  0  0
  4  5  1  0  0  0  0
  4 14  1  0  0  0  0
  5  6  1  0  0  0  0
  6  7  1  0  0  0  0
  7  8  4  0  0  0  0
  7 12  4  0  0  0  0
  8  9  4  0  0  0  0
  9 10  4  0  0  0  0
  9 15  1  0  0  0  0
 10 11  4  0  0  0  0
 11 12  4  0  0  0  0
 12 13  1  0  0  0  0
 13 14  1  0  0  0  0
 15 16  4  0  0  0  0
 15 19  4  0  0  0  0
 16 17  4  0  0  0  0
 16 21  1  0  0  0  0
 17 18  4  0  0  0  0
 18 19  4  0  0  0  0
 18 20  1  0  0  0  0
 22 23  4  0  0  0  0
 22 26  4  0  0  0  0
 23 24  4  0  0  0  0
 24 25  4  0  0  0  0
 25 26  4  0  0  0  0
 25 28  1  0  0  0  0
 26 27  1  0  0  0  0
 28 29  4  0  0  0  0
 28 35  4  0  0  0  0
 29 30  4  0  0  0  0
 30 31  1  0  0  0  0
 30 32  4  0  0  0  0
 32 33  1  0  0  0  0
 32 34  4  0  0  0  0
 34 35  4  0  0  0  0
M  END
>  <Name_Molregno>
390014

>  <DOPAMINE D2>
6.2

>  <DOPAMINE D3>
8.7

$$$$
390015
  Marvin  02231216192D 0   1.00000     0.00000     0

 40 45  0  0  1  0  0  0  0  0999 V2000
    0.3571    1.5594    0.0000 S   0  0  0  0  0  0  0  0  0
    0.0216    0.8057    0.0000 C   0  0  0  0  0  0  0  0  0
    0.5065    0.1382    0.0000 C   0  0  0  0  0  0  0  0  0
    0.1710   -0.6154    0.0000 C   0  0  0  0  0  0  0  0  0
    0.6559   -1.2829    0.0000 N   0  0  0  0  0  0  0  0  0
    1.4676   -1.1356    0.0000 C   0  0  0  0  0  0  0  0  0
    2.0889   -1.6784    0.0000 C   0  0  0  0  0  0  0  0  0
    2.0519   -2.5025    0.0000 C   0  0  0  0  0  0  0  0  0
    2.8056   -2.8381    0.0000 C   0  0  0  0  0  0  0  0  0
    2.8918   -3.6586    0.0000 C   0  0  0  0  0  0  0  0  0
    2.2244   -4.1435    0.0000 C   0  0  0  0  0  0  0  0  0
    1.4707   -3.8079    0.0000 C   0  0  0  0  0  0  0  0  0
    1.3844   -2.9875    0.0000 C   0  0  0  0  0  0  0  0  0
    0.5892   -2.7680    0.0000 C   0  0  0  0  0  0  0  0  0
    0.2649   -2.0094    0.0000 C   0  0  0  0  0  0  0  0  0
    3.6455   -3.9941    0.0000 C   0  0  0  0  0  0  0  0  0
    4.3599   -3.5816    0.0000 N   0  0  0  0  0  0  0  0  0
    4.9730   -4.1337    0.0000 N   0  0  0  0  0  0  0  0  0
    4.6375   -4.8873    0.0000 C   0  0  0  0  0  0  0  0  0
    3.8170   -4.8011    0.0000 C   0  0  0  0  0  0  0  0  0
    5.0500   -5.6018    0.0000 C   0  0  0  0  0  0  0  0  0
    4.4462   -2.7611    0.0000 C   0  0  0  0  0  0  0  0  0
   -0.6495   -0.7017    0.0000 C   0  0  0  0  0  0  0  0  0
   -0.1278    2.2268    0.0000 C   0  0  0  0  0  0  0  0  0
   -0.9528    2.2268    0.0000 N   0  0  0  0  0  0  0  0  0
   -1.2077    3.0114    0.0000 N   0  0  0  0  0  0  0  0  0
   -0.5403    3.4963    0.0000 C   0  0  0  0  0  0  0  0  0
    0.1272    3.0114    0.0000 N   0  0  0  0  0  0  0  0  0
    0.9118    3.2664    0.0000 C   0  0  0  0  0  0  0  0  0
   -0.5403    4.3213    0.0000 C   0  0  0  0  0  0  0  0  0
    0.1742    4.7338    0.0000 C   0  0  0  0  0  0  0  0  0
    0.1742    5.5588    0.0000 C   0  0  0  0  0  0  0  0  0
    0.8887    5.9713    0.0000 N   0  0  0  0  0  0  0  0  0
    1.6031    5.5588    0.0000 C   0  0  0  0  0  0  0  0  0
    1.6031    4.7338    0.0000 C   0  0  0  0  0  0  0  0  0
    0.8887    4.3213    0.0000 C   0  0  0  0  0  0  0  0  0
    2.3176    5.9713    0.0000 C   0  0  0  0  0  0  0  0  0
   -0.5403    5.9713    0.0000 C   0  0  0  0  0  0  0  0  0
   -1.2548    5.5588    0.0000 C   0  0  0  0  0  0  0  0  0
   -1.2548    4.7338    0.0000 C   0  0  0  0  0  0  0  0  0
  1  2  1  0  0  0  0
  1 24  1  0  0  0  0
  2  3  1  0  0  0  0
  3  4  1  0  0  0  0
  4  5  1  0  0  0  0
  4 23  1  0  0  0  0
  5  6  1  0  0  0  0
  5 15  1  0  0  0  0
  6  7  1  0  0  0  0
  7  8  1  0  0  0  0
  8  9  4  0  0  0  0
  8 13  4  0  0  0  0
  9 10  4  0  0  0  0
 10 11  4  0  0  0  0
 10 16  1  0  0  0  0
 11 12  4  0  0  0  0
 12 13  4  0  0  0  0
 13 14  1  0  0  0  0
 14 15  1  0  0  0  0
 16 17  4  0  0  0  0
 16 20  4  0  0  0  0
 17 18  4  0  0  0  0
 17 22  1  0  0  0  0
 18 19  4  0  0  0  0
 19 20  4  0  0  0  0
 19 21  1  0  0  0  0
 24 25  4  0  0  0  0
 24 28  4  0  0  0  0
 25 26  4  0  0  0  0
 26 27  4  0  0  0  0
 27 28  4  0  0  0  0
 27 30  1  0  0  0  0
 28 29  1  0  0  0  0
 30 31  4  0  0  0  0
 30 40  4  0  0  0  0
 31 32  4  0  0  0  0
 31 36  4  0  0  0  0
 32 33  4  0  0  0  0
 32 38  4  0  0  0  0
 33 34  4  0  0  0  0
 34 35  4  0  0  0  0
 34 37  1  0  0  0  0
 35 36  4  0  0  0  0
 38 39  4  0  0  0  0
 39 40  4  0  0  0  0
M  END
>  <Name_Molregno>
390015

>  <DOPAMINE D2>
6.3

>  <DOPAMINE D3>
8.8

$$$$
390342
  Marvin  02231216192D 0   1.00000     0.00000     0

 39 43  0  0  1  0  0  0  0  0999 V2000
    7.7131    4.6296    0.0000 F   0  0  0  0  0  0  0  0  0
    7.7131    3.8046    0.0000 C   0  0  0  0  0  0  0  0  0
    8.4275    3.3921    0.0000 C   0  0  0  0  0  0  0  0  0
    8.4275    2.5671    0.0000 C   0  0  0  0  0  0  0  0  0
    7.7131    2.1546    0.0000 C   0  0  0  0  0  0  0  0  0
    6.9986    2.5671    0.0000 C   0  0  0  0  0  0  0  0  0
    6.9986    3.3921    0.0000 C   0  0  0  0  0  0  0  0  0
    7.7131    1.3296    0.0000 C   0  0  0  0  0  0  0  0  0
    6.9986    0.9171    0.0000 N   0  0  0  0  0  0  0  0  0
    6.9986    0.0921    0.0000 C   0  0  0  0  0  0  0  0  0
    6.2841   -0.3204    0.0000 C   0  0  0  0  0  0  0  0  0
    5.5696    0.0921    0.0000 N   0  0  0  0  0  0  0  0  0
    5.5696    0.9171    0.0000 C   0  0  0  0  0  0  0  0  0
    6.2841    1.3296    0.0000 C   0  0  0  0  0  0  0  0  0
    4.8552   -0.3204    0.0000 C   0  0  0  0  0  0  0  0  0
    4.8552   -1.1454    0.0000 C   0  0  0  0  0  0  0  0  0
    4.1407   -1.5579    0.0000 C   0  0  0  0  0  0  0  0  0
    4.1407   -2.3829    0.0000 C   0  0  0  0  0  0  0  0  0
    4.8081   -2.8678    0.0000 O   0  0  0  0  0  0  0  0  0
    4.5532   -3.6524    0.0000 N   0  0  0  0  0  0  0  0  0
    3.7282   -3.6524    0.0000 C   0  0  0  0  0  0  0  0  0
    3.4733   -2.8678    0.0000 C   0  0  0  0  0  0  0  0  0
    3.2433   -4.3199    0.0000 C   0  0  0  0  0  0  0  0  0
    3.5788   -5.0735    0.0000 C   0  0  0  0  0  0  0  0  0
    3.0939   -5.7410    0.0000 C   0  0  0  0  0  0  0  0  0
    3.4295   -6.4947    0.0000 O   0  0  0  0  0  0  0  0  0
    2.9446   -7.1621    0.0000 C   0  0  0  0  0  0  0  0  0
    2.2734   -5.6548    0.0000 C   0  0  0  0  0  0  0  0  0
    1.7885   -6.3222    0.0000 O   0  0  0  0  0  0  0  0  0
    2.1241   -7.0759    0.0000 C   0  0  0  0  0  0  0  0  0
    1.9379   -4.9011    0.0000 C   0  0  0  0  0  0  0  0  0
    2.4228   -4.2336    0.0000 C   0  0  0  0  0  0  0  0  0
    8.4275    0.9171    0.0000 C   0  0  0  0  0  0  0  0  0
    9.1420    1.3296    0.0000 C   0  0  0  0  0  0  0  0  0
    9.8565    0.9171    0.0000 C   0  0  0  0  0  0  0  0  0
    9.8565    0.0921    0.0000 C   0  0  0  0  0  0  0  0  0
   10.5709   -0.3204    0.0000 F   0  0  0  0  0  0  0  0  0
    9.1420   -0.3204    0.0000 C   0  0  0  0  0  0  0  0  0
    8.4275    0.0921    0.0000 C   0  0  0  0  0  0  0  0  0
  1  2  1  0  0  0  0
  2  3  4  0  0  0  0
  2  7  4  0  0  0  0
  3  4  4  0  0  0  0
  4  5  4  0  0  0  0
  5  6  4  0  0  0  0
  5  8  1  0  0  0  0
  6  7  4  0  0  0  0
  8  9  1  0  0  0  0
  8 33  1  0  0  0  0
  9 10  1  0  0  0  0
  9 14  1  0  0  0  0
 10 11  1  0  0  0  0
 11 12  1  0  0  0  0
 12 13  1  0  0  0  0
 12 15  1  0  0  0  0
 13 14  1  0  0  0  0
 15 16  1  0  0  0  0
 16 17  1  0  0  0  0
 17 18  1  0  0  0  0
 18 19  1  0  0  0  0
 18 22  1  0  0  0  0
 19 20  1  0  0  0  0
 20 21  2  0  0  0  0
 21 22  1  0  0  0  0
 21 23  1  0  0  0  0
 23 24  4  0  0  0  0
 23 32  4  0  0  0  0
 24 25  4  0  0  0  0
 25 26  1  0  0  0  0
 25 28  4  0  0  0  0
 26 27  1  0  0  0  0
 28 29  1  0  0  0  0
 28 31  4  0  0  0  0
 29 30  1  0  0  0  0
 31 32  4  0  0  0  0
 33 34  4  0  0  0  0
 33 39  4  0  0  0  0
 34 35  4  0  0  0  0
 35 36  4  0  0  0  0
 36 37  1  0  0  0  0
 36 38  4  0  0  0  0
 38 39  4  0  0  0  0
M  END
>  <Name_Molregno>
390342

>  <DOPAMINE D3>
8.19

>  <DOPAMINE D4>
6.35

$$$$
390349
  Marvin  02231216192D 0   1.00000     0.00000     0

 33 36  0  0  1  0  0  0  0  0999 V2000
    0.7542   -0.5956    0.0000 O   0  0  0  0  0  0  0  0  0
    0.4993   -1.3802    0.0000 N   0  0  0  0  0  0  0  0  0
   -0.3257   -1.3802    0.0000 C   0  0  0  0  0  0  0  0  0
   -0.5807   -0.5956    0.0000 C   0  0  0  0  0  0  0  0  0
    0.0868   -0.1107    0.0000 C   0  0  0  0  0  0  0  0  0
    0.0868    0.7143    0.0000 C   0  0  0  0  0  0  0  0  0
    0.8012    1.1268    0.0000 C   0  0  0  0  0  0  0  0  0
    0.8012    1.9518    0.0000 C   0  0  0  0  0  0  0  0  0
    1.5157    2.3643    0.0000 N   0  0  0  0  0  0  0  0  0
    1.5157    3.1893    0.0000 C   0  0  0  0  0  0  0  0  0
    2.2302    3.6018    0.0000 C   0  0  0  0  0  0  0  0  0
    2.9447    3.1893    0.0000 N   0  0  0  0  0  0  0  0  0
    2.9447    2.3643    0.0000 C   0  0  0  0  0  0  0  0  0
    2.2302    1.9518    0.0000 C   0  0  0  0  0  0  0  0  0
    3.6591    3.6018    0.0000 C   0  0  0  0  0  0  0  0  0
    3.6591    4.4268    0.0000 C   0  0  0  0  0  0  0  0  0
    4.3736    4.8393    0.0000 C   0  0  0  0  0  0  0  0  0
    5.0881    4.4268    0.0000 C   0  0  0  0  0  0  0  0  0
    5.0881    3.6018    0.0000 C   0  0  0  0  0  0  0  0  0
    4.3736    3.1893    0.0000 C   0  0  0  0  0  0  0  0  0
    4.3736    2.3643    0.0000 O   0  0  0  0  0  0  0  0  0
    5.0881    1.9518    0.0000 C   0  0  0  0  0  0  0  0  0
    5.0881    1.1268    0.0000 C   0  0  0  0  0  0  0  0  0
   -0.8106   -2.0477    0.0000 C   0  0  0  0  0  0  0  0  0
   -0.4751   -2.8013    0.0000 C   0  0  0  0  0  0  0  0  0
   -0.9600   -3.4688    0.0000 C   0  0  0  0  0  0  0  0  0
   -0.6245   -4.2224    0.0000 O   0  0  0  0  0  0  0  0  0
   -1.1094   -4.8899    0.0000 C   0  0  0  0  0  0  0  0  0
   -1.7805   -3.3825    0.0000 C   0  0  0  0  0  0  0  0  0
   -2.2654   -4.0500    0.0000 O   0  0  0  0  0  0  0  0  0
   -1.9299   -4.8036    0.0000 C   0  0  0  0  0  0  0  0  0
   -2.1161   -2.6289    0.0000 C   0  0  0  0  0  0  0  0  0
   -1.6311   -1.9614    0.0000 C   0  0  0  0  0  0  0  0  0
  1  2  1  0  0  0  0
  1  5  1  0  0  0  0
  2  3  2  0  0  0  0
  3  4  1  0  0  0  0
  3 24  1  0  0  0  0
  4  5  1  0  0  0  0
  5  6  1  0  0  0  0
  6  7  1  0  0  0  0
  7  8  1  0  0  0  0
  8  9  1  0  0  0  0
  9 10  1  0  0  0  0
  9 14  1  0  0  0  0
 10 11  1  0  0  0  0
 11 12  1  0  0  0  0
 12 13  1  0  0  0  0
 12 15  1  0  0  0  0
 13 14  1  0  0  0  0
 15 16  4  0  0  0  0
 15 20  4  0  0  0  0
 16 17  4  0  0  0  0
 17 18  4  0  0  0  0
 18 19  4  0  0  0  0
 19 20  4  0  0  0  0
 20 21  1  0  0  0  0
 21 22  1  0  0  0  0
 22 23  1  0  0  0  0
 24 25  4  0  0  0  0
 24 33  4  0  0  0  0
 25 26  4  0  0  0  0
 26 27  1  0  0  0  0
 26 29  4  0  0  0  0
 27 28  1  0  0  0  0
 29 30  1  0  0  0  0
 29 32  4  0  0  0  0
 30 31  1  0  0  0  0
 32 33  4  0  0  0  0
M  END
>  <Name_Molregno>
390349

>  <DOPAMINE D3>
8.49

>  <DOPAMINE D4>
6.47

$$$$
404485
  Marvin  02231216192D 0   1.00000     0.00000     0

 28 31  0  0  0  0  0  0  0  0999 V2000
    5.2539    0.7371    0.0000 S   0  0  0  0  0  0  0  0  0
    4.5394    1.1496    0.0000 O   0  0  0  0  0  0  0  0  0
    5.5894    1.4908    0.0000 O   0  0  0  0  0  0  0  0  0
    4.7689    0.0697    0.0000 N   0  0  0  0  0  0  0  0  0
    3.9439    0.0697    0.0000 C   0  0  0  0  0  0  0  0  0
    3.5314   -0.6448    0.0000 C   0  0  0  0  0  0  0  0  0
    2.7064   -0.6448    0.0000 C   0  0  0  0  0  0  0  0  0
    2.2939   -1.3593    0.0000 C   0  0  0  0  0  0  0  0  0
    1.4689   -1.3593    0.0000 N   0  0  0  0  0  0  0  0  0
    1.0564   -2.0737    0.0000 C   0  0  0  0  0  0  0  0  0
    0.2314   -2.0737    0.0000 C   0  0  0  0  0  0  0  0  0
   -0.1811   -1.3593    0.0000 N   0  0  0  0  0  0  0  0  0
    0.2314   -0.6448    0.0000 C   0  0  0  0  0  0  0  0  0
    1.0564   -0.6448    0.0000 C   0  0  0  0  0  0  0  0  0
   -1.0061   -1.3593    0.0000 C   0  0  0  0  0  0  0  0  0
   -1.4186   -2.0737    0.0000 C   0  0  0  0  0  0  0  0  0
   -2.2436   -2.0737    0.0000 C   0  0  0  0  0  0  0  0  0
   -2.6561   -1.3593    0.0000 C   0  0  0  0  0  0  0  0  0
   -2.2436   -0.6448    0.0000 C   0  0  0  0  0  0  0  0  0
   -1.4186   -0.6448    0.0000 C   0  0  0  0  0  0  0  0  0
    5.2539   -0.5978    0.0000 C   0  0  0  0  0  0  0  0  0
    4.9989   -1.3824    0.0000 O   0  0  0  0  0  0  0  0  0
    6.0385   -0.3428    0.0000 C   0  0  0  0  0  0  0  0  0
    6.0385    0.4822    0.0000 C   0  0  0  0  0  0  0  0  0
    6.7529    0.8947    0.0000 C   0  0  0  0  0  0  0  0  0
    7.4674    0.4822    0.0000 C   0  0  0  0  0  0  0  0  0
    7.4674   -0.3428    0.0000 C   0  0  0  0  0  0  0  0  0
    6.7529   -0.7553    0.0000 C   0  0  0  0  0  0  0  0  0
  1  2  2  0  0  0  0
  1  3  2  0  0  0  0
  1  4  1  0  0  0  0
  1 24  1  0  0  0  0
  4  5  1  0  0  0  0
  4 21  1  0  0  0  0
  5  6  1  0  0  0  0
  6  7  1  0  0  0  0
  7  8  1  0  0  0  0
  8  9  1  0  0  0  0
  9 10  1  0  0  0  0
  9 14  1  0  0  0  0
 10 11  1  0  0  0  0
 11 12  1  0  0  0  0
 12 13  1  0  0  0  0
 12 15  1  0  0  0  0
 13 14  1  0  0  0  0
 15 16  4  0  0  0  0
 15 20  4  0  0  0  0
 16 17  4  0  0  0  0
 17 18  4  0  0  0  0
 18 19  4  0  0  0  0
 19 20  4  0  0  0  0
 21 22  2  0  0  0  0
 21 23  1  0  0  0  0
 23 24  4  0  0  0  0
 23 28  4  0  0  0  0
 24 25  4  0  0  0  0
 25 26  4  0  0  0  0
 26 27  4  0  0  0  0
 27 28  4  0  0  0  0
M  END
>  <Name_Molregno>
404485

>  <DOPAMINE D2>
7.91

>  <DOPAMINE D3>
7.18

>  <DOPAMINE D5>
6.1

$$$$
404486
  Marvin  02231216192D 0   1.00000     0.00000     0

 29 32  0  0  0  0  0  0  0  0999 V2000
   -0.1634    0.0928    0.0000 Cl  0  0  0  0  0  0  0  0  0
    0.6616    0.0928    0.0000 C   0  0  0  0  0  0  0  0  0
    1.0741    0.8072    0.0000 C   0  0  0  0  0  0  0  0  0
    1.8991    0.8072    0.0000 C   0  0  0  0  0  0  0  0  0
    2.3116    0.0928    0.0000 C   0  0  0  0  0  0  0  0  0
    3.1366    0.0928    0.0000 N   0  0  0  0  0  0  0  0  0
    3.5491    0.8072    0.0000 C   0  0  0  0  0  0  0  0  0
    4.3741    0.8072    0.0000 C   0  0  0  0  0  0  0  0  0
    4.7866    0.0928    0.0000 N   0  0  0  0  0  0  0  0  0
    4.3741   -0.6217    0.0000 C   0  0  0  0  0  0  0  0  0
    3.5491   -0.6217    0.0000 C   0  0  0  0  0  0  0  0  0
    5.6116    0.0928    0.0000 C   0  0  0  0  0  0  0  0  0
    6.0241    0.8072    0.0000 C   0  0  0  0  0  0  0  0  0
    6.8491    0.8072    0.0000 C   0  0  0  0  0  0  0  0  0
    7.2616    1.5217    0.0000 C   0  0  0  0  0  0  0  0  0
    8.0866    1.5217    0.0000 N   0  0  0  0  0  0  0  0  0
    8.5715    0.8543    0.0000 S   0  0  0  0  0  0  0  0  0
    7.8570    0.4418    0.0000 O   0  0  0  0  0  0  0  0  0
    8.9071    0.1006    0.0000 O   0  0  0  0  0  0  0  0  0
    9.3561    1.1092    0.0000 C   0  0  0  0  0  0  0  0  0
    9.3561    1.9342    0.0000 C   0  0  0  0  0  0  0  0  0
   10.0706    2.3467    0.0000 C   0  0  0  0  0  0  0  0  0
   10.7851    1.9342    0.0000 C   0  0  0  0  0  0  0  0  0
   10.7851    1.1092    0.0000 C   0  0  0  0  0  0  0  0  0
   10.0706    0.6967    0.0000 C   0  0  0  0  0  0  0  0  0
    8.5715    2.1891    0.0000 C   0  0  0  0  0  0  0  0  0
    8.3166    2.9738    0.0000 O   0  0  0  0  0  0  0  0  0
    1.8991   -0.6217    0.0000 C   0  0  0  0  0  0  0  0  0
    1.0741   -0.6217    0.0000 C   0  0  0  0  0  0  0  0  0
  1  2  1  0  0  0  0
  2  3  4  0  0  0  0
  2 29  4  0  0  0  0
  3  4  4  0  0  0  0
  4  5  4  0  0  0  0
  5  6  1  0  0  0  0
  5 28  4  0  0  0  0
  6  7  1  0  0  0  0
  6 11  1  0  0  0  0
  7  8  1  0  0  0  0
  8  9  1  0  0  0  0
  9 10  1  0  0  0  0
  9 12  1  0  0  0  0
 10 11  1  0  0  0  0
 12 13  1  0  0  0  0
 13 14  1  0  0  0  0
 14 15  1  0  0  0  0
 15 16  1  0  0  0  0
 16 17  1  0  0  0  0
 16 26  1  0  0  0  0
 17 18  2  0  0  0  0
 17 19  2  0  0  0  0
 17 20  1  0  0  0  0
 20 21  4  0  0  0  0
 20 25  4  0  0  0  0
 21 22  4  0  0  0  0
 21 26  1  0  0  0  0
 22 23  4  0  0  0  0
 23 24  4  0  0  0  0
 24 25  4  0  0  0  0
 26 27  2  0  0  0  0
 28 29  4  0  0  0  0
M  END
>  <Name_Molregno>
404486

>  <DOPAMINE D2>
5.88

>  <DOPAMINE D3>
6.54

>  <DOPAMINE D5>
6.64

$$$$
404487
  Marvin  02231216192D 0   1.00000     0.00000     0

 32 35  0  0  0  0  0  0  0  0999 V2000
    6.6619    0.9459    0.0000 S   0  0  0  0  0  0  0  0  0
    5.9475    1.3584    0.0000 O   0  0  0  0  0  0  0  0  0
    6.9975    1.6996    0.0000 O   0  0  0  0  0  0  0  0  0
    6.1770    0.2785    0.0000 N   0  0  0  0  0  0  0  0  0
    5.3520    0.2785    0.0000 C   0  0  0  0  0  0  0  0  0
    4.9395   -0.4360    0.0000 C   0  0  0  0  0  0  0  0  0
    4.1145   -0.4360    0.0000 C   0  0  0  0  0  0  0  0  0
    3.7020   -1.1505    0.0000 C   0  0  0  0  0  0  0  0  0
    2.8770   -1.1505    0.0000 N   0  0  0  0  0  0  0  0  0
    2.4645   -1.8650    0.0000 C   0  0  0  0  0  0  0  0  0
    1.6395   -1.8650    0.0000 C   0  0  0  0  0  0  0  0  0
    1.2270   -1.1505    0.0000 N   0  0  0  0  0  0  0  0  0
    1.6395   -0.4360    0.0000 C   0  0  0  0  0  0  0  0  0
    2.4645   -0.4360    0.0000 C   0  0  0  0  0  0  0  0  0
    0.4020   -1.1505    0.0000 C   0  0  0  0  0  0  0  0  0
   -0.0105   -1.8650    0.0000 C   0  0  0  0  0  0  0  0  0
   -0.8355   -1.8650    0.0000 C   0  0  0  0  0  0  0  0  0
   -1.2480   -1.1505    0.0000 C   0  0  0  0  0  0  0  0  0
   -0.8355   -0.4360    0.0000 C   0  0  0  0  0  0  0  0  0
   -0.0105   -0.4360    0.0000 C   0  0  0  0  0  0  0  0  0
   -1.2480   -2.5794    0.0000 C   0  0  0  0  0  0  0  0  0
   -1.6605   -3.2939    0.0000 F   0  0  0  0  0  0  0  0  0
   -0.5335   -2.9919    0.0000 F   0  0  0  0  0  0  0  0  0
   -1.9625   -2.1669    0.0000 F   0  0  0  0  0  0  0  0  0
    6.6619   -0.3890    0.0000 C   0  0  0  0  0  0  0  0  0
    6.4070   -1.1736    0.0000 O   0  0  0  0  0  0  0  0  0
    7.4466   -0.1340    0.0000 C   0  0  0  0  0  0  0  0  0
    7.4466    0.6910    0.0000 C   0  0  0  0  0  0  0  0  0
    8.1610    1.1035    0.0000 C   0  0  0  0  0  0  0  0  0
    8.8755    0.6910    0.0000 C   0  0  0  0  0  0  0  0  0
    8.8755   -0.1340    0.0000 C   0  0  0  0  0  0  0  0  0
    8.1610   -0.5465    0.0000 C   0  0  0  0  0  0  0  0  0
  1  2  2  0  0  0  0
  1  3  2  0  0  0  0
  1  4  1  0  0  0  0
  1 28  1  0  0  0  0
  4  5  1  0  0  0  0
  4 25  1  0  0  0  0
  5  6  1  0  0  0  0
  6  7  1  0  0  0  0
  7  8  1  0  0  0  0
  8  9  1  0  0  0  0
  9 10  1  0  0  0  0
  9 14  1  0  0  0  0
 10 11  1  0  0  0  0
 11 12  1  0  0  0  0
 12 13  1  0  0  0  0
 12 15  1  0  0  0  0
 13 14  1  0  0  0  0
 15 16  4  0  0  0  0
 15 20  4  0  0  0  0
 16 17  4  0  0  0  0
 17 18  4  0  0  0  0
 17 21  1  0  0  0  0
 18 19  4  0  0  0  0
 19 20  4  0  0  0  0
 21 22  1  0  0  0  0
 21 23  1  0  0  0  0
 21 24  1  0  0  0  0
 25 26  2  0  0  0  0
 25 27  1  0  0  0  0
 27 28  4  0  0  0  0
 27 32  4  0  0  0  0
 28 29  4  0  0  0  0
 29 30  4  0  0  0  0
 30 31  4  0  0  0  0
 31 32  4  0  0  0  0
M  END
>  <Name_Molregno>
404487

>  <DOPAMINE D2>
5.97

>  <DOPAMINE D3>
6.97

>  <DOPAMINE D5>
5.76

$$$$
404488
  Marvin  02231216192D 0   1.00000     0.00000     0

 30 33  0  0  0  0  0  0  0  0999 V2000
    5.7993    0.5474    0.0000 S   0  0  0  0  0  0  0  0  0
    5.0848    0.9599    0.0000 O   0  0  0  0  0  0  0  0  0
    6.1349    1.3010    0.0000 O   0  0  0  0  0  0  0  0  0
    5.3144   -0.1201    0.0000 N   0  0  0  0  0  0  0  0  0
    4.4894   -0.1201    0.0000 C   0  0  0  0  0  0  0  0  0
    4.0769   -0.8346    0.0000 C   0  0  0  0  0  0  0  0  0
    3.2519   -0.8346    0.0000 C   0  0  0  0  0  0  0  0  0
    2.8394   -1.5490    0.0000 C   0  0  0  0  0  0  0  0  0
    2.0144   -1.5490    0.0000 N   0  0  0  0  0  0  0  0  0
    1.6019   -2.2635    0.0000 C   0  0  0  0  0  0  0  0  0
    0.7769   -2.2635    0.0000 C   0  0  0  0  0  0  0  0  0
    0.3644   -1.5490    0.0000 N   0  0  0  0  0  0  0  0  0
    0.7769   -0.8346    0.0000 C   0  0  0  0  0  0  0  0  0
    1.6019   -0.8346    0.0000 C   0  0  0  0  0  0  0  0  0
   -0.4606   -1.5490    0.0000 C   0  0  0  0  0  0  0  0  0
   -0.8731   -2.2635    0.0000 C   0  0  0  0  0  0  0  0  0
   -1.6981   -2.2635    0.0000 C   0  0  0  0  0  0  0  0  0
   -2.1106   -1.5490    0.0000 C   0  0  0  0  0  0  0  0  0
   -1.6981   -0.8346    0.0000 C   0  0  0  0  0  0  0  0  0
   -0.8731   -0.8346    0.0000 C   0  0  0  0  0  0  0  0  0
   -0.4606   -0.1201    0.0000 O   0  0  0  0  0  0  0  0  0
   -0.8731    0.5944    0.0000 C   0  0  0  0  0  0  0  0  0
    5.7993   -0.7875    0.0000 C   0  0  0  0  0  0  0  0  0
    5.5444   -1.5721    0.0000 O   0  0  0  0  0  0  0  0  0
    6.5839   -0.5326    0.0000 C   0  0  0  0  0  0  0  0  0
    6.5839    0.2924    0.0000 C   0  0  0  0  0  0  0  0  0
    7.2984    0.7049    0.0000 C   0  0  0  0  0  0  0  0  0
    8.0129    0.2924    0.0000 C   0  0  0  0  0  0  0  0  0
    8.0129   -0.5326    0.0000 C   0  0  0  0  0  0  0  0  0
    7.2984   -0.9451    0.0000 C   0  0  0  0  0  0  0  0  0
  1  2  2  0  0  0  0
  1  3  2  0  0  0  0
  1  4  1  0  0  0  0
  1 26  1  0  0  0  0
  4  5  1  0  0  0  0
  4 23  1  0  0  0  0
  5  6  1  0  0  0  0
  6  7  1  0  0  0  0
  7  8  1  0  0  0  0
  8  9  1  0  0  0  0
  9 10  1  0  0  0  0
  9 14  1  0  0  0  0
 10 11  1  0  0  0  0
 11 12  1  0  0  0  0
 12 13  1  0  0  0  0
 12 15  1  0  0  0  0
 13 14  1  0  0  0  0
 15 16  4  0  0  0  0
 15 20  4  0  0  0  0
 16 17  4  0  0  0  0
 17 18  4  0  0  0  0
 18 19  4  0  0  0  0
 19 20  4  0  0  0  0
 20 21  1  0  0  0  0
 21 22  1  0  0  0  0
 23 24  2  0  0  0  0
 23 25  1  0  0  0  0
 25 26  4  0  0  0  0
 25 30  4  0  0  0  0
 26 27  4  0  0  0  0
 27 28  4  0  0  0  0
 28 29  4  0  0  0  0
 29 30  4  0  0  0  0
M  END
>  <Name_Molregno>
404488

>  <DOPAMINE D2>
7.33

>  <DOPAMINE D3>
6.73

>  <DOPAMINE D5>
5.95

$$$$
404489
  Marvin  02231216192D 0   1.00000     0.00000     0

 27 30  0  0  0  0  0  0  0  0999 V2000
    0.7687   -1.2635    0.0000 O   0  0  0  0  0  0  0  0  0
    0.7687   -2.0885    0.0000 C   0  0  0  0  0  0  0  0  0
    0.0543   -2.5010    0.0000 N   0  0  0  0  0  0  0  0  0
    0.0543   -3.3260    0.0000 C   0  0  0  0  0  0  0  0  0
    0.7687   -3.7385    0.0000 N   0  0  0  0  0  0  0  0  0
    1.4832   -3.3260    0.0000 C   0  0  0  0  0  0  0  0  0
    1.4832   -2.5010    0.0000 C   0  0  0  0  0  0  0  0  0
    2.1977   -2.0885    0.0000 C   0  0  0  0  0  0  0  0  0
    2.9122   -2.5010    0.0000 C   0  0  0  0  0  0  0  0  0
    2.9122   -3.3260    0.0000 C   0  0  0  0  0  0  0  0  0
    2.1977   -3.7385    0.0000 C   0  0  0  0  0  0  0  0  0
   -0.6602   -2.0885    0.0000 C   0  0  0  0  0  0  0  0  0
   -1.3747   -2.5010    0.0000 C   0  0  0  0  0  0  0  0  0
   -2.0891   -2.0885    0.0000 C   0  0  0  0  0  0  0  0  0
   -2.8036   -2.5010    0.0000 C   0  0  0  0  0  0  0  0  0
   -3.5181   -2.0885    0.0000 N   0  0  0  0  0  0  0  0  0
   -4.2325   -2.5010    0.0000 C   0  0  0  0  0  0  0  0  0
   -4.9470   -2.0885    0.0000 C   0  0  0  0  0  0  0  0  0
   -4.9470   -1.2635    0.0000 N   0  0  0  0  0  0  0  0  0
   -4.2325   -0.8510    0.0000 C   0  0  0  0  0  0  0  0  0
   -3.5181   -1.2635    0.0000 C   0  0  0  0  0  0  0  0  0
   -5.6615   -0.8510    0.0000 C   0  0  0  0  0  0  0  0  0
   -6.3760   -1.2635    0.0000 C   0  0  0  0  0  0  0  0  0
   -7.0904   -0.8510    0.0000 C   0  0  0  0  0  0  0  0  0
   -7.0904   -0.0260    0.0000 C   0  0  0  0  0  0  0  0  0
   -6.3760    0.3865    0.0000 C   0  0  0  0  0  0  0  0  0
   -5.6615   -0.0260    0.0000 C   0  0  0  0  0  0  0  0  0
  1  2  2  0  0  0  0
  2  3  1  0  0  0  0
  2  7  1  0  0  0  0
  3  4  1  0  0  0  0
  3 12  1  0  0  0  0
  4  5  2  0  0  0  0
  5  6  1  0  0  0  0
  6  7  4  0  0  0  0
  6 11  4  0  0  0  0
  7  8  4  0  0  0  0
  8  9  4  0  0  0  0
  9 10  4  0  0  0  0
 10 11  4  0  0  0  0
 12 13  1  0  0  0  0
 13 14  1  0  0  0  0
 14 15  1  0  0  0  0
 15 16  1  0  0  0  0
 16 17  1  0  0  0  0
 16 21  1  0  0  0  0
 17 18  1  0  0  0  0
 18 19  1  0  0  0  0
 19 20  1  0  0  0  0
 19 22  1  0  0  0  0
 20 21  1  0  0  0  0
 22 23  4  0  0  0  0
 22 27  4  0  0  0  0
 23 24  4  0  0  0  0
 24 25  4  0  0  0  0
 25 26  4  0  0  0  0
 26 27  4  0  0  0  0
M  END
>  <Name_Molregno>
404489

>  <DOPAMINE D2>
6.17

>  <DOPAMINE D3>
6.28

>  <DOPAMINE D5>
5

$$$$
404490
  Marvin  02231216192D 0   1.00000     0.00000     0

 28 31  0  0  0  0  0  0  0  0999 V2000
    0.8860    2.5854    0.0000 Cl  0  0  0  0  0  0  0  0  0
    1.6005    2.1729    0.0000 C   0  0  0  0  0  0  0  0  0
    2.3150    2.5854    0.0000 C   0  0  0  0  0  0  0  0  0
    3.0295    2.1729    0.0000 C   0  0  0  0  0  0  0  0  0
    3.0295    1.3479    0.0000 C   0  0  0  0  0  0  0  0  0
    3.7439    0.9354    0.0000 N   0  0  0  0  0  0  0  0  0
    4.4584    1.3479    0.0000 C   0  0  0  0  0  0  0  0  0
    5.1729    0.9354    0.0000 C   0  0  0  0  0  0  0  0  0
    5.1729    0.1104    0.0000 N   0  0  0  0  0  0  0  0  0
    4.4584   -0.3021    0.0000 C   0  0  0  0  0  0  0  0  0
    3.7439    0.1104    0.0000 C   0  0  0  0  0  0  0  0  0
    5.8873   -0.3021    0.0000 C   0  0  0  0  0  0  0  0  0
    5.8873   -1.1271    0.0000 C   0  0  0  0  0  0  0  0  0
    6.6018   -1.5396    0.0000 C   0  0  0  0  0  0  0  0  0
    6.6018   -2.3646    0.0000 C   0  0  0  0  0  0  0  0  0
    7.3163   -2.7771    0.0000 N   0  0  0  0  0  0  0  0  0
    7.3163   -3.6021    0.0000 C   0  0  0  0  0  0  0  0  0
    8.0308   -4.0146    0.0000 N   0  0  0  0  0  0  0  0  0
    8.7452   -3.6021    0.0000 C   0  0  0  0  0  0  0  0  0
    8.7452   -2.7771    0.0000 C   0  0  0  0  0  0  0  0  0
    9.4597   -2.3646    0.0000 C   0  0  0  0  0  0  0  0  0
   10.1742   -2.7771    0.0000 C   0  0  0  0  0  0  0  0  0
   10.1742   -3.6021    0.0000 C   0  0  0  0  0  0  0  0  0
    9.4597   -4.0146    0.0000 C   0  0  0  0  0  0  0  0  0
    8.0308   -2.3646    0.0000 C   0  0  0  0  0  0  0  0  0
    8.0308   -1.5396    0.0000 O   0  0  0  0  0  0  0  0  0
    2.3150    0.9354    0.0000 C   0  0  0  0  0  0  0  0  0
    1.6005    1.3479    0.0000 C   0  0  0  0  0  0  0  0  0
  1  2  1  0  0  0  0
  2  3  4  0  0  0  0
  2 28  4  0  0  0  0
  3  4  4  0  0  0  0
  4  5  4  0  0  0  0
  5  6  1  0  0  0  0
  5 27  4  0  0  0  0
  6  7  1  0  0  0  0
  6 11  1  0  0  0  0
  7  8  1  0  0  0  0
  8  9  1  0  0  0  0
  9 10  1  0  0  0  0
  9 12  1  0  0  0  0
 10 11  1  0  0  0  0
 12 13  1  0  0  0  0
 13 14  1  0  0  0  0
 14 15  1  0  0  0  0
 15 16  1  0  0  0  0
 16 17  1  0  0  0  0
 16 25  1  0  0  0  0
 17 18  2  0  0  0  0
 18 19  1  0  0  0  0
 19 20  4  0  0  0  0
 19 24  4  0  0  0  0
 20 21  4  0  0  0  0
 20 25  1  0  0  0  0
 21 22  4  0  0  0  0
 22 23  4  0  0  0  0
 23 24  4  0  0  0  0
 25 26  2  0  0  0  0
 27 28  4  0  0  0  0
M  END
>  <Name_Molregno>
404490

>  <DOPAMINE D2>
5.92

>  <DOPAMINE D3>
5.75

>  <DOPAMINE D5>
6.29

$$$$
404491
  Marvin  02231216192D 0   1.00000     0.00000     0

 31 34  0  0  0  0  0  0  0  0999 V2000
    1.2883    4.4393    0.0000 F   0  0  0  0  0  0  0  0  0
    1.2883    3.6143    0.0000 C   0  0  0  0  0  0  0  0  0
    0.4633    3.6143    0.0000 F   0  0  0  0  0  0  0  0  0
    2.1133    3.6143    0.0000 F   0  0  0  0  0  0  0  0  0
    1.2883    2.7893    0.0000 C   0  0  0  0  0  0  0  0  0
    2.0028    2.3768    0.0000 C   0  0  0  0  0  0  0  0  0
    2.0028    1.5518    0.0000 C   0  0  0  0  0  0  0  0  0
    2.7173    1.1393    0.0000 N   0  0  0  0  0  0  0  0  0
    3.4318    1.5518    0.0000 C   0  0  0  0  0  0  0  0  0
    4.1462    1.1393    0.0000 C   0  0  0  0  0  0  0  0  0
    4.1462    0.3143    0.0000 N   0  0  0  0  0  0  0  0  0
    3.4318   -0.0982    0.0000 C   0  0  0  0  0  0  0  0  0
    2.7173    0.3143    0.0000 C   0  0  0  0  0  0  0  0  0
    4.8607   -0.0982    0.0000 C   0  0  0  0  0  0  0  0  0
    4.8607   -0.9232    0.0000 C   0  0  0  0  0  0  0  0  0
    5.5752   -1.3357    0.0000 C   0  0  0  0  0  0  0  0  0
    5.5752   -2.1607    0.0000 C   0  0  0  0  0  0  0  0  0
    6.2896   -2.5732    0.0000 N   0  0  0  0  0  0  0  0  0
    6.2896   -3.3982    0.0000 C   0  0  0  0  0  0  0  0  0
    7.0041   -3.8107    0.0000 N   0  0  0  0  0  0  0  0  0
    7.7186   -3.3982    0.0000 C   0  0  0  0  0  0  0  0  0
    7.7186   -2.5732    0.0000 C   0  0  0  0  0  0  0  0  0
    8.4331   -2.1607    0.0000 C   0  0  0  0  0  0  0  0  0
    9.1475   -2.5732    0.0000 C   0  0  0  0  0  0  0  0  0
    9.1475   -3.3982    0.0000 C   0  0  0  0  0  0  0  0  0
    8.4331   -3.8107    0.0000 C   0  0  0  0  0  0  0  0  0
    7.0041   -2.1607    0.0000 C   0  0  0  0  0  0  0  0  0
    7.0041   -1.3357    0.0000 O   0  0  0  0  0  0  0  0  0
    1.2883    1.1393    0.0000 C   0  0  0  0  0  0  0  0  0
    0.5739    1.5518    0.0000 C   0  0  0  0  0  0  0  0  0
    0.5739    2.3768    0.0000 C   0  0  0  0  0  0  0  0  0
  1  2  1  0  0  0  0
  2  3  1  0  0  0  0
  2  4  1  0  0  0  0
  2  5  1  0  0  0  0
  5  6  4  0  0  0  0
  5 31  4  0  0  0  0
  6  7  4  0  0  0  0
  7  8  1  0  0  0  0
  7 29  4  0  0  0  0
  8  9  1  0  0  0  0
  8 13  1  0  0  0  0
  9 10  1  0  0  0  0
 10 11  1  0  0  0  0
 11 12  1  0  0  0  0
 11 14  1  0  0  0  0
 12 13  1  0  0  0  0
 14 15  1  0  0  0  0
 15 16  1  0  0  0  0
 16 17  1  0  0  0  0
 17 18  1  0  0  0  0
 18 19  1  0  0  0  0
 18 27  1  0  0  0  0
 19 20  2  0  0  0  0
 20 21  1  0  0  0  0
 21 22  4  0  0  0  0
 21 26  4  0  0  0  0
 22 23  4  0  0  0  0
 22 27  1  0  0  0  0
 23 24  4  0  0  0  0
 24 25  4  0  0  0  0
 25 26  4  0  0  0  0
 27 28  2  0  0  0  0
 29 30  4  0  0  0  0
 30 31  4  0  0  0  0
M  END
>  <Name_Molregno>
404491

>  <DOPAMINE D2>
6.07

>  <DOPAMINE D3>
6.99

>  <DOPAMINE D5>
5.77

$$$$
404494
  Marvin  02231216192D 0   1.00000     0.00000     0

 29 32  0  0  0  0  0  0  0  0999 V2000
   -7.2872    1.0929    0.0000 O   0  0  0  0  0  0  0  0  0
   -8.0017    0.6804    0.0000 C   0  0  0  0  0  0  0  0  0
   -7.2872    1.9179    0.0000 C   0  0  0  0  0  0  0  0  0
   -8.0017    2.3304    0.0000 C   0  0  0  0  0  0  0  0  0
   -8.0017    3.1554    0.0000 C   0  0  0  0  0  0  0  0  0
   -7.2872    3.5679    0.0000 C   0  0  0  0  0  0  0  0  0
   -6.5727    3.1554    0.0000 C   0  0  0  0  0  0  0  0  0
   -6.5727    2.3304    0.0000 C   0  0  0  0  0  0  0  0  0
   -5.8583    1.9179    0.0000 N   0  0  0  0  0  0  0  0  0
   -5.1438    2.3304    0.0000 C   0  0  0  0  0  0  0  0  0
   -4.4293    1.9179    0.0000 C   0  0  0  0  0  0  0  0  0
   -4.4293    1.0929    0.0000 N   0  0  0  0  0  0  0  0  0
   -5.1438    0.6804    0.0000 C   0  0  0  0  0  0  0  0  0
   -5.8583    1.0929    0.0000 C   0  0  0  0  0  0  0  0  0
   -3.7148    0.6804    0.0000 C   0  0  0  0  0  0  0  0  0
   -3.7148   -0.1446    0.0000 C   0  0  0  0  0  0  0  0  0
   -3.0004   -0.5571    0.0000 C   0  0  0  0  0  0  0  0  0
   -3.0004   -1.3821    0.0000 C   0  0  0  0  0  0  0  0  0
   -2.2859   -1.7946    0.0000 N   0  0  0  0  0  0  0  0  0
   -2.2859   -2.6196    0.0000 C   0  0  0  0  0  0  0  0  0
   -1.5714   -3.0321    0.0000 N   0  0  0  0  0  0  0  0  0
   -0.8570   -2.6196    0.0000 C   0  0  0  0  0  0  0  0  0
   -0.8570   -1.7946    0.0000 C   0  0  0  0  0  0  0  0  0
   -0.1425   -1.3821    0.0000 C   0  0  0  0  0  0  0  0  0
    0.5720   -1.7946    0.0000 C   0  0  0  0  0  0  0  0  0
    0.5720   -2.6196    0.0000 C   0  0  0  0  0  0  0  0  0
   -0.1425   -3.0321    0.0000 C   0  0  0  0  0  0  0  0  0
   -1.5714   -1.3821    0.0000 C   0  0  0  0  0  0  0  0  0
   -1.5714   -0.5571    0.0000 O   0  0  0  0  0  0  0  0  0
  1  2  1  0  0  0  0
  1  3  1  0  0  0  0
  3  4  4  0  0  0  0
  3  8  4  0  0  0  0
  4  5  4  0  0  0  0
  5  6  4  0  0  0  0
  6  7  4  0  0  0  0
  7  8  4  0  0  0  0
  8  9  1  0  0  0  0
  9 10  1  0  0  0  0
  9 14  1  0  0  0  0
 10 11  1  0  0  0  0
 11 12  1  0  0  0  0
 12 13  1  0  0  0  0
 12 15  1  0  0  0  0
 13 14  1  0  0  0  0
 15 16  1  0  0  0  0
 16 17  1  0  0  0  0
 17 18  1  0  0  0  0
 18 19  1  0  0  0  0
 19 20  1  0  0  0  0
 19 28  1  0  0  0  0
 20 21  2  0  0  0  0
 21 22  1  0  0  0  0
 22 23  4  0  0  0  0
 22 27  4  0  0  0  0
 23 24  4  0  0  0  0
 23 28  1  0  0  0  0
 24 25  4  0  0  0  0
 25 26  4  0  0  0  0
 26 27  4  0  0  0  0
 28 29  2  0  0  0  0
M  END
>  <Name_Molregno>
404494

>  <5-HT1A>
7.44

>  <DOPAMINE D2>
7.83

>  <DOPAMINE D3>
6.51

>  <DOPAMINE D5>
5

$$$$
404498
  Marvin  02231216192D 0   1.00000     0.00000     0

 26 29  0  0  0  0  0  0  0  0999 V2000
   -4.0391    2.4085    0.0000 O   0  0  0  0  0  0  0  0  0
   -3.2141    2.4085    0.0000 C   0  0  0  0  0  0  0  0  0
   -2.7292    1.7411    0.0000 N   0  0  0  0  0  0  0  0  0
   -1.9445    1.9960    0.0000 C   0  0  0  0  0  0  0  0  0
   -1.9445    2.8210    0.0000 C   0  0  0  0  0  0  0  0  0
   -2.7292    3.0760    0.0000 C   0  0  0  0  0  0  0  0  0
   -1.2301    3.2335    0.0000 C   0  0  0  0  0  0  0  0  0
   -0.5156    2.8210    0.0000 C   0  0  0  0  0  0  0  0  0
   -0.5156    1.9960    0.0000 C   0  0  0  0  0  0  0  0  0
   -1.2301    1.5835    0.0000 C   0  0  0  0  0  0  0  0  0
   -2.9841    0.9565    0.0000 C   0  0  0  0  0  0  0  0  0
   -2.4321    0.3434    0.0000 C   0  0  0  0  0  0  0  0  0
   -2.6870   -0.4413    0.0000 C   0  0  0  0  0  0  0  0  0
   -2.1350   -1.0543    0.0000 C   0  0  0  0  0  0  0  0  0
   -2.3899   -1.8390    0.0000 N   0  0  0  0  0  0  0  0  0
   -1.8379   -2.4521    0.0000 C   0  0  0  0  0  0  0  0  0
   -2.0928   -3.2367    0.0000 C   0  0  0  0  0  0  0  0  0
   -2.8998   -3.4082    0.0000 N   0  0  0  0  0  0  0  0  0
   -3.4518   -2.7951    0.0000 C   0  0  0  0  0  0  0  0  0
   -3.1969   -2.0105    0.0000 C   0  0  0  0  0  0  0  0  0
   -3.1547   -4.1928    0.0000 C   0  0  0  0  0  0  0  0  0
   -2.6027   -4.8059    0.0000 C   0  0  0  0  0  0  0  0  0
   -2.8576   -5.5905    0.0000 C   0  0  0  0  0  0  0  0  0
   -3.6646   -5.7621    0.0000 C   0  0  0  0  0  0  0  0  0
   -4.2166   -5.1490    0.0000 C   0  0  0  0  0  0  0  0  0
   -3.9617   -4.3644    0.0000 C   0  0  0  0  0  0  0  0  0
  1  2  2  0  0  0  0
  2  3  1  0  0  0  0
  2  6  1  0  0  0  0
  3  4  1  0  0  0  0
  3 11  1  0  0  0  0
  4  5  4  0  0  0  0
  4 10  4  0  0  0  0
  5  6  1  0  0  0  0
  5  7  4  0  0  0  0
  7  8  4  0  0  0  0
  8  9  4  0  0  0  0
  9 10  4  0  0  0  0
 11 12  1  0  0  0  0
 12 13  1  0  0  0  0
 13 14  1  0  0  0  0
 14 15  1  0  0  0  0
 15 16  1  0  0  0  0
 15 20  1  0  0  0  0
 16 17  1  0  0  0  0
 17 18  1  0  0  0  0
 18 19  1  0  0  0  0
 18 21  1  0  0  0  0
 19 20  1  0  0  0  0
 21 22  4  0  0  0  0
 21 26  4  0  0  0  0
 22 23  4  0  0  0  0
 23 24  4  0  0  0  0
 24 25  4  0  0  0  0
 25 26  4  0  0  0  0
M  END
>  <Name_Molregno>
404498

>  <5-HT1A>
6.91

>  <5-HT7>
7.13

>  <DOPAMINE D2>
6.81

>  <DOPAMINE D3>
7.1

>  <DOPAMINE D5>
5.75

$$$$
404499
  Marvin  02231216192D 0   1.00000     0.00000     0

 27 30  0  0  0  0  0  0  0  0999 V2000
    2.9711   -4.2950    0.0000 Cl  0  0  0  0  0  0  0  0  0
    3.2261   -3.5104    0.0000 C   0  0  0  0  0  0  0  0  0
    2.6741   -2.8973    0.0000 C   0  0  0  0  0  0  0  0  0
    2.9290   -2.1127    0.0000 C   0  0  0  0  0  0  0  0  0
    3.7360   -1.9412    0.0000 C   0  0  0  0  0  0  0  0  0
    3.9909   -1.1565    0.0000 N   0  0  0  0  0  0  0  0  0
    3.4389   -0.5434    0.0000 C   0  0  0  0  0  0  0  0  0
    3.6938    0.2412    0.0000 C   0  0  0  0  0  0  0  0  0
    4.5008    0.4127    0.0000 N   0  0  0  0  0  0  0  0  0
    5.0528   -0.2004    0.0000 C   0  0  0  0  0  0  0  0  0
    4.7979   -0.9850    0.0000 C   0  0  0  0  0  0  0  0  0
    4.7557    1.1973    0.0000 C   0  0  0  0  0  0  0  0  0
    5.5627    1.3689    0.0000 C   0  0  0  0  0  0  0  0  0
    5.8176    2.1535    0.0000 C   0  0  0  0  0  0  0  0  0
    6.6246    2.3250    0.0000 C   0  0  0  0  0  0  0  0  0
    6.8795    3.1096    0.0000 N   0  0  0  0  0  0  0  0  0
    7.6642    3.3646    0.0000 C   0  0  0  0  0  0  0  0  0
    7.6642    4.1896    0.0000 C   0  0  0  0  0  0  0  0  0
    6.8795    4.4445    0.0000 C   0  0  0  0  0  0  0  0  0
    6.3946    3.7771    0.0000 C   0  0  0  0  0  0  0  0  0
    5.5696    3.7771    0.0000 O   0  0  0  0  0  0  0  0  0
    8.3786    4.6021    0.0000 C   0  0  0  0  0  0  0  0  0
    9.0931    4.1896    0.0000 C   0  0  0  0  0  0  0  0  0
    9.0931    3.3646    0.0000 C   0  0  0  0  0  0  0  0  0
    8.3786    2.9521    0.0000 C   0  0  0  0  0  0  0  0  0
    4.2880   -2.5542    0.0000 C   0  0  0  0  0  0  0  0  0
    4.0331   -3.3389    0.0000 C   0  0  0  0  0  0  0  0  0
  1  2  1  0  0  0  0
  2  3  4  0  0  0  0
  2 27  4  0  0  0  0
  3  4  4  0  0  0  0
  4  5  4  0  0  0  0
  5  6  1  0  0  0  0
  5 26  4  0  0  0  0
  6  7  1  0  0  0  0
  6 11  1  0  0  0  0
  7  8  1  0  0  0  0
  8  9  1  0  0  0  0
  9 10  1  0  0  0  0
  9 12  1  0  0  0  0
 10 11  1  0  0  0  0
 12 13  1  0  0  0  0
 13 14  1  0  0  0  0
 14 15  1  0  0  0  0
 15 16  1  0  0  0  0
 16 17  1  0  0  0  0
 16 20  1  0  0  0  0
 17 18  4  0  0  0  0
 17 25  4  0  0  0  0
 18 19  1  0  0  0  0
 18 22  4  0  0  0  0
 19 20  1  0  0  0  0
 20 21  2  0  0  0  0
 22 23  4  0  0  0  0
 23 24  4  0  0  0  0
 24 25  4  0  0  0  0
 26 27  4  0  0  0  0
M  END
>  <Name_Molregno>
404499

>  <DOPAMINE D2>
6.1

>  <DOPAMINE D3>
5.92

>  <DOPAMINE D5>
6.69

$$$$
404501
  Marvin  02231216192D 0   1.00000     0.00000     0

 30 33  0  0  0  0  0  0  0  0999 V2000
   -8.0957   -4.6888    0.0000 F   0  0  0  0  0  0  0  0  0
   -7.2887   -4.5172    0.0000 C   0  0  0  0  0  0  0  0  0
   -7.1172   -5.3242    0.0000 F   0  0  0  0  0  0  0  0  0
   -7.4603   -3.7103    0.0000 F   0  0  0  0  0  0  0  0  0
   -6.4818   -4.3457    0.0000 C   0  0  0  0  0  0  0  0  0
   -6.2268   -3.5611    0.0000 C   0  0  0  0  0  0  0  0  0
   -5.4199   -3.3895    0.0000 C   0  0  0  0  0  0  0  0  0
   -5.1649   -2.6049    0.0000 N   0  0  0  0  0  0  0  0  0
   -5.7170   -1.9918    0.0000 C   0  0  0  0  0  0  0  0  0
   -5.4620   -1.2072    0.0000 C   0  0  0  0  0  0  0  0  0
   -4.6551   -1.0357    0.0000 N   0  0  0  0  0  0  0  0  0
   -4.1030   -1.6488    0.0000 C   0  0  0  0  0  0  0  0  0
   -4.3580   -2.4334    0.0000 C   0  0  0  0  0  0  0  0  0
   -4.4001   -0.2511    0.0000 C   0  0  0  0  0  0  0  0  0
   -3.5931   -0.0795    0.0000 C   0  0  0  0  0  0  0  0  0
   -3.3382    0.7051    0.0000 C   0  0  0  0  0  0  0  0  0
   -2.5312    0.8766    0.0000 C   0  0  0  0  0  0  0  0  0
   -2.2763    1.6612    0.0000 N   0  0  0  0  0  0  0  0  0
   -1.4917    1.9162    0.0000 C   0  0  0  0  0  0  0  0  0
   -1.4917    2.7412    0.0000 C   0  0  0  0  0  0  0  0  0
   -2.2763    2.9961    0.0000 C   0  0  0  0  0  0  0  0  0
   -2.7612    2.3287    0.0000 C   0  0  0  0  0  0  0  0  0
   -3.5862    2.3287    0.0000 O   0  0  0  0  0  0  0  0  0
   -0.7772    3.1537    0.0000 C   0  0  0  0  0  0  0  0  0
   -0.0627    2.7412    0.0000 C   0  0  0  0  0  0  0  0  0
   -0.0627    1.9162    0.0000 C   0  0  0  0  0  0  0  0  0
   -0.7772    1.5037    0.0000 C   0  0  0  0  0  0  0  0  0
   -4.8678   -4.0026    0.0000 C   0  0  0  0  0  0  0  0  0
   -5.1228   -4.7873    0.0000 C   0  0  0  0  0  0  0  0  0
   -5.9297   -4.9588    0.0000 C   0  0  0  0  0  0  0  0  0
  1  2  1  0  0  0  0
  2  3  1  0  0  0  0
  2  4  1  0  0  0  0
  2  5  1  0  0  0  0
  5  6  4  0  0  0  0
  5 30  4  0  0  0  0
  6  7  4  0  0  0  0
  7  8  1  0  0  0  0
  7 28  4  0  0  0  0
  8  9  1  0  0  0  0
  8 13  1  0  0  0  0
  9 10  1  0  0  0  0
 10 11  1  0  0  0  0
 11 12  1  0  0  0  0
 11 14  1  0  0  0  0
 12 13  1  0  0  0  0
 14 15  1  0  0  0  0
 15 16  1  0  0  0  0
 16 17  1  0  0  0  0
 17 18  1  0  0  0  0
 18 19  1  0  0  0  0
 18 22  1  0  0  0  0
 19 20  4  0  0  0  0
 19 27  4  0  0  0  0
 20 21  1  0  0  0  0
 20 24  4  0  0  0  0
 21 22  1  0  0  0  0
 22 23  2  0  0  0  0
 24 25  4  0  0  0  0
 25 26  4  0  0  0  0
 26 27  4  0  0  0  0
 28 29  4  0  0  0  0
 29 30  4  0  0  0  0
M  END
>  <Name_Molregno>
404501

>  <DOPAMINE D2>
6.43

>  <DOPAMINE D3>
6.61

>  <DOPAMINE D5>
6.72

$$$$
404505
  Marvin  02231216192D 0   1.00000     0.00000     0

 28 31  0  0  0  0  0  0  0  0999 V2000
   -6.9767   -0.7501    0.0000 O   0  0  0  0  0  0  0  0  0
   -7.7837   -0.9217    0.0000 C   0  0  0  0  0  0  0  0  0
   -6.7218    0.0345    0.0000 C   0  0  0  0  0  0  0  0  0
   -7.2738    0.6476    0.0000 C   0  0  0  0  0  0  0  0  0
   -7.0188    1.4322    0.0000 C   0  0  0  0  0  0  0  0  0
   -6.2119    1.6037    0.0000 C   0  0  0  0  0  0  0  0  0
   -5.6598    0.9906    0.0000 C   0  0  0  0  0  0  0  0  0
   -5.9148    0.2060    0.0000 C   0  0  0  0  0  0  0  0  0
   -5.3628   -0.4071    0.0000 N   0  0  0  0  0  0  0  0  0
   -4.5558   -0.2355    0.0000 C   0  0  0  0  0  0  0  0  0
   -4.0037   -0.8486    0.0000 C   0  0  0  0  0  0  0  0  0
   -4.2587   -1.6333    0.0000 N   0  0  0  0  0  0  0  0  0
   -5.0657   -1.8048    0.0000 C   0  0  0  0  0  0  0  0  0
   -5.6177   -1.1917    0.0000 C   0  0  0  0  0  0  0  0  0
   -3.7067   -2.2464    0.0000 C   0  0  0  0  0  0  0  0  0
   -2.8997   -2.0748    0.0000 C   0  0  0  0  0  0  0  0  0
   -2.6447   -1.2902    0.0000 C   0  0  0  0  0  0  0  0  0
   -1.8378   -1.1187    0.0000 C   0  0  0  0  0  0  0  0  0
   -1.5828   -0.3341    0.0000 N   0  0  0  0  0  0  0  0  0
   -0.7982   -0.0791    0.0000 C   0  0  0  0  0  0  0  0  0
   -0.7982    0.7459    0.0000 C   0  0  0  0  0  0  0  0  0
   -1.5828    1.0008    0.0000 C   0  0  0  0  0  0  0  0  0
   -2.0678    0.3334    0.0000 C   0  0  0  0  0  0  0  0  0
   -2.8928    0.3334    0.0000 O   0  0  0  0  0  0  0  0  0
   -0.0837    1.1584    0.0000 C   0  0  0  0  0  0  0  0  0
    0.6307    0.7459    0.0000 C   0  0  0  0  0  0  0  0  0
    0.6307   -0.0791    0.0000 C   0  0  0  0  0  0  0  0  0
   -0.0837   -0.4916    0.0000 C   0  0  0  0  0  0  0  0  0
  1  2  1  0  0  0  0
  1  3  1  0  0  0  0
  3  4  4  0  0  0  0
  3  8  4  0  0  0  0
  4  5  4  0  0  0  0
  5  6  4  0  0  0  0
  6  7  4  0  0  0  0
  7  8  4  0  0  0  0
  8  9  1  0  0  0  0
  9 10  1  0  0  0  0
  9 14  1  0  0  0  0
 10 11  1  0  0  0  0
 11 12  1  0  0  0  0
 12 13  1  0  0  0  0
 12 15  1  0  0  0  0
 13 14  1  0  0  0  0
 15 16  1  0  0  0  0
 16 17  1  0  0  0  0
 17 18  1  0  0  0  0
 18 19  1  0  0  0  0
 19 20  1  0  0  0  0
 19 23  1  0  0  0  0
 20 21  4  0  0  0  0
 20 28  4  0  0  0  0
 21 22  1  0  0  0  0
 21 25  4  0  0  0  0
 22 23  1  0  0  0  0
 23 24  2  0  0  0  0
 25 26  4  0  0  0  0
 26 27  4  0  0  0  0
 27 28  4  0  0  0  0
M  END
>  <Name_Molregno>
404505

>  <5-HT1A>
6

>  <5-HT7>
7.49

>  <DOPAMINE D2>
6.46

>  <DOPAMINE D3>
6.71

>  <DOPAMINE D5>
6.48

$$$$
404508
  Marvin  02231216192D 0   1.00000     0.00000     0

 26 29  0  0  0  0  0  0  0  0999 V2000
   -0.6599    1.4832    0.0000 O   0  0  0  0  0  0  0  0  0
   -0.4049    0.6986    0.0000 C   0  0  0  0  0  0  0  0  0
   -0.8899    0.0312    0.0000 N   0  0  0  0  0  0  0  0  0
   -0.4049   -0.6363    0.0000 C   0  0  0  0  0  0  0  0  0
    0.3797   -0.3813    0.0000 C   0  0  0  0  0  0  0  0  0
    0.3797    0.4437    0.0000 C   0  0  0  0  0  0  0  0  0
    1.0942    0.8562    0.0000 C   0  0  0  0  0  0  0  0  0
    1.8086    0.4437    0.0000 C   0  0  0  0  0  0  0  0  0
    1.8086   -0.3813    0.0000 C   0  0  0  0  0  0  0  0  0
    1.0942   -0.7938    0.0000 C   0  0  0  0  0  0  0  0  0
   -1.7149    0.0312    0.0000 C   0  0  0  0  0  0  0  0  0
   -2.1274   -0.6833    0.0000 C   0  0  0  0  0  0  0  0  0
   -2.9524   -0.6833    0.0000 C   0  0  0  0  0  0  0  0  0
   -3.3649   -1.3978    0.0000 C   0  0  0  0  0  0  0  0  0
   -4.1899   -1.3978    0.0000 N   0  0  0  0  0  0  0  0  0
   -4.6024   -2.1122    0.0000 C   0  0  0  0  0  0  0  0  0
   -5.4274   -2.1122    0.0000 C   0  0  0  0  0  0  0  0  0
   -5.8399   -1.3978    0.0000 N   0  0  0  0  0  0  0  0  0
   -5.4274   -0.6833    0.0000 C   0  0  0  0  0  0  0  0  0
   -4.6024   -0.6833    0.0000 C   0  0  0  0  0  0  0  0  0
   -6.6649   -1.3978    0.0000 C   0  0  0  0  0  0  0  0  0
   -7.0774   -2.1122    0.0000 C   0  0  0  0  0  0  0  0  0
   -7.9024   -2.1122    0.0000 C   0  0  0  0  0  0  0  0  0
   -8.3149   -1.3978    0.0000 C   0  0  0  0  0  0  0  0  0
   -7.9024   -0.6833    0.0000 C   0  0  0  0  0  0  0  0  0
   -7.0774   -0.6833    0.0000 C   0  0  0  0  0  0  0  0  0
  1  2  2  0  0  0  0
  2  3  1  0  0  0  0
  2  6  1  0  0  0  0
  3  4  1  0  0  0  0
  3 11  1  0  0  0  0
  4  5  1  0  0  0  0
  5  6  4  0  0  0  0
  5 10  4  0  0  0  0
  6  7  4  0  0  0  0
  7  8  4  0  0  0  0
  8  9  4  0  0  0  0
  9 10  4  0  0  0  0
 11 12  1  0  0  0  0
 12 13  1  0  0  0  0
 13 14  1  0  0  0  0
 14 15  1  0  0  0  0
 15 16  1  0  0  0  0
 15 20  1  0  0  0  0
 16 17  1  0  0  0  0
 17 18  1  0  0  0  0
 18 19  1  0  0  0  0
 18 21  1  0  0  0  0
 19 20  1  0  0  0  0
 21 22  4  0  0  0  0
 21 26  4  0  0  0  0
 22 23  4  0  0  0  0
 23 24  4  0  0  0  0
 24 25  4  0  0  0  0
 25 26  4  0  0  0  0
M  END
>  <Name_Molregno>
404508

>  <5-HT1A>
6.44

>  <5-HT7>
6

>  <DOPAMINE D2>
6.97

>  <DOPAMINE D3>
7.45

>  <DOPAMINE D5>
6.05

$$$$
404511
  Marvin  02231216192D 0   1.00000     0.00000     0

 27 30  0  0  0  0  0  0  0  0999 V2000
   -0.1454   -1.3139    0.0000 Cl  0  0  0  0  0  0  0  0  0
    0.6796   -1.3139    0.0000 C   0  0  0  0  0  0  0  0  0
    1.0921   -0.5994    0.0000 C   0  0  0  0  0  0  0  0  0
    1.9171   -0.5994    0.0000 C   0  0  0  0  0  0  0  0  0
    2.3296   -1.3139    0.0000 C   0  0  0  0  0  0  0  0  0
    3.1546   -1.3139    0.0000 N   0  0  0  0  0  0  0  0  0
    3.5671   -0.5994    0.0000 C   0  0  0  0  0  0  0  0  0
    4.3921   -0.5994    0.0000 C   0  0  0  0  0  0  0  0  0
    4.8046   -1.3139    0.0000 N   0  0  0  0  0  0  0  0  0
    4.3921   -2.0284    0.0000 C   0  0  0  0  0  0  0  0  0
    3.5671   -2.0284    0.0000 C   0  0  0  0  0  0  0  0  0
    5.6296   -1.3139    0.0000 C   0  0  0  0  0  0  0  0  0
    6.0421   -0.5994    0.0000 C   0  0  0  0  0  0  0  0  0
    6.8671   -0.5994    0.0000 C   0  0  0  0  0  0  0  0  0
    7.2796    0.1151    0.0000 C   0  0  0  0  0  0  0  0  0
    8.1046    0.1151    0.0000 N   0  0  0  0  0  0  0  0  0
    8.5895   -0.5524    0.0000 C   0  0  0  0  0  0  0  0  0
    9.3741   -0.2974    0.0000 C   0  0  0  0  0  0  0  0  0
    9.3741    0.5276    0.0000 C   0  0  0  0  0  0  0  0  0
   10.0886    0.9401    0.0000 C   0  0  0  0  0  0  0  0  0
   10.8030    0.5276    0.0000 C   0  0  0  0  0  0  0  0  0
   10.8030   -0.2974    0.0000 C   0  0  0  0  0  0  0  0  0
   10.0886   -0.7099    0.0000 C   0  0  0  0  0  0  0  0  0
    8.5895    0.7825    0.0000 C   0  0  0  0  0  0  0  0  0
    8.3345    1.5671    0.0000 O   0  0  0  0  0  0  0  0  0
    1.9171   -2.0284    0.0000 C   0  0  0  0  0  0  0  0  0
    1.0921   -2.0284    0.0000 C   0  0  0  0  0  0  0  0  0
  1  2  1  0  0  0  0
  2  3  4  0  0  0  0
  2 27  4  0  0  0  0
  3  4  4  0  0  0  0
  4  5  4  0  0  0  0
  5  6  1  0  0  0  0
  5 26  4  0  0  0  0
  6  7  1  0  0  0  0
  6 11  1  0  0  0  0
  7  8  1  0  0  0  0
  8  9  1  0  0  0  0
  9 10  1  0  0  0  0
  9 12  1  0  0  0  0
 10 11  1  0  0  0  0
 12 13  1  0  0  0  0
 13 14  1  0  0  0  0
 14 15  1  0  0  0  0
 15 16  1  0  0  0  0
 16 17  1  0  0  0  0
 16 24  1  0  0  0  0
 17 18  1  0  0  0  0
 18 19  4  0  0  0  0
 18 23  4  0  0  0  0
 19 20  4  0  0  0  0
 19 24  1  0  0  0  0
 20 21  4  0  0  0  0
 21 22  4  0  0  0  0
 22 23  4  0  0  0  0
 24 25  2  0  0  0  0
 26 27  4  0  0  0  0
M  END
>  <Name_Molregno>
404511

>  <DOPAMINE D2>
5.56

>  <DOPAMINE D3>
6.18

>  <DOPAMINE D5>
7.47

$$$$
404512
  Marvin  02231216192D 0   1.00000     0.00000     0

 30 33  0  0  0  0  0  0  0  0999 V2000
   -9.0347    0.1752    0.0000 F   0  0  0  0  0  0  0  0  0
   -8.6222   -0.5393    0.0000 C   0  0  0  0  0  0  0  0  0
   -9.3367   -0.9518    0.0000 F   0  0  0  0  0  0  0  0  0
   -7.9077   -0.1268    0.0000 F   0  0  0  0  0  0  0  0  0
   -8.2097   -1.2538    0.0000 C   0  0  0  0  0  0  0  0  0
   -7.3847   -1.2538    0.0000 C   0  0  0  0  0  0  0  0  0
   -6.9722   -1.9682    0.0000 C   0  0  0  0  0  0  0  0  0
   -6.1472   -1.9682    0.0000 N   0  0  0  0  0  0  0  0  0
   -5.7347   -1.2538    0.0000 C   0  0  0  0  0  0  0  0  0
   -4.9097   -1.2538    0.0000 C   0  0  0  0  0  0  0  0  0
   -4.4972   -1.9682    0.0000 N   0  0  0  0  0  0  0  0  0
   -4.9097   -2.6827    0.0000 C   0  0  0  0  0  0  0  0  0
   -5.7347   -2.6827    0.0000 C   0  0  0  0  0  0  0  0  0
   -3.6722   -1.9682    0.0000 C   0  0  0  0  0  0  0  0  0
   -3.2597   -1.2538    0.0000 C   0  0  0  0  0  0  0  0  0
   -2.4347   -1.2538    0.0000 C   0  0  0  0  0  0  0  0  0
   -2.0222   -0.5393    0.0000 C   0  0  0  0  0  0  0  0  0
   -1.1972   -0.5393    0.0000 N   0  0  0  0  0  0  0  0  0
   -0.7123   -1.2067    0.0000 C   0  0  0  0  0  0  0  0  0
    0.0724   -0.9518    0.0000 C   0  0  0  0  0  0  0  0  0
    0.0724   -0.1268    0.0000 C   0  0  0  0  0  0  0  0  0
    0.7868    0.2857    0.0000 C   0  0  0  0  0  0  0  0  0
    1.5013   -0.1268    0.0000 C   0  0  0  0  0  0  0  0  0
    1.5013   -0.9518    0.0000 C   0  0  0  0  0  0  0  0  0
    0.7868   -1.3643    0.0000 C   0  0  0  0  0  0  0  0  0
   -0.7123    0.1282    0.0000 C   0  0  0  0  0  0  0  0  0
   -0.9672    0.9128    0.0000 O   0  0  0  0  0  0  0  0  0
   -7.3847   -2.6827    0.0000 C   0  0  0  0  0  0  0  0  0
   -8.2097   -2.6827    0.0000 C   0  0  0  0  0  0  0  0  0
   -8.6222   -1.9682    0.0000 C   0  0  0  0  0  0  0  0  0
  1  2  1  0  0  0  0
  2  3  1  0  0  0  0
  2  4  1  0  0  0  0
  2  5  1  0  0  0  0
  5  6  4  0  0  0  0
  5 30  4  0  0  0  0
  6  7  4  0  0  0  0
  7  8  1  0  0  0  0
  7 28  4  0  0  0  0
  8  9  1  0  0  0  0
  8 13  1  0  0  0  0
  9 10  1  0  0  0  0
 10 11  1  0  0  0  0
 11 12  1  0  0  0  0
 11 14  1  0  0  0  0
 12 13  1  0  0  0  0
 14 15  1  0  0  0  0
 15 16  1  0  0  0  0
 16 17  1  0  0  0  0
 17 18  1  0  0  0  0
 18 19  1  0  0  0  0
 18 26  1  0  0  0  0
 19 20  1  0  0  0  0
 20 21  4  0  0  0  0
 20 25  4  0  0  0  0
 21 22  4  0  0  0  0
 21 26  1  0  0  0  0
 22 23  4  0  0  0  0
 23 24  4  0  0  0  0
 24 25  4  0  0  0  0
 26 27  2  0  0  0  0
 28 29  4  0  0  0  0
 29 30  4  0  0  0  0
M  END
>  <Name_Molregno>
404512

>  <DOPAMINE D2>
7

>  <DOPAMINE D3>
7.85

>  <DOPAMINE D5>
7.09

$$$$
404513
  Marvin  02231216192D 0   1.00000     0.00000     0

 28 31  0  0  0  0  0  0  0  0999 V2000
    0.4432   -1.8740    0.0000 O   0  0  0  0  0  0  0  0  0
    0.0307   -2.5885    0.0000 C   0  0  0  0  0  0  0  0  0
    0.0307   -1.1595    0.0000 C   0  0  0  0  0  0  0  0  0
   -0.7943   -1.1595    0.0000 C   0  0  0  0  0  0  0  0  0
   -1.2068   -0.4451    0.0000 C   0  0  0  0  0  0  0  0  0
   -0.7943    0.2694    0.0000 C   0  0  0  0  0  0  0  0  0
    0.0307    0.2694    0.0000 C   0  0  0  0  0  0  0  0  0
    0.4432   -0.4451    0.0000 C   0  0  0  0  0  0  0  0  0
    1.2682   -0.4451    0.0000 N   0  0  0  0  0  0  0  0  0
    1.6807    0.2694    0.0000 C   0  0  0  0  0  0  0  0  0
    2.5057    0.2694    0.0000 C   0  0  0  0  0  0  0  0  0
    2.9182   -0.4451    0.0000 N   0  0  0  0  0  0  0  0  0
    2.5057   -1.1595    0.0000 C   0  0  0  0  0  0  0  0  0
    1.6807   -1.1595    0.0000 C   0  0  0  0  0  0  0  0  0
    3.7432   -0.4451    0.0000 C   0  0  0  0  0  0  0  0  0
    4.1557    0.2694    0.0000 C   0  0  0  0  0  0  0  0  0
    4.9807    0.2694    0.0000 C   0  0  0  0  0  0  0  0  0
    5.3932    0.9839    0.0000 C   0  0  0  0  0  0  0  0  0
    6.2182    0.9839    0.0000 N   0  0  0  0  0  0  0  0  0
    6.7031    0.3165    0.0000 C   0  0  0  0  0  0  0  0  0
    7.4877    0.5714    0.0000 C   0  0  0  0  0  0  0  0  0
    7.4877    1.3964    0.0000 C   0  0  0  0  0  0  0  0  0
    8.2022    1.8089    0.0000 C   0  0  0  0  0  0  0  0  0
    8.9166    1.3964    0.0000 C   0  0  0  0  0  0  0  0  0
    8.9166    0.5714    0.0000 C   0  0  0  0  0  0  0  0  0
    8.2022    0.1589    0.0000 C   0  0  0  0  0  0  0  0  0
    6.7031    1.6513    0.0000 C   0  0  0  0  0  0  0  0  0
    6.4481    2.4359    0.0000 O   0  0  0  0  0  0  0  0  0
  1  2  1  0  0  0  0
  1  3  1  0  0  0  0
  3  4  4  0  0  0  0
  3  8  4  0  0  0  0
  4  5  4  0  0  0  0
  5  6  4  0  0  0  0
  6  7  4  0  0  0  0
  7  8  4  0  0  0  0
  8  9  1  0  0  0  0
  9 10  1  0  0  0  0
  9 14  1  0  0  0  0
 10 11  1  0  0  0  0
 11 12  1  0  0  0  0
 12 13  1  0  0  0  0
 12 15  1  0  0  0  0
 13 14  1  0  0  0  0
 15 16  1  0  0  0  0
 16 17  1  0  0  0  0
 17 18  1  0  0  0  0
 18 19  1  0  0  0  0
 19 20  1  0  0  0  0
 19 27  1  0  0  0  0
 20 21  1  0  0  0  0
 21 22  4  0  0  0  0
 21 26  4  0  0  0  0
 22 23  4  0  0  0  0
 22 27  1  0  0  0  0
 23 24  4  0  0  0  0
 24 25  4  0  0  0  0
 25 26  4  0  0  0  0
 27 28  2  0  0  0  0
M  END
>  <Name_Molregno>
404513

>  <5-HT1A>
6

>  <5-HT7>
6.8

>  <DOPAMINE D2>
6.98

>  <DOPAMINE D3>
7.52

>  <DOPAMINE D5>
6.99

$$$$
405250
  Marvin  02231216192D 0   1.00000     0.00000     0

 27 29  0  0  0  0  0  0  0  0999 V2000
   -0.0917    0.0287    0.0000 Cl  0  0  0  0  0  0  0  0  0
   -0.0917   -0.7963    0.0000 C   0  0  0  0  0  0  0  0  0
    0.6228   -1.2088    0.0000 C   0  0  0  0  0  0  0  0  0
    1.3373   -0.7963    0.0000 N   0  0  0  0  0  0  0  0  0
    1.3373    0.0287    0.0000 C   0  0  0  0  0  0  0  0  0
    2.0518    0.4412    0.0000 C   0  0  0  0  0  0  0  0  0
    2.7662    0.0287    0.0000 N   0  0  0  0  0  0  0  0  0
    2.7662   -0.7963    0.0000 C   0  0  0  0  0  0  0  0  0
    2.0518   -1.2088    0.0000 C   0  0  0  0  0  0  0  0  0
    3.4807    0.4412    0.0000 C   0  0  0  0  0  0  0  0  0
    4.1952    0.0287    0.0000 C   0  0  0  0  0  0  0  0  0
    4.9096    0.4412    0.0000 N   0  0  0  0  0  0  0  0  0
    5.6241    0.0287    0.0000 C   0  0  0  0  0  0  0  0  0
    5.6241   -0.7963    0.0000 O   0  0  0  0  0  0  0  0  0
    6.3386    0.4412    0.0000 C   0  0  0  0  0  0  0  0  0
    6.3386    1.2662    0.0000 C   0  0  0  0  0  0  0  0  0
    7.0530    1.6787    0.0000 C   0  0  0  0  0  0  0  0  0
    7.7675    1.2662    0.0000 C   0  0  0  0  0  0  0  0  0
    7.7675    0.4412    0.0000 C   0  0  0  0  0  0  0  0  0
    7.0530    0.0287    0.0000 C   0  0  0  0  0  0  0  0  0
    8.4820    1.6787    0.0000 C   0  0  0  0  0  0  0  0  0
    9.1965    2.0912    0.0000 C   0  0  0  0  0  0  0  0  0
    0.6228   -2.0338    0.0000 C   0  0  0  0  0  0  0  0  0
   -0.0917   -2.4463    0.0000 C   0  0  0  0  0  0  0  0  0
   -0.8061   -2.0338    0.0000 C   0  0  0  0  0  0  0  0  0
   -0.8061   -1.2088    0.0000 C   0  0  0  0  0  0  0  0  0
   -1.5206   -0.7963    0.0000 Cl  0  0  0  0  0  0  0  0  0
  1  2  1  0  0  0  0
  2  3  4  0  0  0  0
  2 26  4  0  0  0  0
  3  4  1  0  0  0  0
  3 23  4  0  0  0  0
  4  5  1  0  0  0  0
  4  9  1  0  0  0  0
  5  6  1  0  0  0  0
  6  7  1  0  0  0  0
  7  8  1  0  0  0  0
  7 10  1  0  0  0  0
  8  9  1  0  0  0  0
 10 11  1  0  0  0  0
 11 12  1  0  0  0  0
 12 13  1  0  0  0  0
 13 14  2  0  0  0  0
 13 15  1  0  0  0  0
 15 16  4  0  0  0  0
 15 20  4  0  0  0  0
 16 17  4  0  0  0  0
 17 18  4  0  0  0  0
 18 19  4  0  0  0  0
 18 21  1  0  0  0  0
 19 20  4  0  0  0  0
 21 22  3  0  0  0  0
 23 24  4  0  0  0  0
 24 25  4  0  0  0  0
 25 26  4  0  0  0  0
 26 27  1  0  0  0  0
M  END
>  <Name_Molregno>
405250

>  <DOPAMINE D2>
7.24

>  <DOPAMINE D3>
7.51

$$$$
405251
  Marvin  02231216192D 0   1.00000     0.00000     0

 33 36  0  0  0  0  0  0  0  0999 V2000
   -9.6157   -0.0025    0.0000 Cl  0  0  0  0  0  0  0  0  0
   -9.6157   -0.8275    0.0000 C   0  0  0  0  0  0  0  0  0
   -8.9012   -1.2400    0.0000 C   0  0  0  0  0  0  0  0  0
   -8.1867   -0.8275    0.0000 N   0  0  0  0  0  0  0  0  0
   -8.1867   -0.0025    0.0000 C   0  0  0  0  0  0  0  0  0
   -7.4722    0.4100    0.0000 C   0  0  0  0  0  0  0  0  0
   -6.7578   -0.0025    0.0000 N   0  0  0  0  0  0  0  0  0
   -6.7578   -0.8275    0.0000 C   0  0  0  0  0  0  0  0  0
   -7.4722   -1.2400    0.0000 C   0  0  0  0  0  0  0  0  0
   -6.0433    0.4100    0.0000 C   0  0  0  0  0  0  0  0  0
   -5.3288   -0.0025    0.0000 C   0  0  0  0  0  0  0  0  0
   -4.6144    0.4100    0.0000 N   0  0  0  0  0  0  0  0  0
   -3.8999   -0.0025    0.0000 C   0  0  0  0  0  0  0  0  0
   -3.8999   -0.8275    0.0000 O   0  0  0  0  0  0  0  0  0
   -3.1854    0.4100    0.0000 C   0  0  0  0  0  0  0  0  0
   -3.1854    1.2350    0.0000 C   0  0  0  0  0  0  0  0  0
   -2.4710    1.6475    0.0000 C   0  0  0  0  0  0  0  0  0
   -1.7565    1.2350    0.0000 C   0  0  0  0  0  0  0  0  0
   -1.7565    0.4100    0.0000 C   0  0  0  0  0  0  0  0  0
   -2.4710   -0.0025    0.0000 C   0  0  0  0  0  0  0  0  0
   -1.0420    1.6475    0.0000 C   0  0  0  0  0  0  0  0  0
   -0.3275    2.0600    0.0000 C   0  0  0  0  0  0  0  0  0
    0.3869    2.4725    0.0000 C   0  0  0  0  0  0  0  0  0
    0.3869    3.2975    0.0000 C   0  0  0  0  0  0  0  0  0
    1.1014    3.7100    0.0000 C   0  0  0  0  0  0  0  0  0
    1.8159    3.2975    0.0000 C   0  0  0  0  0  0  0  0  0
    1.8159    2.4725    0.0000 C   0  0  0  0  0  0  0  0  0
    1.1014    2.0600    0.0000 C   0  0  0  0  0  0  0  0  0
   -8.9012   -2.0650    0.0000 C   0  0  0  0  0  0  0  0  0
   -9.6157   -2.4775    0.0000 C   0  0  0  0  0  0  0  0  0
  -10.3301   -2.0650    0.0000 C   0  0  0  0  0  0  0  0  0
  -10.3301   -1.2400    0.0000 C   0  0  0  0  0  0  0  0  0
  -11.0446   -0.8275    0.0000 Cl  0  0  0  0  0  0  0  0  0
  1  2  1  0  0  0  0
  2  3  4  0  0  0  0
  2 32  4  0  0  0  0
  3  4  1  0  0  0  0
  3 29  4  0  0  0  0
  4  5  1  0  0  0  0
  4  9  1  0  0  0  0
  5  6  1  0  0  0  0
  6  7  1  0  0  0  0
  7  8  1  0  0  0  0
  7 10  1  0  0  0  0
  8  9  1  0  0  0  0
 10 11  1  0  0  0  0
 11 12  1  0  0  0  0
 12 13  1  0  0  0  0
 13 14  2  0  0  0  0
 13 15  1  0  0  0  0
 15 16  4  0  0  0  0
 15 20  4  0  0  0  0
 16 17  4  0  0  0  0
 17 18  4  0  0  0  0
 18 19  4  0  0  0  0
 18 21  1  0  0  0  0
 19 20  4  0  0  0  0
 21 22  3  0  0  0  0
 22 23  1  0  0  0  0
 23 24  4  0  0  0  0
 23 28  4  0  0  0  0
 24 25  4  0  0  0  0
 25 26  4  0  0  0  0
 26 27  4  0  0  0  0
 27 28  4  0  0  0  0
 29 30  4  0  0  0  0
 30 31  4  0  0  0  0
 31 32  4  0  0  0  0
 32 33  1  0  0  0  0
M  END
>  <Name_Molregno>
405251

>  <DOPAMINE D2>
5.16

>  <DOPAMINE D3>
7.54

$$$$
405252
  Marvin  02231216192D 0   1.00000     0.00000     0

 27 29  0  0  0  0  0  0  0  0999 V2000
   -6.9185   -0.2330    0.0000 Cl  0  0  0  0  0  0  0  0  0
   -6.9185   -1.0580    0.0000 C   0  0  0  0  0  0  0  0  0
   -6.2040   -1.4705    0.0000 C   0  0  0  0  0  0  0  0  0
   -5.4896   -1.0580    0.0000 N   0  0  0  0  0  0  0  0  0
   -5.4896   -0.2330    0.0000 C   0  0  0  0  0  0  0  0  0
   -4.7751    0.1795    0.0000 C   0  0  0  0  0  0  0  0  0
   -4.0606   -0.2330    0.0000 N   0  0  0  0  0  0  0  0  0
   -4.0606   -1.0580    0.0000 C   0  0  0  0  0  0  0  0  0
   -4.7751   -1.4705    0.0000 C   0  0  0  0  0  0  0  0  0
   -3.3461    0.1795    0.0000 C   0  0  0  0  0  0  0  0  0
   -2.6317   -0.2330    0.0000 C   0  0  0  0  0  0  0  0  0
   -1.9172    0.1795    0.0000 N   0  0  0  0  0  0  0  0  0
   -1.2027   -0.2330    0.0000 C   0  0  0  0  0  0  0  0  0
   -1.2027   -1.0580    0.0000 O   0  0  0  0  0  0  0  0  0
   -0.4883    0.1795    0.0000 C   0  0  0  0  0  0  0  0  0
   -0.4883    1.0045    0.0000 C   0  0  0  0  0  0  0  0  0
    0.2262    1.4170    0.0000 C   0  0  0  0  0  0  0  0  0
    0.9407    1.0045    0.0000 C   0  0  0  0  0  0  0  0  0
    0.9407    0.1795    0.0000 C   0  0  0  0  0  0  0  0  0
    0.2262   -0.2330    0.0000 C   0  0  0  0  0  0  0  0  0
    0.2262    2.2420    0.0000 C   0  0  0  0  0  0  0  0  0
    0.2262    3.0670    0.0000 C   0  0  0  0  0  0  0  0  0
   -6.2040   -2.2955    0.0000 C   0  0  0  0  0  0  0  0  0
   -6.9185   -2.7080    0.0000 C   0  0  0  0  0  0  0  0  0
   -7.6330   -2.2955    0.0000 C   0  0  0  0  0  0  0  0  0
   -7.6330   -1.4705    0.0000 C   0  0  0  0  0  0  0  0  0
   -8.3474   -1.0580    0.0000 Cl  0  0  0  0  0  0  0  0  0
  1  2  1  0  0  0  0
  2  3  4  0  0  0  0
  2 26  4  0  0  0  0
  3  4  1  0  0  0  0
  3 23  4  0  0  0  0
  4  5  1  0  0  0  0
  4  9  1  0  0  0  0
  5  6  1  0  0  0  0
  6  7  1  0  0  0  0
  7  8  1  0  0  0  0
  7 10  1  0  0  0  0
  8  9  1  0  0  0  0
 10 11  1  0  0  0  0
 11 12  1  0  0  0  0
 12 13  1  0  0  0  0
 13 14  2  0  0  0  0
 13 15  1  0  0  0  0
 15 16  4  0  0  0  0
 15 20  4  0  0  0  0
 16 17  4  0  0  0  0
 17 18  4  0  0  0  0
 17 21  1  0  0  0  0
 18 19  4  0  0  0  0
 19 20  4  0  0  0  0
 21 22  3  0  0  0  0
 23 24  4  0  0  0  0
 24 25  4  0  0  0  0
 25 26  4  0  0  0  0
 26 27  1  0  0  0  0
M  END
>  <Name_Molregno>
405252

>  <DOPAMINE D2>
7

>  <DOPAMINE D3>
7.3

$$$$
405254
  Marvin  02231216192D 0   1.00000     0.00000     0

 33 36  0  0  0  0  0  0  0  0999 V2000
   -8.8595   -1.2889    0.0000 Cl  0  0  0  0  0  0  0  0  0
   -8.8595   -2.1139    0.0000 C   0  0  0  0  0  0  0  0  0
   -8.1450   -2.5264    0.0000 C   0  0  0  0  0  0  0  0  0
   -7.4306   -2.1139    0.0000 N   0  0  0  0  0  0  0  0  0
   -7.4306   -1.2889    0.0000 C   0  0  0  0  0  0  0  0  0
   -6.7161   -0.8764    0.0000 C   0  0  0  0  0  0  0  0  0
   -6.0016   -1.2889    0.0000 N   0  0  0  0  0  0  0  0  0
   -6.0016   -2.1139    0.0000 C   0  0  0  0  0  0  0  0  0
   -6.7161   -2.5264    0.0000 C   0  0  0  0  0  0  0  0  0
   -5.2872   -0.8764    0.0000 C   0  0  0  0  0  0  0  0  0
   -4.5727   -1.2889    0.0000 C   0  0  0  0  0  0  0  0  0
   -3.8582   -0.8764    0.0000 N   0  0  0  0  0  0  0  0  0
   -3.1437   -1.2889    0.0000 C   0  0  0  0  0  0  0  0  0
   -3.1437   -2.1139    0.0000 O   0  0  0  0  0  0  0  0  0
   -2.4293   -0.8764    0.0000 C   0  0  0  0  0  0  0  0  0
   -2.4293   -0.0514    0.0000 C   0  0  0  0  0  0  0  0  0
   -1.7148    0.3611    0.0000 C   0  0  0  0  0  0  0  0  0
   -1.0003   -0.0514    0.0000 C   0  0  0  0  0  0  0  0  0
   -1.0003   -0.8764    0.0000 C   0  0  0  0  0  0  0  0  0
   -1.7148   -1.2889    0.0000 C   0  0  0  0  0  0  0  0  0
   -1.7148    1.1861    0.0000 C   0  0  0  0  0  0  0  0  0
   -1.7148    2.0111    0.0000 C   0  0  0  0  0  0  0  0  0
   -1.7148    2.8361    0.0000 C   0  0  0  0  0  0  0  0  0
   -2.4293    3.2486    0.0000 C   0  0  0  0  0  0  0  0  0
   -2.4293    4.0736    0.0000 C   0  0  0  0  0  0  0  0  0
   -1.7148    4.4861    0.0000 C   0  0  0  0  0  0  0  0  0
   -1.0003    4.0736    0.0000 C   0  0  0  0  0  0  0  0  0
   -1.0003    3.2486    0.0000 C   0  0  0  0  0  0  0  0  0
   -8.1450   -3.3514    0.0000 C   0  0  0  0  0  0  0  0  0
   -8.8595   -3.7639    0.0000 C   0  0  0  0  0  0  0  0  0
   -9.5740   -3.3514    0.0000 C   0  0  0  0  0  0  0  0  0
   -9.5740   -2.5264    0.0000 C   0  0  0  0  0  0  0  0  0
  -10.2885   -2.1139    0.0000 Cl  0  0  0  0  0  0  0  0  0
  1  2  1  0  0  0  0
  2  3  4  0  0  0  0
  2 32  4  0  0  0  0
  3  4  1  0  0  0  0
  3 29  4  0  0  0  0
  4  5  1  0  0  0  0
  4  9  1  0  0  0  0
  5  6  1  0  0  0  0
  6  7  1  0  0  0  0
  7  8  1  0  0  0  0
  7 10  1  0  0  0  0
  8  9  1  0  0  0  0
 10 11  1  0  0  0  0
 11 12  1  0  0  0  0
 12 13  1  0  0  0  0
 13 14  2  0  0  0  0
 13 15  1  0  0  0  0
 15 16  4  0  0  0  0
 15 20  4  0  0  0  0
 16 17  4  0  0  0  0
 17 18  4  0  0  0  0
 17 21  1  0  0  0  0
 18 19  4  0  0  0  0
 19 20  4  0  0  0  0
 21 22  3  0  0  0  0
 22 23  1  0  0  0  0
 23 24  4  0  0  0  0
 23 28  4  0  0  0  0
 24 25  4  0  0  0  0
 25 26  4  0  0  0  0
 26 27  4  0  0  0  0
 27 28  4  0  0  0  0
 29 30  4  0  0  0  0
 30 31  4  0  0  0  0
 31 32  4  0  0  0  0
 32 33  1  0  0  0  0
M  END
>  <Name_Molregno>
405254

>  <DOPAMINE D2>
5.89

>  <DOPAMINE D3>
7.17

$$$$
405255
  Marvin  02231216192D 0   1.00000     0.00000     0

 29 31  0  0  0  0  0  0  0  0999 V2000
   -8.4136   -0.1990    0.0000 O   0  0  0  0  0  0  0  0  0
   -9.1281   -0.6115    0.0000 C   0  0  0  0  0  0  0  0  0
   -8.4136    0.6260    0.0000 C   0  0  0  0  0  0  0  0  0
   -9.1281    1.0385    0.0000 C   0  0  0  0  0  0  0  0  0
   -9.1281    1.8635    0.0000 C   0  0  0  0  0  0  0  0  0
   -8.4136    2.2760    0.0000 C   0  0  0  0  0  0  0  0  0
   -7.6991    1.8635    0.0000 C   0  0  0  0  0  0  0  0  0
   -7.6991    1.0385    0.0000 C   0  0  0  0  0  0  0  0  0
   -6.9847    0.6260    0.0000 N   0  0  0  0  0  0  0  0  0
   -6.2702    1.0385    0.0000 C   0  0  0  0  0  0  0  0  0
   -5.5557    0.6260    0.0000 C   0  0  0  0  0  0  0  0  0
   -5.5557   -0.1990    0.0000 N   0  0  0  0  0  0  0  0  0
   -6.2702   -0.6115    0.0000 C   0  0  0  0  0  0  0  0  0
   -6.9847   -0.1990    0.0000 C   0  0  0  0  0  0  0  0  0
   -4.8413   -0.6115    0.0000 C   0  0  0  0  0  0  0  0  0
   -4.1268   -0.1990    0.0000 C   0  0  0  0  0  0  0  0  0
   -3.4123   -0.6115    0.0000 C   0  0  0  0  0  0  0  0  0
   -2.6978   -0.1990    0.0000 C   0  0  0  0  0  0  0  0  0
   -1.9834   -0.6115    0.0000 N   0  0  0  0  0  0  0  0  0
   -1.2689   -0.1990    0.0000 C   0  0  0  0  0  0  0  0  0
   -1.2689    0.6260    0.0000 O   0  0  0  0  0  0  0  0  0
   -0.5544   -0.6115    0.0000 C   0  0  0  0  0  0  0  0  0
    0.1600   -0.1990    0.0000 C   0  0  0  0  0  0  0  0  0
    0.8745   -0.6115    0.0000 C   0  0  0  0  0  0  0  0  0
    0.8745   -1.4365    0.0000 C   0  0  0  0  0  0  0  0  0
    0.1600   -1.8490    0.0000 C   0  0  0  0  0  0  0  0  0
   -0.5544   -1.4365    0.0000 C   0  0  0  0  0  0  0  0  0
    1.5890   -1.8490    0.0000 C   0  0  0  0  0  0  0  0  0
    2.3035   -2.2615    0.0000 C   0  0  0  0  0  0  0  0  0
  1  2  1  0  0  0  0
  1  3  1  0  0  0  0
  3  4  4  0  0  0  0
  3  8  4  0  0  0  0
  4  5  4  0  0  0  0
  5  6  4  0  0  0  0
  6  7  4  0  0  0  0
  7  8  4  0  0  0  0
  8  9  1  0  0  0  0
  9 10  1  0  0  0  0
  9 14  1  0  0  0  0
 10 11  1  0  0  0  0
 11 12  1  0  0  0  0
 12 13  1  0  0  0  0
 12 15  1  0  0  0  0
 13 14  1  0  0  0  0
 15 16  1  0  0  0  0
 16 17  1  0  0  0  0
 17 18  1  0  0  0  0
 18 19  1  0  0  0  0
 19 20  1  0  0  0  0
 20 21  2  0  0  0  0
 20 22  1  0  0  0  0
 22 23  4  0  0  0  0
 22 27  4  0  0  0  0
 23 24  4  0  0  0  0
 24 25  4  0  0  0  0
 25 26  4  0  0  0  0
 25 28  1  0  0  0  0
 26 27  4  0  0  0  0
 28 29  3  0  0  0  0
M  END
>  <Name_Molregno>
405255

>  <DOPAMINE D2>
6.7

>  <DOPAMINE D3>
9

$$$$
405256
  Marvin  02231216192D 0   1.00000     0.00000     0

 35 38  0  0  0  0  0  0  0  0999 V2000
  -11.0790   -0.0229    0.0000 O   0  0  0  0  0  0  0  0  0
  -11.7935   -0.4354    0.0000 C   0  0  0  0  0  0  0  0  0
  -11.0790    0.8021    0.0000 C   0  0  0  0  0  0  0  0  0
  -11.7935    1.2146    0.0000 C   0  0  0  0  0  0  0  0  0
  -11.7935    2.0396    0.0000 C   0  0  0  0  0  0  0  0  0
  -11.0790    2.4521    0.0000 C   0  0  0  0  0  0  0  0  0
  -10.3645    2.0396    0.0000 C   0  0  0  0  0  0  0  0  0
  -10.3645    1.2146    0.0000 C   0  0  0  0  0  0  0  0  0
   -9.6501    0.8021    0.0000 N   0  0  0  0  0  0  0  0  0
   -8.9356    1.2146    0.0000 C   0  0  0  0  0  0  0  0  0
   -8.2211    0.8021    0.0000 C   0  0  0  0  0  0  0  0  0
   -8.2211   -0.0229    0.0000 N   0  0  0  0  0  0  0  0  0
   -8.9356   -0.4354    0.0000 C   0  0  0  0  0  0  0  0  0
   -9.6501   -0.0229    0.0000 C   0  0  0  0  0  0  0  0  0
   -7.5066   -0.4354    0.0000 C   0  0  0  0  0  0  0  0  0
   -6.7922   -0.0229    0.0000 C   0  0  0  0  0  0  0  0  0
   -6.0777   -0.4354    0.0000 C   0  0  0  0  0  0  0  0  0
   -5.3632   -0.0229    0.0000 C   0  0  0  0  0  0  0  0  0
   -4.6488   -0.4354    0.0000 N   0  0  0  0  0  0  0  0  0
   -3.9343   -0.0229    0.0000 C   0  0  0  0  0  0  0  0  0
   -3.9343    0.8021    0.0000 O   0  0  0  0  0  0  0  0  0
   -3.2198   -0.4354    0.0000 C   0  0  0  0  0  0  0  0  0
   -2.5053   -0.0229    0.0000 C   0  0  0  0  0  0  0  0  0
   -1.7909   -0.4354    0.0000 C   0  0  0  0  0  0  0  0  0
   -1.7909   -1.2604    0.0000 C   0  0  0  0  0  0  0  0  0
   -2.5053   -1.6729    0.0000 C   0  0  0  0  0  0  0  0  0
   -3.2198   -1.2604    0.0000 C   0  0  0  0  0  0  0  0  0
   -1.0764   -1.6729    0.0000 C   0  0  0  0  0  0  0  0  0
   -0.3619   -2.0854    0.0000 C   0  0  0  0  0  0  0  0  0
    0.3525   -2.4979    0.0000 C   0  0  0  0  0  0  0  0  0
    1.0670   -2.0854    0.0000 C   0  0  0  0  0  0  0  0  0
    1.7815   -2.4979    0.0000 C   0  0  0  0  0  0  0  0  0
    1.7815   -3.3229    0.0000 C   0  0  0  0  0  0  0  0  0
    1.0670   -3.7354    0.0000 C   0  0  0  0  0  0  0  0  0
    0.3525   -3.3229    0.0000 C   0  0  0  0  0  0  0  0  0
  1  2  1  0  0  0  0
  1  3  1  0  0  0  0
  3  4  4  0  0  0  0
  3  8  4  0  0  0  0
  4  5  4  0  0  0  0
  5  6  4  0  0  0  0
  6  7  4  0  0  0  0
  7  8  4  0  0  0  0
  8  9  1  0  0  0  0
  9 10  1  0  0  0  0
  9 14  1  0  0  0  0
 10 11  1  0  0  0  0
 11 12  1  0  0  0  0
 12 13  1  0  0  0  0
 12 15  1  0  0  0  0
 13 14  1  0  0  0  0
 15 16  1  0  0  0  0
 16 17  1  0  0  0  0
 17 18  1  0  0  0  0
 18 19  1  0  0  0  0
 19 20  1  0  0  0  0
 20 21  2  0  0  0  0
 20 22  1  0  0  0  0
 22 23  4  0  0  0  0
 22 27  4  0  0  0  0
 23 24  4  0  0  0  0
 24 25  4  0  0  0  0
 25 26  4  0  0  0  0
 25 28  1  0  0  0  0
 26 27  4  0  0  0  0
 28 29  3  0  0  0  0
 29 30  1  0  0  0  0
 30 31  4  0  0  0  0
 30 35  4  0  0  0  0
 31 32  4  0  0  0  0
 32 33  4  0  0  0  0
 33 34  4  0  0  0  0
 34 35  4  0  0  0  0
M  END
>  <Name_Molregno>
405256

>  <DOPAMINE D2>
6.28

>  <DOPAMINE D3>
8

$$$$
405257
  Marvin  02231216192D 0   1.00000     0.00000     0

 29 31  0  0  0  0  0  0  0  0999 V2000
   -8.4119   -0.5056    0.0000 O   0  0  0  0  0  0  0  0  0
   -9.1264   -0.9181    0.0000 C   0  0  0  0  0  0  0  0  0
   -8.4119    0.3194    0.0000 C   0  0  0  0  0  0  0  0  0
   -9.1264    0.7319    0.0000 C   0  0  0  0  0  0  0  0  0
   -9.1264    1.5569    0.0000 C   0  0  0  0  0  0  0  0  0
   -8.4119    1.9694    0.0000 C   0  0  0  0  0  0  0  0  0
   -7.6975    1.5569    0.0000 C   0  0  0  0  0  0  0  0  0
   -7.6975    0.7319    0.0000 C   0  0  0  0  0  0  0  0  0
   -6.9830    0.3194    0.0000 N   0  0  0  0  0  0  0  0  0
   -6.2685    0.7319    0.0000 C   0  0  0  0  0  0  0  0  0
   -5.5541    0.3194    0.0000 C   0  0  0  0  0  0  0  0  0
   -5.5541   -0.5056    0.0000 N   0  0  0  0  0  0  0  0  0
   -6.2685   -0.9181    0.0000 C   0  0  0  0  0  0  0  0  0
   -6.9830   -0.5056    0.0000 C   0  0  0  0  0  0  0  0  0
   -4.8396   -0.9181    0.0000 C   0  0  0  0  0  0  0  0  0
   -4.1251   -0.5056    0.0000 C   0  0  0  0  0  0  0  0  0
   -3.4106   -0.9181    0.0000 C   0  0  0  0  0  0  0  0  0
   -2.6962   -0.5056    0.0000 C   0  0  0  0  0  0  0  0  0
   -1.9817   -0.9181    0.0000 N   0  0  0  0  0  0  0  0  0
   -1.2672   -0.5056    0.0000 C   0  0  0  0  0  0  0  0  0
   -1.2672    0.3194    0.0000 O   0  0  0  0  0  0  0  0  0
   -0.5528   -0.9181    0.0000 C   0  0  0  0  0  0  0  0  0
    0.1617   -0.5056    0.0000 C   0  0  0  0  0  0  0  0  0
    0.8762   -0.9181    0.0000 C   0  0  0  0  0  0  0  0  0
    0.8762   -1.7431    0.0000 C   0  0  0  0  0  0  0  0  0
    0.1617   -2.1556    0.0000 C   0  0  0  0  0  0  0  0  0
   -0.5528   -1.7431    0.0000 C   0  0  0  0  0  0  0  0  0
    1.5907   -0.5056    0.0000 C   0  0  0  0  0  0  0  0  0
    2.3051   -0.0931    0.0000 C   0  0  0  0  0  0  0  0  0
  1  2  1  0  0  0  0
  1  3  1  0  0  0  0
  3  4  4  0  0  0  0
  3  8  4  0  0  0  0
  4  5  4  0  0  0  0
  5  6  4  0  0  0  0
  6  7  4  0  0  0  0
  7  8  4  0  0  0  0
  8  9  1  0  0  0  0
  9 10  1  0  0  0  0
  9 14  1  0  0  0  0
 10 11  1  0  0  0  0
 11 12  1  0  0  0  0
 12 13  1  0  0  0  0
 12 15  1  0  0  0  0
 13 14  1  0  0  0  0
 15 16  1  0  0  0  0
 16 17  1  0  0  0  0
 17 18  1  0  0  0  0
 18 19  1  0  0  0  0
 19 20  1  0  0  0  0
 20 21  2  0  0  0  0
 20 22  1  0  0  0  0
 22 23  4  0  0  0  0
 22 27  4  0  0  0  0
 23 24  4  0  0  0  0
 24 25  4  0  0  0  0
 24 28  1  0  0  0  0
 25 26  4  0  0  0  0
 26 27  4  0  0  0  0
 28 29  3  0  0  0  0
M  END
>  <Name_Molregno>
405257

>  <DOPAMINE D2>
6.98

>  <DOPAMINE D3>
8.21

$$$$
405258
  Marvin  02231216192D 0   1.00000     0.00000     0

 35 38  0  0  0  0  0  0  0  0999 V2000
  -11.0816   -0.0101    0.0000 O   0  0  0  0  0  0  0  0  0
  -11.7960   -0.4226    0.0000 C   0  0  0  0  0  0  0  0  0
  -11.0816    0.8149    0.0000 C   0  0  0  0  0  0  0  0  0
  -11.7960    1.2274    0.0000 C   0  0  0  0  0  0  0  0  0
  -11.7960    2.0524    0.0000 C   0  0  0  0  0  0  0  0  0
  -11.0816    2.4649    0.0000 C   0  0  0  0  0  0  0  0  0
  -10.3671    2.0524    0.0000 C   0  0  0  0  0  0  0  0  0
  -10.3671    1.2274    0.0000 C   0  0  0  0  0  0  0  0  0
   -9.6526    0.8149    0.0000 N   0  0  0  0  0  0  0  0  0
   -8.9381    1.2274    0.0000 C   0  0  0  0  0  0  0  0  0
   -8.2237    0.8149    0.0000 C   0  0  0  0  0  0  0  0  0
   -8.2237   -0.0101    0.0000 N   0  0  0  0  0  0  0  0  0
   -8.9381   -0.4226    0.0000 C   0  0  0  0  0  0  0  0  0
   -9.6526   -0.0101    0.0000 C   0  0  0  0  0  0  0  0  0
   -7.5092   -0.4226    0.0000 C   0  0  0  0  0  0  0  0  0
   -6.7947   -0.0101    0.0000 C   0  0  0  0  0  0  0  0  0
   -6.0803   -0.4226    0.0000 C   0  0  0  0  0  0  0  0  0
   -5.3658   -0.0101    0.0000 C   0  0  0  0  0  0  0  0  0
   -4.6513   -0.4226    0.0000 N   0  0  0  0  0  0  0  0  0
   -3.9368   -0.0101    0.0000 C   0  0  0  0  0  0  0  0  0
   -3.9368    0.8149    0.0000 O   0  0  0  0  0  0  0  0  0
   -3.2224   -0.4226    0.0000 C   0  0  0  0  0  0  0  0  0
   -2.5079   -0.0101    0.0000 C   0  0  0  0  0  0  0  0  0
   -1.7934   -0.4226    0.0000 C   0  0  0  0  0  0  0  0  0
   -1.7934   -1.2476    0.0000 C   0  0  0  0  0  0  0  0  0
   -2.5079   -1.6601    0.0000 C   0  0  0  0  0  0  0  0  0
   -3.2224   -1.2476    0.0000 C   0  0  0  0  0  0  0  0  0
   -1.0790   -0.0101    0.0000 C   0  0  0  0  0  0  0  0  0
   -0.3645    0.4024    0.0000 C   0  0  0  0  0  0  0  0  0
    0.3500    0.8149    0.0000 C   0  0  0  0  0  0  0  0  0
    0.3500    1.6399    0.0000 C   0  0  0  0  0  0  0  0  0
    1.0645    2.0524    0.0000 C   0  0  0  0  0  0  0  0  0
    1.7789    1.6399    0.0000 C   0  0  0  0  0  0  0  0  0
    1.7789    0.8149    0.0000 C   0  0  0  0  0  0  0  0  0
    1.0645    0.4024    0.0000 C   0  0  0  0  0  0  0  0  0
  1  2  1  0  0  0  0
  1  3  1  0  0  0  0
  3  4  4  0  0  0  0
  3  8  4  0  0  0  0
  4  5  4  0  0  0  0
  5  6  4  0  0  0  0
  6  7  4  0  0  0  0
  7  8  4  0  0  0  0
  8  9  1  0  0  0  0
  9 10  1  0  0  0  0
  9 14  1  0  0  0  0
 10 11  1  0  0  0  0
 11 12  1  0  0  0  0
 12 13  1  0  0  0  0
 12 15  1  0  0  0  0
 13 14  1  0  0  0  0
 15 16  1  0  0  0  0
 16 17  1  0  0  0  0
 17 18  1  0  0  0  0
 18 19  1  0  0  0  0
 19 20  1  0  0  0  0
 20 21  2  0  0  0  0
 20 22  1  0  0  0  0
 22 23  4  0  0  0  0
 22 27  4  0  0  0  0
 23 24  4  0  0  0  0
 24 25  4  0  0  0  0
 24 28  1  0  0  0  0
 25 26  4  0  0  0  0
 26 27  4  0  0  0  0
 28 29  3  0  0  0  0
 29 30  1  0  0  0  0
 30 31  4  0  0  0  0
 30 35  4  0  0  0  0
 31 32  4  0  0  0  0
 32 33  4  0  0  0  0
 33 34  4  0  0  0  0
 34 35  4  0  0  0  0
M  END
>  <Name_Molregno>
405258

>  <DOPAMINE D2>
6.24

>  <DOPAMINE D3>
7.66

$$$$
405260
  Marvin  02231216192D 0   1.00000     0.00000     0

 29 31  0  0  0  0  0  0  0  0999 V2000
   -8.3658    0.0299    0.0000 Cl  0  0  0  0  0  0  0  0  0
   -8.3658   -0.7951    0.0000 C   0  0  0  0  0  0  0  0  0
   -7.6513   -1.2076    0.0000 C   0  0  0  0  0  0  0  0  0
   -6.9369   -0.7951    0.0000 N   0  0  0  0  0  0  0  0  0
   -6.9369    0.0299    0.0000 C   0  0  0  0  0  0  0  0  0
   -6.2224    0.4424    0.0000 C   0  0  0  0  0  0  0  0  0
   -5.5079    0.0299    0.0000 N   0  0  0  0  0  0  0  0  0
   -5.5079   -0.7951    0.0000 C   0  0  0  0  0  0  0  0  0
   -6.2224   -1.2076    0.0000 C   0  0  0  0  0  0  0  0  0
   -4.7934    0.4424    0.0000 C   0  0  0  0  0  0  0  0  0
   -4.0790    0.0299    0.0000 C   0  0  0  0  0  0  0  0  0
   -3.3645    0.4424    0.0000 C   0  0  0  0  0  0  0  0  0
   -2.6500    0.0299    0.0000 C   0  0  0  0  0  0  0  0  0
   -1.9356    0.4424    0.0000 N   0  0  0  0  0  0  0  0  0
   -1.2211    0.0299    0.0000 C   0  0  0  0  0  0  0  0  0
   -1.2211   -0.7951    0.0000 O   0  0  0  0  0  0  0  0  0
   -0.5066    0.4424    0.0000 C   0  0  0  0  0  0  0  0  0
   -0.5066    1.2674    0.0000 C   0  0  0  0  0  0  0  0  0
    0.2078    1.6799    0.0000 C   0  0  0  0  0  0  0  0  0
    0.9223    1.2674    0.0000 C   0  0  0  0  0  0  0  0  0
    0.9223    0.4424    0.0000 C   0  0  0  0  0  0  0  0  0
    0.2078    0.0299    0.0000 C   0  0  0  0  0  0  0  0  0
    1.6368    1.6799    0.0000 C   0  0  0  0  0  0  0  0  0
    2.3513    2.0924    0.0000 C   0  0  0  0  0  0  0  0  0
   -7.6513   -2.0326    0.0000 C   0  0  0  0  0  0  0  0  0
   -8.3658   -2.4451    0.0000 C   0  0  0  0  0  0  0  0  0
   -9.0803   -2.0326    0.0000 C   0  0  0  0  0  0  0  0  0
   -9.0803   -1.2076    0.0000 C   0  0  0  0  0  0  0  0  0
   -9.7947   -0.7951    0.0000 Cl  0  0  0  0  0  0  0  0  0
  1  2  1  0  0  0  0
  2  3  4  0  0  0  0
  2 28  4  0  0  0  0
  3  4  1  0  0  0  0
  3 25  4  0  0  0  0
  4  5  1  0  0  0  0
  4  9  1  0  0  0  0
  5  6  1  0  0  0  0
  6  7  1  0  0  0  0
  7  8  1  0  0  0  0
  7 10  1  0  0  0  0
  8  9  1  0  0  0  0
 10 11  1  0  0  0  0
 11 12  1  0  0  0  0
 12 13  1  0  0  0  0
 13 14  1  0  0  0  0
 14 15  1  0  0  0  0
 15 16  2  0  0  0  0
 15 17  1  0  0  0  0
 17 18  4  0  0  0  0
 17 22  4  0  0  0  0
 18 19  4  0  0  0  0
 19 20  4  0  0  0  0
 20 21  4  0  0  0  0
 20 23  1  0  0  0  0
 21 22  4  0  0  0  0
 23 24  3  0  0  0  0
 25 26  4  0  0  0  0
 26 27  4  0  0  0  0
 27 28  4  0  0  0  0
 28 29  1  0  0  0  0
M  END
>  <Name_Molregno>
405260

>  <DOPAMINE D2>
7.7

>  <DOPAMINE D3>
9.51

$$$$
405261
  Marvin  02231216192D 0   1.00000     0.00000     0

 35 38  0  0  0  0  0  0  0  0999 V2000
  -11.0415   -0.0124    0.0000 Cl  0  0  0  0  0  0  0  0  0
  -11.0415   -0.8374    0.0000 C   0  0  0  0  0  0  0  0  0
  -10.3270   -1.2499    0.0000 C   0  0  0  0  0  0  0  0  0
   -9.6125   -0.8374    0.0000 N   0  0  0  0  0  0  0  0  0
   -9.6125   -0.0124    0.0000 C   0  0  0  0  0  0  0  0  0
   -8.8980    0.4001    0.0000 C   0  0  0  0  0  0  0  0  0
   -8.1836   -0.0124    0.0000 N   0  0  0  0  0  0  0  0  0
   -8.1836   -0.8374    0.0000 C   0  0  0  0  0  0  0  0  0
   -8.8980   -1.2499    0.0000 C   0  0  0  0  0  0  0  0  0
   -7.4691    0.4001    0.0000 C   0  0  0  0  0  0  0  0  0
   -6.7546   -0.0124    0.0000 C   0  0  0  0  0  0  0  0  0
   -6.0402    0.4001    0.0000 C   0  0  0  0  0  0  0  0  0
   -5.3257   -0.0124    0.0000 C   0  0  0  0  0  0  0  0  0
   -4.6112    0.4001    0.0000 N   0  0  0  0  0  0  0  0  0
   -3.8967   -0.0124    0.0000 C   0  0  0  0  0  0  0  0  0
   -3.8967   -0.8374    0.0000 O   0  0  0  0  0  0  0  0  0
   -3.1823    0.4001    0.0000 C   0  0  0  0  0  0  0  0  0
   -3.1823    1.2251    0.0000 C   0  0  0  0  0  0  0  0  0
   -2.4678    1.6376    0.0000 C   0  0  0  0  0  0  0  0  0
   -1.7533    1.2251    0.0000 C   0  0  0  0  0  0  0  0  0
   -1.7533    0.4001    0.0000 C   0  0  0  0  0  0  0  0  0
   -2.4678   -0.0124    0.0000 C   0  0  0  0  0  0  0  0  0
   -1.0389    1.6376    0.0000 C   0  0  0  0  0  0  0  0  0
   -0.3244    2.0501    0.0000 C   0  0  0  0  0  0  0  0  0
    0.3901    2.4626    0.0000 C   0  0  0  0  0  0  0  0  0
    0.3901    3.2876    0.0000 C   0  0  0  0  0  0  0  0  0
    1.1046    3.7001    0.0000 C   0  0  0  0  0  0  0  0  0
    1.8190    3.2876    0.0000 C   0  0  0  0  0  0  0  0  0
    1.8190    2.4626    0.0000 C   0  0  0  0  0  0  0  0  0
    1.1046    2.0501    0.0000 C   0  0  0  0  0  0  0  0  0
  -10.3270   -2.0749    0.0000 C   0  0  0  0  0  0  0  0  0
  -11.0415   -2.4874    0.0000 C   0  0  0  0  0  0  0  0  0
  -11.7559   -2.0749    0.0000 C   0  0  0  0  0  0  0  0  0
  -11.7559   -1.2499    0.0000 C   0  0  0  0  0  0  0  0  0
  -12.4704   -0.8374    0.0000 Cl  0  0  0  0  0  0  0  0  0
  1  2  1  0  0  0  0
  2  3  4  0  0  0  0
  2 34  4  0  0  0  0
  3  4  1  0  0  0  0
  3 31  4  0  0  0  0
  4  5  1  0  0  0  0
  4  9  1  0  0  0  0
  5  6  1  0  0  0  0
  6  7  1  0  0  0  0
  7  8  1  0  0  0  0
  7 10  1  0  0  0  0
  8  9  1  0  0  0  0
 10 11  1  0  0  0  0
 11 12  1  0  0  0  0
 12 13  1  0  0  0  0
 13 14  1  0  0  0  0
 14 15  1  0  0  0  0
 15 16  2  0  0  0  0
 15 17  1  0  0  0  0
 17 18  4  0  0  0  0
 17 22  4  0  0  0  0
 18 19  4  0  0  0  0
 19 20  4  0  0  0  0
 20 21  4  0  0  0  0
 20 23  1  0  0  0  0
 21 22  4  0  0  0  0
 23 24  3  0  0  0  0
 24 25  1  0  0  0  0
 25 26  4  0  0  0  0
 25 30  4  0  0  0  0
 26 27  4  0  0  0  0
 27 28  4  0  0  0  0
 28 29  4  0  0  0  0
 29 30  4  0  0  0  0
 31 32  4  0  0  0  0
 32 33  4  0  0  0  0
 33 34  4  0  0  0  0
 34 35  1  0  0  0  0
M  END
>  <Name_Molregno>
405261

>  <DOPAMINE D2>
6.1

>  <DOPAMINE D3>
8.49

$$$$
405263
  Marvin  02231216192D 0   1.00000     0.00000     0

 29 31  0  0  0  0  0  0  0  0999 V2000
   -8.2413   -0.2131    0.0000 Cl  0  0  0  0  0  0  0  0  0
   -8.2413   -1.0381    0.0000 C   0  0  0  0  0  0  0  0  0
   -7.5269   -1.4506    0.0000 C   0  0  0  0  0  0  0  0  0
   -6.8124   -1.0381    0.0000 N   0  0  0  0  0  0  0  0  0
   -6.8124   -0.2131    0.0000 C   0  0  0  0  0  0  0  0  0
   -6.0979    0.1994    0.0000 C   0  0  0  0  0  0  0  0  0
   -5.3835   -0.2131    0.0000 N   0  0  0  0  0  0  0  0  0
   -5.3835   -1.0381    0.0000 C   0  0  0  0  0  0  0  0  0
   -6.0979   -1.4506    0.0000 C   0  0  0  0  0  0  0  0  0
   -4.6690    0.1994    0.0000 C   0  0  0  0  0  0  0  0  0
   -3.9545   -0.2131    0.0000 C   0  0  0  0  0  0  0  0  0
   -3.2400    0.1994    0.0000 C   0  0  0  0  0  0  0  0  0
   -2.5256   -0.2131    0.0000 C   0  0  0  0  0  0  0  0  0
   -1.8111    0.1994    0.0000 N   0  0  0  0  0  0  0  0  0
   -1.0966   -0.2131    0.0000 C   0  0  0  0  0  0  0  0  0
   -1.0966   -1.0381    0.0000 O   0  0  0  0  0  0  0  0  0
   -0.3822    0.1994    0.0000 C   0  0  0  0  0  0  0  0  0
   -0.3822    1.0244    0.0000 C   0  0  0  0  0  0  0  0  0
    0.3323    1.4369    0.0000 C   0  0  0  0  0  0  0  0  0
    1.0468    1.0244    0.0000 C   0  0  0  0  0  0  0  0  0
    1.0468    0.1994    0.0000 C   0  0  0  0  0  0  0  0  0
    0.3323   -0.2131    0.0000 C   0  0  0  0  0  0  0  0  0
    0.3323    2.2619    0.0000 C   0  0  0  0  0  0  0  0  0
    0.3323    3.0869    0.0000 C   0  0  0  0  0  0  0  0  0
   -7.5269   -2.2756    0.0000 C   0  0  0  0  0  0  0  0  0
   -8.2413   -2.6881    0.0000 C   0  0  0  0  0  0  0  0  0
   -8.9558   -2.2756    0.0000 C   0  0  0  0  0  0  0  0  0
   -8.9558   -1.4506    0.0000 C   0  0  0  0  0  0  0  0  0
   -9.6703   -1.0381    0.0000 Cl  0  0  0  0  0  0  0  0  0
  1  2  1  0  0  0  0
  2  3  4  0  0  0  0
  2 28  4  0  0  0  0
  3  4  1  0  0  0  0
  3 25  4  0  0  0  0
  4  5  1  0  0  0  0
  4  9  1  0  0  0  0
  5  6  1  0  0  0  0
  6  7  1  0  0  0  0
  7  8  1  0  0  0  0
  7 10  1  0  0  0  0
  8  9  1  0  0  0  0
 10 11  1  0  0  0  0
 11 12  1  0  0  0  0
 12 13  1  0  0  0  0
 13 14  1  0  0  0  0
 14 15  1  0  0  0  0
 15 16  2  0  0  0  0
 15 17  1  0  0  0  0
 17 18  4  0  0  0  0
 17 22  4  0  0  0  0
 18 19  4  0  0  0  0
 19 20  4  0  0  0  0
 19 23  1  0  0  0  0
 20 21  4  0  0  0  0
 21 22  4  0  0  0  0
 23 24  3  0  0  0  0
 25 26  4  0  0  0  0
 26 27  4  0  0  0  0
 27 28  4  0  0  0  0
 28 29  1  0  0  0  0
M  END
>  <Name_Molregno>
405263

>  <DOPAMINE D2>
7.72

>  <DOPAMINE D3>
9.08

$$$$
405265
  Marvin  02231216192D 0   1.00000     0.00000     0

 35 38  0  0  0  0  0  0  0  0999 V2000
  -10.3294   -1.1928    0.0000 Cl  0  0  0  0  0  0  0  0  0
  -10.3294   -2.0178    0.0000 C   0  0  0  0  0  0  0  0  0
   -9.6149   -2.4303    0.0000 C   0  0  0  0  0  0  0  0  0
   -8.9004   -2.0178    0.0000 N   0  0  0  0  0  0  0  0  0
   -8.9004   -1.1928    0.0000 C   0  0  0  0  0  0  0  0  0
   -8.1860   -0.7803    0.0000 C   0  0  0  0  0  0  0  0  0
   -7.4715   -1.1928    0.0000 N   0  0  0  0  0  0  0  0  0
   -7.4715   -2.0178    0.0000 C   0  0  0  0  0  0  0  0  0
   -8.1860   -2.4303    0.0000 C   0  0  0  0  0  0  0  0  0
   -6.7570   -0.7803    0.0000 C   0  0  0  0  0  0  0  0  0
   -6.0426   -1.1928    0.0000 C   0  0  0  0  0  0  0  0  0
   -5.3281   -0.7803    0.0000 C   0  0  0  0  0  0  0  0  0
   -4.6136   -1.1928    0.0000 C   0  0  0  0  0  0  0  0  0
   -3.8991   -0.7803    0.0000 N   0  0  0  0  0  0  0  0  0
   -3.1847   -1.1928    0.0000 C   0  0  0  0  0  0  0  0  0
   -3.1847   -2.0178    0.0000 O   0  0  0  0  0  0  0  0  0
   -2.4702   -0.7803    0.0000 C   0  0  0  0  0  0  0  0  0
   -2.4702    0.0447    0.0000 C   0  0  0  0  0  0  0  0  0
   -1.7557    0.4572    0.0000 C   0  0  0  0  0  0  0  0  0
   -1.0413    0.0447    0.0000 C   0  0  0  0  0  0  0  0  0
   -1.0413   -0.7803    0.0000 C   0  0  0  0  0  0  0  0  0
   -1.7557   -1.1928    0.0000 C   0  0  0  0  0  0  0  0  0
   -1.7557    1.2822    0.0000 C   0  0  0  0  0  0  0  0  0
   -1.7557    2.1072    0.0000 C   0  0  0  0  0  0  0  0  0
   -1.7557    2.9322    0.0000 C   0  0  0  0  0  0  0  0  0
   -2.4702    3.3447    0.0000 C   0  0  0  0  0  0  0  0  0
   -2.4702    4.1697    0.0000 C   0  0  0  0  0  0  0  0  0
   -1.7557    4.5822    0.0000 C   0  0  0  0  0  0  0  0  0
   -1.0413    4.1697    0.0000 C   0  0  0  0  0  0  0  0  0
   -1.0413    3.3447    0.0000 C   0  0  0  0  0  0  0  0  0
   -9.6149   -3.2553    0.0000 C   0  0  0  0  0  0  0  0  0
  -10.3294   -3.6678    0.0000 C   0  0  0  0  0  0  0  0  0
  -11.0439   -3.2553    0.0000 C   0  0  0  0  0  0  0  0  0
  -11.0439   -2.4303    0.0000 C   0  0  0  0  0  0  0  0  0
  -11.7583   -2.0178    0.0000 Cl  0  0  0  0  0  0  0  0  0
  1  2  1  0  0  0  0
  2  3  4  0  0  0  0
  2 34  4  0  0  0  0
  3  4  1  0  0  0  0
  3 31  4  0  0  0  0
  4  5  1  0  0  0  0
  4  9  1  0  0  0  0
  5  6  1  0  0  0  0
  6  7  1  0  0  0  0
  7  8  1  0  0  0  0
  7 10  1  0  0  0  0
  8  9  1  0  0  0  0
 10 11  1  0  0  0  0
 11 12  1  0  0  0  0
 12 13  1  0  0  0  0
 13 14  1  0  0  0  0
 14 15  1  0  0  0  0
 15 16  2  0  0  0  0
 15 17  1  0  0  0  0
 17 18  4  0  0  0  0
 17 22  4  0  0  0  0
 18 19  4  0  0  0  0
 19 20  4  0  0  0  0
 19 23  1  0  0  0  0
 20 21  4  0  0  0  0
 21 22  4  0  0  0  0
 23 24  3  0  0  0  0
 24 25  1  0  0  0  0
 25 26  4  0  0  0  0
 25 30  4  0  0  0  0
 26 27  4  0  0  0  0
 27 28  4  0  0  0  0
 28 29  4  0  0  0  0
 29 30  4  0  0  0  0
 31 32  4  0  0  0  0
 32 33  4  0  0  0  0
 33 34  4  0  0  0  0
 34 35  1  0  0  0  0
M  END
>  <Name_Molregno>
405265

>  <DOPAMINE D2>
6.65

>  <DOPAMINE D3>
8.12

$$$$
405272
  Marvin  02231216192D 0   1.00000     0.00000     0

 36 39  0  0  0  0  0  0  0  0999 V2000
  -10.4626   -2.3151    0.0000 O   0  0  0  0  0  0  0  0  0
  -10.4626   -3.1401    0.0000 C   0  0  0  0  0  0  0  0  0
  -11.1771   -1.9026    0.0000 C   0  0  0  0  0  0  0  0  0
  -11.8916   -2.3151    0.0000 C   0  0  0  0  0  0  0  0  0
  -12.6060   -1.9026    0.0000 C   0  0  0  0  0  0  0  0  0
  -12.6060   -1.0776    0.0000 C   0  0  0  0  0  0  0  0  0
  -11.8916   -0.6651    0.0000 C   0  0  0  0  0  0  0  0  0
  -11.1771   -1.0776    0.0000 C   0  0  0  0  0  0  0  0  0
  -10.4626   -0.6651    0.0000 N   0  0  0  0  0  0  0  0  0
  -10.4626    0.1599    0.0000 C   0  0  0  0  0  0  0  0  0
   -9.7482    0.5724    0.0000 C   0  0  0  0  0  0  0  0  0
   -9.0337    0.1599    0.0000 N   0  0  0  0  0  0  0  0  0
   -9.0337   -0.6651    0.0000 C   0  0  0  0  0  0  0  0  0
   -9.7482   -1.0776    0.0000 C   0  0  0  0  0  0  0  0  0
   -8.3192    0.5724    0.0000 C   0  0  0  0  0  0  0  0  0
   -7.6047    0.1599    0.0000 C   0  0  0  0  0  0  0  0  0
   -6.8903    0.5724    0.0000 C   0  0  0  0  0  0  0  0  0
   -6.1758    0.1599    0.0000 C   0  0  0  0  0  0  0  0  0
   -5.4613    0.5724    0.0000 C   0  0  0  0  0  0  0  0  0
   -4.7469    0.1599    0.0000 N   0  0  0  0  0  0  0  0  0
   -4.0324    0.5724    0.0000 C   0  0  0  0  0  0  0  0  0
   -4.0324    1.3974    0.0000 O   0  0  0  0  0  0  0  0  0
   -3.3179    0.1599    0.0000 C   0  0  0  0  0  0  0  0  0
   -2.6035    0.5724    0.0000 C   0  0  0  0  0  0  0  0  0
   -1.8890    0.1599    0.0000 C   0  0  0  0  0  0  0  0  0
   -1.8890   -0.6651    0.0000 C   0  0  0  0  0  0  0  0  0
   -2.6035   -1.0776    0.0000 C   0  0  0  0  0  0  0  0  0
   -3.3179   -0.6651    0.0000 C   0  0  0  0  0  0  0  0  0
   -1.1745    0.5724    0.0000 C   0  0  0  0  0  0  0  0  0
   -0.4600    0.9849    0.0000 C   0  0  0  0  0  0  0  0  0
    0.2544    1.3974    0.0000 C   0  0  0  0  0  0  0  0  0
    0.2544    2.2224    0.0000 C   0  0  0  0  0  0  0  0  0
    0.9689    2.6349    0.0000 C   0  0  0  0  0  0  0  0  0
    1.6834    2.2224    0.0000 C   0  0  0  0  0  0  0  0  0
    1.6834    1.3974    0.0000 C   0  0  0  0  0  0  0  0  0
    0.9689    0.9849    0.0000 C   0  0  0  0  0  0  0  0  0
  1  2  1  0  0  0  0
  1  3  1  0  0  0  0
  3  4  4  0  0  0  0
  3  8  4  0  0  0  0
  4  5  4  0  0  0  0
  5  6  4  0  0  0  0
  6  7  4  0  0  0  0
  7  8  4  0  0  0  0
  8  9  1  0  0  0  0
  9 10  1  0  0  0  0
  9 14  1  0  0  0  0
 10 11  1  0  0  0  0
 11 12  1  0  0  0  0
 12 13  1  0  0  0  0
 12 15  1  0  0  0  0
 13 14  1  0  0  0  0
 15 16  1  0  0  0  0
 16 17  1  0  0  0  0
 17 18  1  0  0  0  0
 18 19  1  0  0  0  0
 19 20  1  0  0  0  0
 20 21  1  0  0  0  0
 21 22  2  0  0  0  0
 21 23  1  0  0  0  0
 23 24  4  0  0  0  0
 23 28  4  0  0  0  0
 24 25  4  0  0  0  0
 25 26  4  0  0  0  0
 25 29  1  0  0  0  0
 26 27  4  0  0  0  0
 27 28  4  0  0  0  0
 29 30  3  0  0  0  0
 30 31  1  0  0  0  0
 31 32  4  0  0  0  0
 31 36  4  0  0  0  0
 32 33  4  0  0  0  0
 33 34  4  0  0  0  0
 34 35  4  0  0  0  0
 35 36  4  0  0  0  0
M  END
>  <Name_Molregno>
405272

>  <DOPAMINE D2>
7.54

>  <DOPAMINE D3>
7.43

$$$$
405274
  Marvin  02231216192D 0   1.00000     0.00000     0

 30 32  0  0  0  0  0  0  0  0999 V2000
   -9.0267    0.0158    0.0000 Cl  0  0  0  0  0  0  0  0  0
   -9.0267   -0.8092    0.0000 C   0  0  0  0  0  0  0  0  0
   -8.3122   -1.2217    0.0000 C   0  0  0  0  0  0  0  0  0
   -7.5978   -0.8092    0.0000 N   0  0  0  0  0  0  0  0  0
   -7.5978    0.0158    0.0000 C   0  0  0  0  0  0  0  0  0
   -6.8833    0.4283    0.0000 C   0  0  0  0  0  0  0  0  0
   -6.1688    0.0158    0.0000 N   0  0  0  0  0  0  0  0  0
   -6.1688   -0.8092    0.0000 C   0  0  0  0  0  0  0  0  0
   -6.8833   -1.2217    0.0000 C   0  0  0  0  0  0  0  0  0
   -5.4543    0.4283    0.0000 C   0  0  0  0  0  0  0  0  0
   -4.7399    0.0158    0.0000 C   0  0  0  0  0  0  0  0  0
   -4.0254    0.4283    0.0000 C   0  0  0  0  0  0  0  0  0
   -3.3109    0.0158    0.0000 C   0  0  0  0  0  0  0  0  0
   -2.5965    0.4283    0.0000 C   0  0  0  0  0  0  0  0  0
   -1.8820    0.0158    0.0000 N   0  0  0  0  0  0  0  0  0
   -1.1675    0.4283    0.0000 C   0  0  0  0  0  0  0  0  0
   -1.1675    1.2533    0.0000 O   0  0  0  0  0  0  0  0  0
   -0.4531    0.0158    0.0000 C   0  0  0  0  0  0  0  0  0
    0.2614    0.4283    0.0000 C   0  0  0  0  0  0  0  0  0
    0.9759    0.0158    0.0000 C   0  0  0  0  0  0  0  0  0
    0.9759   -0.8092    0.0000 C   0  0  0  0  0  0  0  0  0
    0.2614   -1.2217    0.0000 C   0  0  0  0  0  0  0  0  0
   -0.4531   -0.8092    0.0000 C   0  0  0  0  0  0  0  0  0
    1.6904   -1.2217    0.0000 C   0  0  0  0  0  0  0  0  0
    2.4048   -1.6342    0.0000 C   0  0  0  0  0  0  0  0  0
   -8.3122   -2.0467    0.0000 C   0  0  0  0  0  0  0  0  0
   -9.0267   -2.4592    0.0000 C   0  0  0  0  0  0  0  0  0
   -9.7412   -2.0467    0.0000 C   0  0  0  0  0  0  0  0  0
   -9.7412   -1.2217    0.0000 C   0  0  0  0  0  0  0  0  0
  -10.4556   -0.8092    0.0000 Cl  0  0  0  0  0  0  0  0  0
  1  2  1  0  0  0  0
  2  3  4  0  0  0  0
  2 29  4  0  0  0  0
  3  4  1  0  0  0  0
  3 26  4  0  0  0  0
  4  5  1  0  0  0  0
  4  9  1  0  0  0  0
  5  6  1  0  0  0  0
  6  7  1  0  0  0  0
  7  8  1  0  0  0  0
  7 10  1  0  0  0  0
  8  9  1  0  0  0  0
 10 11  1  0  0  0  0
 11 12  1  0  0  0  0
 12 13  1  0  0  0  0
 13 14  1  0  0  0  0
 14 15  1  0  0  0  0
 15 16  1  0  0  0  0
 16 17  2  0  0  0  0
 16 18  1  0  0  0  0
 18 19  4  0  0  0  0
 18 23  4  0  0  0  0
 19 20  4  0  0  0  0
 20 21  4  0  0  0  0
 21 22  4  0  0  0  0
 21 24  1  0  0  0  0
 22 23  4  0  0  0  0
 24 25  3  0  0  0  0
 26 27  4  0  0  0  0
 27 28  4  0  0  0  0
 28 29  4  0  0  0  0
 29 30  1  0  0  0  0
M  END
>  <Name_Molregno>
405274

>  <DOPAMINE D2>
7.8

>  <DOPAMINE D3>
8.82

$$$$
405277
  Marvin  02231216192D 0   1.00000     0.00000     0

 30 32  0  0  0  0  0  0  0  0999 V2000
   -0.1206   -0.0112    0.0000 Cl  0  0  0  0  0  0  0  0  0
   -0.1206   -0.8362    0.0000 C   0  0  0  0  0  0  0  0  0
    0.5939   -1.2487    0.0000 C   0  0  0  0  0  0  0  0  0
    1.3083   -0.8362    0.0000 N   0  0  0  0  0  0  0  0  0
    1.3083   -0.0112    0.0000 C   0  0  0  0  0  0  0  0  0
    2.0228    0.4013    0.0000 C   0  0  0  0  0  0  0  0  0
    2.7373   -0.0112    0.0000 N   0  0  0  0  0  0  0  0  0
    2.7373   -0.8362    0.0000 C   0  0  0  0  0  0  0  0  0
    2.0228   -1.2487    0.0000 C   0  0  0  0  0  0  0  0  0
    3.4518    0.4013    0.0000 C   0  0  0  0  0  0  0  0  0
    4.1662   -0.0112    0.0000 C   0  0  0  0  0  0  0  0  0
    4.8807    0.4013    0.0000 C   0  0  0  0  0  0  0  0  0
    5.5952   -0.0112    0.0000 C   0  0  0  0  0  0  0  0  0
    6.3096    0.4013    0.0000 C   0  0  0  0  0  0  0  0  0
    7.0241   -0.0112    0.0000 N   0  0  0  0  0  0  0  0  0
    7.7386    0.4013    0.0000 C   0  0  0  0  0  0  0  0  0
    7.7386    1.2263    0.0000 O   0  0  0  0  0  0  0  0  0
    8.4531   -0.0112    0.0000 C   0  0  0  0  0  0  0  0  0
    9.1675    0.4013    0.0000 C   0  0  0  0  0  0  0  0  0
    9.8820   -0.0112    0.0000 C   0  0  0  0  0  0  0  0  0
    9.8820   -0.8362    0.0000 C   0  0  0  0  0  0  0  0  0
    9.1675   -1.2487    0.0000 C   0  0  0  0  0  0  0  0  0
    8.4531   -0.8362    0.0000 C   0  0  0  0  0  0  0  0  0
   10.5965    0.4013    0.0000 C   0  0  0  0  0  0  0  0  0
   11.3109    0.8138    0.0000 C   0  0  0  0  0  0  0  0  0
    0.5939   -2.0737    0.0000 C   0  0  0  0  0  0  0  0  0
   -0.1206   -2.4862    0.0000 C   0  0  0  0  0  0  0  0  0
   -0.8351   -2.0737    0.0000 C   0  0  0  0  0  0  0  0  0
   -0.8351   -1.2487    0.0000 C   0  0  0  0  0  0  0  0  0
   -1.5495   -0.8362    0.0000 Cl  0  0  0  0  0  0  0  0  0
  1  2  1  0  0  0  0
  2  3  4  0  0  0  0
  2 29  4  0  0  0  0
  3  4  1  0  0  0  0
  3 26  4  0  0  0  0
  4  5  1  0  0  0  0
  4  9  1  0  0  0  0
  5  6  1  0  0  0  0
  6  7  1  0  0  0  0
  7  8  1  0  0  0  0
  7 10  1  0  0  0  0
  8  9  1  0  0  0  0
 10 11  1  0  0  0  0
 11 12  1  0  0  0  0
 12 13  1  0  0  0  0
 13 14  1  0  0  0  0
 14 15  1  0  0  0  0
 15 16  1  0  0  0  0
 16 17  2  0  0  0  0
 16 18  1  0  0  0  0
 18 19  4  0  0  0  0
 18 23  4  0  0  0  0
 19 20  4  0  0  0  0
 20 21  4  0  0  0  0
 20 24  1  0  0  0  0
 21 22  4  0  0  0  0
 22 23  4  0  0  0  0
 24 25  3  0  0  0  0
 26 27  4  0  0  0  0
 27 28  4  0  0  0  0
 28 29  4  0  0  0  0
 29 30  1  0  0  0  0
M  END
>  <Name_Molregno>
405277

>  <DOPAMINE D2>
7.46

>  <DOPAMINE D3>
8.25

$$$$
405471
  Marvin  02231216192D 0   1.00000     0.00000     0

 34 38  0  0  0  0  0  0  0  0999 V2000
    7.1419    1.9192    0.0000 O   0  0  0  0  0  0  0  0  0
    7.3969    1.1345    0.0000 C   0  0  0  0  0  0  0  0  0
    6.9119    0.4671    0.0000 N   0  0  0  0  0  0  0  0  0
    6.0869    0.4671    0.0000 C   0  0  0  0  0  0  0  0  0
    5.6744   -0.2474    0.0000 C   0  0  0  0  0  0  0  0  0
    4.8494   -0.2474    0.0000 C   0  0  0  0  0  0  0  0  0
    4.4369   -0.9618    0.0000 C   0  0  0  0  0  0  0  0  0
    3.6119   -0.9618    0.0000 N   0  0  0  0  0  0  0  0  0
    3.1994   -1.6763    0.0000 C   0  0  0  0  0  0  0  0  0
    2.3744   -1.6763    0.0000 C   0  0  0  0  0  0  0  0  0
    1.9619   -0.9618    0.0000 N   0  0  0  0  0  0  0  0  0
    2.3744   -0.2474    0.0000 C   0  0  0  0  0  0  0  0  0
    3.1994   -0.2474    0.0000 C   0  0  0  0  0  0  0  0  0
    1.1369   -0.9618    0.0000 C   0  0  0  0  0  0  0  0  0
    0.7244   -0.2474    0.0000 C   0  0  0  0  0  0  0  0  0
   -0.1006   -0.2474    0.0000 C   0  0  0  0  0  0  0  0  0
   -0.5131    0.4671    0.0000 C   0  0  0  0  0  0  0  0  0
   -0.1006    1.1816    0.0000 C   0  0  0  0  0  0  0  0  0
    0.7244    1.1816    0.0000 C   0  0  0  0  0  0  0  0  0
    1.1369    0.4671    0.0000 C   0  0  0  0  0  0  0  0  0
    0.7244   -1.6763    0.0000 C   0  0  0  0  0  0  0  0  0
    1.1369   -2.3908    0.0000 C   0  0  0  0  0  0  0  0  0
    0.7244   -3.1053    0.0000 C   0  0  0  0  0  0  0  0  0
   -0.1006   -3.1053    0.0000 C   0  0  0  0  0  0  0  0  0
   -0.5131   -2.3908    0.0000 C   0  0  0  0  0  0  0  0  0
   -0.1006   -1.6763    0.0000 C   0  0  0  0  0  0  0  0  0
    7.3969   -0.2003    0.0000 C   0  0  0  0  0  0  0  0  0
    7.1419   -0.9850    0.0000 O   0  0  0  0  0  0  0  0  0
    8.1815    0.0546    0.0000 C   0  0  0  0  0  0  0  0  0
    8.1815    0.8796    0.0000 C   0  0  0  0  0  0  0  0  0
    8.8960    1.2921    0.0000 C   0  0  0  0  0  0  0  0  0
    9.6104    0.8796    0.0000 C   0  0  0  0  0  0  0  0  0
    9.6104    0.0546    0.0000 C   0  0  0  0  0  0  0  0  0
    8.8960   -0.3579    0.0000 C   0  0  0  0  0  0  0  0  0
  1  2  2  0  0  0  0
  2  3  1  0  0  0  0
  2 30  1  0  0  0  0
  3  4  1  0  0  0  0
  3 27  1  0  0  0  0
  4  5  1  0  0  0  0
  5  6  1  0  0  0  0
  6  7  1  0  0  0  0
  7  8  1  0  0  0  0
  8  9  1  0  0  0  0
  8 13  1  0  0  0  0
  9 10  1  0  0  0  0
 10 11  1  0  0  0  0
 11 12  1  0  0  0  0
 11 14  1  0  0  0  0
 12 13  1  0  0  0  0
 14 15  1  0  0  0  0
 14 21  1  0  0  0  0
 15 16  4  0  0  0  0
 15 20  4  0  0  0  0
 16 17  4  0  0  0  0
 17 18  4  0  0  0  0
 18 19  4  0  0  0  0
 19 20  4  0  0  0  0
 21 22  4  0  0  0  0
 21 26  4  0  0  0  0
 22 23  4  0  0  0  0
 23 24  4  0  0  0  0
 24 25  4  0  0  0  0
 25 26  4  0  0  0  0
 27 28  2  0  0  0  0
 27 29  1  0  0  0  0
 29 30  4  0  0  0  0
 29 34  4  0  0  0  0
 30 31  4  0  0  0  0
 31 32  4  0  0  0  0
 32 33  4  0  0  0  0
 33 34  4  0  0  0  0
M  END
>  <Name_Molregno>
405471

>  <DOPAMINE D2>
6.22

>  <DOPAMINE D3>
7.33

$$$$
405472
  Marvin  02231216192D 0   1.00000     0.00000     0

 35 39  0  0  1  0  0  0  0  0999 V2000
   -9.4863   -3.9918    0.0000 Cl  0  0  0  0  0  0  0  0  0
   -9.0738   -3.2773    0.0000 C   0  0  0  0  0  0  0  0  0
   -9.4863   -2.5628    0.0000 C   0  0  0  0  0  0  0  0  0
   -9.0738   -1.8484    0.0000 C   0  0  0  0  0  0  0  0  0
   -8.2488   -1.8484    0.0000 C   0  0  0  0  0  0  0  0  0
   -7.8363   -2.5628    0.0000 C   0  0  0  0  0  0  0  0  0
   -8.2488   -3.2773    0.0000 C   0  0  0  0  0  0  0  0  0
   -7.8363   -1.1339    0.0000 C   0  0  0  0  0  0  0  0  0
   -7.0113   -1.1339    0.0000 N   0  0  0  0  0  0  0  0  0
   -6.5988   -0.4194    0.0000 C   0  0  0  0  0  0  0  0  0
   -5.7738   -0.4194    0.0000 C   0  0  0  0  0  0  0  0  0
   -5.3613   -1.1339    0.0000 N   0  0  0  0  0  0  0  0  0
   -5.7738   -1.8484    0.0000 C   0  0  0  0  0  0  0  0  0
   -6.5988   -1.8484    0.0000 C   0  0  0  0  0  0  0  0  0
   -4.5363   -1.1339    0.0000 C   0  0  0  0  0  0  0  0  0
   -4.1238   -0.4194    0.0000 C   0  0  0  0  0  0  0  0  0
   -3.2988   -0.4194    0.0000 C   0  0  0  0  0  0  0  0  0
   -2.8863    0.2950    0.0000 C   0  0  0  0  0  0  0  0  0
   -2.0613    0.2950    0.0000 N   0  0  0  0  0  0  0  0  0
   -1.5764   -0.3724    0.0000 C   0  0  0  0  0  0  0  0  0
   -1.8313   -1.1570    0.0000 O   0  0  0  0  0  0  0  0  0
   -0.7917   -0.1175    0.0000 C   0  0  0  0  0  0  0  0  0
   -0.7917    0.7075    0.0000 C   0  0  0  0  0  0  0  0  0
   -0.0773    1.1200    0.0000 C   0  0  0  0  0  0  0  0  0
    0.6372    0.7075    0.0000 C   0  0  0  0  0  0  0  0  0
    0.6372   -0.1175    0.0000 C   0  0  0  0  0  0  0  0  0
   -0.0773   -0.5300    0.0000 C   0  0  0  0  0  0  0  0  0
   -1.5764    0.9625    0.0000 C   0  0  0  0  0  0  0  0  0
   -1.8313    1.7471    0.0000 O   0  0  0  0  0  0  0  0  0
   -8.2488   -0.4194    0.0000 C   0  0  0  0  0  0  0  0  0
   -9.0738   -0.4194    0.0000 C   0  0  0  0  0  0  0  0  0
   -9.4863    0.2950    0.0000 C   0  0  0  0  0  0  0  0  0
   -9.0738    1.0095    0.0000 C   0  0  0  0  0  0  0  0  0
   -8.2488    1.0095    0.0000 C   0  0  0  0  0  0  0  0  0
   -7.8363    0.2950    0.0000 C   0  0  0  0  0  0  0  0  0
  1  2  1  0  0  0  0
  2  3  4  0  0  0  0
  2  7  4  0  0  0  0
  3  4  4  0  0  0  0
  4  5  4  0  0  0  0
  5  6  4  0  0  0  0
  5  8  1  0  0  0  0
  6  7  4  0  0  0  0
  8  9  1  0  0  0  0
  8 30  1  0  0  0  0
  9 10  1  0  0  0  0
  9 14  1  0  0  0  0
 10 11  1  0  0  0  0
 11 12  1  0  0  0  0
 12 13  1  0  0  0  0
 12 15  1  0  0  0  0
 13 14  1  0  0  0  0
 15 16  1  0  0  0  0
 16 17  1  0  0  0  0
 17 18  1  0  0  0  0
 18 19  1  0  0  0  0
 19 20  1  0  0  0  0
 19 28  1  0  0  0  0
 20 21  2  0  0  0  0
 20 22  1  0  0  0  0
 22 23  4  0  0  0  0
 22 27  4  0  0  0  0
 23 24  4  0  0  0  0
 23 28  1  0  0  0  0
 24 25  4  0  0  0  0
 25 26  4  0  0  0  0
 26 27  4  0  0  0  0
 28 29  2  0  0  0  0
 30 31  4  0  0  0  0
 30 35  4  0  0  0  0
 31 32  4  0  0  0  0
 32 33  4  0  0  0  0
 33 34  4  0  0  0  0
 34 35  4  0  0  0  0
M  END
>  <Name_Molregno>
405472

>  <DOPAMINE D2>
6.25

>  <DOPAMINE D3>
7.55

$$$$
405473
  Marvin  02231216192D 0   1.00000     0.00000     0

 35 39  0  0  0  0  0  0  0  0999 V2000
   -0.8860    1.9151    0.0000 O   0  0  0  0  0  0  0  0  0
   -0.6311    1.1304    0.0000 C   0  0  0  0  0  0  0  0  0
   -1.1160    0.4630    0.0000 N   0  0  0  0  0  0  0  0  0
   -1.9410    0.4630    0.0000 C   0  0  0  0  0  0  0  0  0
   -2.3535   -0.2515    0.0000 C   0  0  0  0  0  0  0  0  0
   -3.1785   -0.2515    0.0000 C   0  0  0  0  0  0  0  0  0
   -3.5910   -0.9659    0.0000 C   0  0  0  0  0  0  0  0  0
   -4.4160   -0.9659    0.0000 N   0  0  0  0  0  0  0  0  0
   -4.7739   -1.7092    0.0000 C   0  0  0  0  0  0  0  0  0
   -5.5783   -1.8928    0.0000 C   0  0  0  0  0  0  0  0  0
   -6.2233   -1.3784    0.0000 C   0  0  0  0  0  0  0  0  0
   -6.2233   -0.5534    0.0000 N   0  0  0  0  0  0  0  0  0
   -5.5783   -0.0391    0.0000 C   0  0  0  0  0  0  0  0  0
   -4.7739   -0.2226    0.0000 C   0  0  0  0  0  0  0  0  0
   -6.9666   -0.1955    0.0000 C   0  0  0  0  0  0  0  0  0
   -7.6482   -0.6602    0.0000 C   0  0  0  0  0  0  0  0  0
   -7.5866   -1.4829    0.0000 C   0  0  0  0  0  0  0  0  0
   -8.2682   -1.9477    0.0000 C   0  0  0  0  0  0  0  0  0
   -9.0115   -1.5897    0.0000 C   0  0  0  0  0  0  0  0  0
   -9.0732   -0.7670    0.0000 C   0  0  0  0  0  0  0  0  0
   -8.3915   -0.3023    0.0000 C   0  0  0  0  0  0  0  0  0
   -7.0282    0.6272    0.0000 C   0  0  0  0  0  0  0  0  0
   -7.7715    0.9852    0.0000 C   0  0  0  0  0  0  0  0  0
   -7.8332    1.8079    0.0000 C   0  0  0  0  0  0  0  0  0
   -7.1515    2.2726    0.0000 C   0  0  0  0  0  0  0  0  0
   -6.4082    1.9146    0.0000 C   0  0  0  0  0  0  0  0  0
   -6.3466    1.0919    0.0000 C   0  0  0  0  0  0  0  0  0
   -0.6311   -0.2044    0.0000 C   0  0  0  0  0  0  0  0  0
   -0.8860   -0.9891    0.0000 O   0  0  0  0  0  0  0  0  0
    0.1536    0.0505    0.0000 C   0  0  0  0  0  0  0  0  0
    0.1536    0.8755    0.0000 C   0  0  0  0  0  0  0  0  0
    0.8680    1.2880    0.0000 C   0  0  0  0  0  0  0  0  0
    1.5825    0.8755    0.0000 C   0  0  0  0  0  0  0  0  0
    1.5825    0.0505    0.0000 C   0  0  0  0  0  0  0  0  0
    0.8680   -0.3620    0.0000 C   0  0  0  0  0  0  0  0  0
  1  2  2  0  0  0  0
  2  3  1  0  0  0  0
  2 31  1  0  0  0  0
  3  4  1  0  0  0  0
  3 28  1  0  0  0  0
  4  5  1  0  0  0  0
  5  6  1  0  0  0  0
  6  7  1  0  0  0  0
  7  8  1  0  0  0  0
  8  9  1  0  0  0  0
  8 14  1  0  0  0  0
  9 10  1  0  0  0  0
 10 11  1  0  0  0  0
 11 12  1  0  0  0  0
 12 13  1  0  0  0  0
 12 15  1  0  0  0  0
 13 14  1  0  0  0  0
 15 16  1  0  0  0  0
 15 22  1  0  0  0  0
 16 17  4  0  0  0  0
 16 21  4  0  0  0  0
 17 18  4  0  0  0  0
 18 19  4  0  0  0  0
 19 20  4  0  0  0  0
 20 21  4  0  0  0  0
 22 23  4  0  0  0  0
 22 27  4  0  0  0  0
 23 24  4  0  0  0  0
 24 25  4  0  0  0  0
 25 26  4  0  0  0  0
 26 27  4  0  0  0  0
 28 29  2  0  0  0  0
 28 30  1  0  0  0  0
 30 31  4  0  0  0  0
 30 35  4  0  0  0  0
 31 32  4  0  0  0  0
 32 33  4  0  0  0  0
 33 34  4  0  0  0  0
 34 35  4  0  0  0  0
M  END
>  <Name_Molregno>
405473

>  <DOPAMINE D2>
5.93

>  <DOPAMINE D3>
6.88

$$$$
405475
  Marvin  02231216192D 0   1.00000     0.00000     0

 36 40  0  0  1  0  0  0  0  0999 V2000
  -10.5941    0.4188    0.0000 Cl  0  0  0  0  0  0  0  0  0
   -9.9125   -0.0459    0.0000 C   0  0  0  0  0  0  0  0  0
   -9.1692    0.3120    0.0000 C   0  0  0  0  0  0  0  0  0
   -8.4875   -0.1527    0.0000 C   0  0  0  0  0  0  0  0  0
   -8.5492   -0.9754    0.0000 C   0  0  0  0  0  0  0  0  0
   -9.2925   -1.3334    0.0000 C   0  0  0  0  0  0  0  0  0
   -9.9741   -0.8686    0.0000 C   0  0  0  0  0  0  0  0  0
   -7.8675   -1.4401    0.0000 C   0  0  0  0  0  0  0  0  0
   -7.1242   -1.0822    0.0000 N   0  0  0  0  0  0  0  0  0
   -7.1242   -0.2572    0.0000 C   0  0  0  0  0  0  0  0  0
   -6.4792    0.2572    0.0000 C   0  0  0  0  0  0  0  0  0
   -5.6749    0.0736    0.0000 C   0  0  0  0  0  0  0  0  0
   -5.3169   -0.6697    0.0000 N   0  0  0  0  0  0  0  0  0
   -5.6749   -1.4130    0.0000 C   0  0  0  0  0  0  0  0  0
   -6.4792   -1.5966    0.0000 C   0  0  0  0  0  0  0  0  0
   -4.4919   -0.6697    0.0000 C   0  0  0  0  0  0  0  0  0
   -4.0794    0.0448    0.0000 C   0  0  0  0  0  0  0  0  0
   -3.2544    0.0448    0.0000 C   0  0  0  0  0  0  0  0  0
   -2.8419    0.7593    0.0000 C   0  0  0  0  0  0  0  0  0
   -2.0169    0.7593    0.0000 N   0  0  0  0  0  0  0  0  0
   -1.5320    0.0918    0.0000 C   0  0  0  0  0  0  0  0  0
   -1.7870   -0.6928    0.0000 O   0  0  0  0  0  0  0  0  0
   -0.7474    0.3468    0.0000 C   0  0  0  0  0  0  0  0  0
   -0.7474    1.1718    0.0000 C   0  0  0  0  0  0  0  0  0
   -0.0329    1.5843    0.0000 C   0  0  0  0  0  0  0  0  0
    0.6815    1.1718    0.0000 C   0  0  0  0  0  0  0  0  0
    0.6815    0.3468    0.0000 C   0  0  0  0  0  0  0  0  0
   -0.0329   -0.0657    0.0000 C   0  0  0  0  0  0  0  0  0
   -1.5320    1.4267    0.0000 C   0  0  0  0  0  0  0  0  0
   -1.7870    2.2113    0.0000 O   0  0  0  0  0  0  0  0  0
   -7.9292   -2.2628    0.0000 C   0  0  0  0  0  0  0  0  0
   -7.2475   -2.7276    0.0000 C   0  0  0  0  0  0  0  0  0
   -7.3092   -3.5503    0.0000 C   0  0  0  0  0  0  0  0  0
   -8.0525   -3.9082    0.0000 C   0  0  0  0  0  0  0  0  0
   -8.7341   -3.4435    0.0000 C   0  0  0  0  0  0  0  0  0
   -8.6725   -2.6208    0.0000 C   0  0  0  0  0  0  0  0  0
  1  2  1  0  0  0  0
  2  3  4  0  0  0  0
  2  7  4  0  0  0  0
  3  4  4  0  0  0  0
  4  5  4  0  0  0  0
  5  6  4  0  0  0  0
  5  8  1  0  0  0  0
  6  7  4  0  0  0  0
  8  9  1  0  0  0  0
  8 31  1  0  0  0  0
  9 10  1  0  0  0  0
  9 15  1  0  0  0  0
 10 11  1  0  0  0  0
 11 12  1  0  0  0  0
 12 13  1  0  0  0  0
 13 14  1  0  0  0  0
 13 16  1  0  0  0  0
 14 15  1  0  0  0  0
 16 17  1  0  0  0  0
 17 18  1  0  0  0  0
 18 19  1  0  0  0  0
 19 20  1  0  0  0  0
 20 21  1  0  0  0  0
 20 29  1  0  0  0  0
 21 22  2  0  0  0  0
 21 23  1  0  0  0  0
 23 24  4  0  0  0  0
 23 28  4  0  0  0  0
 24 25  4  0  0  0  0
 24 29  1  0  0  0  0
 25 26  4  0  0  0  0
 26 27  4  0  0  0  0
 27 28  4  0  0  0  0
 29 30  2  0  0  0  0
 31 32  4  0  0  0  0
 31 36  4  0  0  0  0
 32 33  4  0  0  0  0
 33 34  4  0  0  0  0
 34 35  4  0  0  0  0
 35 36  4  0  0  0  0
M  END
>  <Name_Molregno>
405475

>  <DOPAMINE D2>
6.65

>  <DOPAMINE D3>
7.37

$$$$
405477
  Marvin  02231216192D 0   1.00000     0.00000     0

 36 40  0  0  0  0  0  0  0  0999 V2000
   -0.0810    0.0071    0.0000 O   0  0  0  0  0  0  0  0  0
   -0.0810   -0.8179    0.0000 C   0  0  0  0  0  0  0  0  0
    0.6335   -1.2304    0.0000 N   0  0  0  0  0  0  0  0  0
    1.3480   -0.8179    0.0000 C   0  0  0  0  0  0  0  0  0
    2.0624   -1.2304    0.0000 C   0  0  0  0  0  0  0  0  0
    2.7769   -0.8179    0.0000 C   0  0  0  0  0  0  0  0  0
    3.4914   -1.2304    0.0000 C   0  0  0  0  0  0  0  0  0
    4.2058   -0.8179    0.0000 N   0  0  0  0  0  0  0  0  0
    4.2058    0.0071    0.0000 C   0  0  0  0  0  0  0  0  0
    4.9203    0.4196    0.0000 C   0  0  0  0  0  0  0  0  0
    5.6348    0.0071    0.0000 N   0  0  0  0  0  0  0  0  0
    5.6348   -0.8179    0.0000 C   0  0  0  0  0  0  0  0  0
    4.9203   -1.2304    0.0000 C   0  0  0  0  0  0  0  0  0
    6.3493    0.4196    0.0000 C   0  0  0  0  0  0  0  0  0
    7.0637    0.0071    0.0000 C   0  0  0  0  0  0  0  0  0
    7.7782    0.4196    0.0000 C   0  0  0  0  0  0  0  0  0
    8.4927    0.0071    0.0000 C   0  0  0  0  0  0  0  0  0
    8.4927   -0.8179    0.0000 C   0  0  0  0  0  0  0  0  0
    7.7782   -1.2304    0.0000 C   0  0  0  0  0  0  0  0  0
    7.0637   -0.8179    0.0000 C   0  0  0  0  0  0  0  0  0
    6.3493    1.2446    0.0000 C   0  0  0  0  0  0  0  0  0
    5.6348    1.6571    0.0000 C   0  0  0  0  0  0  0  0  0
    5.6348    2.4821    0.0000 C   0  0  0  0  0  0  0  0  0
    6.3493    2.8946    0.0000 C   0  0  0  0  0  0  0  0  0
    7.0637    2.4821    0.0000 C   0  0  0  0  0  0  0  0  0
    7.0637    1.6571    0.0000 C   0  0  0  0  0  0  0  0  0
   -0.7955   -1.2304    0.0000 C   0  0  0  0  0  0  0  0  0
   -1.5099   -0.8179    0.0000 C   0  0  0  0  0  0  0  0  0
   -2.2244   -1.2304    0.0000 C   0  0  0  0  0  0  0  0  0
   -2.2244   -2.0554    0.0000 C   0  0  0  0  0  0  0  0  0
   -1.5099   -2.4679    0.0000 C   0  0  0  0  0  0  0  0  0
   -0.7955   -2.0554    0.0000 C   0  0  0  0  0  0  0  0  0
   -2.9389   -2.4679    0.0000 C   0  0  0  0  0  0  0  0  0
   -3.6533   -2.0554    0.0000 C   0  0  0  0  0  0  0  0  0
   -3.6533   -1.2304    0.0000 C   0  0  0  0  0  0  0  0  0
   -2.9389   -0.8179    0.0000 C   0  0  0  0  0  0  0  0  0
  1  2  2  0  0  0  0
  2  3  1  0  0  0  0
  2 27  1  0  0  0  0
  3  4  1  0  0  0  0
  4  5  1  0  0  0  0
  5  6  1  0  0  0  0
  6  7  1  0  0  0  0
  7  8  1  0  0  0  0
  8  9  1  0  0  0  0
  8 13  1  0  0  0  0
  9 10  1  0  0  0  0
 10 11  1  0  0  0  0
 11 12  1  0  0  0  0
 11 14  1  0  0  0  0
 12 13  1  0  0  0  0
 14 15  1  0  0  0  0
 14 21  1  0  0  0  0
 15 16  4  0  0  0  0
 15 20  4  0  0  0  0
 16 17  4  0  0  0  0
 17 18  4  0  0  0  0
 18 19  4  0  0  0  0
 19 20  4  0  0  0  0
 21 22  4  0  0  0  0
 21 26  4  0  0  0  0
 22 23  4  0  0  0  0
 23 24  4  0  0  0  0
 24 25  4  0  0  0  0
 25 26  4  0  0  0  0
 27 28  4  0  0  0  0
 27 32  4  0  0  0  0
 28 29  4  0  0  0  0
 29 30  4  0  0  0  0
 29 36  4  0  0  0  0
 30 31  4  0  0  0  0
 30 33  4  0  0  0  0
 31 32  4  0  0  0  0
 33 34  4  0  0  0  0
 34 35  4  0  0  0  0
 35 36  4  0  0  0  0
M  END
>  <Name_Molregno>
405477

>  <DOPAMINE D2>
6.34

>  <DOPAMINE D3>
7.95

$$$$
405479
  Marvin  02231216192D 0   1.00000     0.00000     0

 34 37  0  0  0  0  0  0  0  0999 V2000
   -6.5950   -0.6060    0.0000 O   0  0  0  0  0  0  0  0  0
   -6.5950    0.2190    0.0000 C   0  0  0  0  0  0  0  0  0
   -5.8805    0.6315    0.0000 N   0  0  0  0  0  0  0  0  0
   -5.1660    0.2190    0.0000 C   0  0  0  0  0  0  0  0  0
   -4.4515    0.6315    0.0000 C   0  0  0  0  0  0  0  0  0
   -3.7371    0.2190    0.0000 C   0  0  0  0  0  0  0  0  0
   -3.0226    0.6315    0.0000 C   0  0  0  0  0  0  0  0  0
   -2.3081    0.2190    0.0000 N   0  0  0  0  0  0  0  0  0
   -1.5937    0.6315    0.0000 C   0  0  0  0  0  0  0  0  0
   -0.8792    0.2190    0.0000 C   0  0  0  0  0  0  0  0  0
   -0.8792   -0.6060    0.0000 N   0  0  0  0  0  0  0  0  0
   -1.5937   -1.0185    0.0000 C   0  0  0  0  0  0  0  0  0
   -2.3081   -0.6060    0.0000 C   0  0  0  0  0  0  0  0  0
   -0.1647   -1.0185    0.0000 C   0  0  0  0  0  0  0  0  0
   -0.1647   -1.8435    0.0000 C   0  0  0  0  0  0  0  0  0
    0.5498   -2.2560    0.0000 C   0  0  0  0  0  0  0  0  0
    0.5498   -3.0810    0.0000 C   0  0  0  0  0  0  0  0  0
   -0.1647   -3.4935    0.0000 C   0  0  0  0  0  0  0  0  0
   -0.8792   -3.0810    0.0000 C   0  0  0  0  0  0  0  0  0
   -0.8792   -2.2560    0.0000 C   0  0  0  0  0  0  0  0  0
    0.5498   -0.6060    0.0000 C   0  0  0  0  0  0  0  0  0
    0.5498    0.2190    0.0000 C   0  0  0  0  0  0  0  0  0
    1.2642    0.6315    0.0000 C   0  0  0  0  0  0  0  0  0
    1.9787    0.2190    0.0000 C   0  0  0  0  0  0  0  0  0
    1.9787   -0.6060    0.0000 C   0  0  0  0  0  0  0  0  0
    1.2642   -1.0185    0.0000 C   0  0  0  0  0  0  0  0  0
   -7.3094    0.6315    0.0000 C   0  0  0  0  0  0  0  0  0
   -8.0239    0.2190    0.0000 C   0  0  0  0  0  0  0  0  0
   -8.7384    0.6315    0.0000 C   0  0  0  0  0  0  0  0  0
   -9.4528    0.2190    0.0000 C   0  0  0  0  0  0  0  0  0
  -10.1673    0.6315    0.0000 C   0  0  0  0  0  0  0  0  0
  -10.1673    1.4565    0.0000 C   0  0  0  0  0  0  0  0  0
   -9.4528    1.8690    0.0000 C   0  0  0  0  0  0  0  0  0
   -8.7384    1.4565    0.0000 C   0  0  0  0  0  0  0  0  0
  1  2  2  0  0  0  0
  2  3  1  0  0  0  0
  2 27  1  0  0  0  0
  3  4  1  0  0  0  0
  4  5  1  0  0  0  0
  5  6  1  0  0  0  0
  6  7  1  0  0  0  0
  7  8  1  0  0  0  0
  8  9  1  0  0  0  0
  8 13  1  0  0  0  0
  9 10  1  0  0  0  0
 10 11  1  0  0  0  0
 11 12  1  0  0  0  0
 11 14  1  0  0  0  0
 12 13  1  0  0  0  0
 14 15  1  0  0  0  0
 14 21  1  0  0  0  0
 15 16  4  0  0  0  0
 15 20  4  0  0  0  0
 16 17  4  0  0  0  0
 17 18  4  0  0  0  0
 18 19  4  0  0  0  0
 19 20  4  0  0  0  0
 21 22  4  0  0  0  0
 21 26  4  0  0  0  0
 22 23  4  0  0  0  0
 23 24  4  0  0  0  0
 24 25  4  0  0  0  0
 25 26  4  0  0  0  0
 27 28  2  0  0  0  0
 28 29  1  0  0  0  0
 29 30  4  0  0  0  0
 29 34  4  0  0  0  0
 30 31  4  0  0  0  0
 31 32  4  0  0  0  0
 32 33  4  0  0  0  0
 33 34  4  0  0  0  0
M  END
>  <Name_Molregno>
405479

>  <DOPAMINE D2>
6.19

>  <DOPAMINE D3>
8.21

$$$$
405480
  Marvin  02231216192D 0   1.00000     0.00000     0

 35 39  0  0  0  0  0  0  0  0999 V2000
    0.5456    1.1885    0.0000 S   0  0  0  0  0  0  0  0  0
   -0.2613    1.3600    0.0000 C   0  0  0  0  0  0  0  0  0
   -0.6738    0.6455    0.0000 C   0  0  0  0  0  0  0  0  0
   -0.1218    0.0324    0.0000 C   0  0  0  0  0  0  0  0  0
    0.6319    0.3680    0.0000 C   0  0  0  0  0  0  0  0  0
    1.3463   -0.0445    0.0000 C   0  0  0  0  0  0  0  0  0
    1.3463   -0.8695    0.0000 O   0  0  0  0  0  0  0  0  0
    2.0608    0.3680    0.0000 N   0  0  0  0  0  0  0  0  0
    2.7753   -0.0445    0.0000 C   0  0  0  0  0  0  0  0  0
    3.4897    0.3680    0.0000 C   0  0  0  0  0  0  0  0  0
    4.2042   -0.0445    0.0000 C   0  0  0  0  0  0  0  0  0
    4.9187    0.3680    0.0000 C   0  0  0  0  0  0  0  0  0
    5.6332   -0.0445    0.0000 N   0  0  0  0  0  0  0  0  0
    6.3476    0.3680    0.0000 C   0  0  0  0  0  0  0  0  0
    7.0621   -0.0445    0.0000 C   0  0  0  0  0  0  0  0  0
    7.0621   -0.8695    0.0000 N   0  0  0  0  0  0  0  0  0
    6.3476   -1.2820    0.0000 C   0  0  0  0  0  0  0  0  0
    5.6332   -0.8695    0.0000 C   0  0  0  0  0  0  0  0  0
    7.7766   -1.2820    0.0000 C   0  0  0  0  0  0  0  0  0
    7.7766   -2.1070    0.0000 C   0  0  0  0  0  0  0  0  0
    8.4910   -2.5195    0.0000 C   0  0  0  0  0  0  0  0  0
    8.4910   -3.3445    0.0000 C   0  0  0  0  0  0  0  0  0
    7.7766   -3.7570    0.0000 C   0  0  0  0  0  0  0  0  0
    7.0621   -3.3445    0.0000 C   0  0  0  0  0  0  0  0  0
    7.0621   -2.5195    0.0000 C   0  0  0  0  0  0  0  0  0
    8.4910   -0.8695    0.0000 C   0  0  0  0  0  0  0  0  0
    8.4910   -0.0445    0.0000 C   0  0  0  0  0  0  0  0  0
    9.2055    0.3680    0.0000 C   0  0  0  0  0  0  0  0  0
    9.9200   -0.0445    0.0000 C   0  0  0  0  0  0  0  0  0
    9.9200   -0.8695    0.0000 C   0  0  0  0  0  0  0  0  0
    9.2055   -1.2820    0.0000 C   0  0  0  0  0  0  0  0  0
   -1.4988    0.6455    0.0000 C   0  0  0  0  0  0  0  0  0
   -1.9113    1.3600    0.0000 C   0  0  0  0  0  0  0  0  0
   -1.4988    2.0745    0.0000 C   0  0  0  0  0  0  0  0  0
   -0.6738    2.0745    0.0000 C   0  0  0  0  0  0  0  0  0
  1  2  4  0  0  0  0
  1  5  4  0  0  0  0
  2  3  4  0  0  0  0
  2 35  4  0  0  0  0
  3  4  4  0  0  0  0
  3 32  4  0  0  0  0
  4  5  4  0  0  0  0
  5  6  1  0  0  0  0
  6  7  2  0  0  0  0
  6  8  1  0  0  0  0
  8  9  1  0  0  0  0
  9 10  1  0  0  0  0
 10 11  1  0  0  0  0
 11 12  1  0  0  0  0
 12 13  1  0  0  0  0
 13 14  1  0  0  0  0
 13 18  1  0  0  0  0
 14 15  1  0  0  0  0
 15 16  1  0  0  0  0
 16 17  1  0  0  0  0
 16 19  1  0  0  0  0
 17 18  1  0  0  0  0
 19 20  1  0  0  0  0
 19 26  1  0  0  0  0
 20 21  4  0  0  0  0
 20 25  4  0  0  0  0
 21 22  4  0  0  0  0
 22 23  4  0  0  0  0
 23 24  4  0  0  0  0
 24 25  4  0  0  0  0
 26 27  4  0  0  0  0
 26 31  4  0  0  0  0
 27 28  4  0  0  0  0
 28 29  4  0  0  0  0
 29 30  4  0  0  0  0
 30 31  4  0  0  0  0
 32 33  4  0  0  0  0
 33 34  4  0  0  0  0
 34 35  4  0  0  0  0
M  END
>  <Name_Molregno>
405480

>  <DOPAMINE D2>
6.23

>  <DOPAMINE D3>
7.52

$$$$
405481
  Marvin  02231216192D 0   1.00000     0.00000     0

 31 34  0  0  0  0  0  0  0  0999 V2000
   -0.5000    1.3203    0.0000 S   0  0  0  0  0  0  0  0  0
   -1.0520    1.9334    0.0000 C   0  0  0  0  0  0  0  0  0
   -0.6395    2.6478    0.0000 C   0  0  0  0  0  0  0  0  0
    0.1674    2.4763    0.0000 C   0  0  0  0  0  0  0  0  0
    0.2537    1.6558    0.0000 C   0  0  0  0  0  0  0  0  0
    0.9681    1.2433    0.0000 C   0  0  0  0  0  0  0  0  0
    0.9681    0.4183    0.0000 O   0  0  0  0  0  0  0  0  0
    1.6826    1.6558    0.0000 N   0  0  0  0  0  0  0  0  0
    2.3971    1.2433    0.0000 C   0  0  0  0  0  0  0  0  0
    3.1116    1.6558    0.0000 C   0  0  0  0  0  0  0  0  0
    3.8260    1.2433    0.0000 C   0  0  0  0  0  0  0  0  0
    4.5405    1.6558    0.0000 C   0  0  0  0  0  0  0  0  0
    5.2550    1.2433    0.0000 N   0  0  0  0  0  0  0  0  0
    5.9694    1.6558    0.0000 C   0  0  0  0  0  0  0  0  0
    6.6839    1.2433    0.0000 C   0  0  0  0  0  0  0  0  0
    6.6839    0.4183    0.0000 N   0  0  0  0  0  0  0  0  0
    5.9694    0.0058    0.0000 C   0  0  0  0  0  0  0  0  0
    5.2550    0.4183    0.0000 C   0  0  0  0  0  0  0  0  0
    7.3984    0.0058    0.0000 C   0  0  0  0  0  0  0  0  0
    8.1129    0.4183    0.0000 C   0  0  0  0  0  0  0  0  0
    8.1129    1.2433    0.0000 C   0  0  0  0  0  0  0  0  0
    8.8273    1.6558    0.0000 C   0  0  0  0  0  0  0  0  0
    9.5418    1.2433    0.0000 C   0  0  0  0  0  0  0  0  0
    9.5418    0.4183    0.0000 C   0  0  0  0  0  0  0  0  0
    8.8273    0.0058    0.0000 C   0  0  0  0  0  0  0  0  0
    7.3984   -0.8192    0.0000 C   0  0  0  0  0  0  0  0  0
    8.1129   -1.2317    0.0000 C   0  0  0  0  0  0  0  0  0
    8.1129   -2.0567    0.0000 C   0  0  0  0  0  0  0  0  0
    7.3984   -2.4692    0.0000 C   0  0  0  0  0  0  0  0  0
    6.6839   -2.0567    0.0000 C   0  0  0  0  0  0  0  0  0
    6.6839   -1.2317    0.0000 C   0  0  0  0  0  0  0  0  0
  1  2  4  0  0  0  0
  1  5  4  0  0  0  0
  2  3  4  0  0  0  0
  3  4  4  0  0  0  0
  4  5  4  0  0  0  0
  5  6  1  0  0  0  0
  6  7  2  0  0  0  0
  6  8  1  0  0  0  0
  8  9  1  0  0  0  0
  9 10  1  0  0  0  0
 10 11  1  0  0  0  0
 11 12  1  0  0  0  0
 12 13  1  0  0  0  0
 13 14  1  0  0  0  0
 13 18  1  0  0  0  0
 14 15  1  0  0  0  0
 15 16  1  0  0  0  0
 16 17  1  0  0  0  0
 16 19  1  0  0  0  0
 17 18  1  0  0  0  0
 19 20  1  0  0  0  0
 19 26  1  0  0  0  0
 20 21  4  0  0  0  0
 20 25  4  0  0  0  0
 21 22  4  0  0  0  0
 22 23  4  0  0  0  0
 23 24  4  0  0  0  0
 24 25  4  0  0  0  0
 26 27  4  0  0  0  0
 26 31  4  0  0  0  0
 27 28  4  0  0  0  0
 28 29  4  0  0  0  0
 29 30  4  0  0  0  0
 30 31  4  0  0  0  0
M  END
>  <Name_Molregno>
405481

>  <DOPAMINE D2>
6.21

>  <DOPAMINE D3>
7.55

$$$$
405482
  Marvin  02231216192D 0   1.00000     0.00000     0

 32 35  0  0  0  0  0  0  0  0999 V2000
   -7.6687   -0.5118    0.0000 O   0  0  0  0  0  0  0  0  0
   -7.6687    0.3132    0.0000 C   0  0  0  0  0  0  0  0  0
   -6.9543    0.7257    0.0000 N   0  0  0  0  0  0  0  0  0
   -6.2398    0.3132    0.0000 C   0  0  0  0  0  0  0  0  0
   -5.5253    0.7257    0.0000 C   0  0  0  0  0  0  0  0  0
   -4.8109    0.3132    0.0000 C   0  0  0  0  0  0  0  0  0
   -4.0964    0.7257    0.0000 C   0  0  0  0  0  0  0  0  0
   -3.3819    0.3132    0.0000 N   0  0  0  0  0  0  0  0  0
   -2.6674    0.7257    0.0000 C   0  0  0  0  0  0  0  0  0
   -1.9530    0.3132    0.0000 C   0  0  0  0  0  0  0  0  0
   -1.9530   -0.5118    0.0000 N   0  0  0  0  0  0  0  0  0
   -2.6674   -0.9243    0.0000 C   0  0  0  0  0  0  0  0  0
   -3.3819   -0.5118    0.0000 C   0  0  0  0  0  0  0  0  0
   -1.2385   -0.9243    0.0000 C   0  0  0  0  0  0  0  0  0
   -1.2385   -1.7493    0.0000 C   0  0  0  0  0  0  0  0  0
   -0.5240   -2.1618    0.0000 C   0  0  0  0  0  0  0  0  0
   -0.5240   -2.9868    0.0000 C   0  0  0  0  0  0  0  0  0
   -1.2385   -3.3993    0.0000 C   0  0  0  0  0  0  0  0  0
   -1.9530   -2.9868    0.0000 C   0  0  0  0  0  0  0  0  0
   -1.9530   -2.1618    0.0000 C   0  0  0  0  0  0  0  0  0
   -0.5240   -0.5118    0.0000 C   0  0  0  0  0  0  0  0  0
   -0.5240    0.3132    0.0000 C   0  0  0  0  0  0  0  0  0
    0.1904    0.7257    0.0000 C   0  0  0  0  0  0  0  0  0
    0.9049    0.3132    0.0000 C   0  0  0  0  0  0  0  0  0
    0.9049   -0.5118    0.0000 C   0  0  0  0  0  0  0  0  0
    0.1904   -0.9243    0.0000 C   0  0  0  0  0  0  0  0  0
   -8.3832    0.7257    0.0000 C   0  0  0  0  0  0  0  0  0
   -9.0977    0.3132    0.0000 C   0  0  0  0  0  0  0  0  0
   -9.8121    0.7257    0.0000 C   0  0  0  0  0  0  0  0  0
   -9.8121    1.5507    0.0000 C   0  0  0  0  0  0  0  0  0
   -9.0977    1.9632    0.0000 C   0  0  0  0  0  0  0  0  0
   -8.3832    1.5507    0.0000 C   0  0  0  0  0  0  0  0  0
  1  2  2  0  0  0  0
  2  3  1  0  0  0  0
  2 27  1  0  0  0  0
  3  4  1  0  0  0  0
  4  5  1  0  0  0  0
  5  6  1  0  0  0  0
  6  7  1  0  0  0  0
  7  8  1  0  0  0  0
  8  9  1  0  0  0  0
  8 13  1  0  0  0  0
  9 10  1  0  0  0  0
 10 11  1  0  0  0  0
 11 12  1  0  0  0  0
 11 14  1  0  0  0  0
 12 13  1  0  0  0  0
 14 15  1  0  0  0  0
 14 21  1  0  0  0  0
 15 16  4  0  0  0  0
 15 20  4  0  0  0  0
 16 17  4  0  0  0  0
 17 18  4  0  0  0  0
 18 19  4  0  0  0  0
 19 20  4  0  0  0  0
 21 22  4  0  0  0  0
 21 26  4  0  0  0  0
 22 23  4  0  0  0  0
 23 24  4  0  0  0  0
 24 25  4  0  0  0  0
 25 26  4  0  0  0  0
 27 28  1  0  0  0  0
 27 32  1  0  0  0  0
 28 29  1  0  0  0  0
 29 30  1  0  0  0  0
 30 31  1  0  0  0  0
 31 32  1  0  0  0  0
M  END
>  <Name_Molregno>
405482

>  <DOPAMINE D2>
6.36

>  <DOPAMINE D3>
7.52

$$$$
405483
  Marvin  02231216192D 0   1.00000     0.00000     0

 37 41  0  0  1  0  0  0  0  0999 V2000
    2.6266   -4.7770    0.0000 Cl  0  0  0  0  0  0  0  0  0
    2.6266   -3.9520    0.0000 C   0  0  0  0  0  0  0  0  0
    1.9121   -3.5395    0.0000 C   0  0  0  0  0  0  0  0  0
    1.9121   -2.7145    0.0000 C   0  0  0  0  0  0  0  0  0
    2.6266   -2.3020    0.0000 C   0  0  0  0  0  0  0  0  0
    3.3410   -2.7145    0.0000 C   0  0  0  0  0  0  0  0  0
    3.3410   -3.5395    0.0000 C   0  0  0  0  0  0  0  0  0
    2.6266   -1.4770    0.0000 C   0  0  0  0  0  0  0  0  0
    3.3410   -1.0645    0.0000 N   0  0  0  0  0  0  0  0  0
    3.3410   -0.2395    0.0000 C   0  0  0  0  0  0  0  0  0
    4.0555    0.1730    0.0000 C   0  0  0  0  0  0  0  0  0
    4.7700   -0.2395    0.0000 N   0  0  0  0  0  0  0  0  0
    4.7700   -1.0645    0.0000 C   0  0  0  0  0  0  0  0  0
    4.0555   -1.4770    0.0000 C   0  0  0  0  0  0  0  0  0
    5.4845    0.1730    0.0000 C   0  0  0  0  0  0  0  0  0
    6.1989   -0.2395    0.0000 C   0  0  0  0  0  0  0  0  0
    6.9134    0.1730    0.0000 C   0  0  0  0  0  0  0  0  0
    7.6279   -0.2395    0.0000 C   0  0  0  0  0  0  0  0  0
    8.3423    0.1730    0.0000 N   0  0  0  0  0  0  0  0  0
    9.0568   -0.2395    0.0000 C   0  0  0  0  0  0  0  0  0
    9.0568   -1.0645    0.0000 O   0  0  0  0  0  0  0  0  0
    9.7713    0.1730    0.0000 C   0  0  0  0  0  0  0  0  0
   10.4858   -0.2395    0.0000 C   0  0  0  0  0  0  0  0  0
   11.2002    0.1730    0.0000 C   0  0  0  0  0  0  0  0  0
   11.2002    0.9980    0.0000 C   0  0  0  0  0  0  0  0  0
   10.4858    1.4105    0.0000 C   0  0  0  0  0  0  0  0  0
    9.7713    0.9980    0.0000 C   0  0  0  0  0  0  0  0  0
   11.9147    1.4105    0.0000 C   0  0  0  0  0  0  0  0  0
   12.6292    0.9980    0.0000 C   0  0  0  0  0  0  0  0  0
   12.6292    0.1730    0.0000 C   0  0  0  0  0  0  0  0  0
   11.9147   -0.2395    0.0000 C   0  0  0  0  0  0  0  0  0
    1.9121   -1.0645    0.0000 C   0  0  0  0  0  0  0  0  0
    1.1976   -1.4770    0.0000 C   0  0  0  0  0  0  0  0  0
    0.4832   -1.0645    0.0000 C   0  0  0  0  0  0  0  0  0
    0.4832   -0.2395    0.0000 C   0  0  0  0  0  0  0  0  0
    1.1976    0.1730    0.0000 C   0  0  0  0  0  0  0  0  0
    1.9121   -0.2395    0.0000 C   0  0  0  0  0  0  0  0  0
  1  2  1  0  0  0  0
  2  3  4  0  0  0  0
  2  7  4  0  0  0  0
  3  4  4  0  0  0  0
  4  5  4  0  0  0  0
  5  6  4  0  0  0  0
  5  8  1  0  0  0  0
  6  7  4  0  0  0  0
  8  9  1  0  0  0  0
  8 32  1  0  0  0  0
  9 10  1  0  0  0  0
  9 14  1  0  0  0  0
 10 11  1  0  0  0  0
 11 12  1  0  0  0  0
 12 13  1  0  0  0  0
 12 15  1  0  0  0  0
 13 14  1  0  0  0  0
 15 16  1  0  0  0  0
 16 17  1  0  0  0  0
 17 18  1  0  0  0  0
 18 19  1  0  0  0  0
 19 20  1  0  0  0  0
 20 21  2  0  0  0  0
 20 22  1  0  0  0  0
 22 23  4  0  0  0  0
 22 27  4  0  0  0  0
 23 24  4  0  0  0  0
 24 25  4  0  0  0  0
 24 31  4  0  0  0  0
 25 26  4  0  0  0  0
 25 28  4  0  0  0  0
 26 27  4  0  0  0  0
 28 29  4  0  0  0  0
 29 30  4  0  0  0  0
 30 31  4  0  0  0  0
 32 33  4  0  0  0  0
 32 37  4  0  0  0  0
 33 34  4  0  0  0  0
 34 35  4  0  0  0  0
 35 36  4  0  0  0  0
 36 37  4  0  0  0  0
M  END
>  <Name_Molregno>
405483

>  <DOPAMINE D2>
6.23

>  <DOPAMINE D3>
8.55

$$$$
405484
  Marvin  02231216192D 0   1.00000     0.00000     0

 35 38  0  0  1  0  0  0  0  0999 V2000
   -0.1478   -1.7771    0.0000 Cl  0  0  0  0  0  0  0  0  0
    0.5666   -1.3646    0.0000 C   0  0  0  0  0  0  0  0  0
    0.5666   -0.5396    0.0000 C   0  0  0  0  0  0  0  0  0
    1.2811   -0.1271    0.0000 C   0  0  0  0  0  0  0  0  0
    1.9956   -0.5396    0.0000 C   0  0  0  0  0  0  0  0  0
    1.9956   -1.3646    0.0000 C   0  0  0  0  0  0  0  0  0
    1.2811   -1.7771    0.0000 C   0  0  0  0  0  0  0  0  0
    2.7100   -0.1271    0.0000 C   0  0  0  0  0  0  0  0  0
    3.4245   -0.5396    0.0000 N   0  0  0  0  0  0  0  0  0
    4.1390   -0.1271    0.0000 C   0  0  0  0  0  0  0  0  0
    4.8535   -0.5396    0.0000 C   0  0  0  0  0  0  0  0  0
    4.8535   -1.3646    0.0000 N   0  0  0  0  0  0  0  0  0
    4.1390   -1.7771    0.0000 C   0  0  0  0  0  0  0  0  0
    3.4245   -1.3646    0.0000 C   0  0  0  0  0  0  0  0  0
    5.5679   -1.7771    0.0000 C   0  0  0  0  0  0  0  0  0
    6.2824   -1.3646    0.0000 C   0  0  0  0  0  0  0  0  0
    6.9969   -1.7771    0.0000 C   0  0  0  0  0  0  0  0  0
    7.7113   -1.3646    0.0000 C   0  0  0  0  0  0  0  0  0
    8.4258   -1.7771    0.0000 N   0  0  0  0  0  0  0  0  0
    9.1403   -1.3646    0.0000 C   0  0  0  0  0  0  0  0  0
    9.1403   -0.5396    0.0000 O   0  0  0  0  0  0  0  0  0
    9.8547   -1.7771    0.0000 C   0  0  0  0  0  0  0  0  0
   10.5692   -1.3646    0.0000 C   0  0  0  0  0  0  0  0  0
   11.2837   -1.7771    0.0000 C   0  0  0  0  0  0  0  0  0
   11.9982   -1.3646    0.0000 C   0  0  0  0  0  0  0  0  0
   12.7126   -1.7771    0.0000 C   0  0  0  0  0  0  0  0  0
   12.7126   -2.6021    0.0000 C   0  0  0  0  0  0  0  0  0
   11.9982   -3.0146    0.0000 C   0  0  0  0  0  0  0  0  0
   11.2837   -2.6021    0.0000 C   0  0  0  0  0  0  0  0  0
    2.7100    0.6979    0.0000 C   0  0  0  0  0  0  0  0  0
    1.9956    1.1104    0.0000 C   0  0  0  0  0  0  0  0  0
    1.9956    1.9354    0.0000 C   0  0  0  0  0  0  0  0  0
    2.7100    2.3479    0.0000 C   0  0  0  0  0  0  0  0  0
    3.4245    1.9354    0.0000 C   0  0  0  0  0  0  0  0  0
    3.4245    1.1104    0.0000 C   0  0  0  0  0  0  0  0  0
  1  2  1  0  0  0  0
  2  3  4  0  0  0  0
  2  7  4  0  0  0  0
  3  4  4  0  0  0  0
  4  5  4  0  0  0  0
  5  6  4  0  0  0  0
  5  8  1  0  0  0  0
  6  7  4  0  0  0  0
  8  9  1  0  0  0  0
  8 30  1  0  0  0  0
  9 10  1  0  0  0  0
  9 14  1  0  0  0  0
 10 11  1  0  0  0  0
 11 12  1  0  0  0  0
 12 13  1  0  0  0  0
 12 15  1  0  0  0  0
 13 14  1  0  0  0  0
 15 16  1  0  0  0  0
 16 17  1  0  0  0  0
 17 18  1  0  0  0  0
 18 19  1  0  0  0  0
 19 20  1  0  0  0  0
 20 21  2  0  0  0  0
 20 22  1  0  0  0  0
 22 23  2  0  0  0  0
 23 24  1  0  0  0  0
 24 25  4  0  0  0  0
 24 29  4  0  0  0  0
 25 26  4  0  0  0  0
 26 27  4  0  0  0  0
 27 28  4  0  0  0  0
 28 29  4  0  0  0  0
 30 31  4  0  0  0  0
 30 35  4  0  0  0  0
 31 32  4  0  0  0  0
 32 33  4  0  0  0  0
 33 34  4  0  0  0  0
 34 35  4  0  0  0  0
M  END
>  <Name_Molregno>
405484

>  <DOPAMINE D2>
6.02

>  <DOPAMINE D3>
8.62

$$$$
405486
  Marvin  02231216192D 0   1.00000     0.00000     0

 36 40  0  0  1  0  0  0  0  0999 V2000
   -0.1499   -1.4906    0.0000 Cl  0  0  0  0  0  0  0  0  0
    0.5646   -1.0781    0.0000 C   0  0  0  0  0  0  0  0  0
    0.5646   -0.2531    0.0000 C   0  0  0  0  0  0  0  0  0
    1.2791    0.1594    0.0000 C   0  0  0  0  0  0  0  0  0
    1.9935   -0.2531    0.0000 C   0  0  0  0  0  0  0  0  0
    1.9935   -1.0781    0.0000 C   0  0  0  0  0  0  0  0  0
    1.2791   -1.4906    0.0000 C   0  0  0  0  0  0  0  0  0
    2.7080    0.1594    0.0000 C   0  0  0  0  0  0  0  0  0
    3.4225   -0.2531    0.0000 N   0  0  0  0  0  0  0  0  0
    4.1369    0.1594    0.0000 C   0  0  0  0  0  0  0  0  0
    4.8514   -0.2531    0.0000 C   0  0  0  0  0  0  0  0  0
    4.8514   -1.0781    0.0000 N   0  0  0  0  0  0  0  0  0
    4.1369   -1.4906    0.0000 C   0  0  0  0  0  0  0  0  0
    3.4225   -1.0781    0.0000 C   0  0  0  0  0  0  0  0  0
    5.5659   -1.4906    0.0000 C   0  0  0  0  0  0  0  0  0
    6.2803   -1.0781    0.0000 C   0  0  0  0  0  0  0  0  0
    6.9948   -1.4906    0.0000 C   0  0  0  0  0  0  0  0  0
    7.7093   -1.0781    0.0000 C   0  0  0  0  0  0  0  0  0
    8.4238   -1.4906    0.0000 N   0  0  0  0  0  0  0  0  0
    9.1382   -1.0781    0.0000 C   0  0  0  0  0  0  0  0  0
    9.1382   -0.2531    0.0000 O   0  0  0  0  0  0  0  0  0
    9.8527   -1.4906    0.0000 C   0  0  0  0  0  0  0  0  0
    9.9389   -2.3111    0.0000 S   0  0  0  0  0  0  0  0  0
   10.7459   -2.4826    0.0000 C   0  0  0  0  0  0  0  0  0
   11.1584   -1.7681    0.0000 C   0  0  0  0  0  0  0  0  0
   10.6064   -1.1550    0.0000 C   0  0  0  0  0  0  0  0  0
   11.9834   -1.7681    0.0000 C   0  0  0  0  0  0  0  0  0
   12.3959   -2.4826    0.0000 C   0  0  0  0  0  0  0  0  0
   11.9834   -3.1970    0.0000 C   0  0  0  0  0  0  0  0  0
   11.1584   -3.1970    0.0000 C   0  0  0  0  0  0  0  0  0
    2.7080    0.9844    0.0000 C   0  0  0  0  0  0  0  0  0
    1.9935    1.3969    0.0000 C   0  0  0  0  0  0  0  0  0
    1.9935    2.2219    0.0000 C   0  0  0  0  0  0  0  0  0
    2.7080    2.6344    0.0000 C   0  0  0  0  0  0  0  0  0
    3.4225    2.2219    0.0000 C   0  0  0  0  0  0  0  0  0
    3.4225    1.3969    0.0000 C   0  0  0  0  0  0  0  0  0
  1  2  1  0  0  0  0
  2  3  4  0  0  0  0
  2  7  4  0  0  0  0
  3  4  4  0  0  0  0
  4  5  4  0  0  0  0
  5  6  4  0  0  0  0
  5  8  1  0  0  0  0
  6  7  4  0  0  0  0
  8  9  1  0  0  0  0
  8 31  1  0  0  0  0
  9 10  1  0  0  0  0
  9 14  1  0  0  0  0
 10 11  1  0  0  0  0
 11 12  1  0  0  0  0
 12 13  1  0  0  0  0
 12 15  1  0  0  0  0
 13 14  1  0  0  0  0
 15 16  1  0  0  0  0
 16 17  1  0  0  0  0
 17 18  1  0  0  0  0
 18 19  1  0  0  0  0
 19 20  1  0  0  0  0
 20 21  2  0  0  0  0
 20 22  1  0  0  0  0
 22 23  4  0  0  0  0
 22 26  4  0  0  0  0
 23 24  4  0  0  0  0
 24 25  4  0  0  0  0
 24 30  4  0  0  0  0
 25 26  4  0  0  0  0
 25 27  4  0  0  0  0
 27 28  4  0  0  0  0
 28 29  4  0  0  0  0
 29 30  4  0  0  0  0
 31 32  4  0  0  0  0
 31 36  4  0  0  0  0
 32 33  4  0  0  0  0
 33 34  4  0  0  0  0
 34 35  4  0  0  0  0
 35 36  4  0  0  0  0
M  END
>  <Name_Molregno>
405486

>  <DOPAMINE D2>
6

>  <DOPAMINE D3>
7.75

$$$$
405488
  Marvin  02231216192D 0   1.00000     0.00000     0

 32 35  0  0  1  0  0  0  0  0999 V2000
   -0.1321   -1.9827    0.0000 Cl  0  0  0  0  0  0  0  0  0
    0.5824   -1.5702    0.0000 C   0  0  0  0  0  0  0  0  0
    0.5824   -0.7452    0.0000 C   0  0  0  0  0  0  0  0  0
    1.2969   -0.3327    0.0000 C   0  0  0  0  0  0  0  0  0
    2.0114   -0.7452    0.0000 C   0  0  0  0  0  0  0  0  0
    2.0114   -1.5702    0.0000 C   0  0  0  0  0  0  0  0  0
    1.2969   -1.9827    0.0000 C   0  0  0  0  0  0  0  0  0
    2.7258   -0.3327    0.0000 C   0  0  0  0  0  0  0  0  0
    3.4403   -0.7452    0.0000 N   0  0  0  0  0  0  0  0  0
    4.1548   -0.3327    0.0000 C   0  0  0  0  0  0  0  0  0
    4.8692   -0.7452    0.0000 C   0  0  0  0  0  0  0  0  0
    4.8692   -1.5702    0.0000 N   0  0  0  0  0  0  0  0  0
    4.1548   -1.9827    0.0000 C   0  0  0  0  0  0  0  0  0
    3.4403   -1.5702    0.0000 C   0  0  0  0  0  0  0  0  0
    5.5837   -1.9827    0.0000 C   0  0  0  0  0  0  0  0  0
    6.2982   -1.5702    0.0000 C   0  0  0  0  0  0  0  0  0
    7.0127   -1.9827    0.0000 C   0  0  0  0  0  0  0  0  0
    7.7271   -1.5702    0.0000 C   0  0  0  0  0  0  0  0  0
    8.4416   -1.9827    0.0000 N   0  0  0  0  0  0  0  0  0
    9.1561   -1.5702    0.0000 C   0  0  0  0  0  0  0  0  0
    9.1561   -0.7452    0.0000 O   0  0  0  0  0  0  0  0  0
    9.8705   -1.9827    0.0000 C   0  0  0  0  0  0  0  0  0
   10.6242   -1.6471    0.0000 S   0  0  0  0  0  0  0  0  0
   11.1762   -2.2602    0.0000 C   0  0  0  0  0  0  0  0  0
   10.7637   -2.9747    0.0000 C   0  0  0  0  0  0  0  0  0
    9.9568   -2.8032    0.0000 C   0  0  0  0  0  0  0  0  0
    2.7258    0.4923    0.0000 C   0  0  0  0  0  0  0  0  0
    2.0114    0.9048    0.0000 C   0  0  0  0  0  0  0  0  0
    2.0114    1.7298    0.0000 C   0  0  0  0  0  0  0  0  0
    2.7258    2.1423    0.0000 C   0  0  0  0  0  0  0  0  0
    3.4403    1.7298    0.0000 C   0  0  0  0  0  0  0  0  0
    3.4403    0.9048    0.0000 C   0  0  0  0  0  0  0  0  0
  1  2  1  0  0  0  0
  2  3  4  0  0  0  0
  2  7  4  0  0  0  0
  3  4  4  0  0  0  0
  4  5  4  0  0  0  0
  5  6  4  0  0  0  0
  5  8  1  0  0  0  0
  6  7  4  0  0  0  0
  8  9  1  0  0  0  0
  8 27  1  0  0  0  0
  9 10  1  0  0  0  0
  9 14  1  0  0  0  0
 10 11  1  0  0  0  0
 11 12  1  0  0  0  0
 12 13  1  0  0  0  0
 12 15  1  0  0  0  0
 13 14  1  0  0  0  0
 15 16  1  0  0  0  0
 16 17  1  0  0  0  0
 17 18  1  0  0  0  0
 18 19  1  0  0  0  0
 19 20  1  0  0  0  0
 20 21  2  0  0  0  0
 20 22  1  0  0  0  0
 22 23  4  0  0  0  0
 22 26  4  0  0  0  0
 23 24  4  0  0  0  0
 24 25  4  0  0  0  0
 25 26  4  0  0  0  0
 27 28  4  0  0  0  0
 27 32  4  0  0  0  0
 28 29  4  0  0  0  0
 29 30  4  0  0  0  0
 30 31  4  0  0  0  0
 31 32  4  0  0  0  0
M  END
>  <Name_Molregno>
405488

>  <DOPAMINE D2>
6.8

>  <DOPAMINE D3>
7.41

$$$$
405490
  Marvin  02231216192D 0   1.00000     0.00000     0

 33 36  0  0  1  0  0  0  0  0999 V2000
   -0.1426    0.0106    0.0000 Cl  0  0  0  0  0  0  0  0  0
    0.5719    0.4231    0.0000 C   0  0  0  0  0  0  0  0  0
    0.5719    1.2481    0.0000 C   0  0  0  0  0  0  0  0  0
    1.2863    1.6606    0.0000 C   0  0  0  0  0  0  0  0  0
    2.0008    1.2481    0.0000 C   0  0  0  0  0  0  0  0  0
    2.0008    0.4231    0.0000 C   0  0  0  0  0  0  0  0  0
    1.2863    0.0106    0.0000 C   0  0  0  0  0  0  0  0  0
    2.7153    1.6606    0.0000 C   0  0  0  0  0  0  0  0  0
    3.4297    1.2481    0.0000 N   0  0  0  0  0  0  0  0  0
    4.1442    1.6606    0.0000 C   0  0  0  0  0  0  0  0  0
    4.8587    1.2481    0.0000 C   0  0  0  0  0  0  0  0  0
    4.8587    0.4231    0.0000 N   0  0  0  0  0  0  0  0  0
    4.1442    0.0106    0.0000 C   0  0  0  0  0  0  0  0  0
    3.4297    0.4231    0.0000 C   0  0  0  0  0  0  0  0  0
    5.5731    0.0106    0.0000 C   0  0  0  0  0  0  0  0  0
    6.2876    0.4231    0.0000 C   0  0  0  0  0  0  0  0  0
    7.0021    0.0106    0.0000 C   0  0  0  0  0  0  0  0  0
    7.7166    0.4231    0.0000 C   0  0  0  0  0  0  0  0  0
    8.4310    0.0106    0.0000 N   0  0  0  0  0  0  0  0  0
    9.1455    0.4231    0.0000 C   0  0  0  0  0  0  0  0  0
    9.1455    1.2481    0.0000 O   0  0  0  0  0  0  0  0  0
    9.8600    0.0106    0.0000 C   0  0  0  0  0  0  0  0  0
   10.5744    0.4231    0.0000 C   0  0  0  0  0  0  0  0  0
   11.2889    0.0106    0.0000 C   0  0  0  0  0  0  0  0  0
   11.2889   -0.8144    0.0000 C   0  0  0  0  0  0  0  0  0
   10.5744   -1.2269    0.0000 C   0  0  0  0  0  0  0  0  0
    9.8600   -0.8144    0.0000 C   0  0  0  0  0  0  0  0  0
    2.7153    2.4856    0.0000 C   0  0  0  0  0  0  0  0  0
    2.0008    2.8981    0.0000 C   0  0  0  0  0  0  0  0  0
    2.0008    3.7231    0.0000 C   0  0  0  0  0  0  0  0  0
    2.7153    4.1356    0.0000 C   0  0  0  0  0  0  0  0  0
    3.4297    3.7231    0.0000 C   0  0  0  0  0  0  0  0  0
    3.4297    2.8981    0.0000 C   0  0  0  0  0  0  0  0  0
  1  2  1  0  0  0  0
  2  3  4  0  0  0  0
  2  7  4  0  0  0  0
  3  4  4  0  0  0  0
  4  5  4  0  0  0  0
  5  6  4  0  0  0  0
  5  8  1  0  0  0  0
  6  7  4  0  0  0  0
  8  9  1  0  0  0  0
  8 28  1  0  0  0  0
  9 10  1  0  0  0  0
  9 14  1  0  0  0  0
 10 11  1  0  0  0  0
 11 12  1  0  0  0  0
 12 13  1  0  0  0  0
 12 15  1  0  0  0  0
 13 14  1  0  0  0  0
 15 16  1  0  0  0  0
 16 17  1  0  0  0  0
 17 18  1  0  0  0  0
 18 19  1  0  0  0  0
 19 20  1  0  0  0  0
 20 21  2  0  0  0  0
 20 22  1  0  0  0  0
 22 23  1  0  0  0  0
 22 27  1  0  0  0  0
 23 24  1  0  0  0  0
 24 25  1  0  0  0  0
 25 26  1  0  0  0  0
 26 27  1  0  0  0  0
 28 29  4  0  0  0  0
 28 33  4  0  0  0  0
 29 30  4  0  0  0  0
 30 31  4  0  0  0  0
 31 32  4  0  0  0  0
 32 33  4  0  0  0  0
M  END
>  <Name_Molregno>
405490

>  <DOPAMINE D2>
6.72

>  <DOPAMINE D3>
7.91

$$$$
405495
  Marvin  02231216192D 0   1.00000     0.00000     0

 37 41  0  0  0  0  0  0  0  0999 V2000
   -5.8240   -1.5389    0.0000 O   0  0  0  0  0  0  0  0  0
   -5.8240   -2.3639    0.0000 C   0  0  0  0  0  0  0  0  0
   -5.1095   -2.7764    0.0000 N   0  0  0  0  0  0  0  0  0
   -4.3950   -2.3639    0.0000 C   0  0  0  0  0  0  0  0  0
   -3.6806   -2.7764    0.0000 C   0  0  0  0  0  0  0  0  0
   -2.9661   -2.3639    0.0000 C   0  0  0  0  0  0  0  0  0
   -2.2516   -2.7764    0.0000 C   0  0  0  0  0  0  0  0  0
   -1.5371   -2.3639    0.0000 N   0  0  0  0  0  0  0  0  0
   -1.5988   -1.5412    0.0000 C   0  0  0  0  0  0  0  0  0
   -0.9940   -0.9800    0.0000 C   0  0  0  0  0  0  0  0  0
   -0.1782   -1.1030    0.0000 C   0  0  0  0  0  0  0  0  0
    0.2343   -1.8175    0.0000 N   0  0  0  0  0  0  0  0  0
   -0.0671   -2.5854    0.0000 C   0  0  0  0  0  0  0  0  0
   -0.8555   -2.8286    0.0000 C   0  0  0  0  0  0  0  0  0
    1.0570   -1.7558    0.0000 C   0  0  0  0  0  0  0  0  0
    1.4149   -1.0125    0.0000 C   0  0  0  0  0  0  0  0  0
    0.9502   -0.3309    0.0000 C   0  0  0  0  0  0  0  0  0
    1.3081    0.4124    0.0000 C   0  0  0  0  0  0  0  0  0
    2.1308    0.4741    0.0000 C   0  0  0  0  0  0  0  0  0
    2.5956   -0.2076    0.0000 C   0  0  0  0  0  0  0  0  0
    2.2376   -0.9509    0.0000 C   0  0  0  0  0  0  0  0  0
    1.5217   -2.4374    0.0000 C   0  0  0  0  0  0  0  0  0
    2.3444   -2.3758    0.0000 C   0  0  0  0  0  0  0  0  0
    2.8091   -3.0574    0.0000 C   0  0  0  0  0  0  0  0  0
    2.4512   -3.8007    0.0000 C   0  0  0  0  0  0  0  0  0
    1.6285   -3.8624    0.0000 C   0  0  0  0  0  0  0  0  0
    1.1637   -3.1807    0.0000 C   0  0  0  0  0  0  0  0  0
   -6.5384   -2.7764    0.0000 C   0  0  0  0  0  0  0  0  0
   -7.2529   -2.3639    0.0000 C   0  0  0  0  0  0  0  0  0
   -7.9674   -2.7764    0.0000 C   0  0  0  0  0  0  0  0  0
   -7.9674   -3.6014    0.0000 C   0  0  0  0  0  0  0  0  0
   -7.2529   -4.0139    0.0000 C   0  0  0  0  0  0  0  0  0
   -6.5384   -3.6014    0.0000 C   0  0  0  0  0  0  0  0  0
   -8.6819   -4.0139    0.0000 C   0  0  0  0  0  0  0  0  0
   -9.3963   -3.6014    0.0000 C   0  0  0  0  0  0  0  0  0
   -9.3963   -2.7764    0.0000 C   0  0  0  0  0  0  0  0  0
   -8.6819   -2.3639    0.0000 C   0  0  0  0  0  0  0  0  0
  1  2  2  0  0  0  0
  2  3  1  0  0  0  0
  2 28  1  0  0  0  0
  3  4  1  0  0  0  0
  4  5  1  0  0  0  0
  5  6  1  0  0  0  0
  6  7  1  0  0  0  0
  7  8  1  0  0  0  0
  8  9  1  0  0  0  0
  8 14  1  0  0  0  0
  9 10  1  0  0  0  0
 10 11  1  0  0  0  0
 11 12  1  0  0  0  0
 12 13  1  0  0  0  0
 12 15  1  0  0  0  0
 13 14  1  0  0  0  0
 15 16  1  0  0  0  0
 15 22  1  0  0  0  0
 16 17  4  0  0  0  0
 16 21  4  0  0  0  0
 17 18  4  0  0  0  0
 18 19  4  0  0  0  0
 19 20  4  0  0  0  0
 20 21  4  0  0  0  0
 22 23  4  0  0  0  0
 22 27  4  0  0  0  0
 23 24  4  0  0  0  0
 24 25  4  0  0  0  0
 25 26  4  0  0  0  0
 26 27  4  0  0  0  0
 28 29  4  0  0  0  0
 28 33  4  0  0  0  0
 29 30  4  0  0  0  0
 30 31  4  0  0  0  0
 30 37  4  0  0  0  0
 31 32  4  0  0  0  0
 31 34  4  0  0  0  0
 32 33  4  0  0  0  0
 34 35  4  0  0  0  0
 35 36  4  0  0  0  0
 36 37  4  0  0  0  0
M  END
>  <Name_Molregno>
405495

>  <DOPAMINE D2>
6.87

>  <DOPAMINE D3>
7.49

$$$$
405497
  Marvin  02231216192D 0   1.00000     0.00000     0

 35 38  0  0  0  0  0  0  0  0999 V2000
   -0.4917   -2.2700    0.0000 O   0  0  0  0  0  0  0  0  0
   -0.4917   -1.4450    0.0000 C   0  0  0  0  0  0  0  0  0
    0.2228   -1.0325    0.0000 N   0  0  0  0  0  0  0  0  0
    0.9373   -1.4450    0.0000 C   0  0  0  0  0  0  0  0  0
    1.6518   -1.0325    0.0000 C   0  0  0  0  0  0  0  0  0
    2.3662   -1.4450    0.0000 C   0  0  0  0  0  0  0  0  0
    3.0807   -1.0325    0.0000 C   0  0  0  0  0  0  0  0  0
    3.7952   -1.4450    0.0000 N   0  0  0  0  0  0  0  0  0
    4.4768   -0.9803    0.0000 C   0  0  0  0  0  0  0  0  0
    5.2652   -1.2234    0.0000 C   0  0  0  0  0  0  0  0  0
    5.5666   -1.9914    0.0000 C   0  0  0  0  0  0  0  0  0
    5.1541   -2.7059    0.0000 N   0  0  0  0  0  0  0  0  0
    4.3383   -2.8288    0.0000 C   0  0  0  0  0  0  0  0  0
    3.7335   -2.2677    0.0000 C   0  0  0  0  0  0  0  0  0
    5.6188   -3.3875    0.0000 C   0  0  0  0  0  0  0  0  0
    6.4415   -3.3259    0.0000 C   0  0  0  0  0  0  0  0  0
    6.7995   -2.5826    0.0000 C   0  0  0  0  0  0  0  0  0
    7.6222   -2.5209    0.0000 C   0  0  0  0  0  0  0  0  0
    8.0869   -3.2026    0.0000 C   0  0  0  0  0  0  0  0  0
    7.7289   -3.9459    0.0000 C   0  0  0  0  0  0  0  0  0
    6.9062   -4.0075    0.0000 C   0  0  0  0  0  0  0  0  0
    5.2609   -4.1308    0.0000 C   0  0  0  0  0  0  0  0  0
    5.7256   -4.8125    0.0000 C   0  0  0  0  0  0  0  0  0
    5.3676   -5.5558    0.0000 C   0  0  0  0  0  0  0  0  0
    4.5449   -5.6174    0.0000 C   0  0  0  0  0  0  0  0  0
    4.0802   -4.9358    0.0000 C   0  0  0  0  0  0  0  0  0
    4.4382   -4.1925    0.0000 C   0  0  0  0  0  0  0  0  0
   -1.2061   -1.0325    0.0000 C   0  0  0  0  0  0  0  0  0
   -1.9206   -1.4450    0.0000 C   0  0  0  0  0  0  0  0  0
   -2.6351   -1.0325    0.0000 C   0  0  0  0  0  0  0  0  0
   -3.3495   -1.4450    0.0000 C   0  0  0  0  0  0  0  0  0
   -4.0640   -1.0325    0.0000 C   0  0  0  0  0  0  0  0  0
   -4.0640   -0.2075    0.0000 C   0  0  0  0  0  0  0  0  0
   -3.3495    0.2050    0.0000 C   0  0  0  0  0  0  0  0  0
   -2.6351   -0.2075    0.0000 C   0  0  0  0  0  0  0  0  0
  1  2  2  0  0  0  0
  2  3  1  0  0  0  0
  2 28  1  0  0  0  0
  3  4  1  0  0  0  0
  4  5  1  0  0  0  0
  5  6  1  0  0  0  0
  6  7  1  0  0  0  0
  7  8  1  0  0  0  0
  8  9  1  0  0  0  0
  8 14  1  0  0  0  0
  9 10  1  0  0  0  0
 10 11  1  0  0  0  0
 11 12  1  0  0  0  0
 12 13  1  0  0  0  0
 12 15  1  0  0  0  0
 13 14  1  0  0  0  0
 15 16  1  0  0  0  0
 15 22  1  0  0  0  0
 16 17  4  0  0  0  0
 16 21  4  0  0  0  0
 17 18  4  0  0  0  0
 18 19  4  0  0  0  0
 19 20  4  0  0  0  0
 20 21  4  0  0  0  0
 22 23  4  0  0  0  0
 22 27  4  0  0  0  0
 23 24  4  0  0  0  0
 24 25  4  0  0  0  0
 25 26  4  0  0  0  0
 26 27  4  0  0  0  0
 28 29  2  0  0  0  0
 29 30  1  0  0  0  0
 30 31  4  0  0  0  0
 30 35  4  0  0  0  0
 31 32  4  0  0  0  0
 32 33  4  0  0  0  0
 33 34  4  0  0  0  0
 34 35  4  0  0  0  0
M  END
>  <Name_Molregno>
405497

>  <DOPAMINE D2>
6.79

>  <DOPAMINE D3>
7.39

$$$$
405503
  Marvin  02231216192D 0   1.00000     0.00000     0

 36 40  0  0  0  0  0  0  0  0999 V2000
   -8.8655    1.8761    0.0000 S   0  0  0  0  0  0  0  0  0
   -9.6724    2.0477    0.0000 C   0  0  0  0  0  0  0  0  0
  -10.0849    1.3332    0.0000 C   0  0  0  0  0  0  0  0  0
   -9.5329    0.7201    0.0000 C   0  0  0  0  0  0  0  0  0
   -8.7792    1.0557    0.0000 C   0  0  0  0  0  0  0  0  0
   -8.0647    0.6432    0.0000 C   0  0  0  0  0  0  0  0  0
   -8.0647   -0.1818    0.0000 O   0  0  0  0  0  0  0  0  0
   -7.3503    1.0557    0.0000 N   0  0  0  0  0  0  0  0  0
   -6.6358    0.6432    0.0000 C   0  0  0  0  0  0  0  0  0
   -5.9213    1.0557    0.0000 C   0  0  0  0  0  0  0  0  0
   -5.2069    0.6432    0.0000 C   0  0  0  0  0  0  0  0  0
   -4.4924    1.0557    0.0000 C   0  0  0  0  0  0  0  0  0
   -3.7779    0.6432    0.0000 N   0  0  0  0  0  0  0  0  0
   -3.0963    1.1079    0.0000 C   0  0  0  0  0  0  0  0  0
   -2.3079    0.8647    0.0000 C   0  0  0  0  0  0  0  0  0
   -2.0065    0.0968    0.0000 C   0  0  0  0  0  0  0  0  0
   -2.4190   -0.6177    0.0000 N   0  0  0  0  0  0  0  0  0
   -3.2348   -0.7407    0.0000 C   0  0  0  0  0  0  0  0  0
   -3.8396   -0.1795    0.0000 C   0  0  0  0  0  0  0  0  0
   -1.9543   -1.2994    0.0000 C   0  0  0  0  0  0  0  0  0
   -1.1316   -1.2377    0.0000 C   0  0  0  0  0  0  0  0  0
   -0.7736   -0.4944    0.0000 C   0  0  0  0  0  0  0  0  0
    0.0491   -0.4328    0.0000 C   0  0  0  0  0  0  0  0  0
    0.5138   -1.1144    0.0000 C   0  0  0  0  0  0  0  0  0
    0.1558   -1.8577    0.0000 C   0  0  0  0  0  0  0  0  0
   -0.6668   -1.9194    0.0000 C   0  0  0  0  0  0  0  0  0
   -2.3122   -2.0427    0.0000 C   0  0  0  0  0  0  0  0  0
   -1.8475   -2.7243    0.0000 C   0  0  0  0  0  0  0  0  0
   -2.2055   -3.4676    0.0000 C   0  0  0  0  0  0  0  0  0
   -3.0281   -3.5293    0.0000 C   0  0  0  0  0  0  0  0  0
   -3.4929   -2.8476    0.0000 C   0  0  0  0  0  0  0  0  0
   -3.1349   -2.1043    0.0000 C   0  0  0  0  0  0  0  0  0
  -10.9099    1.3332    0.0000 C   0  0  0  0  0  0  0  0  0
  -11.3224    2.0477    0.0000 C   0  0  0  0  0  0  0  0  0
  -10.9099    2.7621    0.0000 C   0  0  0  0  0  0  0  0  0
  -10.0849    2.7621    0.0000 C   0  0  0  0  0  0  0  0  0
  1  2  4  0  0  0  0
  1  5  4  0  0  0  0
  2  3  4  0  0  0  0
  2 36  4  0  0  0  0
  3  4  4  0  0  0  0
  3 33  4  0  0  0  0
  4  5  4  0  0  0  0
  5  6  1  0  0  0  0
  6  7  2  0  0  0  0
  6  8  1  0  0  0  0
  8  9  1  0  0  0  0
  9 10  1  0  0  0  0
 10 11  1  0  0  0  0
 11 12  1  0  0  0  0
 12 13  1  0  0  0  0
 13 14  1  0  0  0  0
 13 19  1  0  0  0  0
 14 15  1  0  0  0  0
 15 16  1  0  0  0  0
 16 17  1  0  0  0  0
 17 18  1  0  0  0  0
 17 20  1  0  0  0  0
 18 19  1  0  0  0  0
 20 21  1  0  0  0  0
 20 27  1  0  0  0  0
 21 22  4  0  0  0  0
 21 26  4  0  0  0  0
 22 23  4  0  0  0  0
 23 24  4  0  0  0  0
 24 25  4  0  0  0  0
 25 26  4  0  0  0  0
 27 28  4  0  0  0  0
 27 32  4  0  0  0  0
 28 29  4  0  0  0  0
 29 30  4  0  0  0  0
 30 31  4  0  0  0  0
 31 32  4  0  0  0  0
 33 34  4  0  0  0  0
 34 35  4  0  0  0  0
 35 36  4  0  0  0  0
M  END
>  <Name_Molregno>
405503

>  <DOPAMINE D2>
6.2

>  <DOPAMINE D3>
7.43

$$$$
405508
  Marvin  02231216192D 0   1.00000     0.00000     0

 32 35  0  0  0  0  0  0  0  0999 V2000
    0.0197   -0.7681    0.0000 S   0  0  0  0  0  0  0  0  0
   -0.7873   -0.9397    0.0000 C   0  0  0  0  0  0  0  0  0
   -1.1998   -0.2252    0.0000 C   0  0  0  0  0  0  0  0  0
   -0.6478    0.3879    0.0000 C   0  0  0  0  0  0  0  0  0
    0.1059    0.0524    0.0000 C   0  0  0  0  0  0  0  0  0
    0.8204    0.4649    0.0000 C   0  0  0  0  0  0  0  0  0
    0.8204    1.2899    0.0000 O   0  0  0  0  0  0  0  0  0
    1.5348    0.0524    0.0000 N   0  0  0  0  0  0  0  0  0
    2.2493    0.4649    0.0000 C   0  0  0  0  0  0  0  0  0
    2.9638    0.0524    0.0000 C   0  0  0  0  0  0  0  0  0
    3.6783    0.4649    0.0000 C   0  0  0  0  0  0  0  0  0
    4.3927    0.0524    0.0000 C   0  0  0  0  0  0  0  0  0
    5.1072    0.4649    0.0000 N   0  0  0  0  0  0  0  0  0
    5.0455    1.2875    0.0000 C   0  0  0  0  0  0  0  0  0
    5.6503    1.8487    0.0000 C   0  0  0  0  0  0  0  0  0
    6.4661    1.7257    0.0000 C   0  0  0  0  0  0  0  0  0
    6.8786    1.0113    0.0000 N   0  0  0  0  0  0  0  0  0
    6.5772    0.2433    0.0000 C   0  0  0  0  0  0  0  0  0
    5.7888    0.0001    0.0000 C   0  0  0  0  0  0  0  0  0
    7.7013    1.0729    0.0000 C   0  0  0  0  0  0  0  0  0
    8.1660    0.3913    0.0000 C   0  0  0  0  0  0  0  0  0
    8.9887    0.4529    0.0000 C   0  0  0  0  0  0  0  0  0
    9.4535   -0.2287    0.0000 C   0  0  0  0  0  0  0  0  0
    9.0955   -0.9720    0.0000 C   0  0  0  0  0  0  0  0  0
    8.2728   -1.0337    0.0000 C   0  0  0  0  0  0  0  0  0
    7.8081   -0.3520    0.0000 C   0  0  0  0  0  0  0  0  0
    8.0592    1.8162    0.0000 C   0  0  0  0  0  0  0  0  0
    7.5945    2.4979    0.0000 C   0  0  0  0  0  0  0  0  0
    7.9525    3.2412    0.0000 C   0  0  0  0  0  0  0  0  0
    8.7752    3.3028    0.0000 C   0  0  0  0  0  0  0  0  0
    9.2399    2.6212    0.0000 C   0  0  0  0  0  0  0  0  0
    8.8819    1.8779    0.0000 C   0  0  0  0  0  0  0  0  0
  1  2  4  0  0  0  0
  1  5  4  0  0  0  0
  2  3  4  0  0  0  0
  3  4  4  0  0  0  0
  4  5  4  0  0  0  0
  5  6  1  0  0  0  0
  6  7  2  0  0  0  0
  6  8  1  0  0  0  0
  8  9  1  0  0  0  0
  9 10  1  0  0  0  0
 10 11  1  0  0  0  0
 11 12  1  0  0  0  0
 12 13  1  0  0  0  0
 13 14  1  0  0  0  0
 13 19  1  0  0  0  0
 14 15  1  0  0  0  0
 15 16  1  0  0  0  0
 16 17  1  0  0  0  0
 17 18  1  0  0  0  0
 17 20  1  0  0  0  0
 18 19  1  0  0  0  0
 20 21  1  0  0  0  0
 20 27  1  0  0  0  0
 21 22  4  0  0  0  0
 21 26  4  0  0  0  0
 22 23  4  0  0  0  0
 23 24  4  0  0  0  0
 24 25  4  0  0  0  0
 25 26  4  0  0  0  0
 27 28  4  0  0  0  0
 27 32  4  0  0  0  0
 28 29  4  0  0  0  0
 29 30  4  0  0  0  0
 30 31  4  0  0  0  0
 31 32  4  0  0  0  0
M  END
>  <Name_Molregno>
405508

>  <DOPAMINE D2>
6.18

>  <DOPAMINE D3>
6.47

$$$$
405512
  Marvin  02231216192D 0   1.00000     0.00000     0

 37 41  0  0  1  0  0  0  0  0999 V2000
   -9.0736    1.2401    0.0000 S   0  0  0  0  0  0  0  0  0
   -9.8806    1.4116    0.0000 C   0  0  0  0  0  0  0  0  0
  -10.2931    0.6972    0.0000 C   0  0  0  0  0  0  0  0  0
   -9.7410    0.0841    0.0000 C   0  0  0  0  0  0  0  0  0
   -8.9874    0.4196    0.0000 C   0  0  0  0  0  0  0  0  0
   -8.2729    0.0071    0.0000 C   0  0  0  0  0  0  0  0  0
   -8.2729   -0.8179    0.0000 O   0  0  0  0  0  0  0  0  0
   -7.5584    0.4196    0.0000 N   0  0  0  0  0  0  0  0  0
   -6.8439    0.0071    0.0000 C   0  0  0  0  0  0  0  0  0
   -6.1295    0.4196    0.0000 C   0  0  0  0  0  0  0  0  0
   -5.4150    0.0071    0.0000 C   0  0  0  0  0  0  0  0  0
   -4.7005    0.4196    0.0000 C   0  0  0  0  0  0  0  0  0
   -3.9861    0.0071    0.0000 N   0  0  0  0  0  0  0  0  0
   -3.2716    0.4196    0.0000 C   0  0  0  0  0  0  0  0  0
   -2.5571    0.0071    0.0000 C   0  0  0  0  0  0  0  0  0
   -2.5571   -0.8179    0.0000 N   0  0  0  0  0  0  0  0  0
   -3.2716   -1.2304    0.0000 C   0  0  0  0  0  0  0  0  0
   -3.9861   -0.8179    0.0000 C   0  0  0  0  0  0  0  0  0
   -1.8426   -1.2304    0.0000 C   0  0  0  0  0  0  0  0  0
   -1.8426   -2.0554    0.0000 C   0  0  0  0  0  0  0  0  0
   -1.1282   -2.4679    0.0000 C   0  0  0  0  0  0  0  0  0
   -1.1282   -3.2929    0.0000 C   0  0  0  0  0  0  0  0  0
   -1.8426   -3.7054    0.0000 C   0  0  0  0  0  0  0  0  0
   -2.5571   -3.2929    0.0000 C   0  0  0  0  0  0  0  0  0
   -2.5571   -2.4679    0.0000 C   0  0  0  0  0  0  0  0  0
   -3.2716   -2.0554    0.0000 O   0  0  0  0  0  0  0  0  0
   -3.9861   -2.4679    0.0000 C   0  0  0  0  0  0  0  0  0
   -1.1282   -0.8179    0.0000 C   0  0  0  0  0  0  0  0  0
   -1.1282    0.0071    0.0000 C   0  0  0  0  0  0  0  0  0
   -0.4137    0.4196    0.0000 C   0  0  0  0  0  0  0  0  0
    0.3008    0.0071    0.0000 C   0  0  0  0  0  0  0  0  0
    0.3008   -0.8179    0.0000 C   0  0  0  0  0  0  0  0  0
   -0.4137   -1.2304    0.0000 C   0  0  0  0  0  0  0  0  0
  -11.1181    0.6972    0.0000 C   0  0  0  0  0  0  0  0  0
  -11.5306    1.4116    0.0000 C   0  0  0  0  0  0  0  0  0
  -11.1181    2.1261    0.0000 C   0  0  0  0  0  0  0  0  0
  -10.2931    2.1261    0.0000 C   0  0  0  0  0  0  0  0  0
  1  2  4  0  0  0  0
  1  5  4  0  0  0  0
  2  3  4  0  0  0  0
  2 37  4  0  0  0  0
  3  4  4  0  0  0  0
  3 34  4  0  0  0  0
  4  5  4  0  0  0  0
  5  6  1  0  0  0  0
  6  7  2  0  0  0  0
  6  8  1  0  0  0  0
  8  9  1  0  0  0  0
  9 10  1  0  0  0  0
 10 11  1  0  0  0  0
 11 12  1  0  0  0  0
 12 13  1  0  0  0  0
 13 14  1  0  0  0  0
 13 18  1  0  0  0  0
 14 15  1  0  0  0  0
 15 16  1  0  0  0  0
 16 17  1  0  0  0  0
 16 19  1  0  0  0  0
 17 18  1  0  0  0  0
 19 20  1  0  0  0  0
 19 28  1  0  0  0  0
 20 21  4  0  0  0  0
 20 25  4  0  0  0  0
 21 22  4  0  0  0  0
 22 23  4  0  0  0  0
 23 24  4  0  0  0  0
 24 25  4  0  0  0  0
 25 26  1  0  0  0  0
 26 27  1  0  0  0  0
 28 29  4  0  0  0  0
 28 33  4  0  0  0  0
 29 30  4  0  0  0  0
 30 31  4  0  0  0  0
 31 32  4  0  0  0  0
 32 33  4  0  0  0  0
 34 35  4  0  0  0  0
 35 36  4  0  0  0  0
 36 37  4  0  0  0  0
M  END
>  <Name_Molregno>
405512

>  <DOPAMINE D2>
6.2

>  <DOPAMINE D3>
8.44

$$$$
405515
  Marvin  02231216192D 0   1.00000     0.00000     0

 40 44  0  0  0  0  0  0  0  0999 V2000
    0.3789   -2.0845    0.0000 O   0  0  0  0  0  0  0  0  0
    1.0934   -2.4970    0.0000 C   0  0  0  0  0  0  0  0  0
   -0.3356   -2.4970    0.0000 C   0  0  0  0  0  0  0  0  0
   -0.3356   -3.3220    0.0000 C   0  0  0  0  0  0  0  0  0
   -1.0500   -3.7345    0.0000 C   0  0  0  0  0  0  0  0  0
   -1.7645   -3.3220    0.0000 C   0  0  0  0  0  0  0  0  0
   -1.7645   -2.4970    0.0000 C   0  0  0  0  0  0  0  0  0
   -1.0500   -2.0845    0.0000 C   0  0  0  0  0  0  0  0  0
   -1.0500   -1.2595    0.0000 C   0  0  0  0  0  0  0  0  0
   -0.3356   -0.8470    0.0000 N   0  0  0  0  0  0  0  0  0
   -0.3356   -0.0220    0.0000 C   0  0  0  0  0  0  0  0  0
    0.3789    0.3905    0.0000 C   0  0  0  0  0  0  0  0  0
    1.0934   -0.0220    0.0000 N   0  0  0  0  0  0  0  0  0
    1.0934   -0.8470    0.0000 C   0  0  0  0  0  0  0  0  0
    0.3789   -1.2595    0.0000 C   0  0  0  0  0  0  0  0  0
    1.8078    0.3905    0.0000 C   0  0  0  0  0  0  0  0  0
    2.5223   -0.0220    0.0000 C   0  0  0  0  0  0  0  0  0
    3.2368    0.3905    0.0000 C   0  0  0  0  0  0  0  0  0
    3.9512   -0.0220    0.0000 C   0  0  0  0  0  0  0  0  0
    4.6657    0.3905    0.0000 N   0  0  0  0  0  0  0  0  0
    5.3802   -0.0220    0.0000 C   0  0  0  0  0  0  0  0  0
    5.3802   -0.8470    0.0000 O   0  0  0  0  0  0  0  0  0
    6.0947    0.3905    0.0000 C   0  0  0  0  0  0  0  0  0
    6.8091   -0.0220    0.0000 C   0  0  0  0  0  0  0  0  0
    7.5236    0.3905    0.0000 C   0  0  0  0  0  0  0  0  0
    7.5236    1.2155    0.0000 C   0  0  0  0  0  0  0  0  0
    6.8091    1.6280    0.0000 C   0  0  0  0  0  0  0  0  0
    6.0947    1.2155    0.0000 C   0  0  0  0  0  0  0  0  0
    8.2381    1.6280    0.0000 C   0  0  0  0  0  0  0  0  0
    8.9525    1.2155    0.0000 C   0  0  0  0  0  0  0  0  0
    8.9525    0.3905    0.0000 C   0  0  0  0  0  0  0  0  0
    8.2381   -0.0220    0.0000 C   0  0  0  0  0  0  0  0  0
   -1.7645   -0.8470    0.0000 C   0  0  0  0  0  0  0  0  0
   -2.4790   -1.2595    0.0000 C   0  0  0  0  0  0  0  0  0
   -3.1935   -0.8470    0.0000 C   0  0  0  0  0  0  0  0  0
   -3.1935   -0.0220    0.0000 C   0  0  0  0  0  0  0  0  0
   -2.4790    0.3905    0.0000 C   0  0  0  0  0  0  0  0  0
   -1.7645   -0.0220    0.0000 C   0  0  0  0  0  0  0  0  0
   -1.0500    0.3905    0.0000 O   0  0  0  0  0  0  0  0  0
   -1.0500    1.2155    0.0000 C   0  0  0  0  0  0  0  0  0
  1  2  1  0  0  0  0
  1  3  1  0  0  0  0
  3  4  4  0  0  0  0
  3  8  4  0  0  0  0
  4  5  4  0  0  0  0
  5  6  4  0  0  0  0
  6  7  4  0  0  0  0
  7  8  4  0  0  0  0
  8  9  1  0  0  0  0
  9 10  1  0  0  0  0
  9 33  1  0  0  0  0
 10 11  1  0  0  0  0
 10 15  1  0  0  0  0
 11 12  1  0  0  0  0
 12 13  1  0  0  0  0
 13 14  1  0  0  0  0
 13 16  1  0  0  0  0
 14 15  1  0  0  0  0
 16 17  1  0  0  0  0
 17 18  1  0  0  0  0
 18 19  1  0  0  0  0
 19 20  1  0  0  0  0
 20 21  1  0  0  0  0
 21 22  2  0  0  0  0
 21 23  1  0  0  0  0
 23 24  4  0  0  0  0
 23 28  4  0  0  0  0
 24 25  4  0  0  0  0
 25 26  4  0  0  0  0
 25 32  4  0  0  0  0
 26 27  4  0  0  0  0
 26 29  4  0  0  0  0
 27 28  4  0  0  0  0
 29 30  4  0  0  0  0
 30 31  4  0  0  0  0
 31 32  4  0  0  0  0
 33 34  4  0  0  0  0
 33 38  4  0  0  0  0
 34 35  4  0  0  0  0
 35 36  4  0  0  0  0
 36 37  4  0  0  0  0
 37 38  4  0  0  0  0
 38 39  1  0  0  0  0
 39 40  1  0  0  0  0
M  END
>  <Name_Molregno>
405515

>  <DOPAMINE D2>
6.5

>  <DOPAMINE D3>
7.82

$$$$
405517
  Marvin  02231216192D 0   1.00000     0.00000     0

 38 41  0  0  0  0  0  0  0  0999 V2000
   -0.9077   -1.5254    0.0000 O   0  0  0  0  0  0  0  0  0
   -0.9077   -2.3504    0.0000 C   0  0  0  0  0  0  0  0  0
   -1.6221   -1.1129    0.0000 C   0  0  0  0  0  0  0  0  0
   -2.3366   -1.5254    0.0000 C   0  0  0  0  0  0  0  0  0
   -3.0511   -1.1129    0.0000 C   0  0  0  0  0  0  0  0  0
   -3.0511   -0.2879    0.0000 C   0  0  0  0  0  0  0  0  0
   -2.3366    0.1246    0.0000 C   0  0  0  0  0  0  0  0  0
   -1.6221   -0.2879    0.0000 C   0  0  0  0  0  0  0  0  0
   -0.9077    0.1246    0.0000 C   0  0  0  0  0  0  0  0  0
   -0.1932   -0.2879    0.0000 N   0  0  0  0  0  0  0  0  0
    0.5213    0.1246    0.0000 C   0  0  0  0  0  0  0  0  0
    1.2357   -0.2879    0.0000 C   0  0  0  0  0  0  0  0  0
    1.2357   -1.1129    0.0000 N   0  0  0  0  0  0  0  0  0
    0.5213   -1.5254    0.0000 C   0  0  0  0  0  0  0  0  0
   -0.1932   -1.1129    0.0000 C   0  0  0  0  0  0  0  0  0
    1.9502   -1.5254    0.0000 C   0  0  0  0  0  0  0  0  0
    2.6647   -1.1129    0.0000 C   0  0  0  0  0  0  0  0  0
    3.3792   -1.5254    0.0000 C   0  0  0  0  0  0  0  0  0
    4.0936   -1.1129    0.0000 C   0  0  0  0  0  0  0  0  0
    4.8081   -1.5254    0.0000 N   0  0  0  0  0  0  0  0  0
    5.5226   -1.1129    0.0000 C   0  0  0  0  0  0  0  0  0
    5.5226   -0.2879    0.0000 O   0  0  0  0  0  0  0  0  0
    6.2370   -1.5254    0.0000 C   0  0  0  0  0  0  0  0  0
    6.9515   -1.1129    0.0000 C   0  0  0  0  0  0  0  0  0
    7.6660   -1.5254    0.0000 C   0  0  0  0  0  0  0  0  0
    8.3805   -1.1129    0.0000 C   0  0  0  0  0  0  0  0  0
    9.0949   -1.5254    0.0000 C   0  0  0  0  0  0  0  0  0
    9.0949   -2.3504    0.0000 C   0  0  0  0  0  0  0  0  0
    8.3805   -2.7629    0.0000 C   0  0  0  0  0  0  0  0  0
    7.6660   -2.3504    0.0000 C   0  0  0  0  0  0  0  0  0
   -0.9077    0.9496    0.0000 C   0  0  0  0  0  0  0  0  0
   -1.6221    1.3621    0.0000 C   0  0  0  0  0  0  0  0  0
   -1.6221    2.1871    0.0000 C   0  0  0  0  0  0  0  0  0
   -0.9077    2.5996    0.0000 C   0  0  0  0  0  0  0  0  0
   -0.1932    2.1871    0.0000 C   0  0  0  0  0  0  0  0  0
   -0.1932    1.3621    0.0000 C   0  0  0  0  0  0  0  0  0
    0.5213    0.9496    0.0000 O   0  0  0  0  0  0  0  0  0
    1.2357    1.3621    0.0000 C   0  0  0  0  0  0  0  0  0
  1  2  1  0  0  0  0
  1  3  1  0  0  0  0
  3  4  4  0  0  0  0
  3  8  4  0  0  0  0
  4  5  4  0  0  0  0
  5  6  4  0  0  0  0
  6  7  4  0  0  0  0
  7  8  4  0  0  0  0
  8  9  1  0  0  0  0
  9 10  1  0  0  0  0
  9 31  1  0  0  0  0
 10 11  1  0  0  0  0
 10 15  1  0  0  0  0
 11 12  1  0  0  0  0
 12 13  1  0  0  0  0
 13 14  1  0  0  0  0
 13 16  1  0  0  0  0
 14 15  1  0  0  0  0
 16 17  1  0  0  0  0
 17 18  1  0  0  0  0
 18 19  1  0  0  0  0
 19 20  1  0  0  0  0
 20 21  1  0  0  0  0
 21 22  2  0  0  0  0
 21 23  1  0  0  0  0
 23 24  2  0  0  0  0
 24 25  1  0  0  0  0
 25 26  4  0  0  0  0
 25 30  4  0  0  0  0
 26 27  4  0  0  0  0
 27 28  4  0  0  0  0
 28 29  4  0  0  0  0
 29 30  4  0  0  0  0
 31 32  4  0  0  0  0
 31 36  4  0  0  0  0
 32 33  4  0  0  0  0
 33 34  4  0  0  0  0
 34 35  4  0  0  0  0
 35 36  4  0  0  0  0
 36 37  1  0  0  0  0
 37 38  1  0  0  0  0
M  END
>  <Name_Molregno>
405517

>  <DOPAMINE D2>
6.01

>  <DOPAMINE D3>
7.82

$$$$
405519
  Marvin  02231216192D 0   1.00000     0.00000     0

 39 43  0  0  0  0  0  0  0  0999 V2000
    0.2373    2.2136    0.0000 S   0  0  0  0  0  0  0  0  0
   -0.5697    2.3851    0.0000 C   0  0  0  0  0  0  0  0  0
   -0.9822    1.6706    0.0000 C   0  0  0  0  0  0  0  0  0
   -0.4302    1.0576    0.0000 C   0  0  0  0  0  0  0  0  0
    0.3235    1.3931    0.0000 C   0  0  0  0  0  0  0  0  0
    1.0380    0.9806    0.0000 C   0  0  0  0  0  0  0  0  0
    1.0380    0.1556    0.0000 O   0  0  0  0  0  0  0  0  0
    1.7525    1.3931    0.0000 N   0  0  0  0  0  0  0  0  0
    2.4669    0.9806    0.0000 C   0  0  0  0  0  0  0  0  0
    3.1814    1.3931    0.0000 C   0  0  0  0  0  0  0  0  0
    3.8959    0.9806    0.0000 C   0  0  0  0  0  0  0  0  0
    4.6103    1.3931    0.0000 C   0  0  0  0  0  0  0  0  0
    5.3248    0.9806    0.0000 N   0  0  0  0  0  0  0  0  0
    6.0393    1.3931    0.0000 C   0  0  0  0  0  0  0  0  0
    6.7537    0.9806    0.0000 C   0  0  0  0  0  0  0  0  0
    6.7537    0.1556    0.0000 N   0  0  0  0  0  0  0  0  0
    6.0393   -0.2569    0.0000 C   0  0  0  0  0  0  0  0  0
    5.3248    0.1556    0.0000 C   0  0  0  0  0  0  0  0  0
    7.4682   -0.2569    0.0000 C   0  0  0  0  0  0  0  0  0
    7.4682   -1.0819    0.0000 C   0  0  0  0  0  0  0  0  0
    8.1827   -1.4944    0.0000 C   0  0  0  0  0  0  0  0  0
    8.1827   -2.3194    0.0000 C   0  0  0  0  0  0  0  0  0
    7.4682   -2.7319    0.0000 C   0  0  0  0  0  0  0  0  0
    6.7537   -2.3194    0.0000 C   0  0  0  0  0  0  0  0  0
    6.7537   -1.4944    0.0000 C   0  0  0  0  0  0  0  0  0
    6.0393   -1.0819    0.0000 O   0  0  0  0  0  0  0  0  0
    5.3248   -1.4944    0.0000 C   0  0  0  0  0  0  0  0  0
    8.1827    0.1556    0.0000 C   0  0  0  0  0  0  0  0  0
    8.1827    0.9806    0.0000 C   0  0  0  0  0  0  0  0  0
    8.8972    1.3931    0.0000 C   0  0  0  0  0  0  0  0  0
    9.6116    0.9806    0.0000 C   0  0  0  0  0  0  0  0  0
    9.6116    0.1556    0.0000 C   0  0  0  0  0  0  0  0  0
    8.8972   -0.2569    0.0000 C   0  0  0  0  0  0  0  0  0
    8.8972   -1.0819    0.0000 O   0  0  0  0  0  0  0  0  0
    9.6116   -1.4944    0.0000 C   0  0  0  0  0  0  0  0  0
   -1.8072    1.6706    0.0000 C   0  0  0  0  0  0  0  0  0
   -2.2197    2.3851    0.0000 C   0  0  0  0  0  0  0  0  0
   -1.8072    3.0996    0.0000 C   0  0  0  0  0  0  0  0  0
   -0.9822    3.0996    0.0000 C   0  0  0  0  0  0  0  0  0
  1  2  4  0  0  0  0
  1  5  4  0  0  0  0
  2  3  4  0  0  0  0
  2 39  4  0  0  0  0
  3  4  4  0  0  0  0
  3 36  4  0  0  0  0
  4  5  4  0  0  0  0
  5  6  1  0  0  0  0
  6  7  2  0  0  0  0
  6  8  1  0  0  0  0
  8  9  1  0  0  0  0
  9 10  1  0  0  0  0
 10 11  1  0  0  0  0
 11 12  1  0  0  0  0
 12 13  1  0  0  0  0
 13 14  1  0  0  0  0
 13 18  1  0  0  0  0
 14 15  1  0  0  0  0
 15 16  1  0  0  0  0
 16 17  1  0  0  0  0
 16 19  1  0  0  0  0
 17 18  1  0  0  0  0
 19 20  1  0  0  0  0
 19 28  1  0  0  0  0
 20 21  4  0  0  0  0
 20 25  4  0  0  0  0
 21 22  4  0  0  0  0
 22 23  4  0  0  0  0
 23 24  4  0  0  0  0
 24 25  4  0  0  0  0
 25 26  1  0  0  0  0
 26 27  1  0  0  0  0
 28 29  4  0  0  0  0
 28 33  4  0  0  0  0
 29 30  4  0  0  0  0
 30 31  4  0  0  0  0
 31 32  4  0  0  0  0
 32 33  4  0  0  0  0
 33 34  1  0  0  0  0
 34 35  1  0  0  0  0
 36 37  4  0  0  0  0
 37 38  4  0  0  0  0
 38 39  4  0  0  0  0
M  END
>  <Name_Molregno>
405519

>  <DOPAMINE D2>
6.21

>  <DOPAMINE D3>
7.64

$$$$
405521
  Marvin  02231216192D 0   1.00000     0.00000     0

 34 39  0  0  1  0  0  0  0  0999 V2000
    6.5623    0.3245    0.0000 O   0  0  0  0  0  0  0  0  0
    6.8172   -0.4601    0.0000 C   0  0  0  0  0  0  0  0  0
    6.3323   -1.1276    0.0000 N   0  0  0  0  0  0  0  0  0
    5.5073   -1.1276    0.0000 C   0  0  0  0  0  0  0  0  0
    5.0948   -1.8420    0.0000 C   0  0  0  0  0  0  0  0  0
    4.2698   -1.8420    0.0000 C   0  0  0  0  0  0  0  0  0
    3.8573   -2.5565    0.0000 C   0  0  0  0  0  0  0  0  0
    3.0323   -2.5565    0.0000 N   0  0  0  0  0  0  0  0  0
    2.6198   -1.8420    0.0000 C   0  0  0  0  0  0  0  0  0
    1.7948   -1.8420    0.0000 C   0  0  0  0  0  0  0  0  0
    1.3823   -2.5565    0.0000 N   0  0  0  0  0  0  0  0  0
    1.7948   -3.2710    0.0000 C   0  0  0  0  0  0  0  0  0
    2.6198   -3.2710    0.0000 C   0  0  0  0  0  0  0  0  0
    0.5665   -2.6795    0.0000 C   0  0  0  0  0  0  0  0  0
   -0.0382   -2.1183    0.0000 C   0  0  0  0  0  0  0  0  0
    0.0234   -1.2956    0.0000 C   0  0  0  0  0  0  0  0  0
    0.7051   -0.8309    0.0000 C   0  0  0  0  0  0  0  0  0
    1.4934   -1.0741    0.0000 C   0  0  0  0  0  0  0  0  0
    2.0982   -0.5129    0.0000 C   0  0  0  0  0  0  0  0  0
    1.9146    0.2914    0.0000 C   0  0  0  0  0  0  0  0  0
    1.1262    0.5346    0.0000 C   0  0  0  0  0  0  0  0  0
    0.5215   -0.0266    0.0000 C   0  0  0  0  0  0  0  0  0
   -0.8266   -2.3615    0.0000 C   0  0  0  0  0  0  0  0  0
   -1.0102   -3.1658    0.0000 C   0  0  0  0  0  0  0  0  0
   -0.4054   -3.7270    0.0000 C   0  0  0  0  0  0  0  0  0
    0.3829   -3.4838    0.0000 C   0  0  0  0  0  0  0  0  0
    6.8172   -1.7950    0.0000 C   0  0  0  0  0  0  0  0  0
    6.5623   -2.5796    0.0000 O   0  0  0  0  0  0  0  0  0
    7.6019   -1.5401    0.0000 C   0  0  0  0  0  0  0  0  0
    7.6019   -0.7151    0.0000 C   0  0  0  0  0  0  0  0  0
    8.3163   -0.3026    0.0000 C   0  0  0  0  0  0  0  0  0
    9.0308   -0.7151    0.0000 C   0  0  0  0  0  0  0  0  0
    9.0308   -1.5401    0.0000 C   0  0  0  0  0  0  0  0  0
    8.3163   -1.9526    0.0000 C   0  0  0  0  0  0  0  0  0
  1  2  2  0  0  0  0
  2  3  1  0  0  0  0
  2 30  1  0  0  0  0
  3  4  1  0  0  0  0
  3 27  1  0  0  0  0
  4  5  1  0  0  0  0
  5  6  1  0  0  0  0
  6  7  1  0  0  0  0
  7  8  1  0  0  0  0
  8  9  1  0  0  0  0
  8 13  1  0  0  0  0
  9 10  1  0  0  0  0
 10 11  1  0  0  0  0
 10 18  1  0  0  0  0
 11 12  1  0  0  0  0
 11 14  1  0  0  0  0
 12 13  1  0  0  0  0
 14 15  4  0  0  0  0
 14 26  4  0  0  0  0
 15 16  1  0  0  0  0
 15 23  4  0  0  0  0
 16 17  1  0  0  0  0
 17 18  4  0  0  0  0
 17 22  4  0  0  0  0
 18 19  4  0  0  0  0
 19 20  4  0  0  0  0
 20 21  4  0  0  0  0
 21 22  4  0  0  0  0
 23 24  4  0  0  0  0
 24 25  4  0  0  0  0
 25 26  4  0  0  0  0
 27 28  2  0  0  0  0
 27 29  1  0  0  0  0
 29 30  4  0  0  0  0
 29 34  4  0  0  0  0
 30 31  4  0  0  0  0
 31 32  4  0  0  0  0
 32 33  4  0  0  0  0
 33 34  4  0  0  0  0
M  END
>  <Name_Molregno>
405521

>  <DOPAMINE D2>
6.09

>  <DOPAMINE D3>
6.3

$$$$
405522
  Marvin  02231216192D 0   1.00000     0.00000     0

 36 41  0  0  1  0  0  0  0  0999 V2000
    0.8796   -3.0388    0.0000 O   0  0  0  0  0  0  0  0  0
    0.8796   -2.2138    0.0000 C   0  0  0  0  0  0  0  0  0
    0.1651   -1.8013    0.0000 N   0  0  0  0  0  0  0  0  0
   -0.5493   -2.2138    0.0000 C   0  0  0  0  0  0  0  0  0
   -1.2638   -1.8013    0.0000 C   0  0  0  0  0  0  0  0  0
   -1.9783   -2.2138    0.0000 C   0  0  0  0  0  0  0  0  0
   -2.6928   -1.8013    0.0000 C   0  0  0  0  0  0  0  0  0
   -3.4072   -2.2138    0.0000 N   0  0  0  0  0  0  0  0  0
   -4.1217   -1.8013    0.0000 C   0  0  0  0  0  0  0  0  0
   -4.8362   -2.2138    0.0000 C   0  0  0  0  0  0  0  0  0
   -4.8362   -3.0388    0.0000 N   0  0  0  0  0  0  0  0  0
   -4.1217   -3.4513    0.0000 C   0  0  0  0  0  0  0  0  0
   -3.4072   -3.0388    0.0000 C   0  0  0  0  0  0  0  0  0
   -5.4812   -3.5532    0.0000 C   0  0  0  0  0  0  0  0  0
   -6.2855   -3.3696    0.0000 C   0  0  0  0  0  0  0  0  0
   -6.6434   -2.6263    0.0000 C   0  0  0  0  0  0  0  0  0
   -6.2855   -1.8830    0.0000 C   0  0  0  0  0  0  0  0  0
   -5.4812   -1.6994    0.0000 C   0  0  0  0  0  0  0  0  0
   -5.2380   -0.9111    0.0000 C   0  0  0  0  0  0  0  0  0
   -5.7991   -0.3063    0.0000 C   0  0  0  0  0  0  0  0  0
   -6.6035   -0.4899    0.0000 C   0  0  0  0  0  0  0  0  0
   -6.8466   -1.2782    0.0000 C   0  0  0  0  0  0  0  0  0
   -6.8466   -3.9743    0.0000 C   0  0  0  0  0  0  0  0  0
   -6.6035   -4.7627    0.0000 C   0  0  0  0  0  0  0  0  0
   -5.7991   -4.9463    0.0000 C   0  0  0  0  0  0  0  0  0
   -5.2380   -4.3415    0.0000 C   0  0  0  0  0  0  0  0  0
    1.5941   -1.8013    0.0000 C   0  0  0  0  0  0  0  0  0
    2.3085   -2.2138    0.0000 C   0  0  0  0  0  0  0  0  0
    3.0230   -1.8013    0.0000 C   0  0  0  0  0  0  0  0  0
    3.0230   -0.9763    0.0000 C   0  0  0  0  0  0  0  0  0
    2.3085   -0.5638    0.0000 C   0  0  0  0  0  0  0  0  0
    1.5941   -0.9763    0.0000 C   0  0  0  0  0  0  0  0  0
    3.7375   -0.5638    0.0000 C   0  0  0  0  0  0  0  0  0
    4.4520   -0.9763    0.0000 C   0  0  0  0  0  0  0  0  0
    4.4520   -1.8013    0.0000 C   0  0  0  0  0  0  0  0  0
    3.7375   -2.2138    0.0000 C   0  0  0  0  0  0  0  0  0
  1  2  2  0  0  0  0
  2  3  1  0  0  0  0
  2 27  1  0  0  0  0
  3  4  1  0  0  0  0
  4  5  1  0  0  0  0
  5  6  1  0  0  0  0
  6  7  1  0  0  0  0
  7  8  1  0  0  0  0
  8  9  1  0  0  0  0
  8 13  1  0  0  0  0
  9 10  1  0  0  0  0
 10 11  1  0  0  0  0
 10 18  1  0  0  0  0
 11 12  1  0  0  0  0
 11 14  1  0  0  0  0
 12 13  1  0  0  0  0
 14 15  4  0  0  0  0
 14 26  4  0  0  0  0
 15 16  1  0  0  0  0
 15 23  4  0  0  0  0
 16 17  1  0  0  0  0
 17 18  4  0  0  0  0
 17 22  4  0  0  0  0
 18 19  4  0  0  0  0
 19 20  4  0  0  0  0
 20 21  4  0  0  0  0
 21 22  4  0  0  0  0
 23 24  4  0  0  0  0
 24 25  4  0  0  0  0
 25 26  4  0  0  0  0
 27 28  4  0  0  0  0
 27 32  4  0  0  0  0
 28 29  4  0  0  0  0
 29 30  4  0  0  0  0
 29 36  4  0  0  0  0
 30 31  4  0  0  0  0
 30 33  4  0  0  0  0
 31 32  4  0  0  0  0
 33 34  4  0  0  0  0
 34 35  4  0  0  0  0
 35 36  4  0  0  0  0
M  END
>  <Name_Molregno>
405522

>  <DOPAMINE D2>
5.88

>  <DOPAMINE D3>
6

$$$$
405523
  Marvin  02231216192D 0   1.00000     0.00000     0

 34 38  0  0  1  0  0  0  0  0999 V2000
   -0.5021   -2.3520    0.0000 O   0  0  0  0  0  0  0  0  0
   -0.5021   -1.5270    0.0000 C   0  0  0  0  0  0  0  0  0
    0.2124   -1.1145    0.0000 N   0  0  0  0  0  0  0  0  0
    0.9268   -1.5270    0.0000 C   0  0  0  0  0  0  0  0  0
    1.6413   -1.1145    0.0000 C   0  0  0  0  0  0  0  0  0
    2.3558   -1.5270    0.0000 C   0  0  0  0  0  0  0  0  0
    3.0702   -1.1145    0.0000 C   0  0  0  0  0  0  0  0  0
    3.7847   -1.5270    0.0000 N   0  0  0  0  0  0  0  0  0
    3.7847   -2.3520    0.0000 C   0  0  0  0  0  0  0  0  0
    4.4992   -2.7645    0.0000 C   0  0  0  0  0  0  0  0  0
    5.2136   -2.3520    0.0000 N   0  0  0  0  0  0  0  0  0
    5.2136   -1.5270    0.0000 C   0  0  0  0  0  0  0  0  0
    4.4992   -1.1145    0.0000 C   0  0  0  0  0  0  0  0  0
    5.9816   -2.6534    0.0000 C   0  0  0  0  0  0  0  0  0
    6.2248   -3.4417    0.0000 C   0  0  0  0  0  0  0  0  0
    5.7601   -4.1234    0.0000 C   0  0  0  0  0  0  0  0  0
    4.9374   -4.1850    0.0000 C   0  0  0  0  0  0  0  0  0
    4.3762   -3.5803    0.0000 C   0  0  0  0  0  0  0  0  0
    3.5719   -3.7639    0.0000 C   0  0  0  0  0  0  0  0  0
    3.3287   -4.5522    0.0000 C   0  0  0  0  0  0  0  0  0
    3.8899   -5.1570    0.0000 C   0  0  0  0  0  0  0  0  0
    4.6942   -4.9734    0.0000 C   0  0  0  0  0  0  0  0  0
    7.0291   -3.6253    0.0000 C   0  0  0  0  0  0  0  0  0
    7.5903   -3.0206    0.0000 C   0  0  0  0  0  0  0  0  0
    7.3471   -2.2322    0.0000 C   0  0  0  0  0  0  0  0  0
    6.5428   -2.0486    0.0000 C   0  0  0  0  0  0  0  0  0
   -1.2166   -1.1145    0.0000 C   0  0  0  0  0  0  0  0  0
   -1.9311   -1.5270    0.0000 C   0  0  0  0  0  0  0  0  0
   -2.6455   -1.1145    0.0000 C   0  0  0  0  0  0  0  0  0
   -3.3600   -1.5270    0.0000 C   0  0  0  0  0  0  0  0  0
   -4.0745   -1.1145    0.0000 C   0  0  0  0  0  0  0  0  0
   -4.0745   -0.2895    0.0000 C   0  0  0  0  0  0  0  0  0
   -3.3600    0.1230    0.0000 C   0  0  0  0  0  0  0  0  0
   -2.6455   -0.2895    0.0000 C   0  0  0  0  0  0  0  0  0
  1  2  2  0  0  0  0
  2  3  1  0  0  0  0
  2 27  1  0  0  0  0
  3  4  1  0  0  0  0
  4  5  1  0  0  0  0
  5  6  1  0  0  0  0
  6  7  1  0  0  0  0
  7  8  1  0  0  0  0
  8  9  1  0  0  0  0
  8 13  1  0  0  0  0
  9 10  1  0  0  0  0
 10 11  1  0  0  0  0
 10 18  1  0  0  0  0
 11 12  1  0  0  0  0
 11 14  1  0  0  0  0
 12 13  1  0  0  0  0
 14 15  4  0  0  0  0
 14 26  4  0  0  0  0
 15 16  1  0  0  0  0
 15 23  4  0  0  0  0
 16 17  1  0  0  0  0
 17 18  4  0  0  0  0
 17 22  4  0  0  0  0
 18 19  4  0  0  0  0
 19 20  4  0  0  0  0
 20 21  4  0  0  0  0
 21 22  4  0  0  0  0
 23 24  4  0  0  0  0
 24 25  4  0  0  0  0
 25 26  4  0  0  0  0
 27 28  2  0  0  0  0
 28 29  1  0  0  0  0
 29 30  4  0  0  0  0
 29 34  4  0  0  0  0
 30 31  4  0  0  0  0
 31 32  4  0  0  0  0
 32 33  4  0  0  0  0
 33 34  4  0  0  0  0
M  END
>  <Name_Molregno>
405523

>  <DOPAMINE D2>
6.37

>  <DOPAMINE D3>
7.3

$$$$
405524
  Marvin  02231216192D 0   1.00000     0.00000     0

 35 40  0  0  1  0  0  0  0  0999 V2000
    1.7893    3.7507    0.0000 S   0  0  0  0  0  0  0  0  0
    1.1762    4.3027    0.0000 C   0  0  0  0  0  0  0  0  0
    0.4618    3.8902    0.0000 C   0  0  0  0  0  0  0  0  0
    0.6333    3.0832    0.0000 C   0  0  0  0  0  0  0  0  0
    1.4538    2.9970    0.0000 C   0  0  0  0  0  0  0  0  0
    1.8663    2.2825    0.0000 C   0  0  0  0  0  0  0  0  0
    1.4538    1.5680    0.0000 O   0  0  0  0  0  0  0  0  0
    2.6913    2.2825    0.0000 N   0  0  0  0  0  0  0  0  0
    3.1038    1.5680    0.0000 C   0  0  0  0  0  0  0  0  0
    3.9288    1.5680    0.0000 C   0  0  0  0  0  0  0  0  0
    4.3413    0.8536    0.0000 C   0  0  0  0  0  0  0  0  0
    5.1663    0.8536    0.0000 C   0  0  0  0  0  0  0  0  0
    5.5788    0.1391    0.0000 N   0  0  0  0  0  0  0  0  0
    5.1663   -0.5754    0.0000 C   0  0  0  0  0  0  0  0  0
    5.5788   -1.2898    0.0000 C   0  0  0  0  0  0  0  0  0
    6.4038   -1.2898    0.0000 N   0  0  0  0  0  0  0  0  0
    6.8163   -0.5754    0.0000 C   0  0  0  0  0  0  0  0  0
    6.4038    0.1391    0.0000 C   0  0  0  0  0  0  0  0  0
    6.9181   -1.9349    0.0000 C   0  0  0  0  0  0  0  0  0
    6.7346   -2.7392    0.0000 C   0  0  0  0  0  0  0  0  0
    5.9913   -3.0971    0.0000 C   0  0  0  0  0  0  0  0  0
    5.2480   -2.7392    0.0000 C   0  0  0  0  0  0  0  0  0
    5.0644   -1.9349    0.0000 C   0  0  0  0  0  0  0  0  0
    4.2760   -1.6917    0.0000 C   0  0  0  0  0  0  0  0  0
    3.6713   -2.2528    0.0000 C   0  0  0  0  0  0  0  0  0
    3.8549   -3.0571    0.0000 C   0  0  0  0  0  0  0  0  0
    4.6432   -3.3003    0.0000 C   0  0  0  0  0  0  0  0  0
    7.3393   -3.3003    0.0000 C   0  0  0  0  0  0  0  0  0
    8.1277   -3.0571    0.0000 C   0  0  0  0  0  0  0  0  0
    8.3113   -2.2528    0.0000 C   0  0  0  0  0  0  0  0  0
    7.7065   -1.6917    0.0000 C   0  0  0  0  0  0  0  0  0
   -0.2527    4.3027    0.0000 C   0  0  0  0  0  0  0  0  0
   -0.2527    5.1277    0.0000 C   0  0  0  0  0  0  0  0  0
    0.4618    5.5402    0.0000 C   0  0  0  0  0  0  0  0  0
    1.1762    5.1277    0.0000 C   0  0  0  0  0  0  0  0  0
  1  2  4  0  0  0  0
  1  5  4  0  0  0  0
  2  3  4  0  0  0  0
  2 35  4  0  0  0  0
  3  4  4  0  0  0  0
  3 32  4  0  0  0  0
  4  5  4  0  0  0  0
  5  6  1  0  0  0  0
  6  7  2  0  0  0  0
  6  8  1  0  0  0  0
  8  9  1  0  0  0  0
  9 10  1  0  0  0  0
 10 11  1  0  0  0  0
 11 12  1  0  0  0  0
 12 13  1  0  0  0  0
 13 14  1  0  0  0  0
 13 18  1  0  0  0  0
 14 15  1  0  0  0  0
 15 16  1  0  0  0  0
 15 23  1  0  0  0  0
 16 17  1  0  0  0  0
 16 19  1  0  0  0  0
 17 18  1  0  0  0  0
 19 20  4  0  0  0  0
 19 31  4  0  0  0  0
 20 21  1  0  0  0  0
 20 28  4  0  0  0  0
 21 22  1  0  0  0  0
 22 23  4  0  0  0  0
 22 27  4  0  0  0  0
 23 24  4  0  0  0  0
 24 25  4  0  0  0  0
 25 26  4  0  0  0  0
 26 27  4  0  0  0  0
 28 29  4  0  0  0  0
 29 30  4  0  0  0  0
 30 31  4  0  0  0  0
 32 33  4  0  0  0  0
 33 34  4  0  0  0  0
 34 35  4  0  0  0  0
M  END
>  <Name_Molregno>
405524

>  <DOPAMINE D2>
5.31

>  <DOPAMINE D3>
6

$$$$
405525
  Marvin  02231216192D 0   1.00000     0.00000     0

 31 35  0  0  1  0  0  0  0  0999 V2000
    0.5262   -1.2055    0.0000 S   0  0  0  0  0  0  0  0  0
   -0.2807   -1.3770    0.0000 C   0  0  0  0  0  0  0  0  0
   -0.6932   -0.6626    0.0000 C   0  0  0  0  0  0  0  0  0
   -0.1412   -0.0495    0.0000 C   0  0  0  0  0  0  0  0  0
    0.6125   -0.3850    0.0000 C   0  0  0  0  0  0  0  0  0
    1.3269    0.0275    0.0000 C   0  0  0  0  0  0  0  0  0
    1.3269    0.8525    0.0000 O   0  0  0  0  0  0  0  0  0
    2.0414   -0.3850    0.0000 N   0  0  0  0  0  0  0  0  0
    2.7559    0.0275    0.0000 C   0  0  0  0  0  0  0  0  0
    3.4703   -0.3850    0.0000 C   0  0  0  0  0  0  0  0  0
    4.1848    0.0275    0.0000 C   0  0  0  0  0  0  0  0  0
    4.8993   -0.3850    0.0000 C   0  0  0  0  0  0  0  0  0
    5.6138    0.0275    0.0000 N   0  0  0  0  0  0  0  0  0
    6.3282   -0.3850    0.0000 C   0  0  0  0  0  0  0  0  0
    7.0427    0.0275    0.0000 C   0  0  0  0  0  0  0  0  0
    7.0427    0.8525    0.0000 N   0  0  0  0  0  0  0  0  0
    6.3282    1.2650    0.0000 C   0  0  0  0  0  0  0  0  0
    5.6138    0.8525    0.0000 C   0  0  0  0  0  0  0  0  0
    7.6877    1.3669    0.0000 C   0  0  0  0  0  0  0  0  0
    8.4920    1.1833    0.0000 C   0  0  0  0  0  0  0  0  0
    8.8500    0.4400    0.0000 C   0  0  0  0  0  0  0  0  0
    8.4920   -0.3033    0.0000 C   0  0  0  0  0  0  0  0  0
    7.6877   -0.4869    0.0000 C   0  0  0  0  0  0  0  0  0
    7.4445   -1.2752    0.0000 C   0  0  0  0  0  0  0  0  0
    8.0057   -1.8800    0.0000 C   0  0  0  0  0  0  0  0  0
    8.8100   -1.6964    0.0000 C   0  0  0  0  0  0  0  0  0
    9.0532   -0.9081    0.0000 C   0  0  0  0  0  0  0  0  0
    9.0532    1.7880    0.0000 C   0  0  0  0  0  0  0  0  0
    8.8100    2.5764    0.0000 C   0  0  0  0  0  0  0  0  0
    8.0057    2.7600    0.0000 C   0  0  0  0  0  0  0  0  0
    7.4445    2.1552    0.0000 C   0  0  0  0  0  0  0  0  0
  1  2  4  0  0  0  0
  1  5  4  0  0  0  0
  2  3  4  0  0  0  0
  3  4  4  0  0  0  0
  4  5  4  0  0  0  0
  5  6  1  0  0  0  0
  6  7  2  0  0  0  0
  6  8  1  0  0  0  0
  8  9  1  0  0  0  0
  9 10  1  0  0  0  0
 10 11  1  0  0  0  0
 11 12  1  0  0  0  0
 12 13  1  0  0  0  0
 13 14  1  0  0  0  0
 13 18  1  0  0  0  0
 14 15  1  0  0  0  0
 15 16  1  0  0  0  0
 15 23  1  0  0  0  0
 16 17  1  0  0  0  0
 16 19  1  0  0  0  0
 17 18  1  0  0  0  0
 19 20  4  0  0  0  0
 19 31  4  0  0  0  0
 20 21  1  0  0  0  0
 20 28  4  0  0  0  0
 21 22  1  0  0  0  0
 22 23  4  0  0  0  0
 22 27  4  0  0  0  0
 23 24  4  0  0  0  0
 24 25  4  0  0  0  0
 25 26  4  0  0  0  0
 26 27  4  0  0  0  0
 28 29  4  0  0  0  0
 29 30  4  0  0  0  0
 30 31  4  0  0  0  0
M  END
>  <Name_Molregno>
405525

>  <DOPAMINE D2>
6.3

>  <DOPAMINE D3>
6.3

$$$$
405527
  Marvin  02231216192D 0   1.00000     0.00000     0

 32 36  0  0  1  0  0  0  0  0999 V2000
    0.3009   -0.7788    0.0000 O   0  0  0  0  0  0  0  0  0
    0.3009    0.0462    0.0000 C   0  0  0  0  0  0  0  0  0
    1.0153    0.4587    0.0000 N   0  0  0  0  0  0  0  0  0
    1.7298    0.0462    0.0000 C   0  0  0  0  0  0  0  0  0
    2.4443    0.4587    0.0000 C   0  0  0  0  0  0  0  0  0
    3.1588    0.0462    0.0000 C   0  0  0  0  0  0  0  0  0
    3.8732    0.4587    0.0000 C   0  0  0  0  0  0  0  0  0
    4.5877    0.0462    0.0000 N   0  0  0  0  0  0  0  0  0
    4.5877   -0.7788    0.0000 C   0  0  0  0  0  0  0  0  0
    5.3022   -1.1913    0.0000 C   0  0  0  0  0  0  0  0  0
    6.0166   -0.7788    0.0000 N   0  0  0  0  0  0  0  0  0
    6.0166    0.0462    0.0000 C   0  0  0  0  0  0  0  0  0
    5.3022    0.4587    0.0000 C   0  0  0  0  0  0  0  0  0
    6.7846   -1.0802    0.0000 C   0  0  0  0  0  0  0  0  0
    7.0278   -1.8686    0.0000 C   0  0  0  0  0  0  0  0  0
    6.5630   -2.5502    0.0000 C   0  0  0  0  0  0  0  0  0
    5.7404   -2.6119    0.0000 C   0  0  0  0  0  0  0  0  0
    5.1792   -2.0071    0.0000 C   0  0  0  0  0  0  0  0  0
    4.3749   -2.1907    0.0000 C   0  0  0  0  0  0  0  0  0
    4.1317   -2.9790    0.0000 C   0  0  0  0  0  0  0  0  0
    4.6929   -3.5838    0.0000 C   0  0  0  0  0  0  0  0  0
    5.4972   -3.4002    0.0000 C   0  0  0  0  0  0  0  0  0
    7.8321   -2.0521    0.0000 C   0  0  0  0  0  0  0  0  0
    8.3932   -1.4474    0.0000 C   0  0  0  0  0  0  0  0  0
    8.1501   -0.6590    0.0000 C   0  0  0  0  0  0  0  0  0
    7.3458   -0.4755    0.0000 C   0  0  0  0  0  0  0  0  0
   -0.4136    0.4587    0.0000 C   0  0  0  0  0  0  0  0  0
   -1.1281    0.0462    0.0000 C   0  0  0  0  0  0  0  0  0
   -1.8425    0.4587    0.0000 C   0  0  0  0  0  0  0  0  0
   -1.8425    1.2837    0.0000 C   0  0  0  0  0  0  0  0  0
   -1.1281    1.6962    0.0000 C   0  0  0  0  0  0  0  0  0
   -0.4136    1.2837    0.0000 C   0  0  0  0  0  0  0  0  0
  1  2  2  0  0  0  0
  2  3  1  0  0  0  0
  2 27  1  0  0  0  0
  3  4  1  0  0  0  0
  4  5  1  0  0  0  0
  5  6  1  0  0  0  0
  6  7  1  0  0  0  0
  7  8  1  0  0  0  0
  8  9  1  0  0  0  0
  8 13  1  0  0  0  0
  9 10  1  0  0  0  0
 10 11  1  0  0  0  0
 10 18  1  0  0  0  0
 11 12  1  0  0  0  0
 11 14  1  0  0  0  0
 12 13  1  0  0  0  0
 14 15  4  0  0  0  0
 14 26  4  0  0  0  0
 15 16  1  0  0  0  0
 15 23  4  0  0  0  0
 16 17  1  0  0  0  0
 17 18  4  0  0  0  0
 17 22  4  0  0  0  0
 18 19  4  0  0  0  0
 19 20  4  0  0  0  0
 20 21  4  0  0  0  0
 21 22  4  0  0  0  0
 23 24  4  0  0  0  0
 24 25  4  0  0  0  0
 25 26  4  0  0  0  0
 27 28  1  0  0  0  0
 27 32  1  0  0  0  0
 28 29  1  0  0  0  0
 29 30  1  0  0  0  0
 30 31  1  0  0  0  0
 31 32  1  0  0  0  0
M  END
>  <Name_Molregno>
405527

>  <DOPAMINE D2>
6.59

>  <DOPAMINE D3>
6

$$$$
405528
  Marvin  02231216192D 0   1.00000     0.00000     0

 36 41  0  0  0  0  0  0  0  0999 V2000
   -0.4154   -0.6655    0.0000 S   0  0  0  0  0  0  0  0  0
   -0.3414   -1.4871    0.0000 C   0  0  0  0  0  0  0  0  0
    0.4629   -1.6707    0.0000 C   0  0  0  0  0  0  0  0  0
    0.8860   -0.9625    0.0000 C   0  0  0  0  0  0  0  0  0
    0.3432   -0.3412    0.0000 C   0  0  0  0  0  0  0  0  0
    0.8209   -2.4140    0.0000 C   0  0  0  0  0  0  0  0  0
    0.4629   -3.1573    0.0000 C   0  0  0  0  0  0  0  0  0
   -0.3414   -3.3409    0.0000 C   0  0  0  0  0  0  0  0  0
   -0.9864   -2.8265    0.0000 C   0  0  0  0  0  0  0  0  0
   -0.9864   -2.0015    0.0000 C   0  0  0  0  0  0  0  0  0
   -1.7297   -1.6436    0.0000 O   0  0  0  0  0  0  0  0  0
   -0.5846   -4.1292    0.0000 C   0  0  0  0  0  0  0  0  0
   -0.0234   -4.7340    0.0000 C   0  0  0  0  0  0  0  0  0
    0.7809   -4.5504    0.0000 C   0  0  0  0  0  0  0  0  0
    1.0240   -3.7621    0.0000 C   0  0  0  0  0  0  0  0  0
    1.6459   -2.4140    0.0000 C   0  0  0  0  0  0  0  0  0
    2.0584   -3.1285    0.0000 C   0  0  0  0  0  0  0  0  0
    2.8834   -3.1285    0.0000 C   0  0  0  0  0  0  0  0  0
    3.2959   -2.4140    0.0000 N   0  0  0  0  0  0  0  0  0
    2.8834   -1.6995    0.0000 C   0  0  0  0  0  0  0  0  0
    2.0584   -1.6995    0.0000 C   0  0  0  0  0  0  0  0  0
    4.1209   -2.4140    0.0000 C   0  0  0  0  0  0  0  0  0
    4.5334   -1.6995    0.0000 C   0  0  0  0  0  0  0  0  0
    5.3584   -1.6995    0.0000 C   0  0  0  0  0  0  0  0  0
    5.7709   -0.9851    0.0000 C   0  0  0  0  0  0  0  0  0
    6.5959   -0.9851    0.0000 N   0  0  0  0  0  0  0  0  0
    7.0808   -1.6525    0.0000 C   0  0  0  0  0  0  0  0  0
    6.8258   -2.4371    0.0000 O   0  0  0  0  0  0  0  0  0
    7.8654   -1.3976    0.0000 C   0  0  0  0  0  0  0  0  0
    7.8654   -0.5726    0.0000 C   0  0  0  0  0  0  0  0  0
    8.5799   -0.1601    0.0000 C   0  0  0  0  0  0  0  0  0
    9.2943   -0.5726    0.0000 C   0  0  0  0  0  0  0  0  0
    9.2943   -1.3976    0.0000 C   0  0  0  0  0  0  0  0  0
    8.5799   -1.8101    0.0000 C   0  0  0  0  0  0  0  0  0
    7.0808   -0.3176    0.0000 C   0  0  0  0  0  0  0  0  0
    6.8258    0.4670    0.0000 O   0  0  0  0  0  0  0  0  0
  1  2  4  0  0  0  0
  1  5  4  0  0  0  0
  2  3  4  0  0  0  0
  2 10  1  0  0  0  0
  3  4  4  0  0  0  0
  3  6  1  0  0  0  0
  4  5  4  0  0  0  0
  6  7  1  0  0  0  0
  6 16  2  0  0  0  0
  7  8  4  0  0  0  0
  7 15  4  0  0  0  0
  8  9  1  0  0  0  0
  8 12  4  0  0  0  0
  9 10  1  0  0  0  0
 10 11  2  0  0  0  0
 12 13  4  0  0  0  0
 13 14  4  0  0  0  0
 14 15  4  0  0  0  0
 16 17  1  0  0  0  0
 16 21  1  0  0  0  0
 17 18  1  0  0  0  0
 18 19  1  0  0  0  0
 19 20  1  0  0  0  0
 19 22  1  0  0  0  0
 20 21  1  0  0  0  0
 22 23  1  0  0  0  0
 23 24  1  0  0  0  0
 24 25  1  0  0  0  0
 25 26  1  0  0  0  0
 26 27  1  0  0  0  0
 26 35  1  0  0  0  0
 27 28  2  0  0  0  0
 27 29  1  0  0  0  0
 29 30  4  0  0  0  0
 29 34  4  0  0  0  0
 30 31  4  0  0  0  0
 30 35  1  0  0  0  0
 31 32  4  0  0  0  0
 32 33  4  0  0  0  0
 33 34  4  0  0  0  0
 35 36  2  0  0  0  0
M  END
>  <Name_Molregno>
405528

>  <DOPAMINE D2>
5.94

>  <DOPAMINE D3>
7

$$$$
405532
  Marvin  02231216192D 0   1.00000     0.00000     0

 38 43  0  0  0  0  0  0  0  0999 V2000
   -0.9280   -0.8716    0.0000 S   0  0  0  0  0  0  0  0  0
   -0.4531   -1.5462    0.0000 C   0  0  0  0  0  0  0  0  0
    0.3352   -1.3031    0.0000 C   0  0  0  0  0  0  0  0  0
    0.3476   -0.4782    0.0000 C   0  0  0  0  0  0  0  0  0
   -0.4331   -0.2115    0.0000 C   0  0  0  0  0  0  0  0  0
    1.0169   -1.7678    0.0000 C   0  0  0  0  0  0  0  0  0
    1.0785   -2.5905    0.0000 C   0  0  0  0  0  0  0  0  0
    0.4738   -3.1516    0.0000 C   0  0  0  0  0  0  0  0  0
   -0.3420   -3.0287    0.0000 C   0  0  0  0  0  0  0  0  0
   -0.7545   -2.3142    0.0000 C   0  0  0  0  0  0  0  0  0
   -1.5772   -2.3759    0.0000 O   0  0  0  0  0  0  0  0  0
    0.6574   -3.9560    0.0000 C   0  0  0  0  0  0  0  0  0
    1.4457   -4.1991    0.0000 C   0  0  0  0  0  0  0  0  0
    2.0505   -3.6380    0.0000 C   0  0  0  0  0  0  0  0  0
    1.8669   -2.8337    0.0000 C   0  0  0  0  0  0  0  0  0
    1.7314   -1.3553    0.0000 C   0  0  0  0  0  0  0  0  0
    2.4458   -1.7678    0.0000 C   0  0  0  0  0  0  0  0  0
    3.1603   -1.3553    0.0000 C   0  0  0  0  0  0  0  0  0
    3.1603   -0.5303    0.0000 N   0  0  0  0  0  0  0  0  0
    2.4458   -0.1178    0.0000 C   0  0  0  0  0  0  0  0  0
    1.7314   -0.5303    0.0000 C   0  0  0  0  0  0  0  0  0
    3.8748   -0.1178    0.0000 C   0  0  0  0  0  0  0  0  0
    4.5892   -0.5303    0.0000 C   0  0  0  0  0  0  0  0  0
    5.3037   -0.1178    0.0000 C   0  0  0  0  0  0  0  0  0
    6.0182   -0.5303    0.0000 C   0  0  0  0  0  0  0  0  0
    6.7327   -0.1178    0.0000 N   0  0  0  0  0  0  0  0  0
    7.4471   -0.5303    0.0000 C   0  0  0  0  0  0  0  0  0
    7.4471   -1.3553    0.0000 O   0  0  0  0  0  0  0  0  0
    8.1616   -0.1178    0.0000 C   0  0  0  0  0  0  0  0  0
    8.8761   -0.5303    0.0000 C   0  0  0  0  0  0  0  0  0
    9.5905   -0.1178    0.0000 C   0  0  0  0  0  0  0  0  0
    9.5905    0.7072    0.0000 C   0  0  0  0  0  0  0  0  0
    8.8761    1.1197    0.0000 C   0  0  0  0  0  0  0  0  0
    8.1616    0.7072    0.0000 C   0  0  0  0  0  0  0  0  0
   10.3050    1.1197    0.0000 C   0  0  0  0  0  0  0  0  0
   11.0195    0.7072    0.0000 C   0  0  0  0  0  0  0  0  0
   11.0195   -0.1178    0.0000 C   0  0  0  0  0  0  0  0  0
   10.3050   -0.5303    0.0000 C   0  0  0  0  0  0  0  0  0
  1  2  4  0  0  0  0
  1  5  4  0  0  0  0
  2  3  4  0  0  0  0
  2 10  1  0  0  0  0
  3  4  4  0  0  0  0
  3  6  1  0  0  0  0
  4  5  4  0  0  0  0
  6  7  1  0  0  0  0
  6 16  2  0  0  0  0
  7  8  4  0  0  0  0
  7 15  4  0  0  0  0
  8  9  1  0  0  0  0
  8 12  4  0  0  0  0
  9 10  1  0  0  0  0
 10 11  2  0  0  0  0
 12 13  4  0  0  0  0
 13 14  4  0  0  0  0
 14 15  4  0  0  0  0
 16 17  1  0  0  0  0
 16 21  1  0  0  0  0
 17 18  1  0  0  0  0
 18 19  1  0  0  0  0
 19 20  1  0  0  0  0
 19 22  1  0  0  0  0
 20 21  1  0  0  0  0
 22 23  1  0  0  0  0
 23 24  1  0  0  0  0
 24 25  1  0  0  0  0
 25 26  1  0  0  0  0
 26 27  1  0  0  0  0
 27 28  2  0  0  0  0
 27 29  1  0  0  0  0
 29 30  4  0  0  0  0
 29 34  4  0  0  0  0
 30 31  4  0  0  0  0
 31 32  4  0  0  0  0
 31 38  4  0  0  0  0
 32 33  4  0  0  0  0
 32 35  4  0  0  0  0
 33 34  4  0  0  0  0
 35 36  4  0  0  0  0
 36 37  4  0  0  0  0
 37 38  4  0  0  0  0
M  END
>  <Name_Molregno>
405532

>  <DOPAMINE D2>
6

>  <DOPAMINE D3>
7.96

$$$$
405536
  Marvin  02231216192D 0   1.00000     0.00000     0

 39 44  0  0  0  0  0  0  0  0999 V2000
   -0.1881   -0.1394    0.0000 Cl  0  0  0  0  0  0  0  0  0
    0.4167   -0.7005    0.0000 C   0  0  0  0  0  0  0  0  0
    0.2331   -1.5048    0.0000 C   0  0  0  0  0  0  0  0  0
    0.8379   -2.0660    0.0000 C   0  0  0  0  0  0  0  0  0
    1.6262   -1.8228    0.0000 C   0  0  0  0  0  0  0  0  0
    1.8098   -1.0185    0.0000 C   0  0  0  0  0  0  0  0  0
    1.2050   -0.4573    0.0000 C   0  0  0  0  0  0  0  0  0
    2.3078   -2.2875    0.0000 C   0  0  0  0  0  0  0  0  0
    2.3695   -3.1102    0.0000 C   0  0  0  0  0  0  0  0  0
    3.1578   -3.3534    0.0000 N   0  0  0  0  0  0  0  0  0
    3.3414   -4.1577    0.0000 C   0  0  0  0  0  0  0  0  0
    2.7367   -4.7188    0.0000 C   0  0  0  0  0  0  0  0  0
    1.9483   -4.4757    0.0000 C   0  0  0  0  0  0  0  0  0
    1.7647   -3.6714    0.0000 C   0  0  0  0  0  0  0  0  0
    0.9489   -3.5484    0.0000 C   0  0  0  0  0  0  0  0  0
    0.5364   -2.8339    0.0000 C   0  0  0  0  0  0  0  0  0
    3.0223   -1.8750    0.0000 C   0  0  0  0  0  0  0  0  0
    3.7368   -2.2875    0.0000 C   0  0  0  0  0  0  0  0  0
    4.4513   -1.8750    0.0000 C   0  0  0  0  0  0  0  0  0
    4.4513   -1.0500    0.0000 N   0  0  0  0  0  0  0  0  0
    3.7368   -0.6375    0.0000 C   0  0  0  0  0  0  0  0  0
    3.0223   -1.0500    0.0000 C   0  0  0  0  0  0  0  0  0
    5.1657   -0.6375    0.0000 C   0  0  0  0  0  0  0  0  0
    5.8802   -1.0500    0.0000 C   0  0  0  0  0  0  0  0  0
    6.5947   -0.6375    0.0000 C   0  0  0  0  0  0  0  0  0
    7.3091   -1.0500    0.0000 C   0  0  0  0  0  0  0  0  0
    8.0236   -0.6375    0.0000 N   0  0  0  0  0  0  0  0  0
    8.7381   -1.0500    0.0000 C   0  0  0  0  0  0  0  0  0
    8.7381   -1.8750    0.0000 O   0  0  0  0  0  0  0  0  0
    9.4526   -0.6375    0.0000 C   0  0  0  0  0  0  0  0  0
   10.1670   -1.0500    0.0000 C   0  0  0  0  0  0  0  0  0
   10.8815   -0.6375    0.0000 C   0  0  0  0  0  0  0  0  0
   10.8815    0.1875    0.0000 C   0  0  0  0  0  0  0  0  0
   10.1670    0.6000    0.0000 C   0  0  0  0  0  0  0  0  0
    9.4526    0.1875    0.0000 C   0  0  0  0  0  0  0  0  0
   11.5960    0.6000    0.0000 C   0  0  0  0  0  0  0  0  0
   12.3104    0.1875    0.0000 C   0  0  0  0  0  0  0  0  0
   12.3104   -0.6375    0.0000 C   0  0  0  0  0  0  0  0  0
   11.5960   -1.0500    0.0000 C   0  0  0  0  0  0  0  0  0
  1  2  1  0  0  0  0
  2  3  4  0  0  0  0
  2  7  4  0  0  0  0
  3  4  4  0  0  0  0
  4  5  4  0  0  0  0
  4 16  1  0  0  0  0
  5  6  4  0  0  0  0
  5  8  1  0  0  0  0
  6  7  4  0  0  0  0
  8  9  1  0  0  0  0
  8 17  2  0  0  0  0
  9 10  4  0  0  0  0
  9 14  4  0  0  0  0
 10 11  4  0  0  0  0
 11 12  4  0  0  0  0
 12 13  4  0  0  0  0
 13 14  4  0  0  0  0
 14 15  1  0  0  0  0
 15 16  1  0  0  0  0
 17 18  1  0  0  0  0
 17 22  1  0  0  0  0
 18 19  1  0  0  0  0
 19 20  1  0  0  0  0
 20 21  1  0  0  0  0
 20 23  1  0  0  0  0
 21 22  1  0  0  0  0
 23 24  1  0  0  0  0
 24 25  1  0  0  0  0
 25 26  1  0  0  0  0
 26 27  1  0  0  0  0
 27 28  1  0  0  0  0
 28 29  2  0  0  0  0
 28 30  1  0  0  0  0
 30 31  4  0  0  0  0
 30 35  4  0  0  0  0
 31 32  4  0  0  0  0
 32 33  4  0  0  0  0
 32 39  4  0  0  0  0
 33 34  4  0  0  0  0
 33 36  4  0  0  0  0
 34 35  4  0  0  0  0
 36 37  4  0  0  0  0
 37 38  4  0  0  0  0
 38 39  4  0  0  0  0
M  END
>  <Name_Molregno>
405536

>  <DOPAMINE D2>
6.6

>  <DOPAMINE D3>
8.22

$$$$
405539
  Marvin  02231216192D 0   1.00000     0.00000     0

 38 43  0  0  0  0  0  0  0  0999 V2000
   -9.1174    1.0994    0.0000 Cl  0  0  0  0  0  0  0  0  0
   -8.8743    0.3110    0.0000 C   0  0  0  0  0  0  0  0  0
   -9.4354   -0.2937    0.0000 C   0  0  0  0  0  0  0  0  0
   -9.1922   -1.0821    0.0000 C   0  0  0  0  0  0  0  0  0
   -8.3879   -1.2657    0.0000 C   0  0  0  0  0  0  0  0  0
   -7.8268   -0.6609    0.0000 C   0  0  0  0  0  0  0  0  0
   -8.0700    0.1275    0.0000 C   0  0  0  0  0  0  0  0  0
   -8.0300   -2.0090    0.0000 C   0  0  0  0  0  0  0  0  0
   -8.3879   -2.7523    0.0000 C   0  0  0  0  0  0  0  0  0
   -7.8268   -3.3570    0.0000 N   0  0  0  0  0  0  0  0  0
   -8.0700   -4.1454    0.0000 C   0  0  0  0  0  0  0  0  0
   -8.8743   -4.3290    0.0000 C   0  0  0  0  0  0  0  0  0
   -9.4354   -3.7242    0.0000 C   0  0  0  0  0  0  0  0  0
   -9.1922   -2.9358    0.0000 C   0  0  0  0  0  0  0  0  0
   -9.8373   -2.4215    0.0000 C   0  0  0  0  0  0  0  0  0
   -9.8373   -1.5965    0.0000 C   0  0  0  0  0  0  0  0  0
   -7.2050   -2.0090    0.0000 C   0  0  0  0  0  0  0  0  0
   -6.7925   -1.2945    0.0000 C   0  0  0  0  0  0  0  0  0
   -5.9675   -1.2945    0.0000 C   0  0  0  0  0  0  0  0  0
   -5.5550   -2.0090    0.0000 N   0  0  0  0  0  0  0  0  0
   -5.9675   -2.7234    0.0000 C   0  0  0  0  0  0  0  0  0
   -6.7925   -2.7234    0.0000 C   0  0  0  0  0  0  0  0  0
   -4.7300   -2.0090    0.0000 C   0  0  0  0  0  0  0  0  0
   -4.3175   -1.2945    0.0000 C   0  0  0  0  0  0  0  0  0
   -3.4925   -1.2945    0.0000 C   0  0  0  0  0  0  0  0  0
   -3.0800   -0.5800    0.0000 C   0  0  0  0  0  0  0  0  0
   -2.2550   -0.5800    0.0000 N   0  0  0  0  0  0  0  0  0
   -1.8425    0.1345    0.0000 C   0  0  0  0  0  0  0  0  0
   -2.2550    0.8489    0.0000 O   0  0  0  0  0  0  0  0  0
   -1.0175    0.1345    0.0000 C   0  0  0  0  0  0  0  0  0
   -0.5326   -0.5330    0.0000 S   0  0  0  0  0  0  0  0  0
    0.2521   -0.2780    0.0000 C   0  0  0  0  0  0  0  0  0
    0.2521    0.5470    0.0000 C   0  0  0  0  0  0  0  0  0
   -0.5326    0.8019    0.0000 C   0  0  0  0  0  0  0  0  0
    0.9665    0.9595    0.0000 C   0  0  0  0  0  0  0  0  0
    1.6810    0.5470    0.0000 C   0  0  0  0  0  0  0  0  0
    1.6810   -0.2780    0.0000 C   0  0  0  0  0  0  0  0  0
    0.9665   -0.6905    0.0000 C   0  0  0  0  0  0  0  0  0
  1  2  1  0  0  0  0
  2  3  4  0  0  0  0
  2  7  4  0  0  0  0
  3  4  4  0  0  0  0
  4  5  4  0  0  0  0
  4 16  1  0  0  0  0
  5  6  4  0  0  0  0
  5  8  1  0  0  0  0
  6  7  4  0  0  0  0
  8  9  1  0  0  0  0
  8 17  2  0  0  0  0
  9 10  4  0  0  0  0
  9 14  4  0  0  0  0
 10 11  4  0  0  0  0
 11 12  4  0  0  0  0
 12 13  4  0  0  0  0
 13 14  4  0  0  0  0
 14 15  1  0  0  0  0
 15 16  1  0  0  0  0
 17 18  1  0  0  0  0
 17 22  1  0  0  0  0
 18 19  1  0  0  0  0
 19 20  1  0  0  0  0
 20 21  1  0  0  0  0
 20 23  1  0  0  0  0
 21 22  1  0  0  0  0
 23 24  1  0  0  0  0
 24 25  1  0  0  0  0
 25 26  1  0  0  0  0
 26 27  1  0  0  0  0
 27 28  1  0  0  0  0
 28 29  2  0  0  0  0
 28 30  1  0  0  0  0
 30 31  4  0  0  0  0
 30 34  4  0  0  0  0
 31 32  4  0  0  0  0
 32 33  4  0  0  0  0
 32 38  4  0  0  0  0
 33 34  4  0  0  0  0
 33 35  4  0  0  0  0
 35 36  4  0  0  0  0
 36 37  4  0  0  0  0
 37 38  4  0  0  0  0
M  END
>  <Name_Molregno>
405539

>  <DOPAMINE D2>
6.07

>  <DOPAMINE D3>
8.57

$$$$
405542
  Marvin  02231216192D 0   1.00000     0.00000     0

 35 39  0  0  0  0  0  0  0  0999 V2000
   -0.6313    2.0524    0.0000 O   0  0  0  0  0  0  0  0  0
   -0.3764    1.2678    0.0000 C   0  0  0  0  0  0  0  0  0
   -0.8613    0.6004    0.0000 N   0  0  0  0  0  0  0  0  0
   -1.6863    0.6004    0.0000 C   0  0  0  0  0  0  0  0  0
   -2.0988   -0.1141    0.0000 C   0  0  0  0  0  0  0  0  0
   -2.9238   -0.1141    0.0000 C   0  0  0  0  0  0  0  0  0
   -3.3363   -0.8286    0.0000 C   0  0  0  0  0  0  0  0  0
   -4.1613   -0.8286    0.0000 N   0  0  0  0  0  0  0  0  0
   -4.5738   -1.5431    0.0000 C   0  0  0  0  0  0  0  0  0
   -5.3988   -1.5431    0.0000 C   0  0  0  0  0  0  0  0  0
   -5.8113   -0.8286    0.0000 C   0  0  0  0  0  0  0  0  0
   -6.6363   -0.8286    0.0000 N   0  0  0  0  0  0  0  0  0
   -7.0488   -0.1141    0.0000 C   0  0  0  0  0  0  0  0  0
   -7.8738   -0.1141    0.0000 C   0  0  0  0  0  0  0  0  0
   -8.2863   -0.8286    0.0000 C   0  0  0  0  0  0  0  0  0
   -9.1113   -0.8286    0.0000 C   0  0  0  0  0  0  0  0  0
   -9.5238   -0.1141    0.0000 C   0  0  0  0  0  0  0  0  0
   -9.1113    0.6004    0.0000 C   0  0  0  0  0  0  0  0  0
   -8.2863    0.6004    0.0000 C   0  0  0  0  0  0  0  0  0
   -7.0488   -1.5431    0.0000 C   0  0  0  0  0  0  0  0  0
   -6.6363   -2.2575    0.0000 C   0  0  0  0  0  0  0  0  0
   -7.0488   -2.9720    0.0000 C   0  0  0  0  0  0  0  0  0
   -7.8738   -2.9720    0.0000 C   0  0  0  0  0  0  0  0  0
   -8.2863   -2.2575    0.0000 C   0  0  0  0  0  0  0  0  0
   -7.8738   -1.5431    0.0000 C   0  0  0  0  0  0  0  0  0
   -5.3988   -0.1141    0.0000 C   0  0  0  0  0  0  0  0  0
   -4.5738   -0.1141    0.0000 C   0  0  0  0  0  0  0  0  0
   -0.3764   -0.0671    0.0000 C   0  0  0  0  0  0  0  0  0
   -0.6313   -0.8517    0.0000 O   0  0  0  0  0  0  0  0  0
    0.4083    0.1879    0.0000 C   0  0  0  0  0  0  0  0  0
    0.4083    1.0129    0.0000 C   0  0  0  0  0  0  0  0  0
    1.1227    1.4254    0.0000 C   0  0  0  0  0  0  0  0  0
    1.8372    1.0129    0.0000 C   0  0  0  0  0  0  0  0  0
    1.8372    0.1879    0.0000 C   0  0  0  0  0  0  0  0  0
    1.1227   -0.2246    0.0000 C   0  0  0  0  0  0  0  0  0
  1  2  2  0  0  0  0
  2  3  1  0  0  0  0
  2 31  1  0  0  0  0
  3  4  1  0  0  0  0
  3 28  1  0  0  0  0
  4  5  1  0  0  0  0
  5  6  1  0  0  0  0
  6  7  1  0  0  0  0
  7  8  1  0  0  0  0
  8  9  1  0  0  0  0
  8 27  1  0  0  0  0
  9 10  1  0  0  0  0
 10 11  1  0  0  0  0
 11 12  1  0  0  0  0
 11 26  1  0  0  0  0
 12 13  1  0  0  0  0
 12 20  1  0  0  0  0
 13 14  1  0  0  0  0
 14 15  4  0  0  0  0
 14 19  4  0  0  0  0
 15 16  4  0  0  0  0
 16 17  4  0  0  0  0
 17 18  4  0  0  0  0
 18 19  4  0  0  0  0
 20 21  4  0  0  0  0
 20 25  4  0  0  0  0
 21 22  4  0  0  0  0
 22 23  4  0  0  0  0
 23 24  4  0  0  0  0
 24 25  4  0  0  0  0
 26 27  1  0  0  0  0
 28 29  2  0  0  0  0
 28 30  1  0  0  0  0
 30 31  4  0  0  0  0
 30 35  4  0  0  0  0
 31 32  4  0  0  0  0
 32 33  4  0  0  0  0
 33 34  4  0  0  0  0
 34 35  4  0  0  0  0
M  END
>  <Name_Molregno>
405542

>  <DOPAMINE D2>
6.89

>  <DOPAMINE D3>
6

$$$$
405544
  Marvin  02231216192D 0   1.00000     0.00000     0

 37 41  0  0  0  0  0  0  0  0999 V2000
   -6.6521   -0.1413    0.0000 O   0  0  0  0  0  0  0  0  0
   -6.6521   -0.9663    0.0000 C   0  0  0  0  0  0  0  0  0
   -5.9376   -1.3788    0.0000 N   0  0  0  0  0  0  0  0  0
   -5.2231   -0.9663    0.0000 C   0  0  0  0  0  0  0  0  0
   -4.5087   -1.3788    0.0000 C   0  0  0  0  0  0  0  0  0
   -3.7942   -0.9663    0.0000 C   0  0  0  0  0  0  0  0  0
   -3.0797   -1.3788    0.0000 C   0  0  0  0  0  0  0  0  0
   -2.3653   -0.9663    0.0000 N   0  0  0  0  0  0  0  0  0
   -2.3653   -0.1413    0.0000 C   0  0  0  0  0  0  0  0  0
   -1.6508    0.2712    0.0000 C   0  0  0  0  0  0  0  0  0
   -0.9363   -0.1413    0.0000 C   0  0  0  0  0  0  0  0  0
   -0.2219    0.2712    0.0000 N   0  0  0  0  0  0  0  0  0
    0.4926   -0.1413    0.0000 C   0  0  0  0  0  0  0  0  0
    1.2071    0.2712    0.0000 C   0  0  0  0  0  0  0  0  0
    1.2071    1.0962    0.0000 C   0  0  0  0  0  0  0  0  0
    1.9216    1.5087    0.0000 C   0  0  0  0  0  0  0  0  0
    2.6360    1.0962    0.0000 C   0  0  0  0  0  0  0  0  0
    2.6360    0.2712    0.0000 C   0  0  0  0  0  0  0  0  0
    1.9216   -0.1413    0.0000 C   0  0  0  0  0  0  0  0  0
   -0.2219    1.0962    0.0000 C   0  0  0  0  0  0  0  0  0
   -0.9363    1.5087    0.0000 C   0  0  0  0  0  0  0  0  0
   -0.9363    2.3337    0.0000 C   0  0  0  0  0  0  0  0  0
   -0.2219    2.7462    0.0000 C   0  0  0  0  0  0  0  0  0
    0.4926    2.3337    0.0000 C   0  0  0  0  0  0  0  0  0
    0.4926    1.5087    0.0000 C   0  0  0  0  0  0  0  0  0
   -0.9363   -0.9663    0.0000 C   0  0  0  0  0  0  0  0  0
   -1.6508   -1.3788    0.0000 C   0  0  0  0  0  0  0  0  0
   -7.3666   -1.3788    0.0000 C   0  0  0  0  0  0  0  0  0
   -8.0810   -0.9663    0.0000 C   0  0  0  0  0  0  0  0  0
   -8.7955   -1.3788    0.0000 C   0  0  0  0  0  0  0  0  0
   -8.7955   -2.2038    0.0000 C   0  0  0  0  0  0  0  0  0
   -8.0810   -2.6163    0.0000 C   0  0  0  0  0  0  0  0  0
   -7.3666   -2.2038    0.0000 C   0  0  0  0  0  0  0  0  0
   -9.5100   -2.6163    0.0000 C   0  0  0  0  0  0  0  0  0
  -10.2244   -2.2038    0.0000 C   0  0  0  0  0  0  0  0  0
  -10.2244   -1.3788    0.0000 C   0  0  0  0  0  0  0  0  0
   -9.5100   -0.9663    0.0000 C   0  0  0  0  0  0  0  0  0
  1  2  2  0  0  0  0
  2  3  1  0  0  0  0
  2 28  1  0  0  0  0
  3  4  1  0  0  0  0
  4  5  1  0  0  0  0
  5  6  1  0  0  0  0
  6  7  1  0  0  0  0
  7  8  1  0  0  0  0
  8  9  1  0  0  0  0
  8 27  1  0  0  0  0
  9 10  1  0  0  0  0
 10 11  1  0  0  0  0
 11 12  1  0  0  0  0
 11 26  1  0  0  0  0
 12 13  1  0  0  0  0
 12 20  1  0  0  0  0
 13 14  1  0  0  0  0
 14 15  4  0  0  0  0
 14 19  4  0  0  0  0
 15 16  4  0  0  0  0
 16 17  4  0  0  0  0
 17 18  4  0  0  0  0
 18 19  4  0  0  0  0
 20 21  4  0  0  0  0
 20 25  4  0  0  0  0
 21 22  4  0  0  0  0
 22 23  4  0  0  0  0
 23 24  4  0  0  0  0
 24 25  4  0  0  0  0
 26 27  1  0  0  0  0
 28 29  4  0  0  0  0
 28 33  4  0  0  0  0
 29 30  4  0  0  0  0
 30 31  4  0  0  0  0
 30 37  4  0  0  0  0
 31 32  4  0  0  0  0
 31 34  4  0  0  0  0
 32 33  4  0  0  0  0
 34 35  4  0  0  0  0
 35 36  4  0  0  0  0
 36 37  4  0  0  0  0
M  END
>  <Name_Molregno>
405544

>  <DOPAMINE D2>
6.15

>  <DOPAMINE D3>
9.52

$$$$
405547
  Marvin  02231216192D 0   1.00000     0.00000     0

 36 40  0  0  0  0  0  0  0  0999 V2000
    0.5412    1.2341    0.0000 S   0  0  0  0  0  0  0  0  0
   -0.2658    1.4056    0.0000 C   0  0  0  0  0  0  0  0  0
   -0.6783    0.6911    0.0000 C   0  0  0  0  0  0  0  0  0
   -0.1262    0.0780    0.0000 C   0  0  0  0  0  0  0  0  0
    0.6275    0.4136    0.0000 C   0  0  0  0  0  0  0  0  0
    1.3419    0.0011    0.0000 C   0  0  0  0  0  0  0  0  0
    1.3419   -0.8239    0.0000 O   0  0  0  0  0  0  0  0  0
    2.0564    0.4136    0.0000 N   0  0  0  0  0  0  0  0  0
    2.7709    0.0011    0.0000 C   0  0  0  0  0  0  0  0  0
    3.4853    0.4136    0.0000 C   0  0  0  0  0  0  0  0  0
    4.1998    0.0011    0.0000 C   0  0  0  0  0  0  0  0  0
    4.9143    0.4136    0.0000 C   0  0  0  0  0  0  0  0  0
    5.6287    0.0011    0.0000 N   0  0  0  0  0  0  0  0  0
    6.3432    0.4136    0.0000 C   0  0  0  0  0  0  0  0  0
    7.0577    0.0011    0.0000 C   0  0  0  0  0  0  0  0  0
    7.0577   -0.8239    0.0000 C   0  0  0  0  0  0  0  0  0
    7.7722   -1.2364    0.0000 N   0  0  0  0  0  0  0  0  0
    7.7722   -2.0614    0.0000 C   0  0  0  0  0  0  0  0  0
    8.4866   -2.4739    0.0000 C   0  0  0  0  0  0  0  0  0
    9.2011   -2.0614    0.0000 C   0  0  0  0  0  0  0  0  0
    9.9156   -2.4739    0.0000 C   0  0  0  0  0  0  0  0  0
    9.9156   -3.2989    0.0000 C   0  0  0  0  0  0  0  0  0
    9.2011   -3.7114    0.0000 C   0  0  0  0  0  0  0  0  0
    8.4866   -3.2989    0.0000 C   0  0  0  0  0  0  0  0  0
    8.4866   -0.8239    0.0000 C   0  0  0  0  0  0  0  0  0
    8.4866    0.0011    0.0000 C   0  0  0  0  0  0  0  0  0
    9.2011    0.4136    0.0000 C   0  0  0  0  0  0  0  0  0
    9.9156    0.0011    0.0000 C   0  0  0  0  0  0  0  0  0
    9.9156   -0.8239    0.0000 C   0  0  0  0  0  0  0  0  0
    9.2011   -1.2364    0.0000 C   0  0  0  0  0  0  0  0  0
    6.3432   -1.2364    0.0000 C   0  0  0  0  0  0  0  0  0
    5.6287   -0.8239    0.0000 C   0  0  0  0  0  0  0  0  0
   -1.5033    0.6911    0.0000 C   0  0  0  0  0  0  0  0  0
   -1.9158    1.4056    0.0000 C   0  0  0  0  0  0  0  0  0
   -1.5033    2.1201    0.0000 C   0  0  0  0  0  0  0  0  0
   -0.6783    2.1201    0.0000 C   0  0  0  0  0  0  0  0  0
  1  2  4  0  0  0  0
  1  5  4  0  0  0  0
  2  3  4  0  0  0  0
  2 36  4  0  0  0  0
  3  4  4  0  0  0  0
  3 33  4  0  0  0  0
  4  5  4  0  0  0  0
  5  6  1  0  0  0  0
  6  7  2  0  0  0  0
  6  8  1  0  0  0  0
  8  9  1  0  0  0  0
  9 10  1  0  0  0  0
 10 11  1  0  0  0  0
 11 12  1  0  0  0  0
 12 13  1  0  0  0  0
 13 14  1  0  0  0  0
 13 32  1  0  0  0  0
 14 15  1  0  0  0  0
 15 16  1  0  0  0  0
 16 17  1  0  0  0  0
 16 31  1  0  0  0  0
 17 18  1  0  0  0  0
 17 25  1  0  0  0  0
 18 19  1  0  0  0  0
 19 20  4  0  0  0  0
 19 24  4  0  0  0  0
 20 21  4  0  0  0  0
 21 22  4  0  0  0  0
 22 23  4  0  0  0  0
 23 24  4  0  0  0  0
 25 26  4  0  0  0  0
 25 30  4  0  0  0  0
 26 27  4  0  0  0  0
 27 28  4  0  0  0  0
 28 29  4  0  0  0  0
 29 30  4  0  0  0  0
 31 32  1  0  0  0  0
 33 34  4  0  0  0  0
 34 35  4  0  0  0  0
 35 36  4  0  0  0  0
M  END
>  <Name_Molregno>
405547

>  <DOPAMINE D2>
5.8

>  <DOPAMINE D3>
7.51

$$$$
405550
  Marvin  02231216192D 0   1.00000     0.00000     0

 35 38  0  0  0  0  0  0  0  0999 V2000
   -7.1534   -2.3328    0.0000 O   0  0  0  0  0  0  0  0  0
   -6.4389   -2.7453    0.0000 C   0  0  0  0  0  0  0  0  0
   -7.8679   -2.7453    0.0000 C   0  0  0  0  0  0  0  0  0
   -7.8679   -3.5703    0.0000 C   0  0  0  0  0  0  0  0  0
   -8.5823   -3.9828    0.0000 C   0  0  0  0  0  0  0  0  0
   -9.2968   -3.5703    0.0000 C   0  0  0  0  0  0  0  0  0
   -9.2968   -2.7453    0.0000 C   0  0  0  0  0  0  0  0  0
   -8.5823   -2.3328    0.0000 C   0  0  0  0  0  0  0  0  0
   -8.5823   -1.5078    0.0000 N   0  0  0  0  0  0  0  0  0
   -9.2968   -1.0953    0.0000 C   0  0  0  0  0  0  0  0  0
   -9.2968   -0.2703    0.0000 O   0  0  0  0  0  0  0  0  0
  -10.0113   -1.5078    0.0000 C   0  0  0  0  0  0  0  0  0
   -7.8679   -1.0953    0.0000 C   0  0  0  0  0  0  0  0  0
   -7.8679   -0.2703    0.0000 C   0  0  0  0  0  0  0  0  0
   -7.1534    0.1422    0.0000 C   0  0  0  0  0  0  0  0  0
   -6.4389   -0.2703    0.0000 N   0  0  0  0  0  0  0  0  0
   -6.4389   -1.0953    0.0000 C   0  0  0  0  0  0  0  0  0
   -7.1534   -1.5078    0.0000 C   0  0  0  0  0  0  0  0  0
   -5.7244    0.1422    0.0000 C   0  0  0  0  0  0  0  0  0
   -5.0100   -0.2703    0.0000 C   0  0  0  0  0  0  0  0  0
   -4.2955    0.1422    0.0000 C   0  0  0  0  0  0  0  0  0
   -3.5810   -0.2703    0.0000 C   0  0  0  0  0  0  0  0  0
   -2.8666    0.1422    0.0000 N   0  0  0  0  0  0  0  0  0
   -2.1521   -0.2703    0.0000 C   0  0  0  0  0  0  0  0  0
   -2.1521   -1.0953    0.0000 O   0  0  0  0  0  0  0  0  0
   -1.4376    0.1422    0.0000 C   0  0  0  0  0  0  0  0  0
   -0.7231   -0.2703    0.0000 C   0  0  0  0  0  0  0  0  0
   -0.0087    0.1422    0.0000 C   0  0  0  0  0  0  0  0  0
   -0.0087    0.9672    0.0000 C   0  0  0  0  0  0  0  0  0
   -0.7231    1.3797    0.0000 C   0  0  0  0  0  0  0  0  0
   -1.4376    0.9672    0.0000 C   0  0  0  0  0  0  0  0  0
    0.7058    1.3797    0.0000 C   0  0  0  0  0  0  0  0  0
    1.4203    0.9672    0.0000 C   0  0  0  0  0  0  0  0  0
    1.4203    0.1422    0.0000 C   0  0  0  0  0  0  0  0  0
    0.7058   -0.2703    0.0000 C   0  0  0  0  0  0  0  0  0
  1  2  1  0  0  0  0
  1  3  1  0  0  0  0
  3  4  4  0  0  0  0
  3  8  4  0  0  0  0
  4  5  4  0  0  0  0
  5  6  4  0  0  0  0
  6  7  4  0  0  0  0
  7  8  4  0  0  0  0
  8  9  1  0  0  0  0
  9 10  1  0  0  0  0
  9 13  1  0  0  0  0
 10 11  2  0  0  0  0
 10 12  1  0  0  0  0
 13 14  1  0  0  0  0
 13 18  1  0  0  0  0
 14 15  1  0  0  0  0
 15 16  1  0  0  0  0
 16 17  1  0  0  0  0
 16 19  1  0  0  0  0
 17 18  1  0  0  0  0
 19 20  1  0  0  0  0
 20 21  1  0  0  0  0
 21 22  1  0  0  0  0
 22 23  1  0  0  0  0
 23 24  1  0  0  0  0
 24 25  2  0  0  0  0
 24 26  1  0  0  0  0
 26 27  4  0  0  0  0
 26 31  4  0  0  0  0
 27 28  4  0  0  0  0
 28 29  4  0  0  0  0
 28 35  4  0  0  0  0
 29 30  4  0  0  0  0
 29 32  4  0  0  0  0
 30 31  4  0  0  0  0
 32 33  4  0  0  0  0
 33 34  4  0  0  0  0
 34 35  4  0  0  0  0
M  END
>  <Name_Molregno>
405550

>  <DOPAMINE D2>
4.87

>  <DOPAMINE D3>
5.63

$$$$
405552
  Marvin  02231216192D 0   1.00000     0.00000     0

 36 39  0  0  0  0  0  0  0  0999 V2000
   -6.8923   -2.3399    0.0000 O   0  0  0  0  0  0  0  0  0
   -6.1778   -2.7524    0.0000 C   0  0  0  0  0  0  0  0  0
   -7.6068   -2.7524    0.0000 C   0  0  0  0  0  0  0  0  0
   -7.6068   -3.5774    0.0000 C   0  0  0  0  0  0  0  0  0
   -8.3212   -3.9899    0.0000 C   0  0  0  0  0  0  0  0  0
   -9.0357   -3.5774    0.0000 C   0  0  0  0  0  0  0  0  0
   -9.0357   -2.7524    0.0000 C   0  0  0  0  0  0  0  0  0
   -8.3212   -2.3399    0.0000 C   0  0  0  0  0  0  0  0  0
   -8.3212   -1.5149    0.0000 N   0  0  0  0  0  0  0  0  0
   -9.0357   -1.1024    0.0000 C   0  0  0  0  0  0  0  0  0
   -9.0357   -0.2774    0.0000 O   0  0  0  0  0  0  0  0  0
   -9.7502   -1.5149    0.0000 C   0  0  0  0  0  0  0  0  0
  -10.4647   -1.1024    0.0000 C   0  0  0  0  0  0  0  0  0
   -7.6068   -1.1024    0.0000 C   0  0  0  0  0  0  0  0  0
   -7.6068   -0.2774    0.0000 C   0  0  0  0  0  0  0  0  0
   -6.8923    0.1351    0.0000 C   0  0  0  0  0  0  0  0  0
   -6.1778   -0.2774    0.0000 N   0  0  0  0  0  0  0  0  0
   -6.1778   -1.1024    0.0000 C   0  0  0  0  0  0  0  0  0
   -6.8923   -1.5149    0.0000 C   0  0  0  0  0  0  0  0  0
   -5.4634    0.1351    0.0000 C   0  0  0  0  0  0  0  0  0
   -4.7489   -0.2774    0.0000 C   0  0  0  0  0  0  0  0  0
   -4.0344    0.1351    0.0000 C   0  0  0  0  0  0  0  0  0
   -3.3200   -0.2774    0.0000 C   0  0  0  0  0  0  0  0  0
   -2.6055    0.1351    0.0000 N   0  0  0  0  0  0  0  0  0
   -1.8910   -0.2774    0.0000 C   0  0  0  0  0  0  0  0  0
   -1.8910   -1.1024    0.0000 O   0  0  0  0  0  0  0  0  0
   -1.1765    0.1351    0.0000 C   0  0  0  0  0  0  0  0  0
   -0.4621   -0.2774    0.0000 C   0  0  0  0  0  0  0  0  0
    0.2524    0.1351    0.0000 C   0  0  0  0  0  0  0  0  0
    0.2524    0.9601    0.0000 C   0  0  0  0  0  0  0  0  0
   -0.4621    1.3726    0.0000 C   0  0  0  0  0  0  0  0  0
   -1.1765    0.9601    0.0000 C   0  0  0  0  0  0  0  0  0
    0.9669    1.3726    0.0000 C   0  0  0  0  0  0  0  0  0
    1.6813    0.9601    0.0000 C   0  0  0  0  0  0  0  0  0
    1.6813    0.1351    0.0000 C   0  0  0  0  0  0  0  0  0
    0.9669   -0.2774    0.0000 C   0  0  0  0  0  0  0  0  0
  1  2  1  0  0  0  0
  1  3  1  0  0  0  0
  3  4  4  0  0  0  0
  3  8  4  0  0  0  0
  4  5  4  0  0  0  0
  5  6  4  0  0  0  0
  6  7  4  0  0  0  0
  7  8  4  0  0  0  0
  8  9  1  0  0  0  0
  9 10  1  0  0  0  0
  9 14  1  0  0  0  0
 10 11  2  0  0  0  0
 10 12  1  0  0  0  0
 12 13  1  0  0  0  0
 14 15  1  0  0  0  0
 14 19  1  0  0  0  0
 15 16  1  0  0  0  0
 16 17  1  0  0  0  0
 17 18  1  0  0  0  0
 17 20  1  0  0  0  0
 18 19  1  0  0  0  0
 20 21  1  0  0  0  0
 21 22  1  0  0  0  0
 22 23  1  0  0  0  0
 23 24  1  0  0  0  0
 24 25  1  0  0  0  0
 25 26  2  0  0  0  0
 25 27  1  0  0  0  0
 27 28  4  0  0  0  0
 27 32  4  0  0  0  0
 28 29  4  0  0  0  0
 29 30  4  0  0  0  0
 29 36  4  0  0  0  0
 30 31  4  0  0  0  0
 30 33  4  0  0  0  0
 31 32  4  0  0  0  0
 33 34  4  0  0  0  0
 34 35  4  0  0  0  0
 35 36  4  0  0  0  0
M  END
>  <Name_Molregno>
405552

>  <DOPAMINE D2>
6

>  <DOPAMINE D3>
6

$$$$
405553
  Marvin  02231216192D 0   1.00000     0.00000     0

 40 44  0  0  0  0  0  0  0  0999 V2000
   -7.3448    0.1621    0.0000 O   0  0  0  0  0  0  0  0  0
   -7.3448    0.9871    0.0000 C   0  0  0  0  0  0  0  0  0
   -8.0593   -0.2504    0.0000 C   0  0  0  0  0  0  0  0  0
   -8.7737    0.1621    0.0000 C   0  0  0  0  0  0  0  0  0
   -9.4882   -0.2504    0.0000 C   0  0  0  0  0  0  0  0  0
   -9.4882   -1.0754    0.0000 C   0  0  0  0  0  0  0  0  0
   -8.7737   -1.4879    0.0000 C   0  0  0  0  0  0  0  0  0
   -8.0593   -1.0754    0.0000 C   0  0  0  0  0  0  0  0  0
   -7.3448   -1.4879    0.0000 N   0  0  0  0  0  0  0  0  0
   -7.3448   -2.3129    0.0000 C   0  0  0  0  0  0  0  0  0
   -6.6303   -2.7254    0.0000 O   0  0  0  0  0  0  0  0  0
   -8.0593   -2.7254    0.0000 C   0  0  0  0  0  0  0  0  0
   -8.0593   -3.5504    0.0000 C   0  0  0  0  0  0  0  0  0
   -8.7737   -3.9629    0.0000 C   0  0  0  0  0  0  0  0  0
   -9.4882   -3.5504    0.0000 C   0  0  0  0  0  0  0  0  0
   -9.4882   -2.7254    0.0000 C   0  0  0  0  0  0  0  0  0
   -8.7737   -2.3129    0.0000 C   0  0  0  0  0  0  0  0  0
   -6.6303   -1.0754    0.0000 C   0  0  0  0  0  0  0  0  0
   -6.6303   -0.2504    0.0000 C   0  0  0  0  0  0  0  0  0
   -5.9159    0.1621    0.0000 C   0  0  0  0  0  0  0  0  0
   -5.2014   -0.2504    0.0000 N   0  0  0  0  0  0  0  0  0
   -5.2014   -1.0754    0.0000 C   0  0  0  0  0  0  0  0  0
   -5.9159   -1.4879    0.0000 C   0  0  0  0  0  0  0  0  0
   -4.4869    0.1621    0.0000 C   0  0  0  0  0  0  0  0  0
   -3.7724   -0.2504    0.0000 C   0  0  0  0  0  0  0  0  0
   -3.0580    0.1621    0.0000 C   0  0  0  0  0  0  0  0  0
   -2.3435   -0.2504    0.0000 C   0  0  0  0  0  0  0  0  0
   -1.6290    0.1621    0.0000 N   0  0  0  0  0  0  0  0  0
   -0.9146   -0.2504    0.0000 C   0  0  0  0  0  0  0  0  0
   -0.9146   -1.0754    0.0000 O   0  0  0  0  0  0  0  0  0
   -0.2001    0.1621    0.0000 C   0  0  0  0  0  0  0  0  0
    0.5144   -0.2504    0.0000 C   0  0  0  0  0  0  0  0  0
    1.2289    0.1621    0.0000 C   0  0  0  0  0  0  0  0  0
    1.2289    0.9871    0.0000 C   0  0  0  0  0  0  0  0  0
    0.5144    1.3996    0.0000 C   0  0  0  0  0  0  0  0  0
   -0.2001    0.9871    0.0000 C   0  0  0  0  0  0  0  0  0
    1.9433    1.3996    0.0000 C   0  0  0  0  0  0  0  0  0
    2.6578    0.9871    0.0000 C   0  0  0  0  0  0  0  0  0
    2.6578    0.1621    0.0000 C   0  0  0  0  0  0  0  0  0
    1.9433   -0.2504    0.0000 C   0  0  0  0  0  0  0  0  0
  1  2  1  0  0  0  0
  1  3  1  0  0  0  0
  3  4  4  0  0  0  0
  3  8  4  0  0  0  0
  4  5  4  0  0  0  0
  5  6  4  0  0  0  0
  6  7  4  0  0  0  0
  7  8  4  0  0  0  0
  8  9  1  0  0  0  0
  9 10  1  0  0  0  0
  9 18  1  0  0  0  0
 10 11  2  0  0  0  0
 10 12  1  0  0  0  0
 12 13  4  0  0  0  0
 12 17  4  0  0  0  0
 13 14  4  0  0  0  0
 14 15  4  0  0  0  0
 15 16  4  0  0  0  0
 16 17  4  0  0  0  0
 18 19  1  0  0  0  0
 18 23  1  0  0  0  0
 19 20  1  0  0  0  0
 20 21  1  0  0  0  0
 21 22  1  0  0  0  0
 21 24  1  0  0  0  0
 22 23  1  0  0  0  0
 24 25  1  0  0  0  0
 25 26  1  0  0  0  0
 26 27  1  0  0  0  0
 27 28  1  0  0  0  0
 28 29  1  0  0  0  0
 29 30  2  0  0  0  0
 29 31  1  0  0  0  0
 31 32  4  0  0  0  0
 31 36  4  0  0  0  0
 32 33  4  0  0  0  0
 33 34  4  0  0  0  0
 33 40  4  0  0  0  0
 34 35  4  0  0  0  0
 34 37  4  0  0  0  0
 35 36  4  0  0  0  0
 37 38  4  0  0  0  0
 38 39  4  0  0  0  0
 39 40  4  0  0  0  0
M  END
>  <Name_Molregno>
405553

>  <DOPAMINE D2>
5.34

>  <DOPAMINE D3>
6

$$$$
405554
  Marvin  02231216192D 0   1.00000     0.00000     0

 30 33  0  0  0  0  0  0  0  0999 V2000
   -7.1872   -1.3398    0.0000 O   0  0  0  0  0  0  0  0  0
   -6.7747   -2.0542    0.0000 C   0  0  0  0  0  0  0  0  0
   -8.0122   -1.3398    0.0000 C   0  0  0  0  0  0  0  0  0
   -8.4247   -2.0542    0.0000 C   0  0  0  0  0  0  0  0  0
   -9.2497   -2.0542    0.0000 C   0  0  0  0  0  0  0  0  0
   -9.6622   -1.3398    0.0000 C   0  0  0  0  0  0  0  0  0
   -9.2497   -0.6253    0.0000 C   0  0  0  0  0  0  0  0  0
   -8.4247   -0.6253    0.0000 C   0  0  0  0  0  0  0  0  0
   -8.0122    0.0892    0.0000 N   0  0  0  0  0  0  0  0  0
   -7.1872    0.0892    0.0000 C   0  0  0  0  0  0  0  0  0
   -6.7747    0.8036    0.0000 C   0  0  0  0  0  0  0  0  0
   -5.9497    0.8036    0.0000 C   0  0  0  0  0  0  0  0  0
   -5.5372    0.0892    0.0000 N   0  0  0  0  0  0  0  0  0
   -5.9497   -0.6253    0.0000 C   0  0  0  0  0  0  0  0  0
   -6.7747   -0.6253    0.0000 C   0  0  0  0  0  0  0  0  0
   -4.7122    0.0892    0.0000 C   0  0  0  0  0  0  0  0  0
   -4.2997    0.8036    0.0000 C   0  0  0  0  0  0  0  0  0
   -3.4747    0.8036    0.0000 C   0  0  0  0  0  0  0  0  0
   -3.0622    1.5181    0.0000 C   0  0  0  0  0  0  0  0  0
   -2.2372    1.5181    0.0000 N   0  0  0  0  0  0  0  0  0
   -1.7523    0.8507    0.0000 C   0  0  0  0  0  0  0  0  0
   -2.0072    0.0661    0.0000 O   0  0  0  0  0  0  0  0  0
   -0.9677    1.1056    0.0000 C   0  0  0  0  0  0  0  0  0
   -0.9677    1.9306    0.0000 C   0  0  0  0  0  0  0  0  0
   -0.2532    2.3431    0.0000 C   0  0  0  0  0  0  0  0  0
    0.4613    1.9306    0.0000 C   0  0  0  0  0  0  0  0  0
    0.4613    1.1056    0.0000 C   0  0  0  0  0  0  0  0  0
   -0.2532    0.6931    0.0000 C   0  0  0  0  0  0  0  0  0
   -1.7523    2.1856    0.0000 C   0  0  0  0  0  0  0  0  0
   -2.0072    2.9702    0.0000 O   0  0  0  0  0  0  0  0  0
  1  2  1  0  0  0  0
  1  3  1  0  0  0  0
  3  4  4  0  0  0  0
  3  8  4  0  0  0  0
  4  5  4  0  0  0  0
  5  6  4  0  0  0  0
  6  7  4  0  0  0  0
  7  8  4  0  0  0  0
  8  9  1  0  0  0  0
  9 10  1  0  0  0  0
 10 11  1  0  0  0  0
 10 15  1  0  0  0  0
 11 12  1  0  0  0  0
 12 13  1  0  0  0  0
 13 14  1  0  0  0  0
 13 16  1  0  0  0  0
 14 15  1  0  0  0  0
 16 17  1  0  0  0  0
 17 18  1  0  0  0  0
 18 19  1  0  0  0  0
 19 20  1  0  0  0  0
 20 21  1  0  0  0  0
 20 29  1  0  0  0  0
 21 22  2  0  0  0  0
 21 23  1  0  0  0  0
 23 24  4  0  0  0  0
 23 28  4  0  0  0  0
 24 25  4  0  0  0  0
 24 29  1  0  0  0  0
 25 26  4  0  0  0  0
 26 27  4  0  0  0  0
 27 28  4  0  0  0  0
 29 30  2  0  0  0  0
M  END
>  <Name_Molregno>
405554

>  <DOPAMINE D2>
5.64

>  <DOPAMINE D3>
6

$$$$
405556
  Marvin  02231216192D 0   1.00000     0.00000     0

 32 35  0  0  0  0  0  0  0  0999 V2000
   -7.9440   -0.7122    0.0000 O   0  0  0  0  0  0  0  0  0
   -7.2295   -1.1247    0.0000 C   0  0  0  0  0  0  0  0  0
   -8.6584   -1.1247    0.0000 C   0  0  0  0  0  0  0  0  0
   -8.6584   -1.9497    0.0000 C   0  0  0  0  0  0  0  0  0
   -9.3729   -2.3622    0.0000 C   0  0  0  0  0  0  0  0  0
  -10.0874   -1.9497    0.0000 C   0  0  0  0  0  0  0  0  0
  -10.0874   -1.1247    0.0000 C   0  0  0  0  0  0  0  0  0
   -9.3729   -0.7122    0.0000 C   0  0  0  0  0  0  0  0  0
   -9.3729    0.1128    0.0000 N   0  0  0  0  0  0  0  0  0
   -8.6584    0.5253    0.0000 C   0  0  0  0  0  0  0  0  0
   -8.6584    1.3503    0.0000 C   0  0  0  0  0  0  0  0  0
   -7.9440    1.7628    0.0000 C   0  0  0  0  0  0  0  0  0
   -7.2295    1.3503    0.0000 N   0  0  0  0  0  0  0  0  0
   -7.2295    0.5253    0.0000 C   0  0  0  0  0  0  0  0  0
   -7.9440    0.1128    0.0000 C   0  0  0  0  0  0  0  0  0
   -6.5150    1.7628    0.0000 C   0  0  0  0  0  0  0  0  0
   -5.8005    1.3503    0.0000 C   0  0  0  0  0  0  0  0  0
   -5.0861    1.7628    0.0000 C   0  0  0  0  0  0  0  0  0
   -4.3716    1.3503    0.0000 C   0  0  0  0  0  0  0  0  0
   -3.6571    1.7628    0.0000 N   0  0  0  0  0  0  0  0  0
   -2.9427    1.3503    0.0000 C   0  0  0  0  0  0  0  0  0
   -2.9427    0.5253    0.0000 O   0  0  0  0  0  0  0  0  0
   -2.2282    1.7628    0.0000 C   0  0  0  0  0  0  0  0  0
   -1.5137    1.3503    0.0000 C   0  0  0  0  0  0  0  0  0
   -0.7992    1.7628    0.0000 C   0  0  0  0  0  0  0  0  0
   -0.7992    2.5878    0.0000 C   0  0  0  0  0  0  0  0  0
   -1.5137    3.0003    0.0000 C   0  0  0  0  0  0  0  0  0
   -2.2282    2.5878    0.0000 C   0  0  0  0  0  0  0  0  0
   -0.0848    3.0003    0.0000 C   0  0  0  0  0  0  0  0  0
    0.6297    2.5878    0.0000 C   0  0  0  0  0  0  0  0  0
    0.6297    1.7628    0.0000 C   0  0  0  0  0  0  0  0  0
   -0.0848    1.3503    0.0000 C   0  0  0  0  0  0  0  0  0
  1  2  1  0  0  0  0
  1  3  1  0  0  0  0
  3  4  4  0  0  0  0
  3  8  4  0  0  0  0
  4  5  4  0  0  0  0
  5  6  4  0  0  0  0
  6  7  4  0  0  0  0
  7  8  4  0  0  0  0
  8  9  1  0  0  0  0
  9 10  1  0  0  0  0
 10 11  1  0  0  0  0
 10 15  1  0  0  0  0
 11 12  1  0  0  0  0
 12 13  1  0  0  0  0
 13 14  1  0  0  0  0
 13 16  1  0  0  0  0
 14 15  1  0  0  0  0
 16 17  1  0  0  0  0
 17 18  1  0  0  0  0
 18 19  1  0  0  0  0
 19 20  1  0  0  0  0
 20 21  1  0  0  0  0
 21 22  2  0  0  0  0
 21 23  1  0  0  0  0
 23 24  4  0  0  0  0
 23 28  4  0  0  0  0
 24 25  4  0  0  0  0
 25 26  4  0  0  0  0
 25 32  4  0  0  0  0
 26 27  4  0  0  0  0
 26 29  4  0  0  0  0
 27 28  4  0  0  0  0
 29 30  4  0  0  0  0
 30 31  4  0  0  0  0
 31 32  4  0  0  0  0
M  END
>  <Name_Molregno>
405556

>  <DOPAMINE D2>
6.79

>  <DOPAMINE D3>
7.74

$$$$
405557
  Marvin  02231216192D 0   1.00000     0.00000     0

 30 32  0  0  0  0  0  0  0  0999 V2000
   -8.4886    0.3333    0.0000 O   0  0  0  0  0  0  0  0  0
   -8.4886   -0.4917    0.0000 C   0  0  0  0  0  0  0  0  0
   -9.2030    0.7458    0.0000 C   0  0  0  0  0  0  0  0  0
   -9.9175    0.3333    0.0000 C   0  0  0  0  0  0  0  0  0
  -10.6320    0.7458    0.0000 C   0  0  0  0  0  0  0  0  0
  -10.6320    1.5708    0.0000 C   0  0  0  0  0  0  0  0  0
   -9.9175    1.9833    0.0000 C   0  0  0  0  0  0  0  0  0
   -9.2030    1.5708    0.0000 C   0  0  0  0  0  0  0  0  0
   -8.4886    1.9833    0.0000 N   0  0  0  0  0  0  0  0  0
   -7.7741    1.5708    0.0000 C   0  0  0  0  0  0  0  0  0
   -7.0596    1.9833    0.0000 C   0  0  0  0  0  0  0  0  0
   -6.3451    1.5708    0.0000 C   0  0  0  0  0  0  0  0  0
   -6.3451    0.7458    0.0000 N   0  0  0  0  0  0  0  0  0
   -7.0596    0.3333    0.0000 C   0  0  0  0  0  0  0  0  0
   -7.7741    0.7458    0.0000 C   0  0  0  0  0  0  0  0  0
   -5.6307    0.3333    0.0000 C   0  0  0  0  0  0  0  0  0
   -4.9162    0.7458    0.0000 C   0  0  0  0  0  0  0  0  0
   -4.2017    0.3333    0.0000 C   0  0  0  0  0  0  0  0  0
   -3.4873    0.7458    0.0000 C   0  0  0  0  0  0  0  0  0
   -2.7728    0.3333    0.0000 N   0  0  0  0  0  0  0  0  0
   -2.0583    0.7458    0.0000 C   0  0  0  0  0  0  0  0  0
   -2.0583    1.5708    0.0000 O   0  0  0  0  0  0  0  0  0
   -1.3438    0.3333    0.0000 C   0  0  0  0  0  0  0  0  0
   -0.6294    0.7458    0.0000 C   0  0  0  0  0  0  0  0  0
    0.0851    0.3333    0.0000 C   0  0  0  0  0  0  0  0  0
    0.7996    0.7458    0.0000 C   0  0  0  0  0  0  0  0  0
    1.5140    0.3333    0.0000 C   0  0  0  0  0  0  0  0  0
    1.5140   -0.4917    0.0000 C   0  0  0  0  0  0  0  0  0
    0.7996   -0.9042    0.0000 C   0  0  0  0  0  0  0  0  0
    0.0851   -0.4917    0.0000 C   0  0  0  0  0  0  0  0  0
  1  2  1  0  0  0  0
  1  3  1  0  0  0  0
  3  4  4  0  0  0  0
  3  8  4  0  0  0  0
  4  5  4  0  0  0  0
  5  6  4  0  0  0  0
  6  7  4  0  0  0  0
  7  8  4  0  0  0  0
  8  9  1  0  0  0  0
  9 10  1  0  0  0  0
 10 11  1  0  0  0  0
 10 15  1  0  0  0  0
 11 12  1  0  0  0  0
 12 13  1  0  0  0  0
 13 14  1  0  0  0  0
 13 16  1  0  0  0  0
 14 15  1  0  0  0  0
 16 17  1  0  0  0  0
 17 18  1  0  0  0  0
 18 19  1  0  0  0  0
 19 20  1  0  0  0  0
 20 21  1  0  0  0  0
 21 22  2  0  0  0  0
 21 23  1  0  0  0  0
 23 24  2  0  0  0  0
 24 25  1  0  0  0  0
 25 26  4  0  0  0  0
 25 30  4  0  0  0  0
 26 27  4  0  0  0  0
 27 28  4  0  0  0  0
 28 29  4  0  0  0  0
 29 30  4  0  0  0  0
M  END
>  <Name_Molregno>
405557

>  <DOPAMINE D2>
6

>  <DOPAMINE D3>
7.97

$$$$
405560
  Marvin  02231216192D 0   1.00000     0.00000     0

 25 27  0  0  0  0  0  0  0  0999 V2000
   -3.1500   -2.5882    0.0000 O   0  0  0  0  0  0  0  0  0
   -3.1500   -1.7632    0.0000 C   0  0  0  0  0  0  0  0  0
   -2.4356   -1.3507    0.0000 N   0  0  0  0  0  0  0  0  0
   -1.7211   -1.7632    0.0000 C   0  0  0  0  0  0  0  0  0
   -1.0066   -1.3507    0.0000 C   0  0  0  0  0  0  0  0  0
   -0.2921   -1.7632    0.0000 C   0  0  0  0  0  0  0  0  0
    0.4223   -1.3507    0.0000 C   0  0  0  0  0  0  0  0  0
    1.1368   -1.7632    0.0000 N   0  0  0  0  0  0  0  0  0
    1.1368   -2.5882    0.0000 C   0  0  0  0  0  0  0  0  0
    1.8513   -3.0007    0.0000 C   0  0  0  0  0  0  0  0  0
    2.5657   -2.5882    0.0000 C   0  0  0  0  0  0  0  0  0
    2.5657   -1.7632    0.0000 C   0  0  0  0  0  0  0  0  0
    1.8513   -1.3507    0.0000 C   0  0  0  0  0  0  0  0  0
    3.2802   -1.3507    0.0000 C   0  0  0  0  0  0  0  0  0
    3.9947   -1.7632    0.0000 C   0  0  0  0  0  0  0  0  0
    3.9947   -2.5882    0.0000 C   0  0  0  0  0  0  0  0  0
    3.2802   -3.0007    0.0000 C   0  0  0  0  0  0  0  0  0
   -3.8645   -1.3507    0.0000 C   0  0  0  0  0  0  0  0  0
   -4.5790   -1.7632    0.0000 C   0  0  0  0  0  0  0  0  0
   -5.2934   -1.3507    0.0000 C   0  0  0  0  0  0  0  0  0
   -6.0079   -1.7632    0.0000 C   0  0  0  0  0  0  0  0  0
   -6.7224   -1.3507    0.0000 C   0  0  0  0  0  0  0  0  0
   -6.7224   -0.5257    0.0000 C   0  0  0  0  0  0  0  0  0
   -6.0079   -0.1132    0.0000 C   0  0  0  0  0  0  0  0  0
   -5.2934   -0.5257    0.0000 C   0  0  0  0  0  0  0  0  0
  1  2  2  0  0  0  0
  2  3  1  0  0  0  0
  2 18  1  0  0  0  0
  3  4  1  0  0  0  0
  4  5  1  0  0  0  0
  5  6  1  0  0  0  0
  6  7  1  0  0  0  0
  7  8  1  0  0  0  0
  8  9  1  0  0  0  0
  8 13  1  0  0  0  0
  9 10  1  0  0  0  0
 10 11  1  0  0  0  0
 11 12  4  0  0  0  0
 11 17  4  0  0  0  0
 12 13  1  0  0  0  0
 12 14  4  0  0  0  0
 14 15  4  0  0  0  0
 15 16  4  0  0  0  0
 16 17  4  0  0  0  0
 18 19  2  0  0  0  0
 19 20  1  0  0  0  0
 20 21  4  0  0  0  0
 20 25  4  0  0  0  0
 21 22  4  0  0  0  0
 22 23  4  0  0  0  0
 23 24  4  0  0  0  0
 24 25  4  0  0  0  0
M  END
>  <Name_Molregno>
405560

>  <DOPAMINE D2>
5.9

>  <DOPAMINE D3>
8.06

$$$$
405786
  Marvin  02231216192D 0   1.00000     0.00000     0

 16 18  0  0  1  0  0  0  0  0999 V2000
   -4.1976   -1.0327    0.0000 N   0  0  0  0  0  0  0  0  0
   -4.6825   -0.3653    0.0000 N   0  0  0  0  0  0  0  0  0
   -4.1976    0.3022    0.0000 C   0  0  0  0  0  0  0  0  0
   -3.4129    0.0472    0.0000 C   0  0  0  0  0  0  0  0  0
   -2.6985    0.4597    0.0000 C   0  0  0  0  0  0  0  0  0
   -1.9840    0.0472    0.0000 C   0  0  0  0  0  0  0  0  0
   -1.2695    0.4597    0.0000 N   0  0  0  0  0  0  0  0  0
   -0.5551    0.0472    0.0000 C   0  0  0  0  0  0  0  0  0
   -0.5551   -0.7778    0.0000 C   0  0  0  0  0  0  0  0  0
   -1.2695   -1.1903    0.0000 C   0  0  0  0  0  0  0  0  0
   -1.9840   -0.7778    0.0000 C   0  0  0  0  0  0  0  0  0
   -2.6985   -1.1903    0.0000 C   0  0  0  0  0  0  0  0  0
   -3.4129   -0.7778    0.0000 C   0  0  0  0  0  0  0  0  0
   -1.2695    1.2847    0.0000 C   0  0  0  0  0  0  0  0  0
   -0.5551    1.6972    0.0000 C   0  0  0  0  0  0  0  0  0
   -0.5551    2.5222    0.0000 C   0  0  0  0  0  0  0  0  0
  1  2  4  0  0  0  0
  1 13  4  0  0  0  0
  2  3  4  0  0  0  0
  3  4  4  0  0  0  0
  4  5  1  0  0  0  0
  4 13  4  0  0  0  0
  5  6  1  0  0  0  0
  6  7  1  0  0  0  0
  6 11  1  0  0  0  0
  7  8  1  0  0  0  0
  7 14  1  0  0  0  0
  8  9  1  0  0  0  0
  9 10  1  0  0  0  0
 10 11  1  0  0  0  0
 11 12  1  0  0  0  0
 12 13  1  0  0  0  0
 14 15  1  0  0  0  0
 15 16  1  0  0  0  0
M  STY  1   1 DAT
M  SAL   1  1   1
M  SDT   1 MRV_IMPLICIT_H                                        
M  SDD   1     0.0000    0.0000    DR    ALL  0       0  
M  SED   1 IMPL_H1
M  END
>  <Name_Molregno>
405786

>  <5-HT1A>
5.77

>  <5-HT1B>
5

>  <5-HT1D>
5

>  <5-HT2A>
5.24

>  <5-HT2C>
5.24

>  <Alpha-1A>
5

>  <Alpha-1B>
5

>  <Alpha-2A>
5

>  <Alpha-2B>
5.6

>  <Alpha-2C>
5

>  <Beta-1>
5

>  <Beta-2>
5

>  <DOPAMINE D1>
5

>  <DOPAMINE D2>
6.31

>  <DOPAMINE D3>
7.73

>  <DOPAMINE D4>
7.37

>  <DOPAMINE D5>
5

$$$$
407808
  Marvin  02231216192D 0   1.00000     0.00000     0

 24 27  0  0  0  0  0  0  0  0999 V2000
   -4.6851   -2.6849    0.0000 Cl  0  0  0  0  0  0  0  0  0
   -4.7139   -1.8604    0.0000 C   0  0  0  0  0  0  0  0  0
   -5.4423   -1.4731    0.0000 C   0  0  0  0  0  0  0  0  0
   -5.4711   -0.6486    0.0000 C   0  0  0  0  0  0  0  0  0
   -4.7714   -0.2114    0.0000 C   0  0  0  0  0  0  0  0  0
   -4.0430   -0.5988    0.0000 C   0  0  0  0  0  0  0  0  0
   -4.0142   -1.4233    0.0000 C   0  0  0  0  0  0  0  0  0
   -3.2858   -1.8106    0.0000 C   0  0  0  0  0  0  0  0  0
   -3.7937   -2.4607    0.0000 O   0  0  0  0  0  0  0  0  0
   -3.0308   -1.0259    0.0000 C   0  0  0  0  0  0  0  0  0
   -2.2239   -0.8544    0.0000 C   0  0  0  0  0  0  0  0  0
   -1.6718   -1.4675    0.0000 N   0  0  0  0  0  0  0  0  0
   -1.9268   -2.2521    0.0000 C   0  0  0  0  0  0  0  0  0
   -2.7338   -2.4237    0.0000 C   0  0  0  0  0  0  0  0  0
   -0.8649   -1.2960    0.0000 C   0  0  0  0  0  0  0  0  0
   -0.6099   -0.5114    0.0000 C   0  0  0  0  0  0  0  0  0
    0.1747   -0.2564    0.0000 C   0  0  0  0  0  0  0  0  0
    0.1747    0.5686    0.0000 C   0  0  0  0  0  0  0  0  0
   -0.6099    0.8235    0.0000 N   0  0  0  0  0  0  0  0  0
   -1.0949    0.1561    0.0000 C   0  0  0  0  0  0  0  0  0
    0.8892    0.9811    0.0000 C   0  0  0  0  0  0  0  0  0
    1.6036    0.5686    0.0000 C   0  0  0  0  0  0  0  0  0
    1.6036   -0.2564    0.0000 C   0  0  0  0  0  0  0  0  0
    0.8892   -0.6689    0.0000 C   0  0  0  0  0  0  0  0  0
  1  2  1  0  0  0  0
  2  3  4  0  0  0  0
  2  7  4  0  0  0  0
  3  4  4  0  0  0  0
  4  5  4  0  0  0  0
  5  6  4  0  0  0  0
  6  7  4  0  0  0  0
  7  8  1  0  0  0  0
  8  9  1  0  0  0  0
  8 10  1  0  0  0  0
  8 14  1  0  0  0  0
 10 11  1  0  0  0  0
 11 12  1  0  0  0  0
 12 13  1  0  0  0  0
 12 15  1  0  0  0  0
 13 14  1  0  0  0  0
 15 16  1  0  0  0  0
 16 17  4  0  0  0  0
 16 20  4  0  0  0  0
 17 18  4  0  0  0  0
 17 24  4  0  0  0  0
 18 19  4  0  0  0  0
 18 21  4  0  0  0  0
 19 20  4  0  0  0  0
 21 22  4  0  0  0  0
 22 23  4  0  0  0  0
 23 24  4  0  0  0  0
M  STY  1   1 DAT
M  SAL   1  1  19
M  SDT   1 MRV_IMPLICIT_H                                        
M  SDD   1     0.0000    0.0000    DR    ALL  0       0  
M  SED   1 IMPL_H1
M  END
>  <Name_Molregno>
407808

>  <DOPAMINE D2>
6.42

>  <DOPAMINE D3>
5.73

>  <DOPAMINE D4>
5.55

$$$$
407821
  Marvin  02231216192D 0   1.00000     0.00000     0

 25 28  0  0  0  0  0  0  0  0999 V2000
   -3.1429   -0.2813    0.0000 Cl  0  0  0  0  0  0  0  0  0
   -3.8426   -0.7185    0.0000 C   0  0  0  0  0  0  0  0  0
   -3.8138   -1.5430    0.0000 C   0  0  0  0  0  0  0  0  0
   -4.5134   -1.9801    0.0000 C   0  0  0  0  0  0  0  0  0
   -5.2418   -1.5928    0.0000 C   0  0  0  0  0  0  0  0  0
   -5.2706   -0.7683    0.0000 C   0  0  0  0  0  0  0  0  0
   -4.5710   -0.3312    0.0000 C   0  0  0  0  0  0  0  0  0
   -4.5998    0.4933    0.0000 Cl  0  0  0  0  0  0  0  0  0
   -3.0853   -1.9303    0.0000 C   0  0  0  0  0  0  0  0  0
   -3.5933   -2.5804    0.0000 O   0  0  0  0  0  0  0  0  0
   -2.8304   -1.1457    0.0000 C   0  0  0  0  0  0  0  0  0
   -2.0234   -0.9741    0.0000 C   0  0  0  0  0  0  0  0  0
   -1.4714   -1.5872    0.0000 N   0  0  0  0  0  0  0  0  0
   -1.7263   -2.3718    0.0000 C   0  0  0  0  0  0  0  0  0
   -2.5333   -2.5434    0.0000 C   0  0  0  0  0  0  0  0  0
   -0.6644   -1.4157    0.0000 C   0  0  0  0  0  0  0  0  0
   -0.4095   -0.6311    0.0000 C   0  0  0  0  0  0  0  0  0
    0.3751   -0.3761    0.0000 C   0  0  0  0  0  0  0  0  0
    0.3751    0.4489    0.0000 C   0  0  0  0  0  0  0  0  0
   -0.4095    0.7038    0.0000 N   0  0  0  0  0  0  0  0  0
   -0.8944    0.0364    0.0000 C   0  0  0  0  0  0  0  0  0
    1.0896    0.8614    0.0000 C   0  0  0  0  0  0  0  0  0
    1.8041    0.4489    0.0000 C   0  0  0  0  0  0  0  0  0
    1.8041   -0.3761    0.0000 C   0  0  0  0  0  0  0  0  0
    1.0896   -0.7886    0.0000 C   0  0  0  0  0  0  0  0  0
  1  2  1  0  0  0  0
  2  3  4  0  0  0  0
  2  7  4  0  0  0  0
  3  4  4  0  0  0  0
  3  9  1  0  0  0  0
  4  5  4  0  0  0  0
  5  6  4  0  0  0  0
  6  7  4  0  0  0  0
  7  8  1  0  0  0  0
  9 10  1  0  0  0  0
  9 11  1  0  0  0  0
  9 15  1  0  0  0  0
 11 12  1  0  0  0  0
 12 13  1  0  0  0  0
 13 14  1  0  0  0  0
 13 16  1  0  0  0  0
 14 15  1  0  0  0  0
 16 17  1  0  0  0  0
 17 18  4  0  0  0  0
 17 21  4  0  0  0  0
 18 19  4  0  0  0  0
 18 25  4  0  0  0  0
 19 20  4  0  0  0  0
 19 22  4  0  0  0  0
 20 21  4  0  0  0  0
 22 23  4  0  0  0  0
 23 24  4  0  0  0  0
 24 25  4  0  0  0  0
M  STY  1   1 DAT
M  SAL   1  1  20
M  SDT   1 MRV_IMPLICIT_H                                        
M  SDD   1     0.0000    0.0000    DR    ALL  0       0  
M  SED   1 IMPL_H1
M  END
>  <Name_Molregno>
407821

>  <DOPAMINE D2>
7.58

>  <DOPAMINE D3>
6.56

>  <DOPAMINE D4>
5.81

$$$$
407823
  Marvin  02231216192D 0   1.00000     0.00000     0

 24 27  0  0  0  0  0  0  0  0999 V2000
    1.3069    1.6249    0.0000 Cl  0  0  0  0  0  0  0  0  0
    1.3357    0.8004    0.0000 C   0  0  0  0  0  0  0  0  0
    2.0641    0.4130    0.0000 C   0  0  0  0  0  0  0  0  0
    2.0929   -0.4115    0.0000 C   0  0  0  0  0  0  0  0  0
    1.3933   -0.8486    0.0000 C   0  0  0  0  0  0  0  0  0
    0.6649   -0.4613    0.0000 C   0  0  0  0  0  0  0  0  0
    0.6361    0.3632    0.0000 C   0  0  0  0  0  0  0  0  0
    2.8214   -0.7988    0.0000 C   0  0  0  0  0  0  0  0  0
    2.3134   -1.4489    0.0000 O   0  0  0  0  0  0  0  0  0
    3.0763   -0.0141    0.0000 C   0  0  0  0  0  0  0  0  0
    3.8833    0.1574    0.0000 C   0  0  0  0  0  0  0  0  0
    4.4353   -0.4557    0.0000 N   0  0  0  0  0  0  0  0  0
    4.1804   -1.2403    0.0000 C   0  0  0  0  0  0  0  0  0
    3.3734   -1.4119    0.0000 C   0  0  0  0  0  0  0  0  0
    5.2423   -0.2842    0.0000 C   0  0  0  0  0  0  0  0  0
    5.4972    0.5004    0.0000 C   0  0  0  0  0  0  0  0  0
    6.2818    0.7554    0.0000 C   0  0  0  0  0  0  0  0  0
    6.2818    1.5804    0.0000 C   0  0  0  0  0  0  0  0  0
    5.4972    1.8353    0.0000 N   0  0  0  0  0  0  0  0  0
    5.0123    1.1679    0.0000 C   0  0  0  0  0  0  0  0  0
    6.9963    1.9929    0.0000 C   0  0  0  0  0  0  0  0  0
    7.7108    1.5804    0.0000 C   0  0  0  0  0  0  0  0  0
    7.7108    0.7554    0.0000 C   0  0  0  0  0  0  0  0  0
    6.9963    0.3429    0.0000 C   0  0  0  0  0  0  0  0  0
  1  2  1  0  0  0  0
  2  3  4  0  0  0  0
  2  7  4  0  0  0  0
  3  4  4  0  0  0  0
  4  5  4  0  0  0  0
  4  8  1  0  0  0  0
  5  6  4  0  0  0  0
  6  7  4  0  0  0  0
  8  9  1  0  0  0  0
  8 10  1  0  0  0  0
  8 14  1  0  0  0  0
 10 11  1  0  0  0  0
 11 12  1  0  0  0  0
 12 13  1  0  0  0  0
 12 15  1  0  0  0  0
 13 14  1  0  0  0  0
 15 16  1  0  0  0  0
 16 17  4  0  0  0  0
 16 20  4  0  0  0  0
 17 18  4  0  0  0  0
 17 24  4  0  0  0  0
 18 19  4  0  0  0  0
 18 21  4  0  0  0  0
 19 20  4  0  0  0  0
 21 22  4  0  0  0  0
 22 23  4  0  0  0  0
 23 24  4  0  0  0  0
M  STY  1   1 DAT
M  SAL   1  1  19
M  SDT   1 MRV_IMPLICIT_H                                        
M  SDD   1     0.0000    0.0000    DR    ALL  0       0  
M  SED   1 IMPL_H1
M  END
>  <Name_Molregno>
407823

>  <DOPAMINE D2>
6.89

>  <DOPAMINE D3>
6.35

>  <DOPAMINE D4>
5.45

$$$$
407825
  Marvin  02231216192D 0   1.00000     0.00000     0

 25 28  0  0  0  0  0  0  0  0999 V2000
    1.3109    1.5332    0.0000 Cl  0  0  0  0  0  0  0  0  0
    1.3397    0.7087    0.0000 C   0  0  0  0  0  0  0  0  0
    2.0682    0.3214    0.0000 C   0  0  0  0  0  0  0  0  0
    2.0969   -0.5031    0.0000 C   0  0  0  0  0  0  0  0  0
    1.3973   -0.9403    0.0000 C   0  0  0  0  0  0  0  0  0
    0.6689   -0.5530    0.0000 C   0  0  0  0  0  0  0  0  0
    0.6401    0.2715    0.0000 C   0  0  0  0  0  0  0  0  0
   -0.0884    0.6588    0.0000 Cl  0  0  0  0  0  0  0  0  0
    2.8254   -0.8904    0.0000 C   0  0  0  0  0  0  0  0  0
    2.3175   -1.5405    0.0000 O   0  0  0  0  0  0  0  0  0
    3.0803   -0.1058    0.0000 C   0  0  0  0  0  0  0  0  0
    3.8873    0.0657    0.0000 C   0  0  0  0  0  0  0  0  0
    4.4393   -0.5474    0.0000 N   0  0  0  0  0  0  0  0  0
    4.1844   -1.3320    0.0000 C   0  0  0  0  0  0  0  0  0
    3.3774   -1.5035    0.0000 C   0  0  0  0  0  0  0  0  0
    5.2463   -0.3759    0.0000 C   0  0  0  0  0  0  0  0  0
    5.5012    0.4088    0.0000 C   0  0  0  0  0  0  0  0  0
    6.2859    0.6637    0.0000 C   0  0  0  0  0  0  0  0  0
    6.2859    1.4887    0.0000 C   0  0  0  0  0  0  0  0  0
    5.5012    1.7436    0.0000 N   0  0  0  0  0  0  0  0  0
    5.0163    1.0762    0.0000 C   0  0  0  0  0  0  0  0  0
    7.0003    1.9012    0.0000 C   0  0  0  0  0  0  0  0  0
    7.7148    1.4887    0.0000 C   0  0  0  0  0  0  0  0  0
    7.7148    0.6637    0.0000 C   0  0  0  0  0  0  0  0  0
    7.0003    0.2512    0.0000 C   0  0  0  0  0  0  0  0  0
  1  2  1  0  0  0  0
  2  3  4  0  0  0  0
  2  7  4  0  0  0  0
  3  4  4  0  0  0  0
  4  5  4  0  0  0  0
  4  9  1  0  0  0  0
  5  6  4  0  0  0  0
  6  7  4  0  0  0  0
  7  8  1  0  0  0  0
  9 10  1  0  0  0  0
  9 11  1  0  0  0  0
  9 15  1  0  0  0  0
 11 12  1  0  0  0  0
 12 13  1  0  0  0  0
 13 14  1  0  0  0  0
 13 16  1  0  0  0  0
 14 15  1  0  0  0  0
 16 17  1  0  0  0  0
 17 18  4  0  0  0  0
 17 21  4  0  0  0  0
 18 19  4  0  0  0  0
 18 25  4  0  0  0  0
 19 20  4  0  0  0  0
 19 22  4  0  0  0  0
 20 21  4  0  0  0  0
 22 23  4  0  0  0  0
 23 24  4  0  0  0  0
 24 25  4  0  0  0  0
M  STY  1   1 DAT
M  SAL   1  1  20
M  SDT   1 MRV_IMPLICIT_H                                        
M  SDD   1     0.0000    0.0000    DR    ALL  0       0  
M  SED   1 IMPL_H1
M  END
>  <Name_Molregno>
407825

>  <DOPAMINE D2>
8.16

>  <DOPAMINE D3>
6.95

>  <DOPAMINE D4>
5.96

$$$$
407827
  Marvin  02231216192D 0   1.00000     0.00000     0

 27 30  0  0  0  0  0  0  0  0999 V2000
    1.1555    4.2653    0.0000 F   0  0  0  0  0  0  0  0  0
    1.1843    3.4408    0.0000 C   0  0  0  0  0  0  0  0  0
    0.3598    3.4120    0.0000 F   0  0  0  0  0  0  0  0  0
    2.0088    3.4696    0.0000 F   0  0  0  0  0  0  0  0  0
    1.2131    2.6163    0.0000 C   0  0  0  0  0  0  0  0  0
    1.9415    2.2290    0.0000 C   0  0  0  0  0  0  0  0  0
    1.9703    1.4045    0.0000 C   0  0  0  0  0  0  0  0  0
    1.2707    0.9673    0.0000 C   0  0  0  0  0  0  0  0  0
    0.5422    1.3546    0.0000 C   0  0  0  0  0  0  0  0  0
    0.5134    2.1791    0.0000 C   0  0  0  0  0  0  0  0  0
    2.6987    1.0172    0.0000 C   0  0  0  0  0  0  0  0  0
    2.1908    0.3671    0.0000 O   0  0  0  0  0  0  0  0  0
    2.9537    1.8018    0.0000 C   0  0  0  0  0  0  0  0  0
    3.7607    1.9733    0.0000 C   0  0  0  0  0  0  0  0  0
    4.3127    1.3602    0.0000 N   0  0  0  0  0  0  0  0  0
    4.0577    0.5756    0.0000 C   0  0  0  0  0  0  0  0  0
    3.2508    0.4041    0.0000 C   0  0  0  0  0  0  0  0  0
    5.1197    1.5318    0.0000 C   0  0  0  0  0  0  0  0  0
    5.3746    2.3164    0.0000 C   0  0  0  0  0  0  0  0  0
    6.1592    2.5713    0.0000 C   0  0  0  0  0  0  0  0  0
    6.1592    3.3963    0.0000 C   0  0  0  0  0  0  0  0  0
    5.3746    3.6513    0.0000 N   0  0  0  0  0  0  0  0  0
    4.8897    2.9838    0.0000 C   0  0  0  0  0  0  0  0  0
    6.8737    3.8088    0.0000 C   0  0  0  0  0  0  0  0  0
    7.5882    3.3963    0.0000 C   0  0  0  0  0  0  0  0  0
    7.5882    2.5713    0.0000 C   0  0  0  0  0  0  0  0  0
    6.8737    2.1588    0.0000 C   0  0  0  0  0  0  0  0  0
  1  2  1  0  0  0  0
  2  3  1  0  0  0  0
  2  4  1  0  0  0  0
  2  5  1  0  0  0  0
  5  6  4  0  0  0  0
  5 10  4  0  0  0  0
  6  7  4  0  0  0  0
  7  8  4  0  0  0  0
  7 11  1  0  0  0  0
  8  9  4  0  0  0  0
  9 10  4  0  0  0  0
 11 12  1  0  0  0  0
 11 13  1  0  0  0  0
 11 17  1  0  0  0  0
 13 14  1  0  0  0  0
 14 15  1  0  0  0  0
 15 16  1  0  0  0  0
 15 18  1  0  0  0  0
 16 17  1  0  0  0  0
 18 19  1  0  0  0  0
 19 20  4  0  0  0  0
 19 23  4  0  0  0  0
 20 21  4  0  0  0  0
 20 27  4  0  0  0  0
 21 22  4  0  0  0  0
 21 24  4  0  0  0  0
 22 23  4  0  0  0  0
 24 25  4  0  0  0  0
 25 26  4  0  0  0  0
 26 27  4  0  0  0  0
M  STY  1   1 DAT
M  SAL   1  1  22
M  SDT   1 MRV_IMPLICIT_H                                        
M  SDD   1     0.0000    0.0000    DR    ALL  0       0  
M  SED   1 IMPL_H1
M  END
>  <Name_Molregno>
407827

>  <DOPAMINE D2>
6.97

>  <DOPAMINE D3>
6.24

>  <DOPAMINE D4>
5.43

$$$$
407828
  Marvin  02231216192D 0   1.00000     0.00000     0

 24 27  0  0  0  0  0  0  0  0999 V2000
    0.3176    0.0313    0.0000 F   0  0  0  0  0  0  0  0  0
    1.0460   -0.3560    0.0000 C   0  0  0  0  0  0  0  0  0
    1.7457    0.0812    0.0000 C   0  0  0  0  0  0  0  0  0
    2.4741   -0.3061    0.0000 C   0  0  0  0  0  0  0  0  0
    2.5029   -1.1306    0.0000 C   0  0  0  0  0  0  0  0  0
    1.8032   -1.5678    0.0000 C   0  0  0  0  0  0  0  0  0
    1.0748   -1.1805    0.0000 C   0  0  0  0  0  0  0  0  0
    3.2313   -1.5179    0.0000 C   0  0  0  0  0  0  0  0  0
    2.7234   -2.1680    0.0000 O   0  0  0  0  0  0  0  0  0
    3.4863   -0.7333    0.0000 C   0  0  0  0  0  0  0  0  0
    4.2932   -0.5618    0.0000 C   0  0  0  0  0  0  0  0  0
    4.8453   -1.1749    0.0000 N   0  0  0  0  0  0  0  0  0
    4.5903   -1.9595    0.0000 C   0  0  0  0  0  0  0  0  0
    3.7833   -2.1310    0.0000 C   0  0  0  0  0  0  0  0  0
    5.6522   -1.0033    0.0000 C   0  0  0  0  0  0  0  0  0
    5.9072   -0.2187    0.0000 C   0  0  0  0  0  0  0  0  0
    6.6918    0.0362    0.0000 C   0  0  0  0  0  0  0  0  0
    6.6918    0.8612    0.0000 C   0  0  0  0  0  0  0  0  0
    5.9072    1.1162    0.0000 N   0  0  0  0  0  0  0  0  0
    5.4222    0.4487    0.0000 C   0  0  0  0  0  0  0  0  0
    7.4063    1.2737    0.0000 C   0  0  0  0  0  0  0  0  0
    8.1207    0.8612    0.0000 C   0  0  0  0  0  0  0  0  0
    8.1207    0.0362    0.0000 C   0  0  0  0  0  0  0  0  0
    7.4063   -0.3763    0.0000 C   0  0  0  0  0  0  0  0  0
  1  2  1  0  0  0  0
  2  3  4  0  0  0  0
  2  7  4  0  0  0  0
  3  4  4  0  0  0  0
  4  5  4  0  0  0  0
  5  6  4  0  0  0  0
  5  8  1  0  0  0  0
  6  7  4  0  0  0  0
  8  9  1  0  0  0  0
  8 10  1  0  0  0  0
  8 14  1  0  0  0  0
 10 11  1  0  0  0  0
 11 12  1  0  0  0  0
 12 13  1  0  0  0  0
 12 15  1  0  0  0  0
 13 14  1  0  0  0  0
 15 16  1  0  0  0  0
 16 17  4  0  0  0  0
 16 20  4  0  0  0  0
 17 18  4  0  0  0  0
 17 24  4  0  0  0  0
 18 19  4  0  0  0  0
 18 21  4  0  0  0  0
 19 20  4  0  0  0  0
 21 22  4  0  0  0  0
 22 23  4  0  0  0  0
 23 24  4  0  0  0  0
M  STY  1   1 DAT
M  SAL   1  1  19
M  SDT   1 MRV_IMPLICIT_H                                        
M  SDD   1     0.0000    0.0000    DR    ALL  0       0  
M  SED   1 IMPL_H1
M  END
>  <Name_Molregno>
407828

>  <DOPAMINE D2>
6.9

>  <DOPAMINE D3>
6.31

>  <DOPAMINE D4>
5.22

$$$$
407830
  Marvin  02231216192D 0   1.00000     0.00000     0

 24 27  0  0  0  0  0  0  0  0999 V2000
   -0.4290   -2.1977    0.0000 O   0  0  0  0  0  0  0  0  0
   -1.2460   -2.0829    0.0000 C   0  0  0  0  0  0  0  0  0
   -2.0530   -2.2544    0.0000 C   0  0  0  0  0  0  0  0  0
   -2.6050   -1.6413    0.0000 C   0  0  0  0  0  0  0  0  0
   -2.3501   -0.8567    0.0000 N   0  0  0  0  0  0  0  0  0
   -1.5431   -0.6852    0.0000 C   0  0  0  0  0  0  0  0  0
   -0.9911   -1.2983    0.0000 C   0  0  0  0  0  0  0  0  0
   -2.9021   -0.2436    0.0000 C   0  0  0  0  0  0  0  0  0
   -2.6472    0.5410    0.0000 C   0  0  0  0  0  0  0  0  0
   -1.8625    0.7960    0.0000 C   0  0  0  0  0  0  0  0  0
   -1.8625    1.6210    0.0000 C   0  0  0  0  0  0  0  0  0
   -2.6472    1.8759    0.0000 N   0  0  0  0  0  0  0  0  0
   -3.1321    1.2085    0.0000 C   0  0  0  0  0  0  0  0  0
   -1.1481    2.0335    0.0000 C   0  0  0  0  0  0  0  0  0
   -0.4336    1.6210    0.0000 C   0  0  0  0  0  0  0  0  0
   -0.4336    0.7960    0.0000 C   0  0  0  0  0  0  0  0  0
   -1.1481    0.3835    0.0000 C   0  0  0  0  0  0  0  0  0
   -1.2172   -2.9074    0.0000 C   0  0  0  0  0  0  0  0  0
   -0.4888   -3.2947    0.0000 C   0  0  0  0  0  0  0  0  0
   -0.4600   -4.1192    0.0000 C   0  0  0  0  0  0  0  0  0
   -1.1596   -4.5564    0.0000 C   0  0  0  0  0  0  0  0  0
   -1.1308   -5.3809    0.0000 O   0  0  0  0  0  0  0  0  0
   -1.8881   -4.1691    0.0000 C   0  0  0  0  0  0  0  0  0
   -1.9169   -3.3446    0.0000 C   0  0  0  0  0  0  0  0  0
  1  2  1  0  0  0  0
  2  3  1  0  0  0  0
  2  7  1  0  0  0  0
  2 18  1  0  0  0  0
  3  4  1  0  0  0  0
  4  5  1  0  0  0  0
  5  6  1  0  0  0  0
  5  8  1  0  0  0  0
  6  7  1  0  0  0  0
  8  9  1  0  0  0  0
  9 10  4  0  0  0  0
  9 13  4  0  0  0  0
 10 11  4  0  0  0  0
 10 17  4  0  0  0  0
 11 12  4  0  0  0  0
 11 14  4  0  0  0  0
 12 13  4  0  0  0  0
 14 15  4  0  0  0  0
 15 16  4  0  0  0  0
 16 17  4  0  0  0  0
 18 19  4  0  0  0  0
 18 24  4  0  0  0  0
 19 20  4  0  0  0  0
 20 21  4  0  0  0  0
 21 22  1  0  0  0  0
 21 23  4  0  0  0  0
 23 24  4  0  0  0  0
M  STY  1   1 DAT
M  SAL   1  1  12
M  SDT   1 MRV_IMPLICIT_H                                        
M  SDD   1     0.0000    0.0000    DR    ALL  0       0  
M  SED   1 IMPL_H1
M  END
>  <Name_Molregno>
407830

>  <DOPAMINE D2>
5.27

>  <DOPAMINE D3>
4.77

>  <DOPAMINE D4>
5.87

$$$$
407832
  Marvin  02231216192D 0   1.00000     0.00000     0

 25 28  0  0  0  0  0  0  0  0999 V2000
   -8.0736    0.9213    0.0000 O   0  0  0  0  0  0  0  0  0
   -8.7732    0.4841    0.0000 C   0  0  0  0  0  0  0  0  0
   -7.3452    0.5340    0.0000 C   0  0  0  0  0  0  0  0  0
   -6.6455    0.9712    0.0000 C   0  0  0  0  0  0  0  0  0
   -5.9171    0.5838    0.0000 C   0  0  0  0  0  0  0  0  0
   -5.8883   -0.2407    0.0000 C   0  0  0  0  0  0  0  0  0
   -6.5879   -0.6778    0.0000 C   0  0  0  0  0  0  0  0  0
   -7.3164   -0.2905    0.0000 C   0  0  0  0  0  0  0  0  0
   -5.1599   -0.6280    0.0000 C   0  0  0  0  0  0  0  0  0
   -5.6678   -1.2781    0.0000 O   0  0  0  0  0  0  0  0  0
   -4.9049    0.1566    0.0000 C   0  0  0  0  0  0  0  0  0
   -4.0980    0.3282    0.0000 C   0  0  0  0  0  0  0  0  0
   -3.5459   -0.2849    0.0000 N   0  0  0  0  0  0  0  0  0
   -3.8009   -1.0695    0.0000 C   0  0  0  0  0  0  0  0  0
   -4.6078   -1.2411    0.0000 C   0  0  0  0  0  0  0  0  0
   -2.7390   -0.1134    0.0000 C   0  0  0  0  0  0  0  0  0
   -2.4840    0.6712    0.0000 C   0  0  0  0  0  0  0  0  0
   -1.6994    0.9262    0.0000 C   0  0  0  0  0  0  0  0  0
   -1.6994    1.7512    0.0000 C   0  0  0  0  0  0  0  0  0
   -2.4840    2.0061    0.0000 N   0  0  0  0  0  0  0  0  0
   -2.9689    1.3387    0.0000 C   0  0  0  0  0  0  0  0  0
   -0.9849    2.1637    0.0000 C   0  0  0  0  0  0  0  0  0
   -0.2705    1.7512    0.0000 C   0  0  0  0  0  0  0  0  0
   -0.2705    0.9262    0.0000 C   0  0  0  0  0  0  0  0  0
   -0.9849    0.5137    0.0000 C   0  0  0  0  0  0  0  0  0
  1  2  1  0  0  0  0
  1  3  1  0  0  0  0
  3  4  4  0  0  0  0
  3  8  4  0  0  0  0
  4  5  4  0  0  0  0
  5  6  4  0  0  0  0
  6  7  4  0  0  0  0
  6  9  1  0  0  0  0
  7  8  4  0  0  0  0
  9 10  1  0  0  0  0
  9 11  1  0  0  0  0
  9 15  1  0  0  0  0
 11 12  1  0  0  0  0
 12 13  1  0  0  0  0
 13 14  1  0  0  0  0
 13 16  1  0  0  0  0
 14 15  1  0  0  0  0
 16 17  1  0  0  0  0
 17 18  4  0  0  0  0
 17 21  4  0  0  0  0
 18 19  4  0  0  0  0
 18 25  4  0  0  0  0
 19 20  4  0  0  0  0
 19 22  4  0  0  0  0
 20 21  4  0  0  0  0
 22 23  4  0  0  0  0
 23 24  4  0  0  0  0
 24 25  4  0  0  0  0
M  STY  1   1 DAT
M  SAL   1  1  20
M  SDT   1 MRV_IMPLICIT_H                                        
M  SDD   1     0.0000    0.0000    DR    ALL  0       0  
M  SED   1 IMPL_H1
M  END
>  <Name_Molregno>
407832

>  <DOPAMINE D2>
6.75

>  <DOPAMINE D3>
5.67

>  <DOPAMINE D4>
6.17

$$$$
407833
  Marvin  02231216192D 0   1.00000     0.00000     0

 30 33  0  0  0  0  0  0  0  0999 V2000
   -0.3705   -0.4880    0.0000 O   0  0  0  0  0  0  0  0  0
    0.3440   -0.0755    0.0000 C   0  0  0  0  0  0  0  0  0
    1.0585   -0.4880    0.0000 C   0  0  0  0  0  0  0  0  0
    1.7730   -0.0755    0.0000 C   0  0  0  0  0  0  0  0  0
    2.4874   -0.4880    0.0000 C   0  0  0  0  0  0  0  0  0
    3.2019   -0.0755    0.0000 C   0  0  0  0  0  0  0  0  0
    3.9164   -0.4880    0.0000 C   0  0  0  0  0  0  0  0  0
   -1.0849   -0.0755    0.0000 C   0  0  0  0  0  0  0  0  0
   -1.7994   -0.4880    0.0000 C   0  0  0  0  0  0  0  0  0
   -2.5139   -0.0755    0.0000 C   0  0  0  0  0  0  0  0  0
   -2.5139    0.7495    0.0000 C   0  0  0  0  0  0  0  0  0
   -1.7994    1.1620    0.0000 C   0  0  0  0  0  0  0  0  0
   -1.0849    0.7495    0.0000 C   0  0  0  0  0  0  0  0  0
   -3.2283    1.1620    0.0000 C   0  0  0  0  0  0  0  0  0
   -2.6980    1.7940    0.0000 O   0  0  0  0  0  0  0  0  0
   -3.5105    0.3868    0.0000 C   0  0  0  0  0  0  0  0  0
   -4.3230    0.2435    0.0000 C   0  0  0  0  0  0  0  0  0
   -4.8533    0.8755    0.0000 N   0  0  0  0  0  0  0  0  0
   -4.5711    1.6507    0.0000 C   0  0  0  0  0  0  0  0  0
   -3.7586    1.7940    0.0000 C   0  0  0  0  0  0  0  0  0
   -5.6657    0.7322    0.0000 C   0  0  0  0  0  0  0  0  0
   -5.9479   -0.0430    0.0000 C   0  0  0  0  0  0  0  0  0
   -6.7409   -0.2704    0.0000 C   0  0  0  0  0  0  0  0  0
   -6.7697   -1.0949    0.0000 C   0  0  0  0  0  0  0  0  0
   -5.9945   -1.3771    0.0000 N   0  0  0  0  0  0  0  0  0
   -5.4866   -0.7270    0.0000 C   0  0  0  0  0  0  0  0  0
   -7.4982   -1.4822    0.0000 C   0  0  0  0  0  0  0  0  0
   -8.1978   -1.0450    0.0000 C   0  0  0  0  0  0  0  0  0
   -8.1690   -0.2205    0.0000 C   0  0  0  0  0  0  0  0  0
   -7.4406    0.1668    0.0000 C   0  0  0  0  0  0  0  0  0
  1  2  1  0  0  0  0
  1  8  1  0  0  0  0
  2  3  1  0  0  0  0
  3  4  1  0  0  0  0
  4  5  1  0  0  0  0
  5  6  1  0  0  0  0
  6  7  1  0  0  0  0
  8  9  4  0  0  0  0
  8 13  4  0  0  0  0
  9 10  4  0  0  0  0
 10 11  4  0  0  0  0
 11 12  4  0  0  0  0
 11 14  1  0  0  0  0
 12 13  4  0  0  0  0
 14 15  1  0  0  0  0
 14 16  1  0  0  0  0
 14 20  1  0  0  0  0
 16 17  1  0  0  0  0
 17 18  1  0  0  0  0
 18 19  1  0  0  0  0
 18 21  1  0  0  0  0
 19 20  1  0  0  0  0
 21 22  1  0  0  0  0
 22 23  4  0  0  0  0
 22 26  4  0  0  0  0
 23 24  4  0  0  0  0
 23 30  4  0  0  0  0
 24 25  4  0  0  0  0
 24 27  4  0  0  0  0
 25 26  4  0  0  0  0
 27 28  4  0  0  0  0
 28 29  4  0  0  0  0
 29 30  4  0  0  0  0
M  STY  1   1 DAT
M  SAL   1  1  25
M  SDT   1 MRV_IMPLICIT_H                                        
M  SDD   1     0.0000    0.0000    DR    ALL  0       0  
M  SED   1 IMPL_H1
M  END
>  <Name_Molregno>
407833

>  <DOPAMINE D2>
6.8

>  <DOPAMINE D3>
5.71

>  <DOPAMINE D4>
5.83

$$$$
407834
  Marvin  02231216192D 0   1.00000     0.00000     0

 29 33  0  0  0  0  0  0  0  0999 V2000
    0.4042   -1.2132    0.0000 O   0  0  0  0  0  0  0  0  0
   -0.4128   -1.0984    0.0000 C   0  0  0  0  0  0  0  0  0
   -1.2198   -1.2699    0.0000 C   0  0  0  0  0  0  0  0  0
   -1.7718   -0.6568    0.0000 C   0  0  0  0  0  0  0  0  0
   -1.5169    0.1278    0.0000 N   0  0  0  0  0  0  0  0  0
   -0.7099    0.2993    0.0000 C   0  0  0  0  0  0  0  0  0
   -0.1579   -0.3138    0.0000 C   0  0  0  0  0  0  0  0  0
   -2.0689    0.7409    0.0000 C   0  0  0  0  0  0  0  0  0
   -1.8140    1.5255    0.0000 C   0  0  0  0  0  0  0  0  0
   -1.0293    1.7805    0.0000 C   0  0  0  0  0  0  0  0  0
   -1.0293    2.6055    0.0000 C   0  0  0  0  0  0  0  0  0
   -1.8140    2.8604    0.0000 N   0  0  0  0  0  0  0  0  0
   -2.2989    2.1930    0.0000 C   0  0  0  0  0  0  0  0  0
   -0.3149    3.0180    0.0000 C   0  0  0  0  0  0  0  0  0
    0.3996    2.6055    0.0000 C   0  0  0  0  0  0  0  0  0
    0.3996    1.7805    0.0000 C   0  0  0  0  0  0  0  0  0
   -0.3149    1.3680    0.0000 C   0  0  0  0  0  0  0  0  0
   -0.3840   -1.9229    0.0000 C   0  0  0  0  0  0  0  0  0
    0.3444   -2.3102    0.0000 C   0  0  0  0  0  0  0  0  0
    0.3732   -3.1347    0.0000 C   0  0  0  0  0  0  0  0  0
   -0.3264   -3.5719    0.0000 C   0  0  0  0  0  0  0  0  0
   -1.0549   -3.1846    0.0000 C   0  0  0  0  0  0  0  0  0
   -1.0836   -2.3601    0.0000 C   0  0  0  0  0  0  0  0  0
   -0.2976   -4.3964    0.0000 C   0  0  0  0  0  0  0  0  0
    0.4308   -4.7837    0.0000 C   0  0  0  0  0  0  0  0  0
    0.4596   -5.6082    0.0000 C   0  0  0  0  0  0  0  0  0
   -0.2400   -6.0454    0.0000 C   0  0  0  0  0  0  0  0  0
   -0.9685   -5.6581    0.0000 C   0  0  0  0  0  0  0  0  0
   -0.9973   -4.8336    0.0000 C   0  0  0  0  0  0  0  0  0
  1  2  1  0  0  0  0
  2  3  1  0  0  0  0
  2  7  1  0  0  0  0
  2 18  1  0  0  0  0
  3  4  1  0  0  0  0
  4  5  1  0  0  0  0
  5  6  1  0  0  0  0
  5  8  1  0  0  0  0
  6  7  1  0  0  0  0
  8  9  1  0  0  0  0
  9 10  4  0  0  0  0
  9 13  4  0  0  0  0
 10 11  4  0  0  0  0
 10 17  4  0  0  0  0
 11 12  4  0  0  0  0
 11 14  4  0  0  0  0
 12 13  4  0  0  0  0
 14 15  4  0  0  0  0
 15 16  4  0  0  0  0
 16 17  4  0  0  0  0
 18 19  4  0  0  0  0
 18 23  4  0  0  0  0
 19 20  4  0  0  0  0
 20 21  4  0  0  0  0
 21 22  4  0  0  0  0
 21 24  1  0  0  0  0
 22 23  4  0  0  0  0
 24 25  4  0  0  0  0
 24 29  4  0  0  0  0
 25 26  4  0  0  0  0
 26 27  4  0  0  0  0
 27 28  4  0  0  0  0
 28 29  4  0  0  0  0
M  STY  1   1 DAT
M  SAL   1  1  12
M  SDT   1 MRV_IMPLICIT_H                                        
M  SDD   1     0.0000    0.0000    DR    ALL  0       0  
M  SED   1 IMPL_H1
M  END
>  <Name_Molregno>
407834

>  <DOPAMINE D2>
7.01

>  <DOPAMINE D3>
6.33

>  <DOPAMINE D4>
6.89

$$$$
407835
  Marvin  02231216192D 0   1.00000     0.00000     0

 25 28  0  0  1  0  0  0  0  0999 V2000
    0.0360   -1.7148    0.0000 Cl  0  0  0  0  0  0  0  0  0
    0.8609   -1.7271    0.0000 C   0  0  0  0  0  0  0  0  0
    1.2840   -1.0189    0.0000 C   0  0  0  0  0  0  0  0  0
    2.1089   -1.0312    0.0000 C   0  0  0  0  0  0  0  0  0
    2.5107   -1.7518    0.0000 C   0  0  0  0  0  0  0  0  0
    2.0876   -2.4600    0.0000 C   0  0  0  0  0  0  0  0  0
    1.2627   -2.4477    0.0000 C   0  0  0  0  0  0  0  0  0
    3.3356   -1.7641    0.0000 C   0  0  0  0  0  0  0  0  0
    3.1400   -2.5656    0.0000 O   0  0  0  0  0  0  0  0  0
    3.1641   -0.9572    0.0000 C   0  0  0  0  0  0  0  0  0
    3.6881   -0.3199    0.0000 C   0  0  0  0  0  0  0  0  0
    4.5130   -0.3323    0.0000 C   0  0  0  0  0  0  0  0  0
    5.0176   -0.9849    0.0000 N   0  0  0  0  0  0  0  0  0
    4.8221   -1.7864    0.0000 C   0  0  0  0  0  0  0  0  0
    4.0735   -2.1332    0.0000 C   0  0  0  0  0  0  0  0  0
    5.8246   -0.8134    0.0000 C   0  0  0  0  0  0  0  0  0
    6.0796   -0.0287    0.0000 C   0  0  0  0  0  0  0  0  0
    6.8642    0.2262    0.0000 C   0  0  0  0  0  0  0  0  0
    6.8642    1.0512    0.0000 C   0  0  0  0  0  0  0  0  0
    6.0796    1.3061    0.0000 N   0  0  0  0  0  0  0  0  0
    5.5946    0.6387    0.0000 C   0  0  0  0  0  0  0  0  0
    7.5786    1.4637    0.0000 C   0  0  0  0  0  0  0  0  0
    8.2931    1.0512    0.0000 C   0  0  0  0  0  0  0  0  0
    8.2931    0.2262    0.0000 C   0  0  0  0  0  0  0  0  0
    7.5786   -0.1863    0.0000 C   0  0  0  0  0  0  0  0  0
  1  2  1  0  0  0  0
  2  3  4  0  0  0  0
  2  7  4  0  0  0  0
  3  4  4  0  0  0  0
  4  5  4  0  0  0  0
  5  6  4  0  0  0  0
  5  8  1  0  0  0  0
  6  7  4  0  0  0  0
  8  9  1  0  0  0  0
  8 10  1  0  0  0  0
  8 15  1  0  0  0  0
 10 11  1  0  0  0  0
 11 12  1  0  0  0  0
 12 13  1  0  0  0  0
 13 14  1  0  0  0  0
 13 16  1  0  0  0  0
 14 15  1  0  0  0  0
 16 17  1  0  0  0  0
 17 18  4  0  0  0  0
 17 21  4  0  0  0  0
 18 19  4  0  0  0  0
 18 25  4  0  0  0  0
 19 20  4  0  0  0  0
 19 22  4  0  0  0  0
 20 21  4  0  0  0  0
 22 23  4  0  0  0  0
 23 24  4  0  0  0  0
 24 25  4  0  0  0  0
M  STY  1   1 DAT
M  SAL   1  1  20
M  SDT   1 MRV_IMPLICIT_H                                        
M  SDD   1     0.0000    0.0000    DR    ALL  0       0  
M  SED   1 IMPL_H1
M  END
>  <Name_Molregno>
407835

>  <DOPAMINE D2>
6.7

>  <DOPAMINE D3>
5.68

>  <DOPAMINE D4>
5.41

$$$$
407837
  Marvin  02231216192D 0   1.00000     0.00000     0

 25 28  0  0  0  0  0  0  0  0999 V2000
    1.3583    0.3838    0.0000 Cl  0  0  0  0  0  0  0  0  0
    1.3871   -0.4407    0.0000 C   0  0  0  0  0  0  0  0  0
    2.1155   -0.8280    0.0000 C   0  0  0  0  0  0  0  0  0
    2.1443   -1.6525    0.0000 C   0  0  0  0  0  0  0  0  0
    1.4447   -2.0897    0.0000 C   0  0  0  0  0  0  0  0  0
    0.7163   -1.7024    0.0000 C   0  0  0  0  0  0  0  0  0
    0.6875   -0.8779    0.0000 C   0  0  0  0  0  0  0  0  0
    1.4735   -2.9142    0.0000 C   0  0  0  0  0  0  0  0  0
    2.2019   -3.3015    0.0000 C   0  0  0  0  0  0  0  0  0
    1.6940   -3.9516    0.0000 O   0  0  0  0  0  0  0  0  0
    2.4568   -2.5169    0.0000 C   0  0  0  0  0  0  0  0  0
    3.2638   -2.3454    0.0000 C   0  0  0  0  0  0  0  0  0
    3.8159   -2.9585    0.0000 N   0  0  0  0  0  0  0  0  0
    3.5609   -3.7431    0.0000 C   0  0  0  0  0  0  0  0  0
    2.7539   -3.9146    0.0000 C   0  0  0  0  0  0  0  0  0
    4.6228   -2.7870    0.0000 C   0  0  0  0  0  0  0  0  0
    4.8778   -2.0023    0.0000 C   0  0  0  0  0  0  0  0  0
    5.6624   -1.7474    0.0000 C   0  0  0  0  0  0  0  0  0
    5.6624   -0.9224    0.0000 C   0  0  0  0  0  0  0  0  0
    4.8778   -0.6675    0.0000 N   0  0  0  0  0  0  0  0  0
    4.3928   -1.3349    0.0000 C   0  0  0  0  0  0  0  0  0
    6.3769   -0.5099    0.0000 C   0  0  0  0  0  0  0  0  0
    7.0913   -0.9224    0.0000 C   0  0  0  0  0  0  0  0  0
    7.0913   -1.7474    0.0000 C   0  0  0  0  0  0  0  0  0
    6.3769   -2.1599    0.0000 C   0  0  0  0  0  0  0  0  0
  1  2  1  0  0  0  0
  2  3  4  0  0  0  0
  2  7  4  0  0  0  0
  3  4  4  0  0  0  0
  4  5  4  0  0  0  0
  5  6  4  0  0  0  0
  5  8  1  0  0  0  0
  6  7  4  0  0  0  0
  8  9  1  0  0  0  0
  9 10  1  0  0  0  0
  9 11  1  0  0  0  0
  9 15  1  0  0  0  0
 11 12  1  0  0  0  0
 12 13  1  0  0  0  0
 13 14  1  0  0  0  0
 13 16  1  0  0  0  0
 14 15  1  0  0  0  0
 16 17  1  0  0  0  0
 17 18  4  0  0  0  0
 17 21  4  0  0  0  0
 18 19  4  0  0  0  0
 18 25  4  0  0  0  0
 19 20  4  0  0  0  0
 19 22  4  0  0  0  0
 20 21  4  0  0  0  0
 22 23  4  0  0  0  0
 23 24  4  0  0  0  0
 24 25  4  0  0  0  0
M  STY  1   1 DAT
M  SAL   1  1  20
M  SDT   1 MRV_IMPLICIT_H                                        
M  SDD   1     0.0000    0.0000    DR    ALL  0       0  
M  SED   1 IMPL_H1
M  END
>  <Name_Molregno>
407837

>  <DOPAMINE D2>
5.54

>  <DOPAMINE D3>
5.26

>  <DOPAMINE D4>
5.41

$$$$
407839
  Marvin  02231216192D 0   1.00000     0.00000     0

 24 27  0  0  1  0  0  0  0  0999 V2000
    0.7486   -2.6789    0.0000 Cl  0  0  0  0  0  0  0  0  0
    1.4483   -2.2417    0.0000 C   0  0  0  0  0  0  0  0  0
    1.4195   -1.4172    0.0000 C   0  0  0  0  0  0  0  0  0
    2.1191   -0.9800    0.0000 C   0  0  0  0  0  0  0  0  0
    2.8476   -1.3673    0.0000 C   0  0  0  0  0  0  0  0  0
    2.8763   -2.1918    0.0000 C   0  0  0  0  0  0  0  0  0
    2.1767   -2.6290    0.0000 C   0  0  0  0  0  0  0  0  0
    3.5472   -0.9302    0.0000 C   0  0  0  0  0  0  0  0  0
    3.8562   -1.6951    0.0000 O   0  0  0  0  0  0  0  0  0
    2.9952   -0.3171    0.0000 C   0  0  0  0  0  0  0  0  0
    3.2501    0.4676    0.0000 C   0  0  0  0  0  0  0  0  0
    4.0571    0.6391    0.0000 C   0  0  0  0  0  0  0  0  0
    4.6091    0.0260    0.0000 N   0  0  0  0  0  0  0  0  0
    4.3542   -0.7586    0.0000 C   0  0  0  0  0  0  0  0  0
    5.4161    0.1975    0.0000 C   0  0  0  0  0  0  0  0  0
    5.6710    0.9821    0.0000 C   0  0  0  0  0  0  0  0  0
    6.4556    1.2371    0.0000 C   0  0  0  0  0  0  0  0  0
    6.4556    2.0621    0.0000 C   0  0  0  0  0  0  0  0  0
    5.6710    2.3170    0.0000 N   0  0  0  0  0  0  0  0  0
    5.1861    1.6496    0.0000 C   0  0  0  0  0  0  0  0  0
    7.1701    2.4746    0.0000 C   0  0  0  0  0  0  0  0  0
    7.8846    2.0621    0.0000 C   0  0  0  0  0  0  0  0  0
    7.8846    1.2371    0.0000 C   0  0  0  0  0  0  0  0  0
    7.1701    0.8246    0.0000 C   0  0  0  0  0  0  0  0  0
  1  2  1  0  0  0  0
  2  3  4  0  0  0  0
  2  7  4  0  0  0  0
  3  4  4  0  0  0  0
  4  5  4  0  0  0  0
  5  6  4  0  0  0  0
  5  8  1  0  0  0  0
  6  7  4  0  0  0  0
  8  9  1  0  0  0  0
  8 10  1  0  0  0  0
  8 14  1  0  0  0  0
 10 11  1  0  0  0  0
 11 12  1  0  0  0  0
 12 13  1  0  0  0  0
 13 14  1  0  0  0  0
 13 15  1  0  0  0  0
 15 16  1  0  0  0  0
 16 17  4  0  0  0  0
 16 20  4  0  0  0  0
 17 18  4  0  0  0  0
 17 24  4  0  0  0  0
 18 19  4  0  0  0  0
 18 21  4  0  0  0  0
 19 20  4  0  0  0  0
 21 22  4  0  0  0  0
 22 23  4  0  0  0  0
 23 24  4  0  0  0  0
M  STY  1   1 DAT
M  SAL   1  1  19
M  SDT   1 MRV_IMPLICIT_H                                        
M  SDD   1     0.0000    0.0000    DR    ALL  0       0  
M  SED   1 IMPL_H1
M  END
>  <Name_Molregno>
407839

>  <DOPAMINE D2>
5.37

>  <DOPAMINE D3>
5.37

>  <DOPAMINE D4>
5.61

$$$$
407842
  Marvin  02231216192D 0   1.00000     0.00000     0

 24 27  0  0  0  0  0  0  0  0999 V2000
    1.0618   -3.4700    0.0000 Cl  0  0  0  0  0  0  0  0  0
    1.5697   -2.8198    0.0000 C   0  0  0  0  0  0  0  0  0
    1.2607   -2.0549    0.0000 C   0  0  0  0  0  0  0  0  0
    1.7686   -1.4048    0.0000 C   0  0  0  0  0  0  0  0  0
    2.5856   -1.5196    0.0000 C   0  0  0  0  0  0  0  0  0
    2.8946   -2.2846    0.0000 C   0  0  0  0  0  0  0  0  0
    2.3867   -2.9347    0.0000 C   0  0  0  0  0  0  0  0  0
    3.0935   -0.8695    0.0000 C   0  0  0  0  0  0  0  0  0
    3.3484   -0.0849    0.0000 C   0  0  0  0  0  0  0  0  0
    4.1554    0.0866    0.0000 C   0  0  0  0  0  0  0  0  0
    4.7074   -0.5265    0.0000 N   0  0  0  0  0  0  0  0  0
    4.4525   -1.3111    0.0000 C   0  0  0  0  0  0  0  0  0
    3.6455   -1.4826    0.0000 C   0  0  0  0  0  0  0  0  0
    5.5144   -0.3549    0.0000 C   0  0  0  0  0  0  0  0  0
    5.7693    0.4297    0.0000 C   0  0  0  0  0  0  0  0  0
    6.5540    0.6846    0.0000 C   0  0  0  0  0  0  0  0  0
    6.5540    1.5096    0.0000 C   0  0  0  0  0  0  0  0  0
    5.7693    1.7646    0.0000 N   0  0  0  0  0  0  0  0  0
    5.2844    1.0971    0.0000 C   0  0  0  0  0  0  0  0  0
    7.2684    1.9221    0.0000 C   0  0  0  0  0  0  0  0  0
    7.9829    1.5096    0.0000 C   0  0  0  0  0  0  0  0  0
    7.9829    0.6846    0.0000 C   0  0  0  0  0  0  0  0  0
    7.2684    0.2721    0.0000 C   0  0  0  0  0  0  0  0  0
    2.3651   -0.4822    0.0000 C   0  0  0  0  0  0  0  0  0
  1  2  1  0  0  0  0
  2  3  4  0  0  0  0
  2  7  4  0  0  0  0
  3  4  4  0  0  0  0
  4  5  4  0  0  0  0
  5  6  4  0  0  0  0
  5  8  1  0  0  0  0
  6  7  4  0  0  0  0
  8  9  1  0  0  0  0
  8 13  1  0  0  0  0
  8 24  1  0  0  0  0
  9 10  1  0  0  0  0
 10 11  1  0  0  0  0
 11 12  1  0  0  0  0
 11 14  1  0  0  0  0
 12 13  1  0  0  0  0
 14 15  1  0  0  0  0
 15 16  4  0  0  0  0
 15 19  4  0  0  0  0
 16 17  4  0  0  0  0
 16 23  4  0  0  0  0
 17 18  4  0  0  0  0
 17 20  4  0  0  0  0
 18 19  4  0  0  0  0
 20 21  4  0  0  0  0
 21 22  4  0  0  0  0
 22 23  4  0  0  0  0
M  STY  1   1 DAT
M  SAL   1  1  18
M  SDT   1 MRV_IMPLICIT_H                                        
M  SDD   1     0.0000    0.0000    DR    ALL  0       0  
M  SED   1 IMPL_H1
M  END
>  <Name_Molregno>
407842

>  <DOPAMINE D2>
6

>  <DOPAMINE D3>
5.68

>  <DOPAMINE D4>
5.56

$$$$
407843
  Marvin  02231216192D 0   1.00000     0.00000     0

 24 27  0  0  0  0  0  0  0  0999 V2000
    0.3176    0.0313    0.0000 Cl  0  0  0  0  0  0  0  0  0
    1.0460   -0.3560    0.0000 C   0  0  0  0  0  0  0  0  0
    1.7457    0.0812    0.0000 C   0  0  0  0  0  0  0  0  0
    2.4741   -0.3061    0.0000 C   0  0  0  0  0  0  0  0  0
    2.5029   -1.1306    0.0000 C   0  0  0  0  0  0  0  0  0
    1.8032   -1.5678    0.0000 C   0  0  0  0  0  0  0  0  0
    1.0748   -1.1805    0.0000 C   0  0  0  0  0  0  0  0  0
    3.2313   -1.5179    0.0000 C   0  0  0  0  0  0  0  0  0
    2.7234   -2.1680    0.0000 N   0  0  0  0  0  0  0  0  0
    3.4863   -0.7333    0.0000 C   0  0  0  0  0  0  0  0  0
    4.2932   -0.5618    0.0000 C   0  0  0  0  0  0  0  0  0
    4.8453   -1.1749    0.0000 N   0  0  0  0  0  0  0  0  0
    4.5903   -1.9595    0.0000 C   0  0  0  0  0  0  0  0  0
    3.7833   -2.1310    0.0000 C   0  0  0  0  0  0  0  0  0
    5.6522   -1.0033    0.0000 C   0  0  0  0  0  0  0  0  0
    5.9072   -0.2187    0.0000 C   0  0  0  0  0  0  0  0  0
    6.6918    0.0362    0.0000 C   0  0  0  0  0  0  0  0  0
    6.6918    0.8612    0.0000 C   0  0  0  0  0  0  0  0  0
    5.9072    1.1162    0.0000 N   0  0  0  0  0  0  0  0  0
    5.4222    0.4487    0.0000 C   0  0  0  0  0  0  0  0  0
    7.4063    1.2737    0.0000 C   0  0  0  0  0  0  0  0  0
    8.1207    0.8612    0.0000 C   0  0  0  0  0  0  0  0  0
    8.1207    0.0362    0.0000 C   0  0  0  0  0  0  0  0  0
    7.4063   -0.3763    0.0000 C   0  0  0  0  0  0  0  0  0
  1  2  1  0  0  0  0
  2  3  4  0  0  0  0
  2  7  4  0  0  0  0
  3  4  4  0  0  0  0
  4  5  4  0  0  0  0
  5  6  4  0  0  0  0
  5  8  1  0  0  0  0
  6  7  4  0  0  0  0
  8  9  1  0  0  0  0
  8 10  1  0  0  0  0
  8 14  1  0  0  0  0
 10 11  1  0  0  0  0
 11 12  1  0  0  0  0
 12 13  1  0  0  0  0
 12 15  1  0  0  0  0
 13 14  1  0  0  0  0
 15 16  1  0  0  0  0
 16 17  4  0  0  0  0
 16 20  4  0  0  0  0
 17 18  4  0  0  0  0
 17 24  4  0  0  0  0
 18 19  4  0  0  0  0
 18 21  4  0  0  0  0
 19 20  4  0  0  0  0
 21 22  4  0  0  0  0
 22 23  4  0  0  0  0
 23 24  4  0  0  0  0
M  STY  1   1 DAT
M  SAL   1  1  19
M  SDT   1 MRV_IMPLICIT_H                                        
M  SDD   1     0.0000    0.0000    DR    ALL  0       0  
M  SED   1 IMPL_H1
M  END
>  <Name_Molregno>
407843

>  <DOPAMINE D2>
6.74

>  <DOPAMINE D3>
6.42

>  <DOPAMINE D4>
5.64

$$$$
407844
  Marvin  02231216192D 0   1.00000     0.00000     0

 27 30  0  0  0  0  0  0  0  0999 V2000
   -1.2308    3.7608    0.0000 Cl  0  0  0  0  0  0  0  0  0
   -0.5024    3.3735    0.0000 C   0  0  0  0  0  0  0  0  0
    0.1972    3.8107    0.0000 C   0  0  0  0  0  0  0  0  0
    0.9257    3.4234    0.0000 C   0  0  0  0  0  0  0  0  0
    0.9545    2.5989    0.0000 C   0  0  0  0  0  0  0  0  0
    0.2548    2.1617    0.0000 C   0  0  0  0  0  0  0  0  0
   -0.4736    2.5490    0.0000 C   0  0  0  0  0  0  0  0  0
    1.6829    2.2115    0.0000 C   0  0  0  0  0  0  0  0  0
    1.1750    1.5614    0.0000 N   0  0  0  0  0  0  0  0  0
    1.4840    0.7965    0.0000 C   0  0  0  0  0  0  0  0  0
    2.3010    0.6817    0.0000 O   0  0  0  0  0  0  0  0  0
    0.9761    0.1464    0.0000 C   0  0  0  0  0  0  0  0  0
    1.9378    2.9962    0.0000 C   0  0  0  0  0  0  0  0  0
    2.7448    3.1677    0.0000 C   0  0  0  0  0  0  0  0  0
    3.2968    2.5546    0.0000 N   0  0  0  0  0  0  0  0  0
    3.0419    1.7700    0.0000 C   0  0  0  0  0  0  0  0  0
    2.2349    1.5984    0.0000 C   0  0  0  0  0  0  0  0  0
    4.1038    2.7261    0.0000 C   0  0  0  0  0  0  0  0  0
    4.3587    3.5107    0.0000 C   0  0  0  0  0  0  0  0  0
    5.1434    3.7657    0.0000 C   0  0  0  0  0  0  0  0  0
    5.1434    4.5907    0.0000 C   0  0  0  0  0  0  0  0  0
    4.3587    4.8456    0.0000 N   0  0  0  0  0  0  0  0  0
    3.8738    4.1782    0.0000 C   0  0  0  0  0  0  0  0  0
    5.8578    5.0032    0.0000 C   0  0  0  0  0  0  0  0  0
    6.5723    4.5907    0.0000 C   0  0  0  0  0  0  0  0  0
    6.5723    3.7657    0.0000 C   0  0  0  0  0  0  0  0  0
    5.8578    3.3532    0.0000 C   0  0  0  0  0  0  0  0  0
  1  2  1  0  0  0  0
  2  3  4  0  0  0  0
  2  7  4  0  0  0  0
  3  4  4  0  0  0  0
  4  5  4  0  0  0  0
  5  6  4  0  0  0  0
  5  8  1  0  0  0  0
  6  7  4  0  0  0  0
  8  9  1  0  0  0  0
  8 13  1  0  0  0  0
  8 17  1  0  0  0  0
  9 10  1  0  0  0  0
 10 11  2  0  0  0  0
 10 12  1  0  0  0  0
 13 14  1  0  0  0  0
 14 15  1  0  0  0  0
 15 16  1  0  0  0  0
 15 18  1  0  0  0  0
 16 17  1  0  0  0  0
 18 19  1  0  0  0  0
 19 20  4  0  0  0  0
 19 23  4  0  0  0  0
 20 21  4  0  0  0  0
 20 27  4  0  0  0  0
 21 22  4  0  0  0  0
 21 24  4  0  0  0  0
 22 23  4  0  0  0  0
 24 25  4  0  0  0  0
 25 26  4  0  0  0  0
 26 27  4  0  0  0  0
M  STY  1   1 DAT
M  SAL   1  1  22
M  SDT   1 MRV_IMPLICIT_H                                        
M  SDD   1     0.0000    0.0000    DR    ALL  0       0  
M  SED   1 IMPL_H1
M  END
>  <Name_Molregno>
407844

>  <DOPAMINE D2>
7.08

>  <DOPAMINE D3>
6.71

>  <DOPAMINE D4>
6.46

$$$$
407845
  Marvin  02231216192D 0   1.00000     0.00000     0

 24 27  0  0  0  0  0  0  0  0999 V2000
    0.3176    0.0313    0.0000 Cl  0  0  0  0  0  0  0  0  0
    1.0460   -0.3560    0.0000 C   0  0  0  0  0  0  0  0  0
    1.7457    0.0812    0.0000 C   0  0  0  0  0  0  0  0  0
    2.4741   -0.3061    0.0000 C   0  0  0  0  0  0  0  0  0
    2.5029   -1.1306    0.0000 C   0  0  0  0  0  0  0  0  0
    1.8032   -1.5678    0.0000 C   0  0  0  0  0  0  0  0  0
    1.0748   -1.1805    0.0000 C   0  0  0  0  0  0  0  0  0
    3.2313   -1.5179    0.0000 C   0  0  0  0  0  0  0  0  0
    2.7234   -2.1680    0.0000 F   0  0  0  0  0  0  0  0  0
    3.4863   -0.7333    0.0000 C   0  0  0  0  0  0  0  0  0
    4.2932   -0.5618    0.0000 C   0  0  0  0  0  0  0  0  0
    4.8453   -1.1749    0.0000 N   0  0  0  0  0  0  0  0  0
    4.5903   -1.9595    0.0000 C   0  0  0  0  0  0  0  0  0
    3.7833   -2.1310    0.0000 C   0  0  0  0  0  0  0  0  0
    5.6522   -1.0033    0.0000 C   0  0  0  0  0  0  0  0  0
    5.9072   -0.2187    0.0000 C   0  0  0  0  0  0  0  0  0
    6.6918    0.0362    0.0000 C   0  0  0  0  0  0  0  0  0
    6.6918    0.8612    0.0000 C   0  0  0  0  0  0  0  0  0
    5.9072    1.1162    0.0000 N   0  0  0  0  0  0  0  0  0
    5.4222    0.4487    0.0000 C   0  0  0  0  0  0  0  0  0
    7.4063    1.2737    0.0000 C   0  0  0  0  0  0  0  0  0
    8.1207    0.8612    0.0000 C   0  0  0  0  0  0  0  0  0
    8.1207    0.0362    0.0000 C   0  0  0  0  0  0  0  0  0
    7.4063   -0.3763    0.0000 C   0  0  0  0  0  0  0  0  0
  1  2  1  0  0  0  0
  2  3  4  0  0  0  0
  2  7  4  0  0  0  0
  3  4  4  0  0  0  0
  4  5  4  0  0  0  0
  5  6  4  0  0  0  0
  5  8  1  0  0  0  0
  6  7  4  0  0  0  0
  8  9  1  0  0  0  0
  8 10  1  0  0  0  0
  8 14  1  0  0  0  0
 10 11  1  0  0  0  0
 11 12  1  0  0  0  0
 12 13  1  0  0  0  0
 12 15  1  0  0  0  0
 13 14  1  0  0  0  0
 15 16  1  0  0  0  0
 16 17  4  0  0  0  0
 16 20  4  0  0  0  0
 17 18  4  0  0  0  0
 17 24  4  0  0  0  0
 18 19  4  0  0  0  0
 18 21  4  0  0  0  0
 19 20  4  0  0  0  0
 21 22  4  0  0  0  0
 22 23  4  0  0  0  0
 23 24  4  0  0  0  0
M  STY  1   1 DAT
M  SAL   1  1  19
M  SDT   1 MRV_IMPLICIT_H                                        
M  SDD   1     0.0000    0.0000    DR    ALL  0       0  
M  SED   1 IMPL_H1
M  END
>  <Name_Molregno>
407845

>  <DOPAMINE D2>
6.92

>  <DOPAMINE D3>
6.68

>  <DOPAMINE D4>
6.44

$$$$
407846
  Marvin  02231216192D 0   1.00000     0.00000     0

 25 28  0  0  0  0  0  0  0  0999 V2000
    1.0948   -3.3909    0.0000 Cl  0  0  0  0  0  0  0  0  0
    1.6027   -2.7408    0.0000 C   0  0  0  0  0  0  0  0  0
    1.2936   -1.9759    0.0000 C   0  0  0  0  0  0  0  0  0
    1.8016   -1.3258    0.0000 C   0  0  0  0  0  0  0  0  0
    2.6185   -1.4406    0.0000 C   0  0  0  0  0  0  0  0  0
    2.9276   -2.2055    0.0000 C   0  0  0  0  0  0  0  0  0
    2.4197   -2.8557    0.0000 C   0  0  0  0  0  0  0  0  0
    3.1264   -0.7905    0.0000 C   0  0  0  0  0  0  0  0  0
    3.3814   -0.0059    0.0000 C   0  0  0  0  0  0  0  0  0
    4.1884    0.1656    0.0000 C   0  0  0  0  0  0  0  0  0
    4.7404   -0.4475    0.0000 N   0  0  0  0  0  0  0  0  0
    4.4855   -1.2321    0.0000 C   0  0  0  0  0  0  0  0  0
    3.6785   -1.4036    0.0000 C   0  0  0  0  0  0  0  0  0
    5.5474   -0.2759    0.0000 C   0  0  0  0  0  0  0  0  0
    5.8023    0.5087    0.0000 C   0  0  0  0  0  0  0  0  0
    6.5869    0.7636    0.0000 C   0  0  0  0  0  0  0  0  0
    6.5869    1.5886    0.0000 C   0  0  0  0  0  0  0  0  0
    5.8023    1.8436    0.0000 N   0  0  0  0  0  0  0  0  0
    5.3174    1.1761    0.0000 C   0  0  0  0  0  0  0  0  0
    7.3014    2.0011    0.0000 C   0  0  0  0  0  0  0  0  0
    8.0159    1.5886    0.0000 C   0  0  0  0  0  0  0  0  0
    8.0159    0.7636    0.0000 C   0  0  0  0  0  0  0  0  0
    7.3014    0.3511    0.0000 C   0  0  0  0  0  0  0  0  0
    2.3980   -0.4032    0.0000 C   0  0  0  0  0  0  0  0  0
    1.6696   -0.0159    0.0000 N   0  0  0  0  0  0  0  0  0
  1  2  1  0  0  0  0
  2  3  4  0  0  0  0
  2  7  4  0  0  0  0
  3  4  4  0  0  0  0
  4  5  4  0  0  0  0
  5  6  4  0  0  0  0
  5  8  1  0  0  0  0
  6  7  4  0  0  0  0
  8  9  1  0  0  0  0
  8 13  1  0  0  0  0
  8 24  1  0  0  0  0
  9 10  1  0  0  0  0
 10 11  1  0  0  0  0
 11 12  1  0  0  0  0
 11 14  1  0  0  0  0
 12 13  1  0  0  0  0
 14 15  1  0  0  0  0
 15 16  4  0  0  0  0
 15 19  4  0  0  0  0
 16 17  4  0  0  0  0
 16 23  4  0  0  0  0
 17 18  4  0  0  0  0
 17 20  4  0  0  0  0
 18 19  4  0  0  0  0
 20 21  4  0  0  0  0
 21 22  4  0  0  0  0
 22 23  4  0  0  0  0
 24 25  3  0  0  0  0
M  STY  1   1 DAT
M  SAL   1  1  18
M  SDT   1 MRV_IMPLICIT_H                                        
M  SDD   1     0.0000    0.0000    DR    ALL  0       0  
M  SED   1 IMPL_H1
M  END
>  <Name_Molregno>
407846

>  <DOPAMINE D2>
6.7

>  <DOPAMINE D3>
6.16

>  <DOPAMINE D4>
5.64

$$$$
407847
  Marvin  02231216192D 0   1.00000     0.00000     0

 27 30  0  0  0  0  0  0  0  0999 V2000
    1.1121   -2.5556    0.0000 Cl  0  0  0  0  0  0  0  0  0
    1.6200   -1.9055    0.0000 C   0  0  0  0  0  0  0  0  0
    1.3109   -1.1406    0.0000 C   0  0  0  0  0  0  0  0  0
    1.8189   -0.4905    0.0000 C   0  0  0  0  0  0  0  0  0
    2.6358   -0.6053    0.0000 C   0  0  0  0  0  0  0  0  0
    2.9449   -1.3702    0.0000 C   0  0  0  0  0  0  0  0  0
    2.4370   -2.0204    0.0000 C   0  0  0  0  0  0  0  0  0
    3.1438    0.0448    0.0000 C   0  0  0  0  0  0  0  0  0
    3.3987    0.8294    0.0000 C   0  0  0  0  0  0  0  0  0
    4.2057    1.0009    0.0000 C   0  0  0  0  0  0  0  0  0
    4.7577    0.3878    0.0000 N   0  0  0  0  0  0  0  0  0
    4.5028   -0.3968    0.0000 C   0  0  0  0  0  0  0  0  0
    3.6958   -0.5683    0.0000 C   0  0  0  0  0  0  0  0  0
    5.5647    0.5594    0.0000 C   0  0  0  0  0  0  0  0  0
    5.8196    1.3440    0.0000 C   0  0  0  0  0  0  0  0  0
    6.6042    1.5989    0.0000 C   0  0  0  0  0  0  0  0  0
    6.6042    2.4239    0.0000 C   0  0  0  0  0  0  0  0  0
    5.8196    2.6789    0.0000 N   0  0  0  0  0  0  0  0  0
    5.3347    2.0114    0.0000 C   0  0  0  0  0  0  0  0  0
    7.3187    2.8364    0.0000 C   0  0  0  0  0  0  0  0  0
    8.0332    2.4239    0.0000 C   0  0  0  0  0  0  0  0  0
    8.0332    1.5989    0.0000 C   0  0  0  0  0  0  0  0  0
    7.3187    1.1864    0.0000 C   0  0  0  0  0  0  0  0  0
    2.4153    0.4321    0.0000 C   0  0  0  0  0  0  0  0  0
    1.7157   -0.0051    0.0000 O   0  0  0  0  0  0  0  0  0
    0.9873    0.3822    0.0000 C   0  0  0  0  0  0  0  0  0
    2.3865    1.2566    0.0000 O   0  0  0  0  0  0  0  0  0
  1  2  1  0  0  0  0
  2  3  4  0  0  0  0
  2  7  4  0  0  0  0
  3  4  4  0  0  0  0
  4  5  4  0  0  0  0
  5  6  4  0  0  0  0
  5  8  1  0  0  0  0
  6  7  4  0  0  0  0
  8  9  1  0  0  0  0
  8 13  1  0  0  0  0
  8 24  1  0  0  0  0
  9 10  1  0  0  0  0
 10 11  1  0  0  0  0
 11 12  1  0  0  0  0
 11 14  1  0  0  0  0
 12 13  1  0  0  0  0
 14 15  1  0  0  0  0
 15 16  4  0  0  0  0
 15 19  4  0  0  0  0
 16 17  4  0  0  0  0
 16 23  4  0  0  0  0
 17 18  4  0  0  0  0
 17 20  4  0  0  0  0
 18 19  4  0  0  0  0
 20 21  4  0  0  0  0
 21 22  4  0  0  0  0
 22 23  4  0  0  0  0
 24 25  1  0  0  0  0
 24 27  2  0  0  0  0
 25 26  1  0  0  0  0
M  STY  1   1 DAT
M  SAL   1  1  18
M  SDT   1 MRV_IMPLICIT_H                                        
M  SDD   1     0.0000    0.0000    DR    ALL  0       0  
M  SED   1 IMPL_H1
M  END
>  <Name_Molregno>
407847

>  <DOPAMINE D2>
7.22

>  <DOPAMINE D3>
6.26

>  <DOPAMINE D4>
5.41

$$$$
407848
  Marvin  02231216192D 0   1.00000     0.00000     0

 28 31  0  0  0  0  0  0  0  0999 V2000
   -6.6867   -2.2461    0.0000 Cl  0  0  0  0  0  0  0  0  0
   -6.1788   -1.5959    0.0000 C   0  0  0  0  0  0  0  0  0
   -6.4879   -0.8310    0.0000 C   0  0  0  0  0  0  0  0  0
   -5.9799   -0.1809    0.0000 C   0  0  0  0  0  0  0  0  0
   -5.1630   -0.2957    0.0000 C   0  0  0  0  0  0  0  0  0
   -4.8539   -1.0607    0.0000 C   0  0  0  0  0  0  0  0  0
   -5.3618   -1.7108    0.0000 C   0  0  0  0  0  0  0  0  0
   -4.6551    0.3544    0.0000 C   0  0  0  0  0  0  0  0  0
   -4.4001    1.1390    0.0000 C   0  0  0  0  0  0  0  0  0
   -3.5931    1.3105    0.0000 C   0  0  0  0  0  0  0  0  0
   -3.0411    0.6974    0.0000 N   0  0  0  0  0  0  0  0  0
   -3.2960   -0.0872    0.0000 C   0  0  0  0  0  0  0  0  0
   -4.1030   -0.2587    0.0000 C   0  0  0  0  0  0  0  0  0
   -2.2341    0.8690    0.0000 C   0  0  0  0  0  0  0  0  0
   -1.9792    1.6536    0.0000 C   0  0  0  0  0  0  0  0  0
   -1.1946    1.9085    0.0000 C   0  0  0  0  0  0  0  0  0
   -1.1946    2.7335    0.0000 C   0  0  0  0  0  0  0  0  0
   -1.9792    2.9885    0.0000 N   0  0  0  0  0  0  0  0  0
   -2.4641    2.3210    0.0000 C   0  0  0  0  0  0  0  0  0
   -0.4801    3.1460    0.0000 C   0  0  0  0  0  0  0  0  0
    0.2344    2.7335    0.0000 C   0  0  0  0  0  0  0  0  0
    0.2344    1.9085    0.0000 C   0  0  0  0  0  0  0  0  0
   -0.4801    1.4960    0.0000 C   0  0  0  0  0  0  0  0  0
   -5.3835    0.7417    0.0000 C   0  0  0  0  0  0  0  0  0
   -5.4123    1.5662    0.0000 O   0  0  0  0  0  0  0  0  0
   -6.1407    1.9535    0.0000 C   0  0  0  0  0  0  0  0  0
   -6.1695    2.7780    0.0000 C   0  0  0  0  0  0  0  0  0
   -6.0831    0.3045    0.0000 O   0  0  0  0  0  0  0  0  0
  1  2  1  0  0  0  0
  2  3  4  0  0  0  0
  2  7  4  0  0  0  0
  3  4  4  0  0  0  0
  4  5  4  0  0  0  0
  5  6  4  0  0  0  0
  5  8  1  0  0  0  0
  6  7  4  0  0  0  0
  8  9  1  0  0  0  0
  8 13  1  0  0  0  0
  8 24  1  0  0  0  0
  9 10  1  0  0  0  0
 10 11  1  0  0  0  0
 11 12  1  0  0  0  0
 11 14  1  0  0  0  0
 12 13  1  0  0  0  0
 14 15  1  0  0  0  0
 15 16  4  0  0  0  0
 15 19  4  0  0  0  0
 16 17  4  0  0  0  0
 16 23  4  0  0  0  0
 17 18  4  0  0  0  0
 17 20  4  0  0  0  0
 18 19  4  0  0  0  0
 20 21  4  0  0  0  0
 21 22  4  0  0  0  0
 22 23  4  0  0  0  0
 24 25  1  0  0  0  0
 24 28  2  0  0  0  0
 25 26  1  0  0  0  0
 26 27  1  0  0  0  0
M  STY  1   1 DAT
M  SAL   1  1  18
M  SDT   1 MRV_IMPLICIT_H                                        
M  SDD   1     0.0000    0.0000    DR    ALL  0       0  
M  SED   1 IMPL_H1
M  END
>  <Name_Molregno>
407848

>  <DOPAMINE D2>
7.23

>  <DOPAMINE D3>
6.14

>  <DOPAMINE D4>
5.45

$$$$
407849
  Marvin  02231216192D 0   1.00000     0.00000     0

 25 28  0  0  0  0  0  0  0  0999 V2000
    1.0965   -3.4332    0.0000 Cl  0  0  0  0  0  0  0  0  0
    1.6045   -2.7831    0.0000 C   0  0  0  0  0  0  0  0  0
    1.2954   -2.0181    0.0000 C   0  0  0  0  0  0  0  0  0
    1.8033   -1.3680    0.0000 C   0  0  0  0  0  0  0  0  0
    2.6203   -1.4828    0.0000 C   0  0  0  0  0  0  0  0  0
    2.9294   -2.2478    0.0000 C   0  0  0  0  0  0  0  0  0
    2.4214   -2.8979    0.0000 C   0  0  0  0  0  0  0  0  0
    3.1282   -0.8327    0.0000 C   0  0  0  0  0  0  0  0  0
    3.3832   -0.0481    0.0000 C   0  0  0  0  0  0  0  0  0
    4.1901    0.1234    0.0000 C   0  0  0  0  0  0  0  0  0
    4.7422   -0.4897    0.0000 N   0  0  0  0  0  0  0  0  0
    4.4872   -1.2743    0.0000 C   0  0  0  0  0  0  0  0  0
    3.6803   -1.4458    0.0000 C   0  0  0  0  0  0  0  0  0
    5.5491   -0.3181    0.0000 C   0  0  0  0  0  0  0  0  0
    5.8041    0.4665    0.0000 C   0  0  0  0  0  0  0  0  0
    6.5887    0.7214    0.0000 C   0  0  0  0  0  0  0  0  0
    6.5887    1.5464    0.0000 C   0  0  0  0  0  0  0  0  0
    5.8041    1.8014    0.0000 N   0  0  0  0  0  0  0  0  0
    5.3192    1.1339    0.0000 C   0  0  0  0  0  0  0  0  0
    7.3032    1.9589    0.0000 C   0  0  0  0  0  0  0  0  0
    8.0176    1.5464    0.0000 C   0  0  0  0  0  0  0  0  0
    8.0176    0.7214    0.0000 C   0  0  0  0  0  0  0  0  0
    7.3032    0.3089    0.0000 C   0  0  0  0  0  0  0  0  0
    2.3998   -0.4454    0.0000 C   0  0  0  0  0  0  0  0  0
    2.3710    0.3791    0.0000 N   0  0  0  0  0  0  0  0  0
  1  2  1  0  0  0  0
  2  3  4  0  0  0  0
  2  7  4  0  0  0  0
  3  4  4  0  0  0  0
  4  5  4  0  0  0  0
  5  6  4  0  0  0  0
  5  8  1  0  0  0  0
  6  7  4  0  0  0  0
  8  9  1  0  0  0  0
  8 13  1  0  0  0  0
  8 24  1  0  0  0  0
  9 10  1  0  0  0  0
 10 11  1  0  0  0  0
 11 12  1  0  0  0  0
 11 14  1  0  0  0  0
 12 13  1  0  0  0  0
 14 15  1  0  0  0  0
 15 16  4  0  0  0  0
 15 19  4  0  0  0  0
 16 17  4  0  0  0  0
 16 23  4  0  0  0  0
 17 18  4  0  0  0  0
 17 20  4  0  0  0  0
 18 19  4  0  0  0  0
 20 21  4  0  0  0  0
 21 22  4  0  0  0  0
 22 23  4  0  0  0  0
 24 25  1  0  0  0  0
M  STY  1   1 DAT
M  SAL   1  1  18
M  SDT   1 MRV_IMPLICIT_H                                        
M  SDD   1     0.0000    0.0000    DR    ALL  0       0  
M  SED   1 IMPL_H1
M  END
>  <Name_Molregno>
407849

>  <DOPAMINE D2>
5

>  <DOPAMINE D3>
5.3

>  <DOPAMINE D4>
4.7

$$$$
407850
  Marvin  02231216192D 0   1.00000     0.00000     0

 28 31  0  0  0  0  0  0  0  0999 V2000
   -0.3763   -0.2517    0.0000 Cl  0  0  0  0  0  0  0  0  0
    0.1316    0.3984    0.0000 C   0  0  0  0  0  0  0  0  0
   -0.1775    1.1633    0.0000 C   0  0  0  0  0  0  0  0  0
    0.3305    1.8134    0.0000 C   0  0  0  0  0  0  0  0  0
    1.1474    1.6986    0.0000 C   0  0  0  0  0  0  0  0  0
    1.4565    0.9337    0.0000 C   0  0  0  0  0  0  0  0  0
    0.9486    0.2836    0.0000 C   0  0  0  0  0  0  0  0  0
    1.6553    2.3487    0.0000 C   0  0  0  0  0  0  0  0  0
    1.9103    3.1333    0.0000 C   0  0  0  0  0  0  0  0  0
    2.7173    3.3049    0.0000 C   0  0  0  0  0  0  0  0  0
    3.2693    2.6918    0.0000 N   0  0  0  0  0  0  0  0  0
    3.0144    1.9071    0.0000 C   0  0  0  0  0  0  0  0  0
    2.2074    1.7356    0.0000 C   0  0  0  0  0  0  0  0  0
    4.0763    2.8633    0.0000 C   0  0  0  0  0  0  0  0  0
    4.3312    3.6479    0.0000 C   0  0  0  0  0  0  0  0  0
    5.1158    3.9029    0.0000 C   0  0  0  0  0  0  0  0  0
    5.1158    4.7279    0.0000 C   0  0  0  0  0  0  0  0  0
    4.3312    4.9828    0.0000 N   0  0  0  0  0  0  0  0  0
    3.8463    4.3154    0.0000 C   0  0  0  0  0  0  0  0  0
    5.8303    5.1404    0.0000 C   0  0  0  0  0  0  0  0  0
    6.5448    4.7279    0.0000 C   0  0  0  0  0  0  0  0  0
    6.5448    3.9029    0.0000 C   0  0  0  0  0  0  0  0  0
    5.8303    3.4904    0.0000 C   0  0  0  0  0  0  0  0  0
    0.9269    2.7360    0.0000 C   0  0  0  0  0  0  0  0  0
    0.8981    3.5605    0.0000 N   0  0  0  0  0  0  0  0  0
    0.1697    3.9478    0.0000 C   0  0  0  0  0  0  0  0  0
   -0.5299    3.5107    0.0000 O   0  0  0  0  0  0  0  0  0
    0.1409    4.7723    0.0000 C   0  0  0  0  0  0  0  0  0
  1  2  1  0  0  0  0
  2  3  4  0  0  0  0
  2  7  4  0  0  0  0
  3  4  4  0  0  0  0
  4  5  4  0  0  0  0
  5  6  4  0  0  0  0
  5  8  1  0  0  0  0
  6  7  4  0  0  0  0
  8  9  1  0  0  0  0
  8 13  1  0  0  0  0
  8 24  1  0  0  0  0
  9 10  1  0  0  0  0
 10 11  1  0  0  0  0
 11 12  1  0  0  0  0
 11 14  1  0  0  0  0
 12 13  1  0  0  0  0
 14 15  1  0  0  0  0
 15 16  4  0  0  0  0
 15 19  4  0  0  0  0
 16 17  4  0  0  0  0
 16 23  4  0  0  0  0
 17 18  4  0  0  0  0
 17 20  4  0  0  0  0
 18 19  4  0  0  0  0
 20 21  4  0  0  0  0
 21 22  4  0  0  0  0
 22 23  4  0  0  0  0
 24 25  1  0  0  0  0
 25 26  1  0  0  0  0
 26 27  2  0  0  0  0
 26 28  1  0  0  0  0
M  STY  1   1 DAT
M  SAL   1  1  18
M  SDT   1 MRV_IMPLICIT_H                                        
M  SDD   1     0.0000    0.0000    DR    ALL  0       0  
M  SED   1 IMPL_H1
M  END
>  <Name_Molregno>
407850

>  <DOPAMINE D2>
5.7

>  <DOPAMINE D3>
4.9

>  <DOPAMINE D4>
5.35

$$$$
407851
  Marvin  02231216192D 0   1.00000     0.00000     0

 25 28  0  0  0  0  0  0  0  0999 V2000
    1.0965   -3.4332    0.0000 Cl  0  0  0  0  0  0  0  0  0
    1.6045   -2.7831    0.0000 C   0  0  0  0  0  0  0  0  0
    1.2954   -2.0181    0.0000 C   0  0  0  0  0  0  0  0  0
    1.8033   -1.3680    0.0000 C   0  0  0  0  0  0  0  0  0
    2.6203   -1.4828    0.0000 C   0  0  0  0  0  0  0  0  0
    2.9294   -2.2478    0.0000 C   0  0  0  0  0  0  0  0  0
    2.4214   -2.8979    0.0000 C   0  0  0  0  0  0  0  0  0
    3.1282   -0.8327    0.0000 C   0  0  0  0  0  0  0  0  0
    3.3832   -0.0481    0.0000 C   0  0  0  0  0  0  0  0  0
    4.1901    0.1234    0.0000 C   0  0  0  0  0  0  0  0  0
    4.7422   -0.4897    0.0000 N   0  0  0  0  0  0  0  0  0
    4.4872   -1.2743    0.0000 C   0  0  0  0  0  0  0  0  0
    3.6803   -1.4458    0.0000 C   0  0  0  0  0  0  0  0  0
    5.5491   -0.3181    0.0000 C   0  0  0  0  0  0  0  0  0
    5.8041    0.4665    0.0000 C   0  0  0  0  0  0  0  0  0
    6.5887    0.7214    0.0000 C   0  0  0  0  0  0  0  0  0
    6.5887    1.5464    0.0000 C   0  0  0  0  0  0  0  0  0
    5.8041    1.8014    0.0000 N   0  0  0  0  0  0  0  0  0
    5.3192    1.1339    0.0000 C   0  0  0  0  0  0  0  0  0
    7.3032    1.9589    0.0000 C   0  0  0  0  0  0  0  0  0
    8.0176    1.5464    0.0000 C   0  0  0  0  0  0  0  0  0
    8.0176    0.7214    0.0000 C   0  0  0  0  0  0  0  0  0
    7.3032    0.3089    0.0000 C   0  0  0  0  0  0  0  0  0
    2.3998   -0.4454    0.0000 C   0  0  0  0  0  0  0  0  0
    2.3710    0.3791    0.0000 O   0  0  0  0  0  0  0  0  0
  1  2  1  0  0  0  0
  2  3  4  0  0  0  0
  2  7  4  0  0  0  0
  3  4  4  0  0  0  0
  4  5  4  0  0  0  0
  5  6  4  0  0  0  0
  5  8  1  0  0  0  0
  6  7  4  0  0  0  0
  8  9  1  0  0  0  0
  8 13  1  0  0  0  0
  8 24  1  0  0  0  0
  9 10  1  0  0  0  0
 10 11  1  0  0  0  0
 11 12  1  0  0  0  0
 11 14  1  0  0  0  0
 12 13  1  0  0  0  0
 14 15  1  0  0  0  0
 15 16  4  0  0  0  0
 15 19  4  0  0  0  0
 16 17  4  0  0  0  0
 16 23  4  0  0  0  0
 17 18  4  0  0  0  0
 17 20  4  0  0  0  0
 18 19  4  0  0  0  0
 20 21  4  0  0  0  0
 21 22  4  0  0  0  0
 22 23  4  0  0  0  0
 24 25  1  0  0  0  0
M  STY  1   1 DAT
M  SAL   1  1  18
M  SDT   1 MRV_IMPLICIT_H                                        
M  SDD   1     0.0000    0.0000    DR    ALL  0       0  
M  SED   1 IMPL_H1
M  END
>  <Name_Molregno>
407851

>  <DOPAMINE D2>
5.63

>  <DOPAMINE D3>
6.97

>  <DOPAMINE D4>
5.71

$$$$
407852
  Marvin  02231216192D 0   1.00000     0.00000     0

 25 28  0  0  0  0  0  0  0  0999 V2000
    0.3245    0.1991    0.0000 Cl  0  0  0  0  0  0  0  0  0
    1.0529   -0.1882    0.0000 C   0  0  0  0  0  0  0  0  0
    1.7525    0.2490    0.0000 C   0  0  0  0  0  0  0  0  0
    2.4810   -0.1383    0.0000 C   0  0  0  0  0  0  0  0  0
    2.5098   -0.9628    0.0000 C   0  0  0  0  0  0  0  0  0
    1.8101   -1.4000    0.0000 C   0  0  0  0  0  0  0  0  0
    1.0817   -1.0127    0.0000 C   0  0  0  0  0  0  0  0  0
    3.2382   -1.3501    0.0000 C   0  0  0  0  0  0  0  0  0
    2.7303   -2.0002    0.0000 O   0  0  0  0  0  0  0  0  0
    3.0393   -2.7651    0.0000 C   0  0  0  0  0  0  0  0  0
    3.4931   -0.5655    0.0000 C   0  0  0  0  0  0  0  0  0
    4.3001   -0.3940    0.0000 C   0  0  0  0  0  0  0  0  0
    4.8521   -1.0071    0.0000 N   0  0  0  0  0  0  0  0  0
    4.5972   -1.7917    0.0000 C   0  0  0  0  0  0  0  0  0
    3.7902   -1.9632    0.0000 C   0  0  0  0  0  0  0  0  0
    5.6591   -0.8355    0.0000 C   0  0  0  0  0  0  0  0  0
    5.9141   -0.0509    0.0000 C   0  0  0  0  0  0  0  0  0
    6.6987    0.2040    0.0000 C   0  0  0  0  0  0  0  0  0
    6.6987    1.0290    0.0000 C   0  0  0  0  0  0  0  0  0
    5.9141    1.2840    0.0000 N   0  0  0  0  0  0  0  0  0
    5.4291    0.6165    0.0000 C   0  0  0  0  0  0  0  0  0
    7.4131    1.4415    0.0000 C   0  0  0  0  0  0  0  0  0
    8.1276    1.0290    0.0000 C   0  0  0  0  0  0  0  0  0
    8.1276    0.2040    0.0000 C   0  0  0  0  0  0  0  0  0
    7.4131   -0.2085    0.0000 C   0  0  0  0  0  0  0  0  0
  1  2  1  0  0  0  0
  2  3  4  0  0  0  0
  2  7  4  0  0  0  0
  3  4  4  0  0  0  0
  4  5  4  0  0  0  0
  5  6  4  0  0  0  0
  5  8  1  0  0  0  0
  6  7  4  0  0  0  0
  8  9  1  0  0  0  0
  8 11  1  0  0  0  0
  8 15  1  0  0  0  0
  9 10  1  0  0  0  0
 11 12  1  0  0  0  0
 12 13  1  0  0  0  0
 13 14  1  0  0  0  0
 13 16  1  0  0  0  0
 14 15  1  0  0  0  0
 16 17  1  0  0  0  0
 17 18  4  0  0  0  0
 17 21  4  0  0  0  0
 18 19  4  0  0  0  0
 18 25  4  0  0  0  0
 19 20  4  0  0  0  0
 19 22  4  0  0  0  0
 20 21  4  0  0  0  0
 22 23  4  0  0  0  0
 23 24  4  0  0  0  0
 24 25  4  0  0  0  0
M  STY  1   1 DAT
M  SAL   1  1  20
M  SDT   1 MRV_IMPLICIT_H                                        
M  SDD   1     0.0000    0.0000    DR    ALL  0       0  
M  SED   1 IMPL_H1
M  END
>  <Name_Molregno>
407852

>  <DOPAMINE D2>
7.17

>  <DOPAMINE D3>
6.58

>  <DOPAMINE D4>
7.47

$$$$
407853
  Marvin  02231216192D 0   1.00000     0.00000     0

 27 30  0  0  0  0  0  0  0  0999 V2000
   -1.3484    3.7666    0.0000 Cl  0  0  0  0  0  0  0  0  0
   -0.6199    3.3792    0.0000 C   0  0  0  0  0  0  0  0  0
    0.0797    3.8164    0.0000 C   0  0  0  0  0  0  0  0  0
    0.8081    3.4291    0.0000 C   0  0  0  0  0  0  0  0  0
    0.8369    2.6046    0.0000 C   0  0  0  0  0  0  0  0  0
    0.1373    2.1674    0.0000 C   0  0  0  0  0  0  0  0  0
   -0.5911    2.5548    0.0000 C   0  0  0  0  0  0  0  0  0
    1.5654    2.2173    0.0000 C   0  0  0  0  0  0  0  0  0
    1.0574    1.5672    0.0000 O   0  0  0  0  0  0  0  0  0
    1.3665    0.8023    0.0000 C   0  0  0  0  0  0  0  0  0
    2.1835    0.6875    0.0000 C   0  0  0  0  0  0  0  0  0
    2.4925   -0.0775    0.0000 C   0  0  0  0  0  0  0  0  0
    1.8203    3.0019    0.0000 C   0  0  0  0  0  0  0  0  0
    2.6273    3.1735    0.0000 C   0  0  0  0  0  0  0  0  0
    3.1793    2.5604    0.0000 N   0  0  0  0  0  0  0  0  0
    2.9244    1.7757    0.0000 C   0  0  0  0  0  0  0  0  0
    2.1174    1.6042    0.0000 C   0  0  0  0  0  0  0  0  0
    3.9863    2.7319    0.0000 C   0  0  0  0  0  0  0  0  0
    4.2412    3.5165    0.0000 C   0  0  0  0  0  0  0  0  0
    5.0258    3.7714    0.0000 C   0  0  0  0  0  0  0  0  0
    5.0258    4.5964    0.0000 C   0  0  0  0  0  0  0  0  0
    4.2412    4.8514    0.0000 N   0  0  0  0  0  0  0  0  0
    3.7563    4.1839    0.0000 C   0  0  0  0  0  0  0  0  0
    5.7403    5.0089    0.0000 C   0  0  0  0  0  0  0  0  0
    6.4548    4.5964    0.0000 C   0  0  0  0  0  0  0  0  0
    6.4548    3.7714    0.0000 C   0  0  0  0  0  0  0  0  0
    5.7403    3.3589    0.0000 C   0  0  0  0  0  0  0  0  0
  1  2  1  0  0  0  0
  2  3  4  0  0  0  0
  2  7  4  0  0  0  0
  3  4  4  0  0  0  0
  4  5  4  0  0  0  0
  5  6  4  0  0  0  0
  5  8  1  0  0  0  0
  6  7  4  0  0  0  0
  8  9  1  0  0  0  0
  8 13  1  0  0  0  0
  8 17  1  0  0  0  0
  9 10  1  0  0  0  0
 10 11  1  0  0  0  0
 11 12  2  0  0  0  0
 13 14  1  0  0  0  0
 14 15  1  0  0  0  0
 15 16  1  0  0  0  0
 15 18  1  0  0  0  0
 16 17  1  0  0  0  0
 18 19  1  0  0  0  0
 19 20  4  0  0  0  0
 19 23  4  0  0  0  0
 20 21  4  0  0  0  0
 20 27  4  0  0  0  0
 21 22  4  0  0  0  0
 21 24  4  0  0  0  0
 22 23  4  0  0  0  0
 24 25  4  0  0  0  0
 25 26  4  0  0  0  0
 26 27  4  0  0  0  0
M  STY  1   1 DAT
M  SAL   1  1  22
M  SDT   1 MRV_IMPLICIT_H                                        
M  SDD   1     0.0000    0.0000    DR    ALL  0       0  
M  SED   1 IMPL_H1
M  END
>  <Name_Molregno>
407853

>  <DOPAMINE D2>
6.78

>  <DOPAMINE D3>
6.14

>  <DOPAMINE D4>
5.92

$$$$
407854
  Marvin  02231216192D 0   1.00000     0.00000     0

 25 28  0  0  0  0  0  0  0  0999 V2000
    0.3575    0.0796    0.0000 Cl  0  0  0  0  0  0  0  0  0
    1.0859   -0.3077    0.0000 C   0  0  0  0  0  0  0  0  0
    1.7855    0.1294    0.0000 C   0  0  0  0  0  0  0  0  0
    2.5140   -0.2579    0.0000 C   0  0  0  0  0  0  0  0  0
    2.5428   -1.0824    0.0000 C   0  0  0  0  0  0  0  0  0
    1.8431   -1.5196    0.0000 C   0  0  0  0  0  0  0  0  0
    1.1147   -1.1322    0.0000 C   0  0  0  0  0  0  0  0  0
    3.2712   -1.4697    0.0000 C   0  0  0  0  0  0  0  0  0
    2.7633   -2.1198    0.0000 O   0  0  0  0  0  0  0  0  0
    3.5261   -0.6851    0.0000 C   0  0  0  0  0  0  0  0  0
    4.3331   -0.5135    0.0000 C   0  0  0  0  0  0  0  0  0
    4.8851   -1.1266    0.0000 N   0  0  0  0  0  0  0  0  0
    4.6302   -1.9113    0.0000 C   0  0  0  0  0  0  0  0  0
    3.8232   -2.0828    0.0000 C   0  0  0  0  0  0  0  0  0
    5.6921   -0.9551    0.0000 C   0  0  0  0  0  0  0  0  0
    5.9471   -0.1705    0.0000 C   0  0  0  0  0  0  0  0  0
    6.7317    0.0845    0.0000 C   0  0  0  0  0  0  0  0  0
    6.7317    0.9095    0.0000 C   0  0  0  0  0  0  0  0  0
    5.9471    1.1644    0.0000 N   0  0  0  0  0  0  0  0  0
    5.4621    0.4970    0.0000 C   0  0  0  0  0  0  0  0  0
    4.6371    0.4970    0.0000 C   0  0  0  0  0  0  0  0  0
    7.4461    1.3220    0.0000 C   0  0  0  0  0  0  0  0  0
    8.1606    0.9095    0.0000 C   0  0  0  0  0  0  0  0  0
    8.1606    0.0845    0.0000 C   0  0  0  0  0  0  0  0  0
    7.4461   -0.3280    0.0000 C   0  0  0  0  0  0  0  0  0
  1  2  1  0  0  0  0
  2  3  4  0  0  0  0
  2  7  4  0  0  0  0
  3  4  4  0  0  0  0
  4  5  4  0  0  0  0
  5  6  4  0  0  0  0
  5  8  1  0  0  0  0
  6  7  4  0  0  0  0
  8  9  1  0  0  0  0
  8 10  1  0  0  0  0
  8 14  1  0  0  0  0
 10 11  1  0  0  0  0
 11 12  1  0  0  0  0
 12 13  1  0  0  0  0
 12 15  1  0  0  0  0
 13 14  1  0  0  0  0
 15 16  1  0  0  0  0
 16 17  4  0  0  0  0
 16 20  4  0  0  0  0
 17 18  4  0  0  0  0
 17 25  4  0  0  0  0
 18 19  4  0  0  0  0
 18 22  4  0  0  0  0
 19 20  4  0  0  0  0
 20 21  1  0  0  0  0
 22 23  4  0  0  0  0
 23 24  4  0  0  0  0
 24 25  4  0  0  0  0
M  STY  1   1 DAT
M  SAL   1  1  19
M  SDT   1 MRV_IMPLICIT_H                                        
M  SDD   1     0.0000    0.0000    DR    ALL  0       0  
M  SED   1 IMPL_H1
M  END
>  <Name_Molregno>
407854

>  <DOPAMINE D2>
7.81

>  <DOPAMINE D3>
7.36

>  <DOPAMINE D4>
5.52

$$$$
407855
  Marvin  02231216192D 0   1.00000     0.00000     0

 25 28  0  0  0  0  0  0  0  0999 V2000
   -5.4943    3.2842    0.0000 Cl  0  0  0  0  0  0  0  0  0
   -5.8034    2.5192    0.0000 C   0  0  0  0  0  0  0  0  0
   -5.2954    1.8691    0.0000 C   0  0  0  0  0  0  0  0  0
   -5.6045    1.1042    0.0000 C   0  0  0  0  0  0  0  0  0
   -6.4215    0.9894    0.0000 C   0  0  0  0  0  0  0  0  0
   -6.9294    1.6395    0.0000 C   0  0  0  0  0  0  0  0  0
   -6.6203    2.4044    0.0000 C   0  0  0  0  0  0  0  0  0
   -7.1283    3.0545    0.0000 Cl  0  0  0  0  0  0  0  0  0
   -5.0966    0.4541    0.0000 C   0  0  0  0  0  0  0  0  0
   -5.8250    0.0668    0.0000 O   0  0  0  0  0  0  0  0  0
   -4.5445    1.0672    0.0000 C   0  0  0  0  0  0  0  0  0
   -3.7376    0.8957    0.0000 C   0  0  0  0  0  0  0  0  0
   -3.4826    0.1110    0.0000 N   0  0  0  0  0  0  0  0  0
   -4.0347   -0.5021    0.0000 C   0  0  0  0  0  0  0  0  0
   -4.8416   -0.3305    0.0000 C   0  0  0  0  0  0  0  0  0
   -2.6757   -0.0605    0.0000 C   0  0  0  0  0  0  0  0  0
   -2.4207   -0.8451    0.0000 C   0  0  0  0  0  0  0  0  0
   -2.9056   -1.5126    0.0000 N   0  0  0  0  0  0  0  0  0
   -2.4207   -2.1800    0.0000 N   0  0  0  0  0  0  0  0  0
   -1.6361   -1.9251    0.0000 C   0  0  0  0  0  0  0  0  0
   -1.6361   -1.1001    0.0000 C   0  0  0  0  0  0  0  0  0
   -0.9216   -0.6876    0.0000 C   0  0  0  0  0  0  0  0  0
   -0.2072   -1.1001    0.0000 C   0  0  0  0  0  0  0  0  0
   -0.2072   -1.9251    0.0000 C   0  0  0  0  0  0  0  0  0
   -0.9216   -2.3376    0.0000 C   0  0  0  0  0  0  0  0  0
  1  2  1  0  0  0  0
  2  3  4  0  0  0  0
  2  7  4  0  0  0  0
  3  4  4  0  0  0  0
  4  5  4  0  0  0  0
  4  9  1  0  0  0  0
  5  6  4  0  0  0  0
  6  7  4  0  0  0  0
  7  8  1  0  0  0  0
  9 10  1  0  0  0  0
  9 11  1  0  0  0  0
  9 15  1  0  0  0  0
 11 12  1  0  0  0  0
 12 13  1  0  0  0  0
 13 14  1  0  0  0  0
 13 16  1  0  0  0  0
 14 15  1  0  0  0  0
 16 17  1  0  0  0  0
 17 18  4  0  0  0  0
 17 21  4  0  0  0  0
 18 19  4  0  0  0  0
 19 20  4  0  0  0  0
 20 21  4  0  0  0  0
 20 25  4  0  0  0  0
 21 22  4  0  0  0  0
 22 23  4  0  0  0  0
 23 24  4  0  0  0  0
 24 25  4  0  0  0  0
M  STY  1   1 DAT
M  SAL   1  1  19
M  SDT   1 MRV_IMPLICIT_H                                        
M  SDD   1     0.0000    0.0000    DR    ALL  0       0  
M  SED   1 IMPL_H1
M  END
>  <Name_Molregno>
407855

>  <DOPAMINE D2>
6.36

>  <DOPAMINE D3>
6.81

>  <DOPAMINE D4>
6.17

$$$$
407856
  Marvin  02231216192D 0   1.00000     0.00000     0

 24 27  0  0  0  0  0  0  0  0999 V2000
    1.0618    3.4700    0.0000 Cl  0  0  0  0  0  0  0  0  0
    1.5697    2.8198    0.0000 C   0  0  0  0  0  0  0  0  0
    2.3867    2.9347    0.0000 C   0  0  0  0  0  0  0  0  0
    2.8946    2.2846    0.0000 C   0  0  0  0  0  0  0  0  0
    2.5856    1.5196    0.0000 C   0  0  0  0  0  0  0  0  0
    1.7686    1.4048    0.0000 C   0  0  0  0  0  0  0  0  0
    1.2607    2.0549    0.0000 C   0  0  0  0  0  0  0  0  0
    3.0935    0.8695    0.0000 C   0  0  0  0  0  0  0  0  0
    2.3651    0.4822    0.0000 O   0  0  0  0  0  0  0  0  0
    3.6455    1.4826    0.0000 C   0  0  0  0  0  0  0  0  0
    4.4525    1.3111    0.0000 C   0  0  0  0  0  0  0  0  0
    4.7074    0.5265    0.0000 N   0  0  0  0  0  0  0  0  0
    4.1554   -0.0866    0.0000 C   0  0  0  0  0  0  0  0  0
    3.3484    0.0849    0.0000 C   0  0  0  0  0  0  0  0  0
    5.5144    0.3549    0.0000 C   0  0  0  0  0  0  0  0  0
    5.7693   -0.4297    0.0000 C   0  0  0  0  0  0  0  0  0
    5.2844   -1.0971    0.0000 N   0  0  0  0  0  0  0  0  0
    5.7693   -1.7646    0.0000 N   0  0  0  0  0  0  0  0  0
    6.5540   -1.5096    0.0000 C   0  0  0  0  0  0  0  0  0
    6.5540   -0.6846    0.0000 C   0  0  0  0  0  0  0  0  0
    7.2684   -0.2721    0.0000 C   0  0  0  0  0  0  0  0  0
    7.9829   -0.6846    0.0000 C   0  0  0  0  0  0  0  0  0
    7.9829   -1.5096    0.0000 C   0  0  0  0  0  0  0  0  0
    7.2684   -1.9221    0.0000 C   0  0  0  0  0  0  0  0  0
  1  2  1  0  0  0  0
  2  3  4  0  0  0  0
  2  7  4  0  0  0  0
  3  4  4  0  0  0  0
  4  5  4  0  0  0  0
  5  6  4  0  0  0  0
  5  8  1  0  0  0  0
  6  7  4  0  0  0  0
  8  9  1  0  0  0  0
  8 10  1  0  0  0  0
  8 14  1  0  0  0  0
 10 11  1  0  0  0  0
 11 12  1  0  0  0  0
 12 13  1  0  0  0  0
 12 15  1  0  0  0  0
 13 14  1  0  0  0  0
 15 16  1  0  0  0  0
 16 17  4  0  0  0  0
 16 20  4  0  0  0  0
 17 18  4  0  0  0  0
 18 19  4  0  0  0  0
 19 20  4  0  0  0  0
 19 24  4  0  0  0  0
 20 21  4  0  0  0  0
 21 22  4  0  0  0  0
 22 23  4  0  0  0  0
 23 24  4  0  0  0  0
M  STY  1   1 DAT
M  SAL   1  1  18
M  SDT   1 MRV_IMPLICIT_H                                        
M  SDD   1     0.0000    0.0000    DR    ALL  0       0  
M  SED   1 IMPL_H1
M  END
>  <Name_Molregno>
407856

>  <DOPAMINE D2>
6.26

>  <DOPAMINE D3>
6.36

>  <DOPAMINE D4>
5.67

$$$$
407857
  Marvin  02231216192D 0   1.00000     0.00000     0

 25 28  0  0  0  0  0  0  0  0999 V2000
    1.3109    1.5332    0.0000 Cl  0  0  0  0  0  0  0  0  0
    1.3397    0.7087    0.0000 C   0  0  0  0  0  0  0  0  0
    2.0682    0.3214    0.0000 C   0  0  0  0  0  0  0  0  0
    2.0969   -0.5031    0.0000 C   0  0  0  0  0  0  0  0  0
    1.3973   -0.9403    0.0000 C   0  0  0  0  0  0  0  0  0
    0.6689   -0.5530    0.0000 C   0  0  0  0  0  0  0  0  0
    0.6401    0.2715    0.0000 C   0  0  0  0  0  0  0  0  0
   -0.0884    0.6588    0.0000 Cl  0  0  0  0  0  0  0  0  0
    2.8254   -0.8904    0.0000 C   0  0  0  0  0  0  0  0  0
    2.3175   -1.5405    0.0000 O   0  0  0  0  0  0  0  0  0
    3.0803   -0.1058    0.0000 C   0  0  0  0  0  0  0  0  0
    3.8873    0.0657    0.0000 C   0  0  0  0  0  0  0  0  0
    4.4393   -0.5474    0.0000 N   0  0  0  0  0  0  0  0  0
    4.1844   -1.3320    0.0000 C   0  0  0  0  0  0  0  0  0
    3.3774   -1.5035    0.0000 C   0  0  0  0  0  0  0  0  0
    5.2463   -0.3759    0.0000 C   0  0  0  0  0  0  0  0  0
    5.5012    0.4088    0.0000 C   0  0  0  0  0  0  0  0  0
    6.2859    0.6637    0.0000 C   0  0  0  0  0  0  0  0  0
    6.2859    1.4887    0.0000 C   0  0  0  0  0  0  0  0  0
    5.5012    1.7436    0.0000 O   0  0  0  0  0  0  0  0  0
    5.0163    1.0762    0.0000 C   0  0  0  0  0  0  0  0  0
    7.0003    1.9012    0.0000 C   0  0  0  0  0  0  0  0  0
    7.7148    1.4887    0.0000 C   0  0  0  0  0  0  0  0  0
    7.7148    0.6637    0.0000 C   0  0  0  0  0  0  0  0  0
    7.0003    0.2512    0.0000 C   0  0  0  0  0  0  0  0  0
  1  2  1  0  0  0  0
  2  3  4  0  0  0  0
  2  7  4  0  0  0  0
  3  4  4  0  0  0  0
  4  5  4  0  0  0  0
  4  9  1  0  0  0  0
  5  6  4  0  0  0  0
  6  7  4  0  0  0  0
  7  8  1  0  0  0  0
  9 10  1  0  0  0  0
  9 11  1  0  0  0  0
  9 15  1  0  0  0  0
 11 12  1  0  0  0  0
 12 13  1  0  0  0  0
 13 14  1  0  0  0  0
 13 16  1  0  0  0  0
 14 15  1  0  0  0  0
 16 17  1  0  0  0  0
 17 18  4  0  0  0  0
 17 21  4  0  0  0  0
 18 19  4  0  0  0  0
 18 25  4  0  0  0  0
 19 20  4  0  0  0  0
 19 22  4  0  0  0  0
 20 21  4  0  0  0  0
 22 23  4  0  0  0  0
 23 24  4  0  0  0  0
 24 25  4  0  0  0  0
M  END
>  <Name_Molregno>
407857

>  <DOPAMINE D2>
7.68

>  <DOPAMINE D3>
7.55

>  <DOPAMINE D4>
6.78

$$$$
407858
  Marvin  02231216192D 0   1.00000     0.00000     0

 24 27  0  0  0  0  0  0  0  0999 V2000
    0.3176    0.0313    0.0000 Cl  0  0  0  0  0  0  0  0  0
    1.0460   -0.3560    0.0000 C   0  0  0  0  0  0  0  0  0
    1.7457    0.0812    0.0000 C   0  0  0  0  0  0  0  0  0
    2.4741   -0.3061    0.0000 C   0  0  0  0  0  0  0  0  0
    2.5029   -1.1306    0.0000 C   0  0  0  0  0  0  0  0  0
    1.8032   -1.5678    0.0000 C   0  0  0  0  0  0  0  0  0
    1.0748   -1.1805    0.0000 C   0  0  0  0  0  0  0  0  0
    3.2313   -1.5179    0.0000 C   0  0  0  0  0  0  0  0  0
    2.7234   -2.1680    0.0000 O   0  0  0  0  0  0  0  0  0
    3.4863   -0.7333    0.0000 C   0  0  0  0  0  0  0  0  0
    4.2932   -0.5618    0.0000 C   0  0  0  0  0  0  0  0  0
    4.8453   -1.1749    0.0000 N   0  0  0  0  0  0  0  0  0
    4.5903   -1.9595    0.0000 C   0  0  0  0  0  0  0  0  0
    3.7833   -2.1310    0.0000 C   0  0  0  0  0  0  0  0  0
    5.6522   -1.0033    0.0000 C   0  0  0  0  0  0  0  0  0
    5.9072   -0.2187    0.0000 C   0  0  0  0  0  0  0  0  0
    6.6918    0.0362    0.0000 C   0  0  0  0  0  0  0  0  0
    6.6918    0.8612    0.0000 C   0  0  0  0  0  0  0  0  0
    5.9072    1.1162    0.0000 O   0  0  0  0  0  0  0  0  0
    5.4222    0.4487    0.0000 C   0  0  0  0  0  0  0  0  0
    7.4063    1.2737    0.0000 C   0  0  0  0  0  0  0  0  0
    8.1207    0.8612    0.0000 C   0  0  0  0  0  0  0  0  0
    8.1207    0.0362    0.0000 C   0  0  0  0  0  0  0  0  0
    7.4063   -0.3763    0.0000 C   0  0  0  0  0  0  0  0  0
  1  2  1  0  0  0  0
  2  3  4  0  0  0  0
  2  7  4  0  0  0  0
  3  4  4  0  0  0  0
  4  5  4  0  0  0  0
  5  6  4  0  0  0  0
  5  8  1  0  0  0  0
  6  7  4  0  0  0  0
  8  9  1  0  0  0  0
  8 10  1  0  0  0  0
  8 14  1  0  0  0  0
 10 11  1  0  0  0  0
 11 12  1  0  0  0  0
 12 13  1  0  0  0  0
 12 15  1  0  0  0  0
 13 14  1  0  0  0  0
 15 16  1  0  0  0  0
 16 17  4  0  0  0  0
 16 20  4  0  0  0  0
 17 18  4  0  0  0  0
 17 24  4  0  0  0  0
 18 19  4  0  0  0  0
 18 21  4  0  0  0  0
 19 20  4  0  0  0  0
 21 22  4  0  0  0  0
 22 23  4  0  0  0  0
 23 24  4  0  0  0  0
M  END
>  <Name_Molregno>
407858

>  <DOPAMINE D2>
7.68

>  <DOPAMINE D3>
7.28

>  <DOPAMINE D4>
6.39

$$$$
407859
  Marvin  02231216192D 0   1.00000     0.00000     0

 25 28  0  0  0  0  0  0  0  0999 V2000
   -8.0736    0.9213    0.0000 S   0  0  0  0  0  0  0  0  0
   -8.7732    0.4841    0.0000 C   0  0  0  0  0  0  0  0  0
   -7.3452    0.5340    0.0000 C   0  0  0  0  0  0  0  0  0
   -6.6455    0.9712    0.0000 C   0  0  0  0  0  0  0  0  0
   -5.9171    0.5838    0.0000 C   0  0  0  0  0  0  0  0  0
   -5.8883   -0.2407    0.0000 C   0  0  0  0  0  0  0  0  0
   -6.5879   -0.6778    0.0000 C   0  0  0  0  0  0  0  0  0
   -7.3164   -0.2905    0.0000 C   0  0  0  0  0  0  0  0  0
   -5.1599   -0.6280    0.0000 C   0  0  0  0  0  0  0  0  0
   -5.6678   -1.2781    0.0000 O   0  0  0  0  0  0  0  0  0
   -4.9049    0.1566    0.0000 C   0  0  0  0  0  0  0  0  0
   -4.0980    0.3282    0.0000 C   0  0  0  0  0  0  0  0  0
   -3.5459   -0.2849    0.0000 N   0  0  0  0  0  0  0  0  0
   -3.8009   -1.0695    0.0000 C   0  0  0  0  0  0  0  0  0
   -4.6078   -1.2411    0.0000 C   0  0  0  0  0  0  0  0  0
   -2.7390   -0.1134    0.0000 C   0  0  0  0  0  0  0  0  0
   -2.4840    0.6712    0.0000 C   0  0  0  0  0  0  0  0  0
   -1.6994    0.9262    0.0000 C   0  0  0  0  0  0  0  0  0
   -1.6994    1.7512    0.0000 C   0  0  0  0  0  0  0  0  0
   -2.4840    2.0061    0.0000 O   0  0  0  0  0  0  0  0  0
   -2.9689    1.3387    0.0000 C   0  0  0  0  0  0  0  0  0
   -0.9849    2.1637    0.0000 C   0  0  0  0  0  0  0  0  0
   -0.2705    1.7512    0.0000 C   0  0  0  0  0  0  0  0  0
   -0.2705    0.9262    0.0000 C   0  0  0  0  0  0  0  0  0
   -0.9849    0.5137    0.0000 C   0  0  0  0  0  0  0  0  0
  1  2  1  0  0  0  0
  1  3  1  0  0  0  0
  3  4  4  0  0  0  0
  3  8  4  0  0  0  0
  4  5  4  0  0  0  0
  5  6  4  0  0  0  0
  6  7  4  0  0  0  0
  6  9  1  0  0  0  0
  7  8  4  0  0  0  0
  9 10  1  0  0  0  0
  9 11  1  0  0  0  0
  9 15  1  0  0  0  0
 11 12  1  0  0  0  0
 12 13  1  0  0  0  0
 13 14  1  0  0  0  0
 13 16  1  0  0  0  0
 14 15  1  0  0  0  0
 16 17  1  0  0  0  0
 17 18  4  0  0  0  0
 17 21  4  0  0  0  0
 18 19  4  0  0  0  0
 18 25  4  0  0  0  0
 19 20  4  0  0  0  0
 19 22  4  0  0  0  0
 20 21  4  0  0  0  0
 22 23  4  0  0  0  0
 23 24  4  0  0  0  0
 24 25  4  0  0  0  0
M  END
>  <Name_Molregno>
407859

>  <DOPAMINE D2>
7.27

>  <DOPAMINE D3>
6.86

>  <DOPAMINE D4>
6.82

$$$$
407860
  Marvin  02231216192D 0   1.00000     0.00000     0

 25 28  0  0  0  0  0  0  0  0999 V2000
    0.3810    0.0082    0.0000 Cl  0  0  0  0  0  0  0  0  0
    1.1094   -0.3791    0.0000 C   0  0  0  0  0  0  0  0  0
    1.8091    0.0580    0.0000 C   0  0  0  0  0  0  0  0  0
    2.5375   -0.3293    0.0000 C   0  0  0  0  0  0  0  0  0
    2.5663   -1.1538    0.0000 C   0  0  0  0  0  0  0  0  0
    1.8667   -1.5909    0.0000 C   0  0  0  0  0  0  0  0  0
    1.1382   -1.2036    0.0000 C   0  0  0  0  0  0  0  0  0
    3.2947   -1.5411    0.0000 C   0  0  0  0  0  0  0  0  0
    2.7868   -2.1912    0.0000 O   0  0  0  0  0  0  0  0  0
    3.5497   -0.7565    0.0000 C   0  0  0  0  0  0  0  0  0
    4.3567   -0.5849    0.0000 C   0  0  0  0  0  0  0  0  0
    4.9087   -1.1980    0.0000 N   0  0  0  0  0  0  0  0  0
    4.6537   -1.9826    0.0000 C   0  0  0  0  0  0  0  0  0
    3.8468   -2.1542    0.0000 C   0  0  0  0  0  0  0  0  0
    5.7157   -1.0265    0.0000 C   0  0  0  0  0  0  0  0  0
    5.9706   -0.2419    0.0000 C   0  0  0  0  0  0  0  0  0
    6.7552    0.0131    0.0000 C   0  0  0  0  0  0  0  0  0
    6.7552    0.8381    0.0000 C   0  0  0  0  0  0  0  0  0
    5.9706    1.0930    0.0000 N   0  0  0  0  0  0  0  0  0
    5.4857    0.4256    0.0000 C   0  0  0  0  0  0  0  0  0
    5.7157    1.8776    0.0000 C   0  0  0  0  0  0  0  0  0
    7.4697    1.2506    0.0000 C   0  0  0  0  0  0  0  0  0
    8.1842    0.8381    0.0000 C   0  0  0  0  0  0  0  0  0
    8.1842    0.0131    0.0000 C   0  0  0  0  0  0  0  0  0
    7.4697   -0.3994    0.0000 C   0  0  0  0  0  0  0  0  0
  1  2  1  0  0  0  0
  2  3  4  0  0  0  0
  2  7  4  0  0  0  0
  3  4  4  0  0  0  0
  4  5  4  0  0  0  0
  5  6  4  0  0  0  0
  5  8  1  0  0  0  0
  6  7  4  0  0  0  0
  8  9  1  0  0  0  0
  8 10  1  0  0  0  0
  8 14  1  0  0  0  0
 10 11  1  0  0  0  0
 11 12  1  0  0  0  0
 12 13  1  0  0  0  0
 12 15  1  0  0  0  0
 13 14  1  0  0  0  0
 15 16  1  0  0  0  0
 16 17  4  0  0  0  0
 16 20  4  0  0  0  0
 17 18  4  0  0  0  0
 17 25  4  0  0  0  0
 18 19  4  0  0  0  0
 18 22  4  0  0  0  0
 19 20  4  0  0  0  0
 19 21  1  0  0  0  0
 22 23  4  0  0  0  0
 23 24  4  0  0  0  0
 24 25  4  0  0  0  0
M  END
>  <Name_Molregno>
407860

>  <DOPAMINE D2>
7.53

>  <DOPAMINE D3>
6.62

>  <DOPAMINE D4>
5.29

$$$$
407861
  Marvin  02231216192D 0   1.00000     0.00000     0

 30 33  0  0  0  0  0  0  0  0999 V2000
    1.0428    3.1891    0.0000 Cl  0  0  0  0  0  0  0  0  0
    1.6159    2.5956    0.0000 C   0  0  0  0  0  0  0  0  0
    2.4163    2.7952    0.0000 C   0  0  0  0  0  0  0  0  0
    2.9894    2.2018    0.0000 C   0  0  0  0  0  0  0  0  0
    2.7620    1.4087    0.0000 C   0  0  0  0  0  0  0  0  0
    1.9615    1.2091    0.0000 C   0  0  0  0  0  0  0  0  0
    1.3885    1.8026    0.0000 C   0  0  0  0  0  0  0  0  0
    3.3351    0.8153    0.0000 C   0  0  0  0  0  0  0  0  0
    2.6512    0.3539    0.0000 O   0  0  0  0  0  0  0  0  0
    3.8201    1.4827    0.0000 C   0  0  0  0  0  0  0  0  0
    4.6405    1.3965    0.0000 C   0  0  0  0  0  0  0  0  0
    4.9761    0.6428    0.0000 N   0  0  0  0  0  0  0  0  0
    4.4912   -0.0247    0.0000 C   0  0  0  0  0  0  0  0  0
    3.6707    0.0616    0.0000 C   0  0  0  0  0  0  0  0  0
    5.7966    0.5565    0.0000 C   0  0  0  0  0  0  0  0  0
    6.1321   -0.1971    0.0000 C   0  0  0  0  0  0  0  0  0
    5.7196   -0.9116    0.0000 C   0  0  0  0  0  0  0  0  0
    6.2717   -1.5247    0.0000 C   0  0  0  0  0  0  0  0  0
    7.0253   -1.1891    0.0000 N   0  0  0  0  0  0  0  0  0
    6.9391   -0.3687    0.0000 C   0  0  0  0  0  0  0  0  0
    7.7398   -1.6016    0.0000 C   0  0  0  0  0  0  0  0  0
    8.4543   -1.1891    0.0000 C   0  0  0  0  0  0  0  0  0
    9.1688   -1.6016    0.0000 C   0  0  0  0  0  0  0  0  0
    9.8832   -1.1891    0.0000 C   0  0  0  0  0  0  0  0  0
   10.5977   -1.6016    0.0000 C   0  0  0  0  0  0  0  0  0
   11.3122   -1.1891    0.0000 C   0  0  0  0  0  0  0  0  0
    6.0167   -2.3093    0.0000 C   0  0  0  0  0  0  0  0  0
    5.2098   -2.4808    0.0000 C   0  0  0  0  0  0  0  0  0
    4.6577   -1.8677    0.0000 C   0  0  0  0  0  0  0  0  0
    4.9127   -1.0831    0.0000 C   0  0  0  0  0  0  0  0  0
  1  2  1  0  0  0  0
  2  3  4  0  0  0  0
  2  7  4  0  0  0  0
  3  4  4  0  0  0  0
  4  5  4  0  0  0  0
  5  6  4  0  0  0  0
  5  8  1  0  0  0  0
  6  7  4  0  0  0  0
  8  9  1  0  0  0  0
  8 10  1  0  0  0  0
  8 14  1  0  0  0  0
 10 11  1  0  0  0  0
 11 12  1  0  0  0  0
 12 13  1  0  0  0  0
 12 15  1  0  0  0  0
 13 14  1  0  0  0  0
 15 16  1  0  0  0  0
 16 17  4  0  0  0  0
 16 20  4  0  0  0  0
 17 18  4  0  0  0  0
 17 30  4  0  0  0  0
 18 19  4  0  0  0  0
 18 27  4  0  0  0  0
 19 20  4  0  0  0  0
 19 21  1  0  0  0  0
 21 22  1  0  0  0  0
 22 23  1  0  0  0  0
 23 24  1  0  0  0  0
 24 25  1  0  0  0  0
 25 26  1  0  0  0  0
 27 28  4  0  0  0  0
 28 29  4  0  0  0  0
 29 30  4  0  0  0  0
M  END
>  <Name_Molregno>
407861

>  <DOPAMINE D2>
6.73

>  <DOPAMINE D3>
6.31

>  <DOPAMINE D4>
5.05

$$$$
407863
  Marvin  02231216192D 0   1.00000     0.00000     0

 25 28  0  0  0  0  0  0  0  0999 V2000
   -8.0736    0.9213    0.0000 S   0  0  0  0  0  0  0  0  0
   -8.7732    0.4841    0.0000 C   0  0  0  0  0  0  0  0  0
   -7.3452    0.5340    0.0000 C   0  0  0  0  0  0  0  0  0
   -6.6455    0.9712    0.0000 C   0  0  0  0  0  0  0  0  0
   -5.9171    0.5838    0.0000 C   0  0  0  0  0  0  0  0  0
   -5.8883   -0.2407    0.0000 C   0  0  0  0  0  0  0  0  0
   -6.5879   -0.6778    0.0000 C   0  0  0  0  0  0  0  0  0
   -7.3164   -0.2905    0.0000 C   0  0  0  0  0  0  0  0  0
   -5.1599   -0.6280    0.0000 C   0  0  0  0  0  0  0  0  0
   -5.6678   -1.2781    0.0000 O   0  0  0  0  0  0  0  0  0
   -4.9049    0.1566    0.0000 C   0  0  0  0  0  0  0  0  0
   -4.0980    0.3282    0.0000 C   0  0  0  0  0  0  0  0  0
   -3.5459   -0.2849    0.0000 N   0  0  0  0  0  0  0  0  0
   -3.8009   -1.0695    0.0000 C   0  0  0  0  0  0  0  0  0
   -4.6078   -1.2411    0.0000 C   0  0  0  0  0  0  0  0  0
   -2.7390   -0.1134    0.0000 C   0  0  0  0  0  0  0  0  0
   -2.4840    0.6712    0.0000 C   0  0  0  0  0  0  0  0  0
   -1.6994    0.9262    0.0000 C   0  0  0  0  0  0  0  0  0
   -1.6994    1.7512    0.0000 C   0  0  0  0  0  0  0  0  0
   -2.4840    2.0061    0.0000 N   0  0  0  0  0  0  0  0  0
   -2.9689    1.3387    0.0000 C   0  0  0  0  0  0  0  0  0
   -0.9849    2.1637    0.0000 C   0  0  0  0  0  0  0  0  0
   -0.2705    1.7512    0.0000 C   0  0  0  0  0  0  0  0  0
   -0.2705    0.9262    0.0000 C   0  0  0  0  0  0  0  0  0
   -0.9849    0.5137    0.0000 C   0  0  0  0  0  0  0  0  0
  1  2  1  0  0  0  0
  1  3  1  0  0  0  0
  3  4  4  0  0  0  0
  3  8  4  0  0  0  0
  4  5  4  0  0  0  0
  5  6  4  0  0  0  0
  6  7  4  0  0  0  0
  6  9  1  0  0  0  0
  7  8  4  0  0  0  0
  9 10  1  0  0  0  0
  9 11  1  0  0  0  0
  9 15  1  0  0  0  0
 11 12  1  0  0  0  0
 12 13  1  0  0  0  0
 13 14  1  0  0  0  0
 13 16  1  0  0  0  0
 14 15  1  0  0  0  0
 16 17  1  0  0  0  0
 17 18  4  0  0  0  0
 17 21  4  0  0  0  0
 18 19  4  0  0  0  0
 18 25  4  0  0  0  0
 19 20  4  0  0  0  0
 19 22  4  0  0  0  0
 20 21  4  0  0  0  0
 22 23  4  0  0  0  0
 23 24  4  0  0  0  0
 24 25  4  0  0  0  0
M  STY  1   1 DAT
M  SAL   1  1  20
M  SDT   1 MRV_IMPLICIT_H                                        
M  SDD   1     0.0000    0.0000    DR    ALL  0       0  
M  SED   1 IMPL_H1
M  END
>  <Name_Molregno>
407863

>  <DOPAMINE D2>
7.62

>  <DOPAMINE D3>
6.2

>  <DOPAMINE D4>
6.5

$$$$
407864
  Marvin  02231216192D 0   1.00000     0.00000     0

 27 30  0  0  0  0  0  0  0  0999 V2000
   -7.9981    3.5016    0.0000 S   0  0  0  0  0  0  0  0  0
   -8.8150    3.3868    0.0000 C   0  0  0  0  0  0  0  0  0
   -7.4902    2.8515    0.0000 C   0  0  0  0  0  0  0  0  0
   -6.6732    2.9663    0.0000 C   0  0  0  0  0  0  0  0  0
   -6.1653    2.3162    0.0000 C   0  0  0  0  0  0  0  0  0
   -6.4743    1.5513    0.0000 C   0  0  0  0  0  0  0  0  0
   -7.2913    1.4364    0.0000 C   0  0  0  0  0  0  0  0  0
   -7.7992    2.0865    0.0000 C   0  0  0  0  0  0  0  0  0
   -5.9664    0.9011    0.0000 C   0  0  0  0  0  0  0  0  0
   -6.6948    0.5138    0.0000 O   0  0  0  0  0  0  0  0  0
   -5.4144    1.5142    0.0000 C   0  0  0  0  0  0  0  0  0
   -4.6074    1.3427    0.0000 C   0  0  0  0  0  0  0  0  0
   -4.3524    0.5581    0.0000 N   0  0  0  0  0  0  0  0  0
   -4.9045   -0.0550    0.0000 C   0  0  0  0  0  0  0  0  0
   -5.7115    0.1165    0.0000 C   0  0  0  0  0  0  0  0  0
   -3.5455    0.3866    0.0000 C   0  0  0  0  0  0  0  0  0
   -3.2905   -0.3981    0.0000 C   0  0  0  0  0  0  0  0  0
   -2.5059   -0.6530    0.0000 C   0  0  0  0  0  0  0  0  0
   -1.7914   -0.2405    0.0000 C   0  0  0  0  0  0  0  0  0
   -1.0770   -0.6530    0.0000 C   0  0  0  0  0  0  0  0  0
   -0.3625   -0.2405    0.0000 O   0  0  0  0  0  0  0  0  0
   -0.3625    0.5845    0.0000 C   0  0  0  0  0  0  0  0  0
   -1.0770   -1.4780    0.0000 C   0  0  0  0  0  0  0  0  0
   -1.7914   -1.8905    0.0000 C   0  0  0  0  0  0  0  0  0
   -2.5059   -1.4780    0.0000 C   0  0  0  0  0  0  0  0  0
   -3.2905   -1.7329    0.0000 N   0  0  0  0  0  0  0  0  0
   -3.7755   -1.0655    0.0000 C   0  0  0  0  0  0  0  0  0
  1  2  1  0  0  0  0
  1  3  1  0  0  0  0
  3  4  4  0  0  0  0
  3  8  4  0  0  0  0
  4  5  4  0  0  0  0
  5  6  4  0  0  0  0
  6  7  4  0  0  0  0
  6  9  1  0  0  0  0
  7  8  4  0  0  0  0
  9 10  1  0  0  0  0
  9 11  1  0  0  0  0
  9 15  1  0  0  0  0
 11 12  1  0  0  0  0
 12 13  1  0  0  0  0
 13 14  1  0  0  0  0
 13 16  1  0  0  0  0
 14 15  1  0  0  0  0
 16 17  1  0  0  0  0
 17 18  4  0  0  0  0
 17 27  4  0  0  0  0
 18 19  4  0  0  0  0
 18 25  4  0  0  0  0
 19 20  4  0  0  0  0
 20 21  1  0  0  0  0
 20 23  4  0  0  0  0
 21 22  1  0  0  0  0
 23 24  4  0  0  0  0
 24 25  4  0  0  0  0
 25 26  4  0  0  0  0
 26 27  4  0  0  0  0
M  STY  1   1 DAT
M  SAL   1  1  26
M  SDT   1 MRV_IMPLICIT_H                                        
M  SDD   1     0.0000    0.0000    DR    ALL  0       0  
M  SED   1 IMPL_H1
M  END
>  <Name_Molregno>
407864

>  <DOPAMINE D2>
8.26

>  <DOPAMINE D3>
6.24

>  <DOPAMINE D4>
6.25

$$$$
409193
  Marvin  02231216192D 0   1.00000     0.00000     0

 34 38  0  0  0  0  0  0  0  0999 V2000
   -4.5528   -1.8767    0.0000 F   0  0  0  0  0  0  0  0  0
   -5.2673   -2.2892    0.0000 C   0  0  0  0  0  0  0  0  0
   -5.2673   -3.1142    0.0000 C   0  0  0  0  0  0  0  0  0
   -4.5528   -3.5267    0.0000 N   0  0  0  0  0  0  0  0  0
   -4.5528   -4.3517    0.0000 C   0  0  0  0  0  0  0  0  0
   -3.8384   -4.7642    0.0000 O   0  0  0  0  0  0  0  0  0
   -5.2673   -4.7642    0.0000 C   0  0  0  0  0  0  0  0  0
   -5.9818   -4.3517    0.0000 O   0  0  0  0  0  0  0  0  0
   -5.9818   -3.5267    0.0000 C   0  0  0  0  0  0  0  0  0
   -6.6962   -3.1142    0.0000 C   0  0  0  0  0  0  0  0  0
   -6.6962   -2.2892    0.0000 C   0  0  0  0  0  0  0  0  0
   -5.9818   -1.8767    0.0000 C   0  0  0  0  0  0  0  0  0
   -5.9818   -1.0517    0.0000 C   0  0  0  0  0  0  0  0  0
   -5.2673   -0.6392    0.0000 C   0  0  0  0  0  0  0  0  0
   -5.2673    0.1858    0.0000 C   0  0  0  0  0  0  0  0  0
   -4.5528    0.5983    0.0000 C   0  0  0  0  0  0  0  0  0
   -3.8384    0.1858    0.0000 N   0  0  0  0  0  0  0  0  0
   -3.8384   -0.6392    0.0000 C   0  0  0  0  0  0  0  0  0
   -4.5528   -1.0517    0.0000 C   0  0  0  0  0  0  0  0  0
   -3.1239    0.5983    0.0000 C   0  0  0  0  0  0  0  0  0
   -3.1239    1.4233    0.0000 C   0  0  0  0  0  0  0  0  0
   -2.4094    1.8358    0.0000 O   0  0  0  0  0  0  0  0  0
   -2.4094    2.6608    0.0000 C   0  0  0  0  0  0  0  0  0
   -3.1239    3.0733    0.0000 C   0  0  0  0  0  0  0  0  0
   -3.1239    3.8983    0.0000 C   0  0  0  0  0  0  0  0  0
   -3.8384    4.3108    0.0000 F   0  0  0  0  0  0  0  0  0
   -2.4094    4.3108    0.0000 C   0  0  0  0  0  0  0  0  0
   -1.6949    3.8983    0.0000 C   0  0  0  0  0  0  0  0  0
   -0.9805    4.3108    0.0000 N   0  0  0  0  0  0  0  0  0
   -0.2660    3.8983    0.0000 C   0  0  0  0  0  0  0  0  0
   -0.2660    3.0733    0.0000 C   0  0  0  0  0  0  0  0  0
   -0.9805    2.6608    0.0000 C   0  0  0  0  0  0  0  0  0
   -1.6949    3.0733    0.0000 C   0  0  0  0  0  0  0  0  0
    0.4485    4.3108    0.0000 C   0  0  0  0  0  0  0  0  0
  1  2  1  0  0  0  0
  2  3  4  0  0  0  0
  2 12  4  0  0  0  0
  3  4  1  0  0  0  0
  3  9  4  0  0  0  0
  4  5  1  0  0  0  0
  5  6  2  0  0  0  0
  5  7  1  0  0  0  0
  7  8  1  0  0  0  0
  8  9  1  0  0  0  0
  9 10  4  0  0  0  0
 10 11  4  0  0  0  0
 11 12  4  0  0  0  0
 12 13  1  0  0  0  0
 13 14  1  0  0  0  0
 14 15  1  0  0  0  0
 14 19  1  0  0  0  0
 15 16  1  0  0  0  0
 16 17  1  0  0  0  0
 17 18  1  0  0  0  0
 17 20  1  0  0  0  0
 18 19  1  0  0  0  0
 20 21  1  0  0  0  0
 21 22  1  0  0  0  0
 22 23  1  0  0  0  0
 23 24  4  0  0  0  0
 23 33  4  0  0  0  0
 24 25  4  0  0  0  0
 25 26  1  0  0  0  0
 25 27  4  0  0  0  0
 27 28  4  0  0  0  0
 28 29  4  0  0  0  0
 28 33  4  0  0  0  0
 29 30  4  0  0  0  0
 30 31  4  0  0  0  0
 30 34  1  0  0  0  0
 31 32  4  0  0  0  0
 32 33  4  0  0  0  0
M  END
>  <Name_Molregno>
409193

>  <5-HT1A>
8.8

>  <5-HT1B>
6.4

>  <5-HT1D>
7

>  <5-HT2A>
5.7

>  <5-HT2C>
5.6

>  <5-HT6>
5

>  <5-HT7>
6.9

>  <DOPAMINE D2>
5.9

>  <DOPAMINE D3>
6.1

$$$$
409194
  Marvin  02231216192D 0   1.00000     0.00000     0

 34 38  0  0  0  0  0  0  0  0999 V2000
   -2.9576    0.9914    0.0000 Cl  0  0  0  0  0  0  0  0  0
   -2.2431    0.5789    0.0000 C   0  0  0  0  0  0  0  0  0
   -2.2431   -0.2461    0.0000 C   0  0  0  0  0  0  0  0  0
   -1.5287   -0.6586    0.0000 C   0  0  0  0  0  0  0  0  0
   -1.5287   -1.4836    0.0000 O   0  0  0  0  0  0  0  0  0
   -2.2431   -1.8961    0.0000 C   0  0  0  0  0  0  0  0  0
   -2.2431   -2.7211    0.0000 C   0  0  0  0  0  0  0  0  0
   -2.9576   -3.1336    0.0000 N   0  0  0  0  0  0  0  0  0
   -2.9576   -3.9586    0.0000 C   0  0  0  0  0  0  0  0  0
   -3.6721   -4.3711    0.0000 C   0  0  0  0  0  0  0  0  0
   -4.3866   -3.9586    0.0000 C   0  0  0  0  0  0  0  0  0
   -4.3866   -3.1336    0.0000 C   0  0  0  0  0  0  0  0  0
   -3.6721   -2.7211    0.0000 C   0  0  0  0  0  0  0  0  0
   -5.1010   -4.3711    0.0000 C   0  0  0  0  0  0  0  0  0
   -5.8155   -3.9586    0.0000 C   0  0  0  0  0  0  0  0  0
   -6.5300   -4.3711    0.0000 C   0  0  0  0  0  0  0  0  0
   -7.2444   -3.9586    0.0000 C   0  0  0  0  0  0  0  0  0
   -7.2444   -3.1336    0.0000 C   0  0  0  0  0  0  0  0  0
   -7.9589   -2.7211    0.0000 O   0  0  0  0  0  0  0  0  0
   -7.9589   -1.8961    0.0000 C   0  0  0  0  0  0  0  0  0
   -7.2444   -1.4836    0.0000 C   0  0  0  0  0  0  0  0  0
   -7.2444   -0.6586    0.0000 O   0  0  0  0  0  0  0  0  0
   -6.5300   -1.8961    0.0000 N   0  0  0  0  0  0  0  0  0
   -6.5300   -2.7211    0.0000 C   0  0  0  0  0  0  0  0  0
   -5.8155   -3.1336    0.0000 C   0  0  0  0  0  0  0  0  0
   -5.1010   -2.7211    0.0000 F   0  0  0  0  0  0  0  0  0
   -0.8142   -0.2461    0.0000 C   0  0  0  0  0  0  0  0  0
   -0.8142    0.5789    0.0000 C   0  0  0  0  0  0  0  0  0
   -0.0997    0.9914    0.0000 N   0  0  0  0  0  0  0  0  0
    0.6147    0.5789    0.0000 C   0  0  0  0  0  0  0  0  0
    0.6147   -0.2461    0.0000 C   0  0  0  0  0  0  0  0  0
   -0.0997   -0.6586    0.0000 C   0  0  0  0  0  0  0  0  0
    1.3292    0.9914    0.0000 C   0  0  0  0  0  0  0  0  0
   -1.5287    0.9914    0.0000 C   0  0  0  0  0  0  0  0  0
  1  2  1  0  0  0  0
  2  3  4  0  0  0  0
  2 34  4  0  0  0  0
  3  4  4  0  0  0  0
  4  5  1  0  0  0  0
  4 27  4  0  0  0  0
  5  6  1  0  0  0  0
  6  7  1  0  0  0  0
  7  8  1  0  0  0  0
  8  9  1  0  0  0  0
  8 13  1  0  0  0  0
  9 10  1  0  0  0  0
 10 11  1  0  0  0  0
 11 12  1  0  0  0  0
 11 14  1  0  0  0  0
 12 13  1  0  0  0  0
 14 15  1  0  0  0  0
 15 16  4  0  0  0  0
 15 25  4  0  0  0  0
 16 17  4  0  0  0  0
 17 18  4  0  0  0  0
 18 19  1  0  0  0  0
 18 24  4  0  0  0  0
 19 20  1  0  0  0  0
 20 21  1  0  0  0  0
 21 22  2  0  0  0  0
 21 23  1  0  0  0  0
 23 24  1  0  0  0  0
 24 25  4  0  0  0  0
 25 26  1  0  0  0  0
 27 28  4  0  0  0  0
 27 32  4  0  0  0  0
 28 29  4  0  0  0  0
 28 34  4  0  0  0  0
 29 30  4  0  0  0  0
 30 31  4  0  0  0  0
 30 33  1  0  0  0  0
 31 32  4  0  0  0  0
M  END
>  <Name_Molregno>
409194

>  <5-HT1A>
8.6

>  <5-HT1B>
5.8

>  <5-HT1D>
6.2

>  <5-HT2A>
5.4

>  <5-HT2C>
5.4

>  <5-HT6>
5

>  <5-HT7>
6.9

>  <DOPAMINE D2>
5.9

>  <DOPAMINE D3>
6

$$$$
409196
  Marvin  02231216192D 0   1.00000     0.00000     0

 34 38  0  0  0  0  0  0  0  0999 V2000
   -4.5009   -2.0892    0.0000 F   0  0  0  0  0  0  0  0  0
   -5.2153   -2.5017    0.0000 C   0  0  0  0  0  0  0  0  0
   -5.2153   -3.3267    0.0000 C   0  0  0  0  0  0  0  0  0
   -5.9298   -3.7392    0.0000 C   0  0  0  0  0  0  0  0  0
   -5.9298   -4.5642    0.0000 O   0  0  0  0  0  0  0  0  0
   -6.6443   -4.9767    0.0000 C   0  0  0  0  0  0  0  0  0
   -7.3588   -4.5642    0.0000 C   0  0  0  0  0  0  0  0  0
   -8.0732   -4.9767    0.0000 O   0  0  0  0  0  0  0  0  0
   -7.3588   -3.7392    0.0000 N   0  0  0  0  0  0  0  0  0
   -6.6443   -3.3267    0.0000 C   0  0  0  0  0  0  0  0  0
   -6.6443   -2.5017    0.0000 C   0  0  0  0  0  0  0  0  0
   -5.9298   -2.0892    0.0000 C   0  0  0  0  0  0  0  0  0
   -5.9298   -1.2642    0.0000 C   0  0  0  0  0  0  0  0  0
   -5.2153   -0.8517    0.0000 C   0  0  0  0  0  0  0  0  0
   -5.2153   -0.0267    0.0000 C   0  0  0  0  0  0  0  0  0
   -4.5009    0.3858    0.0000 C   0  0  0  0  0  0  0  0  0
   -3.7864   -0.0267    0.0000 N   0  0  0  0  0  0  0  0  0
   -3.7864   -0.8517    0.0000 C   0  0  0  0  0  0  0  0  0
   -4.5009   -1.2642    0.0000 C   0  0  0  0  0  0  0  0  0
   -3.0719    0.3858    0.0000 C   0  0  0  0  0  0  0  0  0
   -3.0719    1.2108    0.0000 C   0  0  0  0  0  0  0  0  0
   -2.3575    1.6233    0.0000 O   0  0  0  0  0  0  0  0  0
   -2.3575    2.4483    0.0000 C   0  0  0  0  0  0  0  0  0
   -3.0719    2.8608    0.0000 C   0  0  0  0  0  0  0  0  0
   -3.0719    3.6858    0.0000 C   0  0  0  0  0  0  0  0  0
   -3.7864    4.0983    0.0000 F   0  0  0  0  0  0  0  0  0
   -2.3575    4.0983    0.0000 C   0  0  0  0  0  0  0  0  0
   -1.6430    3.6858    0.0000 C   0  0  0  0  0  0  0  0  0
   -0.9285    4.0983    0.0000 N   0  0  0  0  0  0  0  0  0
   -0.2141    3.6858    0.0000 C   0  0  0  0  0  0  0  0  0
   -0.2141    2.8608    0.0000 C   0  0  0  0  0  0  0  0  0
   -0.9285    2.4483    0.0000 C   0  0  0  0  0  0  0  0  0
   -1.6430    2.8608    0.0000 C   0  0  0  0  0  0  0  0  0
    0.5004    4.0983    0.0000 C   0  0  0  0  0  0  0  0  0
  1  2  1  0  0  0  0
  2  3  4  0  0  0  0
  2 12  4  0  0  0  0
  3  4  4  0  0  0  0
  4  5  1  0  0  0  0
  4 10  4  0  0  0  0
  5  6  1  0  0  0  0
  6  7  1  0  0  0  0
  7  8  2  0  0  0  0
  7  9  1  0  0  0  0
  9 10  1  0  0  0  0
 10 11  4  0  0  0  0
 11 12  4  0  0  0  0
 12 13  1  0  0  0  0
 13 14  1  0  0  0  0
 14 15  1  0  0  0  0
 14 19  1  0  0  0  0
 15 16  1  0  0  0  0
 16 17  1  0  0  0  0
 17 18  1  0  0  0  0
 17 20  1  0  0  0  0
 18 19  1  0  0  0  0
 20 21  1  0  0  0  0
 21 22  1  0  0  0  0
 22 23  1  0  0  0  0
 23 24  4  0  0  0  0
 23 33  4  0  0  0  0
 24 25  4  0  0  0  0
 25 26  1  0  0  0  0
 25 27  4  0  0  0  0
 27 28  4  0  0  0  0
 28 29  4  0  0  0  0
 28 33  4  0  0  0  0
 29 30  4  0  0  0  0
 30 31  4  0  0  0  0
 30 34  1  0  0  0  0
 31 32  4  0  0  0  0
 32 33  4  0  0  0  0
M  END
>  <Name_Molregno>
409196

>  <5-HT1A>
9.4

>  <5-HT1B>
6

>  <5-HT1D>
6.6

>  <5-HT2A>
5.7

>  <5-HT2C>
5.9

>  <5-HT6>
6

>  <5-HT7>
7.4

>  <DOPAMINE D2>
5.7

>  <DOPAMINE D3>
6.3

$$$$
409197
  Marvin  02231216192D 0   1.00000     0.00000     0

 34 38  0  0  0  0  0  0  0  0999 V2000
   -2.6497    1.0445    0.0000 Cl  0  0  0  0  0  0  0  0  0
   -1.9352    0.6320    0.0000 C   0  0  0  0  0  0  0  0  0
   -1.9352   -0.1930    0.0000 C   0  0  0  0  0  0  0  0  0
   -1.2208   -0.6055    0.0000 C   0  0  0  0  0  0  0  0  0
   -1.2208   -1.4305    0.0000 O   0  0  0  0  0  0  0  0  0
   -1.9352   -1.8430    0.0000 C   0  0  0  0  0  0  0  0  0
   -1.9352   -2.6680    0.0000 C   0  0  0  0  0  0  0  0  0
   -2.6497   -3.0805    0.0000 N   0  0  0  0  0  0  0  0  0
   -2.6497   -3.9055    0.0000 C   0  0  0  0  0  0  0  0  0
   -3.3642   -4.3180    0.0000 C   0  0  0  0  0  0  0  0  0
   -4.0786   -3.9055    0.0000 C   0  0  0  0  0  0  0  0  0
   -4.0786   -3.0805    0.0000 C   0  0  0  0  0  0  0  0  0
   -3.3642   -2.6680    0.0000 C   0  0  0  0  0  0  0  0  0
   -4.7931   -4.3180    0.0000 C   0  0  0  0  0  0  0  0  0
   -5.5076   -3.9055    0.0000 C   0  0  0  0  0  0  0  0  0
   -6.2220   -4.3180    0.0000 C   0  0  0  0  0  0  0  0  0
   -6.9365   -3.9055    0.0000 C   0  0  0  0  0  0  0  0  0
   -7.6510   -4.3180    0.0000 N   0  0  0  0  0  0  0  0  0
   -8.3655   -3.9055    0.0000 C   0  0  0  0  0  0  0  0  0
   -9.0799   -4.3180    0.0000 O   0  0  0  0  0  0  0  0  0
   -8.3655   -3.0805    0.0000 C   0  0  0  0  0  0  0  0  0
   -7.6510   -2.6680    0.0000 O   0  0  0  0  0  0  0  0  0
   -6.9365   -3.0805    0.0000 C   0  0  0  0  0  0  0  0  0
   -6.2220   -2.6680    0.0000 C   0  0  0  0  0  0  0  0  0
   -5.5076   -3.0805    0.0000 C   0  0  0  0  0  0  0  0  0
   -4.7931   -2.6680    0.0000 F   0  0  0  0  0  0  0  0  0
   -0.5063   -0.1930    0.0000 C   0  0  0  0  0  0  0  0  0
   -0.5063    0.6320    0.0000 C   0  0  0  0  0  0  0  0  0
    0.2082    1.0445    0.0000 N   0  0  0  0  0  0  0  0  0
    0.9227    0.6320    0.0000 C   0  0  0  0  0  0  0  0  0
    0.9227   -0.1930    0.0000 C   0  0  0  0  0  0  0  0  0
    0.2082   -0.6055    0.0000 C   0  0  0  0  0  0  0  0  0
    1.6371    1.0445    0.0000 C   0  0  0  0  0  0  0  0  0
   -1.2208    1.0445    0.0000 C   0  0  0  0  0  0  0  0  0
  1  2  1  0  0  0  0
  2  3  4  0  0  0  0
  2 34  4  0  0  0  0
  3  4  4  0  0  0  0
  4  5  1  0  0  0  0
  4 27  4  0  0  0  0
  5  6  1  0  0  0  0
  6  7  1  0  0  0  0
  7  8  1  0  0  0  0
  8  9  1  0  0  0  0
  8 13  1  0  0  0  0
  9 10  1  0  0  0  0
 10 11  1  0  0  0  0
 11 12  1  0  0  0  0
 11 14  1  0  0  0  0
 12 13  1  0  0  0  0
 14 15  1  0  0  0  0
 15 16  4  0  0  0  0
 15 25  4  0  0  0  0
 16 17  4  0  0  0  0
 17 18  1  0  0  0  0
 17 23  4  0  0  0  0
 18 19  1  0  0  0  0
 19 20  2  0  0  0  0
 19 21  1  0  0  0  0
 21 22  1  0  0  0  0
 22 23  1  0  0  0  0
 23 24  4  0  0  0  0
 24 25  4  0  0  0  0
 25 26  1  0  0  0  0
 27 28  4  0  0  0  0
 27 32  4  0  0  0  0
 28 29  4  0  0  0  0
 28 34  4  0  0  0  0
 29 30  4  0  0  0  0
 30 31  4  0  0  0  0
 30 33  1  0  0  0  0
 31 32  4  0  0  0  0
M  END
>  <Name_Molregno>
409197

>  <5-HT1A>
8.6

>  <5-HT1B>
5.7

>  <5-HT1D>
6.1

>  <5-HT2A>
5

>  <5-HT2C>
5.3

>  <5-HT6>
5.1

>  <5-HT7>
7.4

>  <DOPAMINE D2>
5.5

>  <DOPAMINE D3>
5.7

$$$$
409198
  Marvin  02231216192D 0   1.00000     0.00000     0

 34 38  0  0  0  0  0  0  0  0999 V2000
   -6.8888   -4.9862    0.0000 F   0  0  0  0  0  0  0  0  0
   -6.1744   -4.5737    0.0000 C   0  0  0  0  0  0  0  0  0
   -6.1744   -3.7487    0.0000 C   0  0  0  0  0  0  0  0  0
   -5.4599   -3.3362    0.0000 C   0  0  0  0  0  0  0  0  0
   -4.7454   -3.7487    0.0000 C   0  0  0  0  0  0  0  0  0
   -4.7454   -4.5737    0.0000 C   0  0  0  0  0  0  0  0  0
   -4.0309   -4.9862    0.0000 N   0  0  0  0  0  0  0  0  0
   -4.0309   -5.8112    0.0000 C   0  0  0  0  0  0  0  0  0
   -3.3165   -6.2237    0.0000 O   0  0  0  0  0  0  0  0  0
   -4.7454   -6.2237    0.0000 C   0  0  0  0  0  0  0  0  0
   -5.4599   -5.8112    0.0000 O   0  0  0  0  0  0  0  0  0
   -5.4599   -4.9862    0.0000 C   0  0  0  0  0  0  0  0  0
   -5.4599   -2.5112    0.0000 C   0  0  0  0  0  0  0  0  0
   -4.7454   -2.0987    0.0000 C   0  0  0  0  0  0  0  0  0
   -4.7454   -1.2737    0.0000 C   0  0  0  0  0  0  0  0  0
   -4.0309   -0.8612    0.0000 C   0  0  0  0  0  0  0  0  0
   -3.3165   -1.2737    0.0000 N   0  0  0  0  0  0  0  0  0
   -3.3165   -2.0987    0.0000 C   0  0  0  0  0  0  0  0  0
   -4.0309   -2.5112    0.0000 C   0  0  0  0  0  0  0  0  0
   -2.6020   -0.8612    0.0000 C   0  0  0  0  0  0  0  0  0
   -2.6020   -0.0362    0.0000 C   0  0  0  0  0  0  0  0  0
   -1.8875    0.3763    0.0000 O   0  0  0  0  0  0  0  0  0
   -1.8875    1.2013    0.0000 C   0  0  0  0  0  0  0  0  0
   -2.6020    1.6138    0.0000 C   0  0  0  0  0  0  0  0  0
   -2.6020    2.4388    0.0000 C   0  0  0  0  0  0  0  0  0
   -3.3165    2.8513    0.0000 F   0  0  0  0  0  0  0  0  0
   -1.8875    2.8513    0.0000 C   0  0  0  0  0  0  0  0  0
   -1.1731    2.4388    0.0000 C   0  0  0  0  0  0  0  0  0
   -0.4586    2.8513    0.0000 N   0  0  0  0  0  0  0  0  0
    0.2559    2.4388    0.0000 C   0  0  0  0  0  0  0  0  0
    0.2559    1.6138    0.0000 C   0  0  0  0  0  0  0  0  0
   -0.4586    1.2013    0.0000 C   0  0  0  0  0  0  0  0  0
   -1.1731    1.6138    0.0000 C   0  0  0  0  0  0  0  0  0
    0.9703    2.8513    0.0000 C   0  0  0  0  0  0  0  0  0
  1  2  1  0  0  0  0
  2  3  4  0  0  0  0
  2 12  4  0  0  0  0
  3  4  4  0  0  0  0
  4  5  4  0  0  0  0
  4 13  1  0  0  0  0
  5  6  4  0  0  0  0
  6  7  1  0  0  0  0
  6 12  4  0  0  0  0
  7  8  1  0  0  0  0
  8  9  2  0  0  0  0
  8 10  1  0  0  0  0
 10 11  1  0  0  0  0
 11 12  1  0  0  0  0
 13 14  1  0  0  0  0
 14 15  1  0  0  0  0
 14 19  1  0  0  0  0
 15 16  1  0  0  0  0
 16 17  1  0  0  0  0
 17 18  1  0  0  0  0
 17 20  1  0  0  0  0
 18 19  1  0  0  0  0
 20 21  1  0  0  0  0
 21 22  1  0  0  0  0
 22 23  1  0  0  0  0
 23 24  4  0  0  0  0
 23 33  4  0  0  0  0
 24 25  4  0  0  0  0
 25 26  1  0  0  0  0
 25 27  4  0  0  0  0
 27 28  4  0  0  0  0
 28 29  4  0  0  0  0
 28 33  4  0  0  0  0
 29 30  4  0  0  0  0
 30 31  4  0  0  0  0
 30 34  1  0  0  0  0
 31 32  4  0  0  0  0
 32 33  4  0  0  0  0
M  END
>  <Name_Molregno>
409198

>  <5-HT1A>
8.4

>  <5-HT1B>
6.5

>  <5-HT1D>
7.1

>  <5-HT2A>
5

>  <5-HT2C>
5

>  <5-HT6>
5.2

>  <5-HT7>
7.1

>  <DOPAMINE D2>
5

>  <DOPAMINE D3>
5.4

$$$$
409200
  Marvin  02231216192D 0   1.00000     0.00000     0

 34 38  0  0  0  0  0  0  0  0999 V2000
   -2.8865    0.9720    0.0000 Cl  0  0  0  0  0  0  0  0  0
   -2.1721    0.5595    0.0000 C   0  0  0  0  0  0  0  0  0
   -2.1721   -0.2655    0.0000 C   0  0  0  0  0  0  0  0  0
   -1.4576   -0.6780    0.0000 C   0  0  0  0  0  0  0  0  0
   -1.4576   -1.5030    0.0000 O   0  0  0  0  0  0  0  0  0
   -2.1721   -1.9155    0.0000 C   0  0  0  0  0  0  0  0  0
   -2.1721   -2.7405    0.0000 C   0  0  0  0  0  0  0  0  0
   -2.8865   -3.1530    0.0000 N   0  0  0  0  0  0  0  0  0
   -2.8865   -3.9780    0.0000 C   0  0  0  0  0  0  0  0  0
   -3.6010   -4.3905    0.0000 C   0  0  0  0  0  0  0  0  0
   -4.3155   -3.9780    0.0000 C   0  0  0  0  0  0  0  0  0
   -4.3155   -3.1530    0.0000 C   0  0  0  0  0  0  0  0  0
   -3.6010   -2.7405    0.0000 C   0  0  0  0  0  0  0  0  0
   -5.0299   -4.3905    0.0000 C   0  0  0  0  0  0  0  0  0
   -5.7444   -3.9780    0.0000 C   0  0  0  0  0  0  0  0  0
   -6.4589   -4.3905    0.0000 C   0  0  0  0  0  0  0  0  0
   -7.1733   -3.9780    0.0000 C   0  0  0  0  0  0  0  0  0
   -7.8878   -4.3905    0.0000 F   0  0  0  0  0  0  0  0  0
   -7.1733   -3.1530    0.0000 C   0  0  0  0  0  0  0  0  0
   -7.8878   -2.7405    0.0000 O   0  0  0  0  0  0  0  0  0
   -7.8878   -1.9155    0.0000 C   0  0  0  0  0  0  0  0  0
   -7.1733   -1.5030    0.0000 C   0  0  0  0  0  0  0  0  0
   -7.1733   -0.6780    0.0000 O   0  0  0  0  0  0  0  0  0
   -6.4589   -1.9155    0.0000 N   0  0  0  0  0  0  0  0  0
   -6.4589   -2.7405    0.0000 C   0  0  0  0  0  0  0  0  0
   -5.7444   -3.1530    0.0000 C   0  0  0  0  0  0  0  0  0
   -0.7431   -0.2655    0.0000 C   0  0  0  0  0  0  0  0  0
   -0.7431    0.5595    0.0000 C   0  0  0  0  0  0  0  0  0
   -0.0286    0.9720    0.0000 N   0  0  0  0  0  0  0  0  0
    0.6858    0.5595    0.0000 C   0  0  0  0  0  0  0  0  0
    0.6858   -0.2655    0.0000 C   0  0  0  0  0  0  0  0  0
   -0.0286   -0.6780    0.0000 C   0  0  0  0  0  0  0  0  0
    1.4003    0.9720    0.0000 C   0  0  0  0  0  0  0  0  0
   -1.4576    0.9720    0.0000 C   0  0  0  0  0  0  0  0  0
  1  2  1  0  0  0  0
  2  3  4  0  0  0  0
  2 34  4  0  0  0  0
  3  4  4  0  0  0  0
  4  5  1  0  0  0  0
  4 27  4  0  0  0  0
  5  6  1  0  0  0  0
  6  7  1  0  0  0  0
  7  8  1  0  0  0  0
  8  9  1  0  0  0  0
  8 13  1  0  0  0  0
  9 10  1  0  0  0  0
 10 11  1  0  0  0  0
 11 12  1  0  0  0  0
 11 14  1  0  0  0  0
 12 13  1  0  0  0  0
 14 15  1  0  0  0  0
 15 16  4  0  0  0  0
 15 26  4  0  0  0  0
 16 17  4  0  0  0  0
 17 18  1  0  0  0  0
 17 19  4  0  0  0  0
 19 20  1  0  0  0  0
 19 25  4  0  0  0  0
 20 21  1  0  0  0  0
 21 22  1  0  0  0  0
 22 23  2  0  0  0  0
 22 24  1  0  0  0  0
 24 25  1  0  0  0  0
 25 26  4  0  0  0  0
 27 28  4  0  0  0  0
 27 32  4  0  0  0  0
 28 29  4  0  0  0  0
 28 34  4  0  0  0  0
 29 30  4  0  0  0  0
 30 31  4  0  0  0  0
 30 33  1  0  0  0  0
 31 32  4  0  0  0  0
M  END
>  <Name_Molregno>
409200

>  <5-HT1A>
8

>  <5-HT1B>
6.2

>  <5-HT1D>
6.2

>  <5-HT2A>
5.5

>  <5-HT2C>
5.6

>  <5-HT6>
5

>  <5-HT7>
7.1

>  <DOPAMINE D2>
5.6

>  <DOPAMINE D3>
5.9

$$$$
410419
  Marvin  02231216192D 0   1.00000     0.00000     0

 24 27  0  0  0  0  0  0  0  0999 V2000
   -6.1601   -2.0841    0.0000 O   0  0  0  0  0  0  0  0  0
   -6.7089   -2.7002    0.0000 C   0  0  0  0  0  0  0  0  0
   -5.3522   -2.2513    0.0000 C   0  0  0  0  0  0  0  0  0
   -4.8035   -1.6353    0.0000 C   0  0  0  0  0  0  0  0  0
   -3.9956   -1.8025    0.0000 C   0  0  0  0  0  0  0  0  0
   -3.3308   -1.3141    0.0000 C   0  0  0  0  0  0  0  0  0
   -3.2489   -0.4931    0.0000 C   0  0  0  0  0  0  0  0  0
   -2.4970   -0.1536    0.0000 C   0  0  0  0  0  0  0  0  0
   -1.8270   -0.6349    0.0000 N   0  0  0  0  0  0  0  0  0
   -1.0751   -0.2954    0.0000 C   0  0  0  0  0  0  0  0  0
   -0.4051   -0.7767    0.0000 C   0  0  0  0  0  0  0  0  0
   -0.4870   -1.5976    0.0000 C   0  0  0  0  0  0  0  0  0
   -1.2389   -1.9372    0.0000 C   0  0  0  0  0  0  0  0  0
   -1.9089   -1.4559    0.0000 C   0  0  0  0  0  0  0  0  0
   -2.6607   -1.7954    0.0000 C   0  0  0  0  0  0  0  0  0
   -2.9115   -2.5814    0.0000 N   0  0  0  0  0  0  0  0  0
   -3.7365   -2.5858    0.0000 C   0  0  0  0  0  0  0  0  0
   -4.2852   -3.2018    0.0000 C   0  0  0  0  0  0  0  0  0
   -5.0931   -3.0346    0.0000 C   0  0  0  0  0  0  0  0  0
   -1.3207   -2.7581    0.0000 C   0  0  0  0  0  0  0  0  0
   -0.6507   -3.2395    0.0000 C   0  0  0  0  0  0  0  0  0
    0.1012   -2.8999    0.0000 C   0  0  0  0  0  0  0  0  0
    0.1830   -2.0790    0.0000 C   0  0  0  0  0  0  0  0  0
   -2.3758   -1.2510    0.0000 C   0  0  0  0  0  0  0  0  0
  1  2  1  0  0  0  0
  1  3  1  0  0  0  0
  3  4  4  0  0  0  0
  3 19  4  0  0  0  0
  4  5  4  0  0  0  0
  5  6  4  0  0  0  0
  5 17  4  0  0  0  0
  6  7  1  0  0  0  0
  6 15  4  0  0  0  0
  7  8  1  0  0  0  0
  8  9  1  0  0  0  0
  9 10  1  0  0  0  0
  9 24  1  0  0  0  0
 10 11  1  0  0  0  0
 11 12  1  0  0  0  0
 12 13  4  0  0  0  0
 12 23  4  0  0  0  0
 13 14  1  0  0  0  0
 13 20  4  0  0  0  0
 14 15  1  0  0  0  0
 15 16  4  0  0  0  0
 16 17  4  0  0  0  0
 17 18  4  0  0  0  0
 18 19  4  0  0  0  0
 20 21  4  0  0  0  0
 21 22  4  0  0  0  0
 22 23  4  0  0  0  0
M  STY  1   1 DAT
M  SAL   1  1  16
M  SDT   1 MRV_IMPLICIT_H                                        
M  SDD   1     0.0000    0.0000    DR    ALL  0       0  
M  SED   1 IMPL_H1
M  END
>  <Name_Molregno>
410419

>  <DOPAMINE D1>
9.09

>  <DOPAMINE D2>
7.92

>  <DOPAMINE D3>
6.32

>  <DOPAMINE D5>
8.44

$$$$
410420
  Marvin  02231216192D 0   1.00000     0.00000     0

 23 26  0  0  0  0  0  0  0  0999 V2000
   -0.7134   -2.2270    0.0000 O   0  0  0  0  0  0  0  0  0
    0.0945   -2.3942    0.0000 C   0  0  0  0  0  0  0  0  0
    0.6432   -1.7782    0.0000 C   0  0  0  0  0  0  0  0  0
    1.4511   -1.9454    0.0000 C   0  0  0  0  0  0  0  0  0
    2.1159   -1.4569    0.0000 C   0  0  0  0  0  0  0  0  0
    2.1978   -0.6360    0.0000 C   0  0  0  0  0  0  0  0  0
    2.9497   -0.2964    0.0000 C   0  0  0  0  0  0  0  0  0
    3.6197   -0.7778    0.0000 N   0  0  0  0  0  0  0  0  0
    4.3716   -0.4382    0.0000 C   0  0  0  0  0  0  0  0  0
    5.0416   -0.9195    0.0000 C   0  0  0  0  0  0  0  0  0
    4.9597   -1.7405    0.0000 C   0  0  0  0  0  0  0  0  0
    4.2078   -2.0800    0.0000 C   0  0  0  0  0  0  0  0  0
    3.5378   -1.5987    0.0000 C   0  0  0  0  0  0  0  0  0
    2.7860   -1.9383    0.0000 C   0  0  0  0  0  0  0  0  0
    2.5352   -2.7242    0.0000 N   0  0  0  0  0  0  0  0  0
    1.7102   -2.7286    0.0000 C   0  0  0  0  0  0  0  0  0
    1.1615   -3.3447    0.0000 C   0  0  0  0  0  0  0  0  0
    0.3536   -3.1774    0.0000 C   0  0  0  0  0  0  0  0  0
    4.1260   -2.9010    0.0000 C   0  0  0  0  0  0  0  0  0
    4.7960   -3.3823    0.0000 C   0  0  0  0  0  0  0  0  0
    5.5479   -3.0428    0.0000 C   0  0  0  0  0  0  0  0  0
    5.6297   -2.2218    0.0000 C   0  0  0  0  0  0  0  0  0
    3.0709   -1.3938    0.0000 C   0  0  0  0  0  0  0  0  0
  1  2  1  0  0  0  0
  2  3  4  0  0  0  0
  2 18  4  0  0  0  0
  3  4  4  0  0  0  0
  4  5  4  0  0  0  0
  4 16  4  0  0  0  0
  5  6  1  0  0  0  0
  5 14  4  0  0  0  0
  6  7  1  0  0  0  0
  7  8  1  0  0  0  0
  8  9  1  0  0  0  0
  8 23  1  0  0  0  0
  9 10  1  0  0  0  0
 10 11  1  0  0  0  0
 11 12  4  0  0  0  0
 11 22  4  0  0  0  0
 12 13  1  0  0  0  0
 12 19  4  0  0  0  0
 13 14  1  0  0  0  0
 14 15  4  0  0  0  0
 15 16  4  0  0  0  0
 16 17  4  0  0  0  0
 17 18  4  0  0  0  0
 19 20  4  0  0  0  0
 20 21  4  0  0  0  0
 21 22  4  0  0  0  0
M  STY  1   1 DAT
M  SAL   1  1  15
M  SDT   1 MRV_IMPLICIT_H                                        
M  SDD   1     0.0000    0.0000    DR    ALL  0       0  
M  SED   1 IMPL_H1
M  END
>  <Name_Molregno>
410420

>  <DOPAMINE D1>
9.25

>  <DOPAMINE D2>
7.39

>  <DOPAMINE D3>
6.03

>  <DOPAMINE D5>
9.41

$$$$
410422
  Marvin  02231216192D 0   1.00000     0.00000     0

 24 27  0  0  0  0  0  0  0  0999 V2000
    0.4837   -1.0723    0.0000 O   0  0  0  0  0  0  0  0  0
    0.5656   -1.8932    0.0000 C   0  0  0  0  0  0  0  0  0
    1.1537   -0.5909    0.0000 C   0  0  0  0  0  0  0  0  0
    1.0719    0.2300    0.0000 C   0  0  0  0  0  0  0  0  0
    1.7419    0.7114    0.0000 C   0  0  0  0  0  0  0  0  0
    1.6600    1.5323    0.0000 C   0  0  0  0  0  0  0  0  0
    2.3300    2.0137    0.0000 C   0  0  0  0  0  0  0  0  0
    3.0819    1.6741    0.0000 N   0  0  0  0  0  0  0  0  0
    3.7519    2.1554    0.0000 C   0  0  0  0  0  0  0  0  0
    4.5038    1.8159    0.0000 C   0  0  0  0  0  0  0  0  0
    4.5857    0.9949    0.0000 C   0  0  0  0  0  0  0  0  0
    3.9156    0.5136    0.0000 C   0  0  0  0  0  0  0  0  0
    4.1664   -0.2724    0.0000 N   0  0  0  0  0  0  0  0  0
    4.9914   -0.2768    0.0000 C   0  0  0  0  0  0  0  0  0
    5.2505    0.5065    0.0000 C   0  0  0  0  0  0  0  0  0
    6.0584    0.6737    0.0000 C   0  0  0  0  0  0  0  0  0
    6.6071    0.0577    0.0000 C   0  0  0  0  0  0  0  0  0
    6.3480   -0.7256    0.0000 C   0  0  0  0  0  0  0  0  0
    5.5401   -0.8928    0.0000 C   0  0  0  0  0  0  0  0  0
    3.1638    0.8532    0.0000 C   0  0  0  0  0  0  0  0  0
    2.4938    0.3718    0.0000 C   0  0  0  0  0  0  0  0  0
    2.5756   -0.4491    0.0000 C   0  0  0  0  0  0  0  0  0
    1.9056   -0.9305    0.0000 C   0  0  0  0  0  0  0  0  0
    2.6656    0.9618    0.0000 C   0  0  0  0  0  0  0  0  0
  1  2  1  0  0  0  0
  1  3  1  0  0  0  0
  3  4  4  0  0  0  0
  3 23  4  0  0  0  0
  4  5  4  0  0  0  0
  5  6  1  0  0  0  0
  5 21  4  0  0  0  0
  6  7  1  0  0  0  0
  7  8  1  0  0  0  0
  8  9  1  0  0  0  0
  8 24  1  0  0  0  0
  9 10  1  0  0  0  0
 10 11  1  0  0  0  0
 11 12  4  0  0  0  0
 11 15  4  0  0  0  0
 12 13  4  0  0  0  0
 12 20  1  0  0  0  0
 13 14  4  0  0  0  0
 14 15  4  0  0  0  0
 14 19  4  0  0  0  0
 15 16  4  0  0  0  0
 16 17  4  0  0  0  0
 17 18  4  0  0  0  0
 18 19  4  0  0  0  0
 20 21  1  0  0  0  0
 21 22  4  0  0  0  0
 22 23  4  0  0  0  0
M  STY  1   1 DAT
M  SAL   1  1  13
M  SDT   1 MRV_IMPLICIT_H                                        
M  SDD   1     0.0000    0.0000    DR    ALL  0       0  
M  SED   1 IMPL_H1
M  END
>  <Name_Molregno>
410422

>  <DOPAMINE D1>
7.72

>  <DOPAMINE D2>
7.64

>  <DOPAMINE D3>
5.95

>  <DOPAMINE D5>
7.5

$$$$
410423
  Marvin  02231216192D 0   1.00000     0.00000     0

 23 26  0  0  0  0  0  0  0  0999 V2000
    0.5233   -1.9008    0.0000 O   0  0  0  0  0  0  0  0  0
    1.1933   -1.4194    0.0000 C   0  0  0  0  0  0  0  0  0
    1.1115   -0.5985    0.0000 C   0  0  0  0  0  0  0  0  0
    1.7815   -0.1171    0.0000 C   0  0  0  0  0  0  0  0  0
    1.6996    0.7038    0.0000 C   0  0  0  0  0  0  0  0  0
    2.3697    1.1851    0.0000 C   0  0  0  0  0  0  0  0  0
    3.1215    0.8456    0.0000 N   0  0  0  0  0  0  0  0  0
    3.7915    1.3269    0.0000 C   0  0  0  0  0  0  0  0  0
    4.5434    0.9874    0.0000 C   0  0  0  0  0  0  0  0  0
    4.6253    0.1664    0.0000 C   0  0  0  0  0  0  0  0  0
    3.9553   -0.3149    0.0000 C   0  0  0  0  0  0  0  0  0
    4.2060   -1.1009    0.0000 N   0  0  0  0  0  0  0  0  0
    5.0310   -1.1053    0.0000 C   0  0  0  0  0  0  0  0  0
    5.2901   -0.3220    0.0000 C   0  0  0  0  0  0  0  0  0
    6.0980   -0.1548    0.0000 C   0  0  0  0  0  0  0  0  0
    6.6468   -0.7709    0.0000 C   0  0  0  0  0  0  0  0  0
    6.3876   -1.5541    0.0000 C   0  0  0  0  0  0  0  0  0
    5.5798   -1.7213    0.0000 C   0  0  0  0  0  0  0  0  0
    3.2034    0.0246    0.0000 C   0  0  0  0  0  0  0  0  0
    2.5334   -0.4567    0.0000 C   0  0  0  0  0  0  0  0  0
    2.6152   -1.2776    0.0000 C   0  0  0  0  0  0  0  0  0
    1.9452   -1.7590    0.0000 C   0  0  0  0  0  0  0  0  0
    2.7052    0.1333    0.0000 C   0  0  0  0  0  0  0  0  0
  1  2  1  0  0  0  0
  2  3  4  0  0  0  0
  2 22  4  0  0  0  0
  3  4  4  0  0  0  0
  4  5  1  0  0  0  0
  4 20  4  0  0  0  0
  5  6  1  0  0  0  0
  6  7  1  0  0  0  0
  7  8  1  0  0  0  0
  7 23  1  0  0  0  0
  8  9  1  0  0  0  0
  9 10  1  0  0  0  0
 10 11  4  0  0  0  0
 10 14  4  0  0  0  0
 11 12  4  0  0  0  0
 11 19  1  0  0  0  0
 12 13  4  0  0  0  0
 13 14  4  0  0  0  0
 13 18  4  0  0  0  0
 14 15  4  0  0  0  0
 15 16  4  0  0  0  0
 16 17  4  0  0  0  0
 17 18  4  0  0  0  0
 19 20  1  0  0  0  0
 20 21  4  0  0  0  0
 21 22  4  0  0  0  0
M  STY  1   1 DAT
M  SAL   1  1  12
M  SDT   1 MRV_IMPLICIT_H                                        
M  SDD   1     0.0000    0.0000    DR    ALL  0       0  
M  SED   1 IMPL_H1
M  END
>  <Name_Molregno>
410423

>  <DOPAMINE D1>
8.43

>  <DOPAMINE D2>
7.13

>  <DOPAMINE D3>
5.68

>  <DOPAMINE D5>
8.27

$$$$
410425
  Marvin  02231216192D 0   1.00000     0.00000     0

 25 28  0  0  0  0  0  0  0  0999 V2000
   -6.1091   -2.1177    0.0000 O   0  0  0  0  0  0  0  0  0
   -6.6579   -2.7338    0.0000 C   0  0  0  0  0  0  0  0  0
   -5.3012   -2.2850    0.0000 C   0  0  0  0  0  0  0  0  0
   -4.7525   -1.6689    0.0000 C   0  0  0  0  0  0  0  0  0
   -3.9446   -1.8362    0.0000 C   0  0  0  0  0  0  0  0  0
   -3.2798   -1.3477    0.0000 C   0  0  0  0  0  0  0  0  0
   -3.1979   -0.5267    0.0000 C   0  0  0  0  0  0  0  0  0
   -2.4460   -0.1872    0.0000 C   0  0  0  0  0  0  0  0  0
   -1.7760   -0.6685    0.0000 N   0  0  0  0  0  0  0  0  0
   -1.0241   -0.3290    0.0000 C   0  0  0  0  0  0  0  0  0
   -0.3541   -0.8103    0.0000 C   0  0  0  0  0  0  0  0  0
   -0.4360   -1.6313    0.0000 C   0  0  0  0  0  0  0  0  0
   -1.1879   -1.9708    0.0000 C   0  0  0  0  0  0  0  0  0
   -1.8579   -1.4895    0.0000 C   0  0  0  0  0  0  0  0  0
   -2.6097   -1.8290    0.0000 C   0  0  0  0  0  0  0  0  0
   -2.8605   -2.6150    0.0000 N   0  0  0  0  0  0  0  0  0
   -3.6855   -2.6194    0.0000 C   0  0  0  0  0  0  0  0  0
   -4.2342   -3.2354    0.0000 C   0  0  0  0  0  0  0  0  0
   -5.0421   -3.0682    0.0000 C   0  0  0  0  0  0  0  0  0
   -2.3720   -3.2798    0.0000 C   0  0  0  0  0  0  0  0  0
   -1.2697   -2.7918    0.0000 C   0  0  0  0  0  0  0  0  0
   -0.5997   -3.2731    0.0000 C   0  0  0  0  0  0  0  0  0
    0.1522   -2.9335    0.0000 C   0  0  0  0  0  0  0  0  0
    0.2340   -2.1126    0.0000 C   0  0  0  0  0  0  0  0  0
   -2.3248   -1.2846    0.0000 C   0  0  0  0  0  0  0  0  0
  1  2  1  0  0  0  0
  1  3  1  0  0  0  0
  3  4  4  0  0  0  0
  3 19  4  0  0  0  0
  4  5  4  0  0  0  0
  5  6  4  0  0  0  0
  5 17  4  0  0  0  0
  6  7  1  0  0  0  0
  6 15  4  0  0  0  0
  7  8  1  0  0  0  0
  8  9  1  0  0  0  0
  9 10  1  0  0  0  0
  9 25  1  0  0  0  0
 10 11  1  0  0  0  0
 11 12  1  0  0  0  0
 12 13  4  0  0  0  0
 12 24  4  0  0  0  0
 13 14  1  0  0  0  0
 13 21  4  0  0  0  0
 14 15  1  0  0  0  0
 15 16  4  0  0  0  0
 16 17  4  0  0  0  0
 16 20  1  0  0  0  0
 17 18  4  0  0  0  0
 18 19  4  0  0  0  0
 21 22  4  0  0  0  0
 22 23  4  0  0  0  0
 23 24  4  0  0  0  0
M  END
>  <Name_Molregno>
410425

>  <DOPAMINE D1>
8.7

>  <DOPAMINE D2>
8.77

>  <DOPAMINE D3>
8.42

>  <DOPAMINE D5>
9.64

$$$$
418379
  Marvin  02231216192D 0   1.00000     0.00000     0

 29 32  0  0  1  0  0  0  0  0999 V2000
   -1.3979   -5.6632    0.0000 O   0  0  0  0  0  0  0  0  0
   -0.5729   -5.6632    0.0000 C   0  0  0  0  0  0  0  0  0
   -0.1604   -4.9487    0.0000 C   0  0  0  0  0  0  0  0  0
   -0.5729   -4.2343    0.0000 C   0  0  0  0  0  0  0  0  0
   -0.1604   -3.5198    0.0000 C   0  0  0  0  0  0  0  0  0
    0.6646   -3.5198    0.0000 C   0  0  0  0  0  0  0  0  0
    1.0771   -2.8053    0.0000 N   0  0  0  0  0  0  0  0  0
    0.6646   -2.0909    0.0000 C   0  0  0  0  0  0  0  0  0
   -0.1604   -2.0909    0.0000 C   0  0  0  0  0  0  0  0  0
   -0.5729   -1.3764    0.0000 C   0  0  0  0  0  0  0  0  0
    1.9021   -2.8053    0.0000 C   0  0  0  0  0  0  0  0  0
    2.3146   -2.0909    0.0000 C   0  0  0  0  0  0  0  0  0
    3.1396   -2.0909    0.0000 N   0  0  0  0  0  0  0  0  0
    3.5521   -1.3764    0.0000 C   0  0  0  0  0  0  0  0  0
    4.3771   -1.3764    0.0000 C   0  0  0  0  0  0  0  0  0
    4.7896   -2.0909    0.0000 N   0  0  0  0  0  0  0  0  0
    4.3771   -2.8053    0.0000 C   0  0  0  0  0  0  0  0  0
    3.5521   -2.8053    0.0000 C   0  0  0  0  0  0  0  0  0
    5.6146   -2.0909    0.0000 C   0  0  0  0  0  0  0  0  0
    6.0271   -1.3764    0.0000 C   0  0  0  0  0  0  0  0  0
    6.8521   -1.3764    0.0000 C   0  0  0  0  0  0  0  0  0
    7.2646   -2.0909    0.0000 C   0  0  0  0  0  0  0  0  0
    6.8521   -2.8053    0.0000 C   0  0  0  0  0  0  0  0  0
    6.0271   -2.8053    0.0000 C   0  0  0  0  0  0  0  0  0
    1.0771   -4.2343    0.0000 C   0  0  0  0  0  0  0  0  0
    0.6646   -4.9487    0.0000 C   0  0  0  0  0  0  0  0  0
    1.0771   -5.6632    0.0000 C   0  0  0  0  0  0  0  0  0
    0.6646   -6.3777    0.0000 C   0  0  0  0  0  0  0  0  0
   -0.1604   -6.3777    0.0000 C   0  0  0  0  0  0  0  0  0
  1  2  1  0  0  0  0
  2  3  4  0  0  0  0
  2 29  4  0  0  0  0
  3  4  1  0  0  0  0
  3 26  4  0  0  0  0
  4  5  1  0  0  0  0
  5  6  1  0  0  0  0
  6  7  1  0  0  0  0
  6 25  1  0  0  0  0
  7  8  1  0  0  0  0
  7 11  1  0  0  0  0
  8  9  1  0  0  0  0
  9 10  1  0  0  0  0
 11 12  1  0  0  0  0
 12 13  1  0  0  0  0
 13 14  1  0  0  0  0
 13 18  1  0  0  0  0
 14 15  1  0  0  0  0
 15 16  1  0  0  0  0
 16 17  1  0  0  0  0
 16 19  1  0  0  0  0
 17 18  1  0  0  0  0
 19 20  4  0  0  0  0
 19 24  4  0  0  0  0
 20 21  4  0  0  0  0
 21 22  4  0  0  0  0
 22 23  4  0  0  0  0
 23 24  4  0  0  0  0
 25 26  1  0  0  0  0
 26 27  4  0  0  0  0
 27 28  4  0  0  0  0
 28 29  4  0  0  0  0
M  END
>  <Name_Molregno>
418379

>  <DOPAMINE D2>
7.26

>  <DOPAMINE D3>
8.75

$$$$
418381
  Marvin  02231216192D 0   1.00000     0.00000     0

 29 32  0  0  1  0  0  0  0  0999 V2000
    2.0395   -2.9830    0.0000 O   0  0  0  0  0  0  0  0  0
    2.4520   -2.2686    0.0000 C   0  0  0  0  0  0  0  0  0
    2.0395   -1.5541    0.0000 C   0  0  0  0  0  0  0  0  0
    2.4520   -0.8396    0.0000 C   0  0  0  0  0  0  0  0  0
    2.0395   -0.1251    0.0000 C   0  0  0  0  0  0  0  0  0
    2.4520    0.5893    0.0000 C   0  0  0  0  0  0  0  0  0
    3.2770    0.5893    0.0000 C   0  0  0  0  0  0  0  0  0
    3.6895    1.3038    0.0000 N   0  0  0  0  0  0  0  0  0
    3.2770    2.0183    0.0000 C   0  0  0  0  0  0  0  0  0
    2.4520    2.0183    0.0000 C   0  0  0  0  0  0  0  0  0
    2.0395    2.7327    0.0000 C   0  0  0  0  0  0  0  0  0
    4.5145    1.3038    0.0000 C   0  0  0  0  0  0  0  0  0
    4.9270    2.0183    0.0000 C   0  0  0  0  0  0  0  0  0
    5.7520    2.0183    0.0000 N   0  0  0  0  0  0  0  0  0
    6.1645    2.7327    0.0000 C   0  0  0  0  0  0  0  0  0
    6.9895    2.7327    0.0000 C   0  0  0  0  0  0  0  0  0
    7.4020    2.0183    0.0000 N   0  0  0  0  0  0  0  0  0
    6.9895    1.3038    0.0000 C   0  0  0  0  0  0  0  0  0
    6.1645    1.3038    0.0000 C   0  0  0  0  0  0  0  0  0
    8.2270    2.0183    0.0000 C   0  0  0  0  0  0  0  0  0
    8.6395    2.7327    0.0000 C   0  0  0  0  0  0  0  0  0
    9.4645    2.7327    0.0000 C   0  0  0  0  0  0  0  0  0
    9.8770    2.0183    0.0000 C   0  0  0  0  0  0  0  0  0
    9.4645    1.3038    0.0000 C   0  0  0  0  0  0  0  0  0
    8.6395    1.3038    0.0000 C   0  0  0  0  0  0  0  0  0
    3.6895   -0.1251    0.0000 C   0  0  0  0  0  0  0  0  0
    3.2770   -0.8396    0.0000 C   0  0  0  0  0  0  0  0  0
    3.6895   -1.5541    0.0000 C   0  0  0  0  0  0  0  0  0
    3.2770   -2.2686    0.0000 C   0  0  0  0  0  0  0  0  0
  1  2  1  0  0  0  0
  2  3  4  0  0  0  0
  2 29  4  0  0  0  0
  3  4  4  0  0  0  0
  4  5  1  0  0  0  0
  4 27  4  0  0  0  0
  5  6  1  0  0  0  0
  6  7  1  0  0  0  0
  7  8  1  0  0  0  0
  7 26  1  0  0  0  0
  8  9  1  0  0  0  0
  8 12  1  0  0  0  0
  9 10  1  0  0  0  0
 10 11  1  0  0  0  0
 12 13  1  0  0  0  0
 13 14  1  0  0  0  0
 14 15  1  0  0  0  0
 14 19  1  0  0  0  0
 15 16  1  0  0  0  0
 16 17  1  0  0  0  0
 17 18  1  0  0  0  0
 17 20  1  0  0  0  0
 18 19  1  0  0  0  0
 20 21  4  0  0  0  0
 20 25  4  0  0  0  0
 21 22  4  0  0  0  0
 22 23  4  0  0  0  0
 23 24  4  0  0  0  0
 24 25  4  0  0  0  0
 26 27  1  0  0  0  0
 27 28  4  0  0  0  0
 28 29  4  0  0  0  0
M  END
>  <Name_Molregno>
418381

>  <DOPAMINE D2>
6.19

>  <DOPAMINE D3>
7.95

$$$$
418383
  Marvin  02231216192D 0   1.00000     0.00000     0

 30 33  0  0  1  0  0  0  0  0999 V2000
    3.2871   -6.2333    0.0000 O   0  0  0  0  0  0  0  0  0
    4.0015   -5.8208    0.0000 C   0  0  0  0  0  0  0  0  0
    4.0015   -4.9958    0.0000 C   0  0  0  0  0  0  0  0  0
    4.7160   -4.5833    0.0000 C   0  0  0  0  0  0  0  0  0
    4.7160   -3.7583    0.0000 C   0  0  0  0  0  0  0  0  0
    5.4305   -3.3458    0.0000 C   0  0  0  0  0  0  0  0  0
    5.4305   -2.5208    0.0000 N   0  0  0  0  0  0  0  0  0
    4.7160   -2.1083    0.0000 C   0  0  0  0  0  0  0  0  0
    4.7160   -1.2833    0.0000 C   0  0  0  0  0  0  0  0  0
    4.0015   -0.8708    0.0000 C   0  0  0  0  0  0  0  0  0
    4.0015   -0.0458    0.0000 N   0  0  0  0  0  0  0  0  0
    3.2871    0.3667    0.0000 C   0  0  0  0  0  0  0  0  0
    3.2871    1.1917    0.0000 C   0  0  0  0  0  0  0  0  0
    4.0015    1.6042    0.0000 N   0  0  0  0  0  0  0  0  0
    4.7160    1.1917    0.0000 C   0  0  0  0  0  0  0  0  0
    4.7160    0.3667    0.0000 C   0  0  0  0  0  0  0  0  0
    4.0015    2.4292    0.0000 C   0  0  0  0  0  0  0  0  0
    3.2871    2.8417    0.0000 C   0  0  0  0  0  0  0  0  0
    3.2871    3.6667    0.0000 C   0  0  0  0  0  0  0  0  0
    4.0015    4.0792    0.0000 C   0  0  0  0  0  0  0  0  0
    4.7160    3.6667    0.0000 C   0  0  0  0  0  0  0  0  0
    4.7160    2.8417    0.0000 C   0  0  0  0  0  0  0  0  0
    6.1449   -2.1083    0.0000 C   0  0  0  0  0  0  0  0  0
    6.1449   -1.2833    0.0000 C   0  0  0  0  0  0  0  0  0
    6.8594   -0.8708    0.0000 C   0  0  0  0  0  0  0  0  0
    6.1449   -3.7583    0.0000 C   0  0  0  0  0  0  0  0  0
    6.1449   -4.5833    0.0000 C   0  0  0  0  0  0  0  0  0
    5.4305   -4.9958    0.0000 C   0  0  0  0  0  0  0  0  0
    5.4305   -5.8208    0.0000 C   0  0  0  0  0  0  0  0  0
    4.7160   -6.2333    0.0000 C   0  0  0  0  0  0  0  0  0
  1  2  1  0  0  0  0
  2  3  4  0  0  0  0
  2 30  4  0  0  0  0
  3  4  4  0  0  0  0
  4  5  1  0  0  0  0
  4 28  4  0  0  0  0
  5  6  1  0  0  0  0
  6  7  1  0  0  0  0
  6 26  1  0  0  0  0
  7  8  1  0  0  0  0
  7 23  1  0  0  0  0
  8  9  1  0  0  0  0
  9 10  1  0  0  0  0
 10 11  1  0  0  0  0
 11 12  1  0  0  0  0
 11 16  1  0  0  0  0
 12 13  1  0  0  0  0
 13 14  1  0  0  0  0
 14 15  1  0  0  0  0
 14 17  1  0  0  0  0
 15 16  1  0  0  0  0
 17 18  4  0  0  0  0
 17 22  4  0  0  0  0
 18 19  4  0  0  0  0
 19 20  4  0  0  0  0
 20 21  4  0  0  0  0
 21 22  4  0  0  0  0
 23 24  1  0  0  0  0
 24 25  1  0  0  0  0
 26 27  1  0  0  0  0
 27 28  1  0  0  0  0
 28 29  4  0  0  0  0
 29 30  4  0  0  0  0
M  END
>  <Name_Molregno>
418383

>  <DOPAMINE D2>
6.78

>  <DOPAMINE D3>
7.99

$$$$
418384
  Marvin  02231216192D 0   1.00000     0.00000     0

 33 37  0  0  1  0  0  0  0  0999 V2000
    0.2266   -0.2231    0.0000 S   0  0  0  0  0  0  0  0  0
    0.4815    0.5615    0.0000 C   0  0  0  0  0  0  0  0  0
    1.3065    0.5615    0.0000 C   0  0  0  0  0  0  0  0  0
    1.5614   -0.2231    0.0000 C   0  0  0  0  0  0  0  0  0
    0.8940   -0.7080    0.0000 C   0  0  0  0  0  0  0  0  0
    0.8940   -1.5330    0.0000 C   0  0  0  0  0  0  0  0  0
    1.6085   -1.9455    0.0000 C   0  0  0  0  0  0  0  0  0
    1.6085   -2.7705    0.0000 N   0  0  0  0  0  0  0  0  0
    0.8940   -3.1830    0.0000 C   0  0  0  0  0  0  0  0  0
    0.1795   -2.7705    0.0000 C   0  0  0  0  0  0  0  0  0
   -0.5349   -3.1830    0.0000 N   0  0  0  0  0  0  0  0  0
   -0.5349   -4.0080    0.0000 C   0  0  0  0  0  0  0  0  0
   -1.2494   -4.4205    0.0000 C   0  0  0  0  0  0  0  0  0
   -1.9639   -4.0080    0.0000 N   0  0  0  0  0  0  0  0  0
   -1.9639   -3.1830    0.0000 C   0  0  0  0  0  0  0  0  0
   -1.2494   -2.7705    0.0000 C   0  0  0  0  0  0  0  0  0
   -2.6783   -4.4205    0.0000 C   0  0  0  0  0  0  0  0  0
   -2.6783   -5.2455    0.0000 C   0  0  0  0  0  0  0  0  0
   -3.3928   -5.6580    0.0000 C   0  0  0  0  0  0  0  0  0
   -4.1073   -5.2455    0.0000 C   0  0  0  0  0  0  0  0  0
   -4.1073   -4.4205    0.0000 C   0  0  0  0  0  0  0  0  0
   -3.3928   -4.0080    0.0000 C   0  0  0  0  0  0  0  0  0
    2.3230   -3.1830    0.0000 C   0  0  0  0  0  0  0  0  0
    2.3230   -4.0080    0.0000 C   0  0  0  0  0  0  0  0  0
    3.0374   -4.4205    0.0000 C   0  0  0  0  0  0  0  0  0
    3.7519   -4.0080    0.0000 C   0  0  0  0  0  0  0  0  0
    3.7519   -3.1830    0.0000 C   0  0  0  0  0  0  0  0  0
    3.0374   -2.7705    0.0000 C   0  0  0  0  0  0  0  0  0
    4.4664   -2.7705    0.0000 C   0  0  0  0  0  0  0  0  0
    5.1808   -3.1830    0.0000 C   0  0  0  0  0  0  0  0  0
    5.8953   -2.7705    0.0000 O   0  0  0  0  0  0  0  0  0
    5.1808   -4.0080    0.0000 C   0  0  0  0  0  0  0  0  0
    4.4664   -4.4205    0.0000 C   0  0  0  0  0  0  0  0  0
  1  2  4  0  0  0  0
  1  5  4  0  0  0  0
  2  3  4  0  0  0  0
  3  4  4  0  0  0  0
  4  5  4  0  0  0  0
  5  6  1  0  0  0  0
  6  7  1  0  0  0  0
  7  8  1  0  0  0  0
  8  9  1  0  0  0  0
  8 23  1  0  0  0  0
  9 10  1  0  0  0  0
 10 11  1  0  0  0  0
 11 12  1  0  0  0  0
 11 16  1  0  0  0  0
 12 13  1  0  0  0  0
 13 14  1  0  0  0  0
 14 15  1  0  0  0  0
 14 17  1  0  0  0  0
 15 16  1  0  0  0  0
 17 18  4  0  0  0  0
 17 22  4  0  0  0  0
 18 19  4  0  0  0  0
 19 20  4  0  0  0  0
 20 21  4  0  0  0  0
 21 22  4  0  0  0  0
 23 24  1  0  0  0  0
 23 28  1  0  0  0  0
 24 25  1  0  0  0  0
 25 26  1  0  0  0  0
 26 27  4  0  0  0  0
 26 33  4  0  0  0  0
 27 28  1  0  0  0  0
 27 29  4  0  0  0  0
 29 30  4  0  0  0  0
 30 31  1  0  0  0  0
 30 32  4  0  0  0  0
 32 33  4  0  0  0  0
M  END
>  <Name_Molregno>
418384

>  <DOPAMINE D2>
7.61

>  <DOPAMINE D3>
7.62

$$$$
418385
  Marvin  02231216192D 0   1.00000     0.00000     0

 30 33  0  0  1  0  0  0  0  0999 V2000
    0.2331   -2.4931    0.0000 O   0  0  0  0  0  0  0  0  0
    1.0581   -2.4931    0.0000 C   0  0  0  0  0  0  0  0  0
    1.4706   -1.7787    0.0000 C   0  0  0  0  0  0  0  0  0
    2.2956   -1.7787    0.0000 C   0  0  0  0  0  0  0  0  0
    2.7081   -1.0642    0.0000 C   0  0  0  0  0  0  0  0  0
    3.5331   -1.0642    0.0000 C   0  0  0  0  0  0  0  0  0
    3.9456   -0.3497    0.0000 N   0  0  0  0  0  0  0  0  0
    3.5331    0.3647    0.0000 C   0  0  0  0  0  0  0  0  0
    2.7081    0.3647    0.0000 C   0  0  0  0  0  0  0  0  0
    2.2956    1.0792    0.0000 C   0  0  0  0  0  0  0  0  0
    4.7706   -0.3497    0.0000 C   0  0  0  0  0  0  0  0  0
    5.1831    0.3647    0.0000 C   0  0  0  0  0  0  0  0  0
    6.0081    0.3647    0.0000 N   0  0  0  0  0  0  0  0  0
    6.4206    1.0792    0.0000 C   0  0  0  0  0  0  0  0  0
    7.2456    1.0792    0.0000 C   0  0  0  0  0  0  0  0  0
    7.6581    0.3647    0.0000 N   0  0  0  0  0  0  0  0  0
    7.2456   -0.3497    0.0000 C   0  0  0  0  0  0  0  0  0
    6.4206   -0.3497    0.0000 C   0  0  0  0  0  0  0  0  0
    8.4831    0.3647    0.0000 C   0  0  0  0  0  0  0  0  0
    8.8956    1.0792    0.0000 C   0  0  0  0  0  0  0  0  0
    9.7206    1.0792    0.0000 C   0  0  0  0  0  0  0  0  0
   10.1331    0.3647    0.0000 C   0  0  0  0  0  0  0  0  0
    9.7206   -0.3497    0.0000 C   0  0  0  0  0  0  0  0  0
    8.8956   -0.3497    0.0000 C   0  0  0  0  0  0  0  0  0
    3.9456   -1.7787    0.0000 C   0  0  0  0  0  0  0  0  0
    3.5331   -2.4931    0.0000 C   0  0  0  0  0  0  0  0  0
    2.7081   -2.4931    0.0000 C   0  0  0  0  0  0  0  0  0
    2.2956   -3.2076    0.0000 C   0  0  0  0  0  0  0  0  0
    1.4706   -3.2076    0.0000 C   0  0  0  0  0  0  0  0  0
    1.0581   -3.9221    0.0000 O   0  0  0  0  0  0  0  0  0
  1  2  1  0  0  0  0
  2  3  4  0  0  0  0
  2 29  4  0  0  0  0
  3  4  4  0  0  0  0
  4  5  1  0  0  0  0
  4 27  4  0  0  0  0
  5  6  1  0  0  0  0
  6  7  1  0  0  0  0
  6 25  1  0  0  0  0
  7  8  1  0  0  0  0
  7 11  1  0  0  0  0
  8  9  1  0  0  0  0
  9 10  1  0  0  0  0
 11 12  1  0  0  0  0
 12 13  1  0  0  0  0
 13 14  1  0  0  0  0
 13 18  1  0  0  0  0
 14 15  1  0  0  0  0
 15 16  1  0  0  0  0
 16 17  1  0  0  0  0
 16 19  1  0  0  0  0
 17 18  1  0  0  0  0
 19 20  4  0  0  0  0
 19 24  4  0  0  0  0
 20 21  4  0  0  0  0
 21 22  4  0  0  0  0
 22 23  4  0  0  0  0
 23 24  4  0  0  0  0
 25 26  1  0  0  0  0
 26 27  1  0  0  0  0
 27 28  4  0  0  0  0
 28 29  4  0  0  0  0
 29 30  1  0  0  0  0
M  END
>  <Name_Molregno>
418385

>  <DOPAMINE D2>
7.15

>  <DOPAMINE D3>
8.86

$$$$
418386
  Marvin  02231216192D 0   1.00000     0.00000     0

 32 35  0  0  1  0  0  0  0  0999 V2000
   10.9619    0.4137    0.0000 O   0  0  0  0  0  0  0  0  0
   10.1517    0.5696    0.0000 C   0  0  0  0  0  0  0  0  0
    9.6116   -0.0540    0.0000 C   0  0  0  0  0  0  0  0  0
    8.8015    0.1019    0.0000 C   0  0  0  0  0  0  0  0  0
    8.2614   -0.5217    0.0000 C   0  0  0  0  0  0  0  0  0
    7.4513   -0.3658    0.0000 C   0  0  0  0  0  0  0  0  0
    6.9112   -0.9895    0.0000 N   0  0  0  0  0  0  0  0  0
    6.1011   -0.8336    0.0000 C   0  0  0  0  0  0  0  0  0
    5.5610   -1.4572    0.0000 C   0  0  0  0  0  0  0  0  0
    4.7508   -1.3013    0.0000 C   0  0  0  0  0  0  0  0  0
    4.2108   -1.9249    0.0000 C   0  0  0  0  0  0  0  0  0
    3.4006   -1.7690    0.0000 N   0  0  0  0  0  0  0  0  0
    2.8605   -2.3927    0.0000 C   0  0  0  0  0  0  0  0  0
    2.0504   -2.2368    0.0000 C   0  0  0  0  0  0  0  0  0
    1.7804   -1.4572    0.0000 N   0  0  0  0  0  0  0  0  0
    2.3204   -0.8336    0.0000 C   0  0  0  0  0  0  0  0  0
    3.1306   -0.9895    0.0000 C   0  0  0  0  0  0  0  0  0
    0.9702   -1.3013    0.0000 C   0  0  0  0  0  0  0  0  0
    0.4301   -1.9249    0.0000 C   0  0  0  0  0  0  0  0  0
   -0.3800   -1.7690    0.0000 C   0  0  0  0  0  0  0  0  0
   -0.6500   -0.9895    0.0000 C   0  0  0  0  0  0  0  0  0
   -0.1100   -0.3658    0.0000 C   0  0  0  0  0  0  0  0  0
    0.7002   -0.5217    0.0000 C   0  0  0  0  0  0  0  0  0
    7.1812   -1.7690    0.0000 C   0  0  0  0  0  0  0  0  0
    7.9914   -1.9249    0.0000 C   0  0  0  0  0  0  0  0  0
    8.2614   -2.7045    0.0000 C   0  0  0  0  0  0  0  0  0
    7.1812    0.4137    0.0000 C   0  0  0  0  0  0  0  0  0
    7.7213    1.0374    0.0000 C   0  0  0  0  0  0  0  0  0
    8.5315    0.8814    0.0000 C   0  0  0  0  0  0  0  0  0
    9.0716    1.5051    0.0000 C   0  0  0  0  0  0  0  0  0
    9.8817    1.3492    0.0000 C   0  0  0  0  0  0  0  0  0
   10.4218    1.9728    0.0000 O   0  0  0  0  0  0  0  0  0
  1  2  1  0  0  0  0
  2  3  4  0  0  0  0
  2 31  4  0  0  0  0
  3  4  4  0  0  0  0
  4  5  1  0  0  0  0
  4 29  4  0  0  0  0
  5  6  1  0  0  0  0
  6  7  1  0  0  0  0
  6 27  1  0  0  0  0
  7  8  1  0  0  0  0
  7 24  1  0  0  0  0
  8  9  1  0  0  0  0
  9 10  1  0  0  0  0
 10 11  1  0  0  0  0
 11 12  1  0  0  0  0
 12 13  1  0  0  0  0
 12 17  1  0  0  0  0
 13 14  1  0  0  0  0
 14 15  1  0  0  0  0
 15 16  1  0  0  0  0
 15 18  1  0  0  0  0
 16 17  1  0  0  0  0
 18 19  4  0  0  0  0
 18 23  4  0  0  0  0
 19 20  4  0  0  0  0
 20 21  4  0  0  0  0
 21 22  4  0  0  0  0
 22 23  4  0  0  0  0
 24 25  1  0  0  0  0
 25 26  1  0  0  0  0
 27 28  1  0  0  0  0
 28 29  1  0  0  0  0
 29 30  4  0  0  0  0
 30 31  4  0  0  0  0
 31 32  1  0  0  0  0
M  END
>  <Name_Molregno>
418386

>  <DOPAMINE D2>
7.66

>  <DOPAMINE D3>
8.54

$$$$
418396
  Marvin  02231216192D 0   1.00000     0.00000     0

 29 32  0  0  1  0  0  0  0  0999 V2000
    0.0112    0.5821    0.0000 N   0  0  0  0  0  0  0  0  0
   -0.7033    0.1696    0.0000 C   0  0  0  0  0  0  0  0  0
   -0.7033   -0.6554    0.0000 C   0  0  0  0  0  0  0  0  0
   -1.4177   -1.0679    0.0000 C   0  0  0  0  0  0  0  0  0
    0.7257    0.1696    0.0000 C   0  0  0  0  0  0  0  0  0
    0.7257   -0.6554    0.0000 C   0  0  0  0  0  0  0  0  0
    1.4402   -1.0679    0.0000 N   0  0  0  0  0  0  0  0  0
    2.1546   -0.6554    0.0000 C   0  0  0  0  0  0  0  0  0
    2.8691   -1.0679    0.0000 C   0  0  0  0  0  0  0  0  0
    2.8691   -1.8929    0.0000 N   0  0  0  0  0  0  0  0  0
    2.1546   -2.3054    0.0000 C   0  0  0  0  0  0  0  0  0
    1.4402   -1.8929    0.0000 C   0  0  0  0  0  0  0  0  0
    3.5836   -2.3054    0.0000 C   0  0  0  0  0  0  0  0  0
    4.2980   -1.8929    0.0000 C   0  0  0  0  0  0  0  0  0
    5.0125   -2.3054    0.0000 C   0  0  0  0  0  0  0  0  0
    5.0125   -3.1304    0.0000 C   0  0  0  0  0  0  0  0  0
    4.2980   -3.5429    0.0000 C   0  0  0  0  0  0  0  0  0
    3.5836   -3.1304    0.0000 C   0  0  0  0  0  0  0  0  0
    0.0112    1.4071    0.0000 C   0  0  0  0  0  0  0  0  0
    0.7257    1.8196    0.0000 C   0  0  0  0  0  0  0  0  0
    0.7257    2.6446    0.0000 C   0  0  0  0  0  0  0  0  0
    0.0112    3.0571    0.0000 C   0  0  0  0  0  0  0  0  0
   -0.7033    2.6446    0.0000 C   0  0  0  0  0  0  0  0  0
   -0.7033    1.8196    0.0000 C   0  0  0  0  0  0  0  0  0
   -1.4177    3.0571    0.0000 C   0  0  0  0  0  0  0  0  0
   -1.4177    3.8821    0.0000 C   0  0  0  0  0  0  0  0  0
   -2.1322    4.2946    0.0000 N   0  0  0  0  0  0  0  0  0
   -0.7033    4.2946    0.0000 C   0  0  0  0  0  0  0  0  0
    0.0112    3.8821    0.0000 C   0  0  0  0  0  0  0  0  0
  1  2  1  0  0  0  0
  1  5  1  0  0  0  0
  1 19  1  0  0  0  0
  2  3  1  0  0  0  0
  3  4  1  0  0  0  0
  5  6  1  0  0  0  0
  6  7  1  0  0  0  0
  7  8  1  0  0  0  0
  7 12  1  0  0  0  0
  8  9  1  0  0  0  0
  9 10  1  0  0  0  0
 10 11  1  0  0  0  0
 10 13  1  0  0  0  0
 11 12  1  0  0  0  0
 13 14  4  0  0  0  0
 13 18  4  0  0  0  0
 14 15  4  0  0  0  0
 15 16  4  0  0  0  0
 16 17  4  0  0  0  0
 17 18  4  0  0  0  0
 19 20  1  0  0  0  0
 19 24  1  0  0  0  0
 20 21  1  0  0  0  0
 21 22  1  0  0  0  0
 22 23  4  0  0  0  0
 22 29  4  0  0  0  0
 23 24  1  0  0  0  0
 23 25  4  0  0  0  0
 25 26  4  0  0  0  0
 26 27  1  0  0  0  0
 26 28  4  0  0  0  0
 28 29  4  0  0  0  0
M  END
>  <Name_Molregno>
418396

>  <DOPAMINE D2>
6.2

>  <DOPAMINE D3>
7.65

$$$$
418397
  Marvin  02231216192D 0   1.00000     0.00000     0

 32 36  0  0  1  0  0  0  0  0999 V2000
   10.0819   -0.5123    0.0000 O   0  0  0  0  0  0  0  0  0
    9.3807   -0.0777    0.0000 C   0  0  0  0  0  0  0  0  0
    9.3201    0.7451    0.0000 N   0  0  0  0  0  0  0  0  0
    8.5189    0.9417    0.0000 C   0  0  0  0  0  0  0  0  0
    8.0843    0.2405    0.0000 C   0  0  0  0  0  0  0  0  0
    8.6169   -0.3895    0.0000 C   0  0  0  0  0  0  0  0  0
    7.2597    0.2663    0.0000 C   0  0  0  0  0  0  0  0  0
    6.8251   -0.4350    0.0000 C   0  0  0  0  0  0  0  0  0
    6.0005   -0.4092    0.0000 C   0  0  0  0  0  0  0  0  0
    5.5659   -1.1105    0.0000 N   0  0  0  0  0  0  0  0  0
    5.9559   -1.8375    0.0000 C   0  0  0  0  0  0  0  0  0
    6.7805   -1.8632    0.0000 C   0  0  0  0  0  0  0  0  0
    7.1705   -2.5902    0.0000 C   0  0  0  0  0  0  0  0  0
    4.7413   -1.0847    0.0000 C   0  0  0  0  0  0  0  0  0
    4.3067   -1.7859    0.0000 C   0  0  0  0  0  0  0  0  0
    3.4821   -1.7602    0.0000 N   0  0  0  0  0  0  0  0  0
    3.0475   -2.4614    0.0000 C   0  0  0  0  0  0  0  0  0
    2.2229   -2.4357    0.0000 C   0  0  0  0  0  0  0  0  0
    1.8329   -1.7087    0.0000 N   0  0  0  0  0  0  0  0  0
    2.2675   -1.0074    0.0000 C   0  0  0  0  0  0  0  0  0
    3.0921   -1.0332    0.0000 C   0  0  0  0  0  0  0  0  0
    1.0083   -1.6829    0.0000 C   0  0  0  0  0  0  0  0  0
    0.5737   -2.3841    0.0000 C   0  0  0  0  0  0  0  0  0
   -0.2509   -2.3584    0.0000 C   0  0  0  0  0  0  0  0  0
   -0.6409   -1.6314    0.0000 C   0  0  0  0  0  0  0  0  0
   -0.2063   -0.9301    0.0000 C   0  0  0  0  0  0  0  0  0
    0.6183   -0.9559    0.0000 C   0  0  0  0  0  0  0  0  0
    5.6105    0.3178    0.0000 C   0  0  0  0  0  0  0  0  0
    6.0451    1.0190    0.0000 C   0  0  0  0  0  0  0  0  0
    6.8697    0.9933    0.0000 C   0  0  0  0  0  0  0  0  0
    7.3043    1.6945    0.0000 C   0  0  0  0  0  0  0  0  0
    8.1289    1.6687    0.0000 C   0  0  0  0  0  0  0  0  0
  1  2  2  0  0  0  0
  2  3  1  0  0  0  0
  2  6  1  0  0  0  0
  3  4  1  0  0  0  0
  4  5  4  0  0  0  0
  4 32  4  0  0  0  0
  5  6  1  0  0  0  0
  5  7  4  0  0  0  0
  7  8  1  0  0  0  0
  7 30  4  0  0  0  0
  8  9  1  0  0  0  0
  9 10  1  0  0  0  0
  9 28  1  0  0  0  0
 10 11  1  0  0  0  0
 10 14  1  0  0  0  0
 11 12  1  0  0  0  0
 12 13  1  0  0  0  0
 14 15  1  0  0  0  0
 15 16  1  0  0  0  0
 16 17  1  0  0  0  0
 16 21  1  0  0  0  0
 17 18  1  0  0  0  0
 18 19  1  0  0  0  0
 19 20  1  0  0  0  0
 19 22  1  0  0  0  0
 20 21  1  0  0  0  0
 22 23  4  0  0  0  0
 22 27  4  0  0  0  0
 23 24  4  0  0  0  0
 24 25  4  0  0  0  0
 25 26  4  0  0  0  0
 26 27  4  0  0  0  0
 28 29  1  0  0  0  0
 29 30  1  0  0  0  0
 30 31  4  0  0  0  0
 31 32  4  0  0  0  0
M  END
>  <Name_Molregno>
418397

>  <DOPAMINE D2>
7.04

>  <DOPAMINE D3>
7.96

$$$$
418398
  Marvin  02231216192D 0   1.00000     0.00000     0

 31 34  0  0  1  0  0  0  0  0999 V2000
   -6.6723    0.8110    0.0000 O   0  0  0  0  0  0  0  0  0
   -7.3868    0.3985    0.0000 C   0  0  0  0  0  0  0  0  0
   -6.6723    1.6360    0.0000 C   0  0  0  0  0  0  0  0  0
   -7.3868    2.0485    0.0000 C   0  0  0  0  0  0  0  0  0
   -7.3868    2.8735    0.0000 C   0  0  0  0  0  0  0  0  0
   -6.6723    3.2860    0.0000 C   0  0  0  0  0  0  0  0  0
   -5.9579    2.8735    0.0000 C   0  0  0  0  0  0  0  0  0
   -5.9579    2.0485    0.0000 C   0  0  0  0  0  0  0  0  0
   -5.2434    1.6360    0.0000 N   0  0  0  0  0  0  0  0  0
   -4.5289    2.0485    0.0000 C   0  0  0  0  0  0  0  0  0
   -3.8145    1.6360    0.0000 C   0  0  0  0  0  0  0  0  0
   -3.8145    0.8110    0.0000 N   0  0  0  0  0  0  0  0  0
   -4.5289    0.3985    0.0000 C   0  0  0  0  0  0  0  0  0
   -5.2434    0.8110    0.0000 C   0  0  0  0  0  0  0  0  0
   -3.1000    0.3985    0.0000 C   0  0  0  0  0  0  0  0  0
   -3.1000   -0.4265    0.0000 C   0  0  0  0  0  0  0  0  0
   -2.3855   -0.8390    0.0000 N   0  0  0  0  0  0  0  0  0
   -1.6710   -0.4265    0.0000 C   0  0  0  0  0  0  0  0  0
   -1.6710    0.3985    0.0000 C   0  0  0  0  0  0  0  0  0
   -0.9566    0.8110    0.0000 C   0  0  0  0  0  0  0  0  0
   -2.3855   -1.6640    0.0000 C   0  0  0  0  0  0  0  0  0
   -3.1000   -2.0765    0.0000 C   0  0  0  0  0  0  0  0  0
   -3.1000   -2.9015    0.0000 C   0  0  0  0  0  0  0  0  0
   -2.3855   -3.3140    0.0000 C   0  0  0  0  0  0  0  0  0
   -1.6710   -2.9015    0.0000 C   0  0  0  0  0  0  0  0  0
   -1.6710   -2.0765    0.0000 C   0  0  0  0  0  0  0  0  0
   -0.9566   -3.3140    0.0000 C   0  0  0  0  0  0  0  0  0
   -0.9566   -4.1390    0.0000 C   0  0  0  0  0  0  0  0  0
   -1.6710   -4.5515    0.0000 C   0  0  0  0  0  0  0  0  0
   -2.3855   -4.1390    0.0000 C   0  0  0  0  0  0  0  0  0
   -3.1000   -4.5515    0.0000 O   0  0  0  0  0  0  0  0  0
  1  2  1  0  0  0  0
  1  3  1  0  0  0  0
  3  4  4  0  0  0  0
  3  8  4  0  0  0  0
  4  5  4  0  0  0  0
  5  6  4  0  0  0  0
  6  7  4  0  0  0  0
  7  8  4  0  0  0  0
  8  9  1  0  0  0  0
  9 10  1  0  0  0  0
  9 14  1  0  0  0  0
 10 11  1  0  0  0  0
 11 12  1  0  0  0  0
 12 13  1  0  0  0  0
 12 15  1  0  0  0  0
 13 14  1  0  0  0  0
 15 16  1  0  0  0  0
 16 17  1  0  0  0  0
 17 18  1  0  0  0  0
 17 21  1  0  0  0  0
 18 19  1  0  0  0  0
 19 20  1  0  0  0  0
 21 22  1  0  0  0  0
 21 26  1  0  0  0  0
 22 23  1  0  0  0  0
 23 24  1  0  0  0  0
 24 25  4  0  0  0  0
 24 30  4  0  0  0  0
 25 26  1  0  0  0  0
 25 27  4  0  0  0  0
 27 28  4  0  0  0  0
 28 29  4  0  0  0  0
 29 30  4  0  0  0  0
 30 31  1  0  0  0  0
M  END
>  <Name_Molregno>
418398

>  <DOPAMINE D2>
7.51

>  <DOPAMINE D3>
8.54

$$$$
418399
  Marvin  02231216192D 0   1.00000     0.00000     0

 31 34  0  0  1  0  0  0  0  0999 V2000
    2.2471    3.0435    0.0000 Cl  0  0  0  0  0  0  0  0  0
    1.5326    2.6310    0.0000 C   0  0  0  0  0  0  0  0  0
    1.5326    1.8060    0.0000 C   0  0  0  0  0  0  0  0  0
    2.2471    1.3935    0.0000 N   0  0  0  0  0  0  0  0  0
    2.9616    1.8060    0.0000 C   0  0  0  0  0  0  0  0  0
    3.6760    1.3935    0.0000 C   0  0  0  0  0  0  0  0  0
    3.6760    0.5685    0.0000 N   0  0  0  0  0  0  0  0  0
    2.9616    0.1560    0.0000 C   0  0  0  0  0  0  0  0  0
    2.2471    0.5685    0.0000 C   0  0  0  0  0  0  0  0  0
    4.3905    0.1560    0.0000 C   0  0  0  0  0  0  0  0  0
    4.3905   -0.6690    0.0000 C   0  0  0  0  0  0  0  0  0
    5.1050   -1.0815    0.0000 N   0  0  0  0  0  0  0  0  0
    5.8195   -0.6690    0.0000 C   0  0  0  0  0  0  0  0  0
    5.8195    0.1560    0.0000 C   0  0  0  0  0  0  0  0  0
    6.5339    0.5685    0.0000 C   0  0  0  0  0  0  0  0  0
    5.1050   -1.9065    0.0000 C   0  0  0  0  0  0  0  0  0
    4.3905   -2.3190    0.0000 C   0  0  0  0  0  0  0  0  0
    4.3905   -3.1440    0.0000 C   0  0  0  0  0  0  0  0  0
    5.1050   -3.5565    0.0000 C   0  0  0  0  0  0  0  0  0
    5.8195   -3.1440    0.0000 C   0  0  0  0  0  0  0  0  0
    5.8195   -2.3190    0.0000 C   0  0  0  0  0  0  0  0  0
    6.5339   -3.5565    0.0000 C   0  0  0  0  0  0  0  0  0
    6.5339   -4.3815    0.0000 C   0  0  0  0  0  0  0  0  0
    5.8195   -4.7940    0.0000 C   0  0  0  0  0  0  0  0  0
    5.1050   -4.3815    0.0000 C   0  0  0  0  0  0  0  0  0
    4.3905   -4.7940    0.0000 O   0  0  0  0  0  0  0  0  0
    0.8182    1.3935    0.0000 C   0  0  0  0  0  0  0  0  0
    0.1037    1.8060    0.0000 C   0  0  0  0  0  0  0  0  0
    0.1037    2.6310    0.0000 C   0  0  0  0  0  0  0  0  0
    0.8182    3.0435    0.0000 C   0  0  0  0  0  0  0  0  0
    0.8182    3.8685    0.0000 Cl  0  0  0  0  0  0  0  0  0
  1  2  1  0  0  0  0
  2  3  4  0  0  0  0
  2 30  4  0  0  0  0
  3  4  1  0  0  0  0
  3 27  4  0  0  0  0
  4  5  1  0  0  0  0
  4  9  1  0  0  0  0
  5  6  1  0  0  0  0
  6  7  1  0  0  0  0
  7  8  1  0  0  0  0
  7 10  1  0  0  0  0
  8  9  1  0  0  0  0
 10 11  1  0  0  0  0
 11 12  1  0  0  0  0
 12 13  1  0  0  0  0
 12 16  1  0  0  0  0
 13 14  1  0  0  0  0
 14 15  1  0  0  0  0
 16 17  1  0  0  0  0
 16 21  1  0  0  0  0
 17 18  1  0  0  0  0
 18 19  1  0  0  0  0
 19 20  4  0  0  0  0
 19 25  4  0  0  0  0
 20 21  1  0  0  0  0
 20 22  4  0  0  0  0
 22 23  4  0  0  0  0
 23 24  4  0  0  0  0
 24 25  4  0  0  0  0
 25 26  1  0  0  0  0
 27 28  4  0  0  0  0
 28 29  4  0  0  0  0
 29 30  4  0  0  0  0
 30 31  1  0  0  0  0
M  END
>  <Name_Molregno>
418399

>  <DOPAMINE D2>
7.84

>  <DOPAMINE D3>
9.35

$$$$
421822
  Marvin  02231216192D 0   1.00000     0.00000     0

 21 23  0  0  1  0  0  0  0  0999 V2000
   -3.0222   -2.3693    0.0000 Cl  0  0  0  0  0  0  0  0  0
   -3.0222   -1.5443    0.0000 C   0  0  0  0  0  0  0  0  0
   -2.3077   -1.1318    0.0000 C   0  0  0  0  0  0  0  0  0
   -2.3077   -0.3068    0.0000 C   0  0  0  0  0  0  0  0  0
   -1.5933    0.1057    0.0000 N   0  0  0  0  0  0  0  0  0
   -0.8788   -0.3068    0.0000 C   0  0  0  0  0  0  0  0  0
   -0.1643    0.1057    0.0000 O   0  0  0  0  0  0  0  0  0
   -0.8788   -1.1318    0.0000 C   0  0  0  0  0  0  0  0  0
   -0.0663   -0.9885    0.0000 C   0  0  0  0  0  0  0  0  0
   -1.5933   -1.5443    0.0000 C   0  0  0  0  0  0  0  0  0
   -1.5933   -2.3693    0.0000 O   0  0  0  0  0  0  0  0  0
   -0.5966   -1.9070    0.0000 C   0  0  0  0  0  0  0  0  0
    0.2158   -2.0503    0.0000 C   0  0  0  0  0  0  0  0  0
    0.4980   -2.8255    0.0000 C   0  0  0  0  0  0  0  0  0
   -0.0323   -3.4575    0.0000 C   0  0  0  0  0  0  0  0  0
   -0.8448   -3.3143    0.0000 C   0  0  0  0  0  0  0  0  0
   -1.1269   -2.5390    0.0000 C   0  0  0  0  0  0  0  0  0
   -3.0222    0.1057    0.0000 C   0  0  0  0  0  0  0  0  0
   -3.7367   -0.3068    0.0000 C   0  0  0  0  0  0  0  0  0
   -4.4512    0.1057    0.0000 Cl  0  0  0  0  0  0  0  0  0
   -3.7367   -1.1318    0.0000 C   0  0  0  0  0  0  0  0  0
  1  2  1  0  0  0  0
  2  3  4  0  0  0  0
  2 21  4  0  0  0  0
  3  4  4  0  0  0  0
  3 10  1  0  0  0  0
  4  5  1  0  0  0  0
  4 18  4  0  0  0  0
  5  6  1  0  0  0  0
  6  7  2  0  0  0  0
  6  8  1  0  0  0  0
  8  9  1  0  0  0  0
  8 10  1  0  0  0  0
  8 12  1  0  0  0  0
 10 11  2  0  0  0  0
 12 13  4  0  0  0  0
 12 17  4  0  0  0  0
 13 14  4  0  0  0  0
 14 15  4  0  0  0  0
 15 16  4  0  0  0  0
 16 17  4  0  0  0  0
 18 19  4  0  0  0  0
 19 20  1  0  0  0  0
 19 21  4  0  0  0  0
M  END
>  <Name_Molregno>
421822

>  <5-HT1A>
5

>  <5-HT2A>
5

>  <5-HT2C>
5

>  <5-HT6>
7.26

>  <5-HT7>
5

>  <DOPAMINE D1>
5

>  <DOPAMINE D2>
5

>  <DOPAMINE D3>
5

>  <DOPAMINE D4>
5

$$$$
422032
  Marvin  02231216192D 0   1.00000     0.00000     0

 22 24  0  0  1  0  0  0  0  0999 V2000
    0.2420   -2.2208    0.0000 Cl  0  0  0  0  0  0  0  0  0
    0.2420   -1.3958    0.0000 C   0  0  0  0  0  0  0  0  0
    0.9565   -0.9833    0.0000 C   0  0  0  0  0  0  0  0  0
    0.9565   -0.1583    0.0000 C   0  0  0  0  0  0  0  0  0
    1.6709    0.2542    0.0000 N   0  0  0  0  0  0  0  0  0
    2.3854   -0.1583    0.0000 C   0  0  0  0  0  0  0  0  0
    3.0999    0.2542    0.0000 O   0  0  0  0  0  0  0  0  0
    2.3854   -0.9833    0.0000 C   0  0  0  0  0  0  0  0  0
    3.1979   -0.8401    0.0000 C   0  0  0  0  0  0  0  0  0
    1.6709   -1.3958    0.0000 C   0  0  0  0  0  0  0  0  0
    1.6709   -2.2208    0.0000 O   0  0  0  0  0  0  0  0  0
    2.6676   -1.7586    0.0000 C   0  0  0  0  0  0  0  0  0
    3.4800   -1.9018    0.0000 C   0  0  0  0  0  0  0  0  0
    3.7622   -2.6771    0.0000 C   0  0  0  0  0  0  0  0  0
    4.5747   -2.8203    0.0000 O   0  0  0  0  0  0  0  0  0
    3.2319   -3.3091    0.0000 C   0  0  0  0  0  0  0  0  0
    2.4194   -3.1658    0.0000 C   0  0  0  0  0  0  0  0  0
    2.1373   -2.3906    0.0000 C   0  0  0  0  0  0  0  0  0
    0.2420    0.2542    0.0000 C   0  0  0  0  0  0  0  0  0
   -0.4725   -0.1583    0.0000 C   0  0  0  0  0  0  0  0  0
   -1.1870    0.2542    0.0000 Cl  0  0  0  0  0  0  0  0  0
   -0.4725   -0.9833    0.0000 C   0  0  0  0  0  0  0  0  0
  1  2  1  0  0  0  0
  2  3  4  0  0  0  0
  2 22  4  0  0  0  0
  3  4  4  0  0  0  0
  3 10  1  0  0  0  0
  4  5  1  0  0  0  0
  4 19  4  0  0  0  0
  5  6  1  0  0  0  0
  6  7  2  0  0  0  0
  6  8  1  0  0  0  0
  8  9  1  0  0  0  0
  8 10  1  0  0  0  0
  8 12  1  0  0  0  0
 10 11  2  0  0  0  0
 12 13  4  0  0  0  0
 12 18  4  0  0  0  0
 13 14  4  0  0  0  0
 14 15  1  0  0  0  0
 14 16  4  0  0  0  0
 16 17  4  0  0  0  0
 17 18  4  0  0  0  0
 19 20  4  0  0  0  0
 20 21  1  0  0  0  0
 20 22  4  0  0  0  0
M  END
>  <Name_Molregno>
422032

>  <5-HT1A>
5

>  <5-HT2A>
5

>  <5-HT2C>
5

>  <5-HT6>
7.52

>  <5-HT7>
5

>  <DOPAMINE D1>
5.74

>  <DOPAMINE D2>
5

>  <DOPAMINE D3>
5

>  <DOPAMINE D4>
5

$$$$
422034
  Marvin  02231216192D 0   1.00000     0.00000     0

 22 24  0  0  1  0  0  0  0  0999 V2000
   -3.2883   -2.2141    0.0000 Cl  0  0  0  0  0  0  0  0  0
   -3.2883   -1.3891    0.0000 C   0  0  0  0  0  0  0  0  0
   -2.5738   -0.9766    0.0000 C   0  0  0  0  0  0  0  0  0
   -2.5738   -0.1516    0.0000 C   0  0  0  0  0  0  0  0  0
   -1.8594    0.2609    0.0000 N   0  0  0  0  0  0  0  0  0
   -1.1449   -0.1516    0.0000 C   0  0  0  0  0  0  0  0  0
   -0.4304    0.2609    0.0000 O   0  0  0  0  0  0  0  0  0
   -1.1449   -0.9766    0.0000 C   0  0  0  0  0  0  0  0  0
   -0.3324   -0.8334    0.0000 C   0  0  0  0  0  0  0  0  0
   -1.8594   -1.3891    0.0000 C   0  0  0  0  0  0  0  0  0
   -1.8594   -2.2141    0.0000 O   0  0  0  0  0  0  0  0  0
   -0.8627   -1.7519    0.0000 C   0  0  0  0  0  0  0  0  0
   -0.0503   -1.8951    0.0000 C   0  0  0  0  0  0  0  0  0
    0.2319   -2.6704    0.0000 C   0  0  0  0  0  0  0  0  0
   -0.2984   -3.3024    0.0000 C   0  0  0  0  0  0  0  0  0
   -0.0162   -4.0776    0.0000 O   0  0  0  0  0  0  0  0  0
   -1.1109   -3.1591    0.0000 C   0  0  0  0  0  0  0  0  0
   -1.3930   -2.3839    0.0000 C   0  0  0  0  0  0  0  0  0
   -3.2883    0.2609    0.0000 C   0  0  0  0  0  0  0  0  0
   -4.0028   -0.1516    0.0000 C   0  0  0  0  0  0  0  0  0
   -4.7172    0.2609    0.0000 Cl  0  0  0  0  0  0  0  0  0
   -4.0028   -0.9766    0.0000 C   0  0  0  0  0  0  0  0  0
  1  2  1  0  0  0  0
  2  3  4  0  0  0  0
  2 22  4  0  0  0  0
  3  4  4  0  0  0  0
  3 10  1  0  0  0  0
  4  5  1  0  0  0  0
  4 19  4  0  0  0  0
  5  6  1  0  0  0  0
  6  7  2  0  0  0  0
  6  8  1  0  0  0  0
  8  9  1  0  0  0  0
  8 10  1  0  0  0  0
  8 12  1  0  0  0  0
 10 11  2  0  0  0  0
 12 13  4  0  0  0  0
 12 18  4  0  0  0  0
 13 14  4  0  0  0  0
 14 15  4  0  0  0  0
 15 16  1  0  0  0  0
 15 17  4  0  0  0  0
 17 18  4  0  0  0  0
 19 20  4  0  0  0  0
 20 21  1  0  0  0  0
 20 22  4  0  0  0  0
M  END
>  <Name_Molregno>
422034

>  <5-HT1A>
5

>  <5-HT2A>
5

>  <5-HT2C>
5

>  <5-HT6>
7.91

>  <5-HT7>
5

>  <DOPAMINE D1>
5

>  <DOPAMINE D2>
5

>  <DOPAMINE D3>
5

>  <DOPAMINE D4>
5

$$$$
422042
  Marvin  02231216192D 0   1.00000     0.00000     0

 29 32  0  0  1  0  0  0  0  0999 V2000
   -4.6946   -2.2677    0.0000 Cl  0  0  0  0  0  0  0  0  0
   -4.6946   -1.4427    0.0000 C   0  0  0  0  0  0  0  0  0
   -3.9801   -1.0302    0.0000 C   0  0  0  0  0  0  0  0  0
   -3.9801   -0.2052    0.0000 C   0  0  0  0  0  0  0  0  0
   -3.2656    0.2073    0.0000 N   0  0  0  0  0  0  0  0  0
   -2.5512   -0.2052    0.0000 C   0  0  0  0  0  0  0  0  0
   -1.8367    0.2073    0.0000 O   0  0  0  0  0  0  0  0  0
   -2.5512   -1.0302    0.0000 C   0  0  0  0  0  0  0  0  0
   -1.7387   -0.8870    0.0000 C   0  0  0  0  0  0  0  0  0
   -3.2656   -1.4427    0.0000 C   0  0  0  0  0  0  0  0  0
   -3.2656   -2.2677    0.0000 O   0  0  0  0  0  0  0  0  0
   -2.2690   -1.8055    0.0000 C   0  0  0  0  0  0  0  0  0
   -1.4565   -1.9487    0.0000 C   0  0  0  0  0  0  0  0  0
   -1.1744   -2.7240    0.0000 C   0  0  0  0  0  0  0  0  0
   -0.3619   -2.8672    0.0000 O   0  0  0  0  0  0  0  0  0
   -0.0797   -3.6425    0.0000 C   0  0  0  0  0  0  0  0  0
    0.7327   -3.7857    0.0000 C   0  0  0  0  0  0  0  0  0
    1.2630   -3.1538    0.0000 C   0  0  0  0  0  0  0  0  0
    2.0755   -3.2970    0.0000 C   0  0  0  0  0  0  0  0  0
    2.3577   -4.0723    0.0000 C   0  0  0  0  0  0  0  0  0
    1.8274   -4.7042    0.0000 C   0  0  0  0  0  0  0  0  0
    1.0149   -4.5610    0.0000 C   0  0  0  0  0  0  0  0  0
   -1.7047   -3.3560    0.0000 C   0  0  0  0  0  0  0  0  0
   -2.5171   -3.2127    0.0000 C   0  0  0  0  0  0  0  0  0
   -2.7993   -2.4375    0.0000 C   0  0  0  0  0  0  0  0  0
   -4.6946    0.2073    0.0000 C   0  0  0  0  0  0  0  0  0
   -5.4091   -0.2052    0.0000 C   0  0  0  0  0  0  0  0  0
   -6.1235    0.2073    0.0000 Cl  0  0  0  0  0  0  0  0  0
   -5.4091   -1.0302    0.0000 C   0  0  0  0  0  0  0  0  0
  1  2  1  0  0  0  0
  2  3  4  0  0  0  0
  2 29  4  0  0  0  0
  3  4  4  0  0  0  0
  3 10  1  0  0  0  0
  4  5  1  0  0  0  0
  4 26  4  0  0  0  0
  5  6  1  0  0  0  0
  6  7  2  0  0  0  0
  6  8  1  0  0  0  0
  8  9  1  0  0  0  0
  8 10  1  0  0  0  0
  8 12  1  0  0  0  0
 10 11  2  0  0  0  0
 12 13  4  0  0  0  0
 12 25  4  0  0  0  0
 13 14  4  0  0  0  0
 14 15  1  0  0  0  0
 14 23  4  0  0  0  0
 15 16  1  0  0  0  0
 16 17  1  0  0  0  0
 17 18  4  0  0  0  0
 17 22  4  0  0  0  0
 18 19  4  0  0  0  0
 19 20  4  0  0  0  0
 20 21  4  0  0  0  0
 21 22  4  0  0  0  0
 23 24  4  0  0  0  0
 24 25  4  0  0  0  0
 26 27  4  0  0  0  0
 27 28  1  0  0  0  0
 27 29  4  0  0  0  0
M  END
>  <Name_Molregno>
422042

>  <5-HT1A>
6.77

>  <5-HT2A>
6.14

>  <5-HT2C>
5

>  <5-HT6>
7.08

>  <5-HT7>
6.22

>  <DOPAMINE D1>
6.92

>  <DOPAMINE D2>
5

>  <DOPAMINE D3>
5

>  <DOPAMINE D4>
5

$$$$
435456
  Marvin  02231216192D 0   1.00000     0.00000     0

 37 42  0  0  0  0  0  0  0  0999 V2000
    0.7502   -0.3182    0.0000 S   0  0  0  0  0  0  0  0  0
    0.4146   -1.0719    0.0000 C   0  0  0  0  0  0  0  0  0
    0.8995   -1.7394    0.0000 C   0  0  0  0  0  0  0  0  0
    0.5640   -2.4930    0.0000 C   0  0  0  0  0  0  0  0  0
   -0.2565   -2.5793    0.0000 N   0  0  0  0  0  0  0  0  0
   -0.5348   -3.3559    0.0000 C   0  0  0  0  0  0  0  0  0
   -1.3155   -3.6226    0.0000 C   0  0  0  0  0  0  0  0  0
   -2.0108   -3.1784    0.0000 C   0  0  0  0  0  0  0  0  0
   -2.0970   -2.3579    0.0000 C   0  0  0  0  0  0  0  0  0
   -1.5093   -1.7790    0.0000 C   0  0  0  0  0  0  0  0  0
   -0.6902   -1.8775    0.0000 C   0  0  0  0  0  0  0  0  0
   -2.8507   -2.0224    0.0000 C   0  0  0  0  0  0  0  0  0
   -3.5181   -2.5073    0.0000 C   0  0  0  0  0  0  0  0  0
   -4.3251   -2.3358    0.0000 O   0  0  0  0  0  0  0  0  0
   -4.7376   -3.0503    0.0000 C   0  0  0  0  0  0  0  0  0
   -4.1855   -3.6633    0.0000 N   0  0  0  0  0  0  0  0  0
   -3.4319   -3.3278    0.0000 C   0  0  0  0  0  0  0  0  0
   -2.6782   -3.6633    0.0000 C   0  0  0  0  0  0  0  0  0
   -5.5581   -3.1365    0.0000 C   0  0  0  0  0  0  0  0  0
   -5.8936   -3.8902    0.0000 C   0  0  0  0  0  0  0  0  0
    0.2653    0.3492    0.0000 C   0  0  0  0  0  0  0  0  0
   -0.5597    0.3492    0.0000 N   0  0  0  0  0  0  0  0  0
   -0.8147    1.1338    0.0000 N   0  0  0  0  0  0  0  0  0
   -0.1472    1.6187    0.0000 C   0  0  0  0  0  0  0  0  0
    0.5202    1.1338    0.0000 N   0  0  0  0  0  0  0  0  0
    1.3048    1.3888    0.0000 C   0  0  0  0  0  0  0  0  0
   -0.1472    2.4437    0.0000 C   0  0  0  0  0  0  0  0  0
    0.5672    2.8562    0.0000 C   0  0  0  0  0  0  0  0  0
    0.5672    3.6812    0.0000 C   0  0  0  0  0  0  0  0  0
    1.2817    4.0937    0.0000 N   0  0  0  0  0  0  0  0  0
    1.9962    3.6812    0.0000 C   0  0  0  0  0  0  0  0  0
    1.9962    2.8562    0.0000 C   0  0  0  0  0  0  0  0  0
    1.2817    2.4437    0.0000 C   0  0  0  0  0  0  0  0  0
    2.7106    4.0937    0.0000 C   0  0  0  0  0  0  0  0  0
   -0.1472    4.0937    0.0000 C   0  0  0  0  0  0  0  0  0
   -0.8617    3.6812    0.0000 C   0  0  0  0  0  0  0  0  0
   -0.8617    2.8562    0.0000 C   0  0  0  0  0  0  0  0  0
  1  2  1  0  0  0  0
  1 21  1  0  0  0  0
  2  3  1  0  0  0  0
  3  4  1  0  0  0  0
  4  5  1  0  0  0  0
  5  6  1  0  0  0  0
  5 11  1  0  0  0  0
  6  7  1  0  0  0  0
  7  8  1  0  0  0  0
  8  9  4  0  0  0  0
  8 18  4  0  0  0  0
  9 10  1  0  0  0  0
  9 12  4  0  0  0  0
 10 11  1  0  0  0  0
 12 13  4  0  0  0  0
 13 14  4  0  0  0  0
 13 17  4  0  0  0  0
 14 15  4  0  0  0  0
 15 16  4  0  0  0  0
 15 19  1  0  0  0  0
 16 17  4  0  0  0  0
 17 18  4  0  0  0  0
 19 20  1  0  0  0  0
 21 22  4  0  0  0  0
 21 25  4  0  0  0  0
 22 23  4  0  0  0  0
 23 24  4  0  0  0  0
 24 25  4  0  0  0  0
 24 27  1  0  0  0  0
 25 26  1  0  0  0  0
 27 28  4  0  0  0  0
 27 37  4  0  0  0  0
 28 29  4  0  0  0  0
 28 33  4  0  0  0  0
 29 30  4  0  0  0  0
 29 35  4  0  0  0  0
 30 31  4  0  0  0  0
 31 32  4  0  0  0  0
 31 34  1  0  0  0  0
 32 33  4  0  0  0  0
 35 36  4  0  0  0  0
 36 37  4  0  0  0  0
M  END
>  <Name_Molregno>
435456

>  <DOPAMINE D3>
7.9

$$$$
435457
  Marvin  02231216192D 0   1.00000     0.00000     0

 32 36  0  0  0  0  0  0  0  0999 V2000
    3.5721   -0.4833    0.0000 S   0  0  0  0  0  0  0  0  0
    3.1596    0.2311    0.0000 C   0  0  0  0  0  0  0  0  0
    2.3346    0.2311    0.0000 C   0  0  0  0  0  0  0  0  0
    1.9221    0.9456    0.0000 C   0  0  0  0  0  0  0  0  0
    1.0971    0.9456    0.0000 N   0  0  0  0  0  0  0  0  0
    0.7392    0.2023    0.0000 C   0  0  0  0  0  0  0  0  0
   -0.0652    0.0187    0.0000 C   0  0  0  0  0  0  0  0  0
   -0.7102    0.5331    0.0000 C   0  0  0  0  0  0  0  0  0
   -0.7102    1.3581    0.0000 C   0  0  0  0  0  0  0  0  0
   -0.0652    1.8725    0.0000 C   0  0  0  0  0  0  0  0  0
    0.7392    1.6889    0.0000 C   0  0  0  0  0  0  0  0  0
   -1.4246    1.7706    0.0000 C   0  0  0  0  0  0  0  0  0
   -2.1391    1.3581    0.0000 C   0  0  0  0  0  0  0  0  0
   -2.9237    1.6130    0.0000 O   0  0  0  0  0  0  0  0  0
   -3.4087    0.9456    0.0000 C   0  0  0  0  0  0  0  0  0
   -2.9237    0.2782    0.0000 N   0  0  0  0  0  0  0  0  0
   -2.1391    0.5331    0.0000 C   0  0  0  0  0  0  0  0  0
   -1.4246    0.1206    0.0000 C   0  0  0  0  0  0  0  0  0
   -4.2337    0.9456    0.0000 C   0  0  0  0  0  0  0  0  0
   -4.6462    0.2311    0.0000 C   0  0  0  0  0  0  0  0  0
    4.3971   -0.4833    0.0000 C   0  0  0  0  0  0  0  0  0
    4.8820    0.1841    0.0000 N   0  0  0  0  0  0  0  0  0
    5.6667   -0.0708    0.0000 N   0  0  0  0  0  0  0  0  0
    5.6667   -0.8958    0.0000 C   0  0  0  0  0  0  0  0  0
    4.8820   -1.1508    0.0000 N   0  0  0  0  0  0  0  0  0
    4.6271   -1.9354    0.0000 C   0  0  0  0  0  0  0  0  0
    6.3341   -1.3808    0.0000 C   0  0  0  0  0  0  0  0  0
    7.1187   -1.1258    0.0000 O   0  0  0  0  0  0  0  0  0
    7.6036   -1.7933    0.0000 C   0  0  0  0  0  0  0  0  0
    7.1187   -2.4607    0.0000 N   0  0  0  0  0  0  0  0  0
    6.3341   -2.2058    0.0000 C   0  0  0  0  0  0  0  0  0
    5.6667   -2.6907    0.0000 C   0  0  0  0  0  0  0  0  0
  1  2  1  0  0  0  0
  1 21  1  0  0  0  0
  2  3  1  0  0  0  0
  3  4  1  0  0  0  0
  4  5  1  0  0  0  0
  5  6  1  0  0  0  0
  5 11  1  0  0  0  0
  6  7  1  0  0  0  0
  7  8  1  0  0  0  0
  8  9  4  0  0  0  0
  8 18  4  0  0  0  0
  9 10  1  0  0  0  0
  9 12  4  0  0  0  0
 10 11  1  0  0  0  0
 12 13  4  0  0  0  0
 13 14  4  0  0  0  0
 13 17  4  0  0  0  0
 14 15  4  0  0  0  0
 15 16  4  0  0  0  0
 15 19  1  0  0  0  0
 16 17  4  0  0  0  0
 17 18  4  0  0  0  0
 19 20  1  0  0  0  0
 21 22  4  0  0  0  0
 21 25  4  0  0  0  0
 22 23  4  0  0  0  0
 23 24  4  0  0  0  0
 24 25  4  0  0  0  0
 24 27  1  0  0  0  0
 25 26  1  0  0  0  0
 27 28  4  0  0  0  0
 27 31  4  0  0  0  0
 28 29  4  0  0  0  0
 29 30  4  0  0  0  0
 30 31  4  0  0  0  0
 31 32  1  0  0  0  0
M  END
>  <Name_Molregno>
435457

>  <DOPAMINE D3>
7.5

$$$$
435495
  Marvin  02231216192D 0   1.00000     0.00000     0

 31 35  0  0  0  0  0  0  0  0999 V2000
   -0.1602   -0.2666    0.0000 S   0  0  0  0  0  0  0  0  0
   -0.9448   -0.5216    0.0000 C   0  0  0  0  0  0  0  0  0
   -0.9448   -1.3466    0.0000 C   0  0  0  0  0  0  0  0  0
   -0.1602   -1.6015    0.0000 N   0  0  0  0  0  0  0  0  0
    0.3248   -0.9341    0.0000 C   0  0  0  0  0  0  0  0  0
    1.1498   -0.9341    0.0000 C   0  0  0  0  0  0  0  0  0
   -1.6593   -1.7591    0.0000 C   0  0  0  0  0  0  0  0  0
   -2.3737   -1.3466    0.0000 C   0  0  0  0  0  0  0  0  0
   -3.0187   -1.8610    0.0000 C   0  0  0  0  0  0  0  0  0
   -3.8231   -1.6774    0.0000 C   0  0  0  0  0  0  0  0  0
   -4.1810   -0.9341    0.0000 N   0  0  0  0  0  0  0  0  0
   -3.8231   -0.1908    0.0000 C   0  0  0  0  0  0  0  0  0
   -3.0187   -0.0072    0.0000 C   0  0  0  0  0  0  0  0  0
   -2.3737   -0.5216    0.0000 C   0  0  0  0  0  0  0  0  0
   -1.6593   -0.1091    0.0000 C   0  0  0  0  0  0  0  0  0
   -5.0060   -0.9341    0.0000 C   0  0  0  0  0  0  0  0  0
   -5.4185   -0.2196    0.0000 C   0  0  0  0  0  0  0  0  0
   -6.2435   -0.2196    0.0000 C   0  0  0  0  0  0  0  0  0
   -6.6560    0.4949    0.0000 S   0  0  0  0  0  0  0  0  0
   -7.4810    0.4949    0.0000 C   0  0  0  0  0  0  0  0  0
   -7.9659   -0.1726    0.0000 N   0  0  0  0  0  0  0  0  0
   -8.7506    0.0824    0.0000 N   0  0  0  0  0  0  0  0  0
   -8.7506    0.9074    0.0000 C   0  0  0  0  0  0  0  0  0
   -7.9659    1.1623    0.0000 N   0  0  0  0  0  0  0  0  0
   -7.7110    1.9469    0.0000 C   0  0  0  0  0  0  0  0  0
   -9.4180    1.3923    0.0000 C   0  0  0  0  0  0  0  0  0
  -10.2026    1.1373    0.0000 O   0  0  0  0  0  0  0  0  0
  -10.6875    1.8048    0.0000 C   0  0  0  0  0  0  0  0  0
  -10.2026    2.4722    0.0000 N   0  0  0  0  0  0  0  0  0
   -9.4180    2.2173    0.0000 C   0  0  0  0  0  0  0  0  0
   -8.7506    2.7022    0.0000 C   0  0  0  0  0  0  0  0  0
  1  2  4  0  0  0  0
  1  5  4  0  0  0  0
  2  3  4  0  0  0  0
  2 15  4  0  0  0  0
  3  4  4  0  0  0  0
  3  7  4  0  0  0  0
  4  5  4  0  0  0  0
  5  6  1  0  0  0  0
  7  8  4  0  0  0  0
  8  9  1  0  0  0  0
  8 14  4  0  0  0  0
  9 10  1  0  0  0  0
 10 11  1  0  0  0  0
 11 12  1  0  0  0  0
 11 16  1  0  0  0  0
 12 13  1  0  0  0  0
 13 14  1  0  0  0  0
 14 15  4  0  0  0  0
 16 17  1  0  0  0  0
 17 18  1  0  0  0  0
 18 19  1  0  0  0  0
 19 20  1  0  0  0  0
 20 21  4  0  0  0  0
 20 24  4  0  0  0  0
 21 22  4  0  0  0  0
 22 23  4  0  0  0  0
 23 24  4  0  0  0  0
 23 26  1  0  0  0  0
 24 25  1  0  0  0  0
 26 27  4  0  0  0  0
 26 30  4  0  0  0  0
 27 28  4  0  0  0  0
 28 29  4  0  0  0  0
 29 30  4  0  0  0  0
 30 31  1  0  0  0  0
M  END
>  <Name_Molregno>
435495

>  <DOPAMINE D3>
7.1

$$$$
435496
  Marvin  02231216192D 0   1.00000     0.00000     0

 37 42  0  0  0  0  0  0  0  0999 V2000
   -8.9184   -4.2618    0.0000 S   0  0  0  0  0  0  0  0  0
   -8.1647   -3.9262    0.0000 C   0  0  0  0  0  0  0  0  0
   -8.2509   -3.1057    0.0000 C   0  0  0  0  0  0  0  0  0
   -9.0579   -2.9342    0.0000 N   0  0  0  0  0  0  0  0  0
   -9.4704   -3.6487    0.0000 C   0  0  0  0  0  0  0  0  0
  -10.2909   -3.7349    0.0000 C   0  0  0  0  0  0  0  0  0
  -10.6264   -4.4886    0.0000 C   0  0  0  0  0  0  0  0  0
   -7.5835   -2.6208    0.0000 C   0  0  0  0  0  0  0  0  0
   -6.8298   -2.9564    0.0000 C   0  0  0  0  0  0  0  0  0
   -6.2421   -2.3774    0.0000 C   0  0  0  0  0  0  0  0  0
   -5.4230   -2.4759    0.0000 C   0  0  0  0  0  0  0  0  0
   -4.9893   -3.1777    0.0000 N   0  0  0  0  0  0  0  0  0
   -5.2676   -3.9543    0.0000 C   0  0  0  0  0  0  0  0  0
   -6.0483   -4.2210    0.0000 C   0  0  0  0  0  0  0  0  0
   -6.7436   -3.7768    0.0000 C   0  0  0  0  0  0  0  0  0
   -7.4110   -4.2618    0.0000 C   0  0  0  0  0  0  0  0  0
   -4.1688   -3.0914    0.0000 C   0  0  0  0  0  0  0  0  0
   -3.8333   -2.3378    0.0000 C   0  0  0  0  0  0  0  0  0
   -4.3182   -1.6703    0.0000 C   0  0  0  0  0  0  0  0  0
   -3.9826   -0.9167    0.0000 S   0  0  0  0  0  0  0  0  0
   -4.4676   -0.2492    0.0000 C   0  0  0  0  0  0  0  0  0
   -5.2926   -0.2492    0.0000 N   0  0  0  0  0  0  0  0  0
   -5.5475    0.5354    0.0000 N   0  0  0  0  0  0  0  0  0
   -4.8801    1.0203    0.0000 C   0  0  0  0  0  0  0  0  0
   -4.2126    0.5354    0.0000 N   0  0  0  0  0  0  0  0  0
   -3.4280    0.7903    0.0000 C   0  0  0  0  0  0  0  0  0
   -4.8801    1.8453    0.0000 C   0  0  0  0  0  0  0  0  0
   -4.1656    2.2578    0.0000 C   0  0  0  0  0  0  0  0  0
   -4.1656    3.0828    0.0000 C   0  0  0  0  0  0  0  0  0
   -3.4511    3.4953    0.0000 N   0  0  0  0  0  0  0  0  0
   -2.7366    3.0828    0.0000 C   0  0  0  0  0  0  0  0  0
   -2.7366    2.2578    0.0000 C   0  0  0  0  0  0  0  0  0
   -3.4511    1.8453    0.0000 C   0  0  0  0  0  0  0  0  0
   -2.0222    3.4953    0.0000 C   0  0  0  0  0  0  0  0  0
   -4.8801    3.4953    0.0000 C   0  0  0  0  0  0  0  0  0
   -5.5945    3.0828    0.0000 C   0  0  0  0  0  0  0  0  0
   -5.5945    2.2578    0.0000 C   0  0  0  0  0  0  0  0  0
  1  2  4  0  0  0  0
  1  5  4  0  0  0  0
  2  3  4  0  0  0  0
  2 16  4  0  0  0  0
  3  4  4  0  0  0  0
  3  8  4  0  0  0  0
  4  5  4  0  0  0  0
  5  6  1  0  0  0  0
  6  7  1  0  0  0  0
  8  9  4  0  0  0  0
  9 10  1  0  0  0  0
  9 15  4  0  0  0  0
 10 11  1  0  0  0  0
 11 12  1  0  0  0  0
 12 13  1  0  0  0  0
 12 17  1  0  0  0  0
 13 14  1  0  0  0  0
 14 15  1  0  0  0  0
 15 16  4  0  0  0  0
 17 18  1  0  0  0  0
 18 19  1  0  0  0  0
 19 20  1  0  0  0  0
 20 21  1  0  0  0  0
 21 22  4  0  0  0  0
 21 25  4  0  0  0  0
 22 23  4  0  0  0  0
 23 24  4  0  0  0  0
 24 25  4  0  0  0  0
 24 27  1  0  0  0  0
 25 26  1  0  0  0  0
 27 28  4  0  0  0  0
 27 37  4  0  0  0  0
 28 29  4  0  0  0  0
 28 33  4  0  0  0  0
 29 30  4  0  0  0  0
 29 35  4  0  0  0  0
 30 31  4  0  0  0  0
 31 32  4  0  0  0  0
 31 34  1  0  0  0  0
 32 33  4  0  0  0  0
 35 36  4  0  0  0  0
 36 37  4  0  0  0  0
M  END
>  <Name_Molregno>
435496

>  <DOPAMINE D3>
8.6

$$$$
435497
  Marvin  02231216192D 0   1.00000     0.00000     0

 37 42  0  0  0  0  0  0  0  0999 V2000
    5.4519   -0.4212    0.0000 S   0  0  0  0  0  0  0  0  0
    5.0394    0.2933    0.0000 C   0  0  0  0  0  0  0  0  0
    4.2144    0.2933    0.0000 C   0  0  0  0  0  0  0  0  0
    3.8019    1.0078    0.0000 C   0  0  0  0  0  0  0  0  0
    2.9769    1.0078    0.0000 N   0  0  0  0  0  0  0  0  0
    2.6190    0.2645    0.0000 C   0  0  0  0  0  0  0  0  0
    1.8147    0.0809    0.0000 C   0  0  0  0  0  0  0  0  0
    1.1697    0.5953    0.0000 C   0  0  0  0  0  0  0  0  0
    1.1697    1.4203    0.0000 C   0  0  0  0  0  0  0  0  0
    1.8147    1.9347    0.0000 C   0  0  0  0  0  0  0  0  0
    2.6190    1.7511    0.0000 C   0  0  0  0  0  0  0  0  0
    0.4552    1.8328    0.0000 C   0  0  0  0  0  0  0  0  0
   -0.2593    1.4203    0.0000 C   0  0  0  0  0  0  0  0  0
   -1.0439    1.6752    0.0000 O   0  0  0  0  0  0  0  0  0
   -1.5288    1.0078    0.0000 C   0  0  0  0  0  0  0  0  0
   -1.0439    0.3403    0.0000 N   0  0  0  0  0  0  0  0  0
   -0.2593    0.5953    0.0000 C   0  0  0  0  0  0  0  0  0
    0.4552    0.1828    0.0000 C   0  0  0  0  0  0  0  0  0
   -2.3538    1.0078    0.0000 C   0  0  0  0  0  0  0  0  0
   -2.8388    0.3403    0.0000 N   0  0  0  0  0  0  0  0  0
   -3.6234    0.5953    0.0000 N   0  0  0  0  0  0  0  0  0
   -3.6234    1.4203    0.0000 C   0  0  0  0  0  0  0  0  0
   -2.8388    1.6752    0.0000 C   0  0  0  0  0  0  0  0  0
   -4.2908    1.9052    0.0000 C   0  0  0  0  0  0  0  0  0
   -2.5838   -0.4443    0.0000 C   0  0  0  0  0  0  0  0  0
    6.2769   -0.4212    0.0000 C   0  0  0  0  0  0  0  0  0
    6.7619    0.2463    0.0000 N   0  0  0  0  0  0  0  0  0
    7.5465   -0.0087    0.0000 N   0  0  0  0  0  0  0  0  0
    7.5465   -0.8337    0.0000 C   0  0  0  0  0  0  0  0  0
    6.7619   -1.0886    0.0000 N   0  0  0  0  0  0  0  0  0
    6.5069   -1.8732    0.0000 C   0  0  0  0  0  0  0  0  0
    8.2139   -1.3186    0.0000 C   0  0  0  0  0  0  0  0  0
    8.9985   -1.0636    0.0000 O   0  0  0  0  0  0  0  0  0
    9.4835   -1.7311    0.0000 C   0  0  0  0  0  0  0  0  0
    8.9985   -2.3985    0.0000 N   0  0  0  0  0  0  0  0  0
    8.2139   -2.1436    0.0000 C   0  0  0  0  0  0  0  0  0
    7.5465   -2.6285    0.0000 C   0  0  0  0  0  0  0  0  0
  1  2  1  0  0  0  0
  1 26  1  0  0  0  0
  2  3  1  0  0  0  0
  3  4  1  0  0  0  0
  4  5  1  0  0  0  0
  5  6  1  0  0  0  0
  5 11  1  0  0  0  0
  6  7  1  0  0  0  0
  7  8  1  0  0  0  0
  8  9  4  0  0  0  0
  8 18  4  0  0  0  0
  9 10  1  0  0  0  0
  9 12  4  0  0  0  0
 10 11  1  0  0  0  0
 12 13  4  0  0  0  0
 13 14  4  0  0  0  0
 13 17  4  0  0  0  0
 14 15  4  0  0  0  0
 15 16  4  0  0  0  0
 15 19  1  0  0  0  0
 16 17  4  0  0  0  0
 17 18  4  0  0  0  0
 19 20  4  0  0  0  0
 19 23  4  0  0  0  0
 20 21  4  0  0  0  0
 20 25  1  0  0  0  0
 21 22  4  0  0  0  0
 22 23  4  0  0  0  0
 22 24  1  0  0  0  0
 26 27  4  0  0  0  0
 26 30  4  0  0  0  0
 27 28  4  0  0  0  0
 28 29  4  0  0  0  0
 29 30  4  0  0  0  0
 29 32  1  0  0  0  0
 30 31  1  0  0  0  0
 32 33  4  0  0  0  0
 32 36  4  0  0  0  0
 33 34  4  0  0  0  0
 34 35  4  0  0  0  0
 35 36  4  0  0  0  0
 36 37  1  0  0  0  0
M  END
>  <Name_Molregno>
435497

>  <DOPAMINE D3>
8.4

$$$$
435498
  Marvin  02231216192D 0   1.00000     0.00000     0

 36 41  0  0  0  0  0  0  0  0999 V2000
   -3.2501   -5.7942    0.0000 S   0  0  0  0  0  0  0  0  0
   -3.9175   -5.3092    0.0000 C   0  0  0  0  0  0  0  0  0
   -4.5850   -5.7942    0.0000 C   0  0  0  0  0  0  0  0  0
   -4.3300   -6.5788    0.0000 N   0  0  0  0  0  0  0  0  0
   -3.5050   -6.5788    0.0000 C   0  0  0  0  0  0  0  0  0
   -3.0201   -7.2462    0.0000 C   0  0  0  0  0  0  0  0  0
   -5.3386   -5.4586    0.0000 C   0  0  0  0  0  0  0  0  0
   -5.4249   -4.6381    0.0000 C   0  0  0  0  0  0  0  0  0
   -6.2201   -4.4187    0.0000 C   0  0  0  0  0  0  0  0  0
   -6.5444   -3.6600    0.0000 C   0  0  0  0  0  0  0  0  0
   -6.1534   -2.9335    0.0000 N   0  0  0  0  0  0  0  0  0
   -5.3417   -2.7862    0.0000 C   0  0  0  0  0  0  0  0  0
   -4.7204   -3.3290    0.0000 C   0  0  0  0  0  0  0  0  0
   -4.7574   -4.1532    0.0000 C   0  0  0  0  0  0  0  0  0
   -4.0038   -4.4888    0.0000 C   0  0  0  0  0  0  0  0  0
   -6.6384   -2.2661    0.0000 C   0  0  0  0  0  0  0  0  0
   -6.3028   -1.5124    0.0000 C   0  0  0  0  0  0  0  0  0
   -6.7877   -0.8450    0.0000 C   0  0  0  0  0  0  0  0  0
   -6.4522   -0.0913    0.0000 S   0  0  0  0  0  0  0  0  0
   -6.9371    0.5761    0.0000 C   0  0  0  0  0  0  0  0  0
   -7.7621    0.5761    0.0000 N   0  0  0  0  0  0  0  0  0
   -8.0170    1.3607    0.0000 N   0  0  0  0  0  0  0  0  0
   -7.3496    1.8457    0.0000 C   0  0  0  0  0  0  0  0  0
   -6.6822    1.3607    0.0000 N   0  0  0  0  0  0  0  0  0
   -5.8975    1.6157    0.0000 C   0  0  0  0  0  0  0  0  0
   -7.3496    2.6707    0.0000 C   0  0  0  0  0  0  0  0  0
   -6.6351    3.0832    0.0000 C   0  0  0  0  0  0  0  0  0
   -6.6351    3.9082    0.0000 C   0  0  0  0  0  0  0  0  0
   -5.9207    4.3207    0.0000 N   0  0  0  0  0  0  0  0  0
   -5.2062    3.9082    0.0000 C   0  0  0  0  0  0  0  0  0
   -5.2062    3.0832    0.0000 C   0  0  0  0  0  0  0  0  0
   -5.9207    2.6707    0.0000 C   0  0  0  0  0  0  0  0  0
   -4.4917    4.3207    0.0000 C   0  0  0  0  0  0  0  0  0
   -7.3496    4.3207    0.0000 C   0  0  0  0  0  0  0  0  0
   -8.0641    3.9082    0.0000 C   0  0  0  0  0  0  0  0  0
   -8.0641    3.0832    0.0000 C   0  0  0  0  0  0  0  0  0
  1  2  4  0  0  0  0
  1  5  4  0  0  0  0
  2  3  4  0  0  0  0
  2 15  4  0  0  0  0
  3  4  4  0  0  0  0
  3  7  4  0  0  0  0
  4  5  4  0  0  0  0
  5  6  1  0  0  0  0
  7  8  4  0  0  0  0
  8  9  1  0  0  0  0
  8 14  4  0  0  0  0
  9 10  1  0  0  0  0
 10 11  1  0  0  0  0
 11 12  1  0  0  0  0
 11 16  1  0  0  0  0
 12 13  1  0  0  0  0
 13 14  1  0  0  0  0
 14 15  4  0  0  0  0
 16 17  1  0  0  0  0
 17 18  1  0  0  0  0
 18 19  1  0  0  0  0
 19 20  1  0  0  0  0
 20 21  4  0  0  0  0
 20 24  4  0  0  0  0
 21 22  4  0  0  0  0
 22 23  4  0  0  0  0
 23 24  4  0  0  0  0
 23 26  1  0  0  0  0
 24 25  1  0  0  0  0
 26 27  4  0  0  0  0
 26 36  4  0  0  0  0
 27 28  4  0  0  0  0
 27 32  4  0  0  0  0
 28 29  4  0  0  0  0
 28 34  4  0  0  0  0
 29 30  4  0  0  0  0
 30 31  4  0  0  0  0
 30 33  1  0  0  0  0
 31 32  4  0  0  0  0
 34 35  4  0  0  0  0
 35 36  4  0  0  0  0
M  END
>  <Name_Molregno>
435498

>  <DOPAMINE D3>
7.7

$$$$
435499
  Marvin  02231216192D 0   1.00000     0.00000     0

 35 40  0  0  0  0  0  0  0  0999 V2000
   -1.0920    0.5105    0.0000 S   0  0  0  0  0  0  0  0  0
   -1.4276   -0.2431    0.0000 C   0  0  0  0  0  0  0  0  0
   -0.9426   -0.9106    0.0000 C   0  0  0  0  0  0  0  0  0
   -1.2782   -1.6643    0.0000 C   0  0  0  0  0  0  0  0  0
   -0.7933   -2.3317    0.0000 N   0  0  0  0  0  0  0  0  0
    0.0185   -2.1844    0.0000 C   0  0  0  0  0  0  0  0  0
    0.6397   -2.7272    0.0000 C   0  0  0  0  0  0  0  0  0
    0.6027   -3.5514    0.0000 C   0  0  0  0  0  0  0  0  0
   -0.0647   -4.0363    0.0000 C   0  0  0  0  0  0  0  0  0
   -0.8600   -3.8168    0.0000 C   0  0  0  0  0  0  0  0  0
   -1.1842   -3.0582    0.0000 C   0  0  0  0  0  0  0  0  0
    0.0215   -4.8568    0.0000 C   0  0  0  0  0  0  0  0  0
    0.7752   -5.1923    0.0000 C   0  0  0  0  0  0  0  0  0
    1.0301   -5.9769    0.0000 O   0  0  0  0  0  0  0  0  0
    1.8551   -5.9769    0.0000 C   0  0  0  0  0  0  0  0  0
    2.1101   -5.1923    0.0000 N   0  0  0  0  0  0  0  0  0
    1.4426   -4.7074    0.0000 C   0  0  0  0  0  0  0  0  0
    1.3564   -3.8869    0.0000 C   0  0  0  0  0  0  0  0  0
   -1.5769    1.1780    0.0000 C   0  0  0  0  0  0  0  0  0
   -2.4019    1.1780    0.0000 N   0  0  0  0  0  0  0  0  0
   -2.6569    1.9626    0.0000 N   0  0  0  0  0  0  0  0  0
   -1.9894    2.4475    0.0000 C   0  0  0  0  0  0  0  0  0
   -1.3220    1.9626    0.0000 N   0  0  0  0  0  0  0  0  0
   -0.5374    2.2175    0.0000 C   0  0  0  0  0  0  0  0  0
   -1.9894    3.2725    0.0000 C   0  0  0  0  0  0  0  0  0
   -1.2750    3.6850    0.0000 C   0  0  0  0  0  0  0  0  0
   -1.2750    4.5100    0.0000 C   0  0  0  0  0  0  0  0  0
   -0.5605    4.9225    0.0000 N   0  0  0  0  0  0  0  0  0
    0.1540    4.5100    0.0000 C   0  0  0  0  0  0  0  0  0
    0.1540    3.6850    0.0000 C   0  0  0  0  0  0  0  0  0
   -0.5605    3.2725    0.0000 C   0  0  0  0  0  0  0  0  0
    0.8685    4.9225    0.0000 C   0  0  0  0  0  0  0  0  0
   -1.9894    4.9225    0.0000 C   0  0  0  0  0  0  0  0  0
   -2.7039    4.5100    0.0000 C   0  0  0  0  0  0  0  0  0
   -2.7039    3.6850    0.0000 C   0  0  0  0  0  0  0  0  0
  1  2  1  0  0  0  0
  1 19  1  0  0  0  0
  2  3  1  0  0  0  0
  3  4  1  0  0  0  0
  4  5  1  0  0  0  0
  5  6  1  0  0  0  0
  5 11  1  0  0  0  0
  6  7  1  0  0  0  0
  7  8  1  0  0  0  0
  8  9  4  0  0  0  0
  8 18  4  0  0  0  0
  9 10  1  0  0  0  0
  9 12  4  0  0  0  0
 10 11  1  0  0  0  0
 12 13  4  0  0  0  0
 13 14  4  0  0  0  0
 13 17  4  0  0  0  0
 14 15  4  0  0  0  0
 15 16  4  0  0  0  0
 16 17  4  0  0  0  0
 17 18  4  0  0  0  0
 19 20  4  0  0  0  0
 19 23  4  0  0  0  0
 20 21  4  0  0  0  0
 21 22  4  0  0  0  0
 22 23  4  0  0  0  0
 22 25  1  0  0  0  0
 23 24  1  0  0  0  0
 25 26  4  0  0  0  0
 25 35  4  0  0  0  0
 26 27  4  0  0  0  0
 26 31  4  0  0  0  0
 27 28  4  0  0  0  0
 27 33  4  0  0  0  0
 28 29  4  0  0  0  0
 29 30  4  0  0  0  0
 29 32  1  0  0  0  0
 30 31  4  0  0  0  0
 33 34  4  0  0  0  0
 34 35  4  0  0  0  0
M  END
>  <Name_Molregno>
435499

>  <DOPAMINE D3>
7.3

$$$$
435500
  Marvin  02231216192D 0   1.00000     0.00000     0

 42 48  0  0  0  0  0  0  0  0999 V2000
    0.7449    1.5612    0.0000 S   0  0  0  0  0  0  0  0  0
    0.4093    0.8076    0.0000 C   0  0  0  0  0  0  0  0  0
    0.8943    0.1401    0.0000 C   0  0  0  0  0  0  0  0  0
    0.5587   -0.6135    0.0000 C   0  0  0  0  0  0  0  0  0
    1.0436   -1.2810    0.0000 N   0  0  0  0  0  0  0  0  0
    1.8554   -1.1337    0.0000 C   0  0  0  0  0  0  0  0  0
    2.4766   -1.6765    0.0000 C   0  0  0  0  0  0  0  0  0
    2.4396   -2.5006    0.0000 C   0  0  0  0  0  0  0  0  0
    1.7722   -2.9856    0.0000 C   0  0  0  0  0  0  0  0  0
    0.9769   -2.7661    0.0000 C   0  0  0  0  0  0  0  0  0
    0.6527   -2.0075    0.0000 C   0  0  0  0  0  0  0  0  0
    1.8584   -3.8061    0.0000 C   0  0  0  0  0  0  0  0  0
    2.6121   -4.1416    0.0000 C   0  0  0  0  0  0  0  0  0
    2.8670   -4.9262    0.0000 O   0  0  0  0  0  0  0  0  0
    3.6920   -4.9262    0.0000 C   0  0  0  0  0  0  0  0  0
    3.9470   -4.1416    0.0000 N   0  0  0  0  0  0  0  0  0
    3.2795   -3.6567    0.0000 C   0  0  0  0  0  0  0  0  0
    3.1933   -2.8362    0.0000 C   0  0  0  0  0  0  0  0  0
    4.1770   -5.5937    0.0000 C   0  0  0  0  0  0  0  0  0
    5.0020   -5.5937    0.0000 N   0  0  0  0  0  0  0  0  0
    5.2569   -6.3783    0.0000 N   0  0  0  0  0  0  0  0  0
    4.5895   -6.8632    0.0000 C   0  0  0  0  0  0  0  0  0
    3.9220   -6.3783    0.0000 C   0  0  0  0  0  0  0  0  0
    4.5895   -7.6882    0.0000 C   0  0  0  0  0  0  0  0  0
    5.4869   -4.9262    0.0000 C   0  0  0  0  0  0  0  0  0
    0.2600    2.2287    0.0000 C   0  0  0  0  0  0  0  0  0
   -0.5650    2.2287    0.0000 N   0  0  0  0  0  0  0  0  0
   -0.8200    3.0133    0.0000 N   0  0  0  0  0  0  0  0  0
   -0.1525    3.4982    0.0000 C   0  0  0  0  0  0  0  0  0
    0.5149    3.0133    0.0000 N   0  0  0  0  0  0  0  0  0
    1.2995    3.2682    0.0000 C   0  0  0  0  0  0  0  0  0
   -0.1525    4.3232    0.0000 C   0  0  0  0  0  0  0  0  0
    0.5619    4.7357    0.0000 C   0  0  0  0  0  0  0  0  0
    0.5619    5.5607    0.0000 C   0  0  0  0  0  0  0  0  0
    1.2764    5.9732    0.0000 N   0  0  0  0  0  0  0  0  0
    1.9909    5.5607    0.0000 C   0  0  0  0  0  0  0  0  0
    1.9909    4.7357    0.0000 C   0  0  0  0  0  0  0  0  0
    1.2764    4.3232    0.0000 C   0  0  0  0  0  0  0  0  0
    2.7053    5.9732    0.0000 C   0  0  0  0  0  0  0  0  0
   -0.1525    5.9732    0.0000 C   0  0  0  0  0  0  0  0  0
   -0.8670    5.5607    0.0000 C   0  0  0  0  0  0  0  0  0
   -0.8670    4.7357    0.0000 C   0  0  0  0  0  0  0  0  0
  1  2  1  0  0  0  0
  1 26  1  0  0  0  0
  2  3  1  0  0  0  0
  3  4  1  0  0  0  0
  4  5  1  0  0  0  0
  5  6  1  0  0  0  0
  5 11  1  0  0  0  0
  6  7  1  0  0  0  0
  7  8  1  0  0  0  0
  8  9  4  0  0  0  0
  8 18  4  0  0  0  0
  9 10  1  0  0  0  0
  9 12  4  0  0  0  0
 10 11  1  0  0  0  0
 12 13  4  0  0  0  0
 13 14  4  0  0  0  0
 13 17  4  0  0  0  0
 14 15  4  0  0  0  0
 15 16  4  0  0  0  0
 15 19  1  0  0  0  0
 16 17  4  0  0  0  0
 17 18  4  0  0  0  0
 19 20  4  0  0  0  0
 19 23  4  0  0  0  0
 20 21  4  0  0  0  0
 20 25  1  0  0  0  0
 21 22  4  0  0  0  0
 22 23  4  0  0  0  0
 22 24  1  0  0  0  0
 26 27  4  0  0  0  0
 26 30  4  0  0  0  0
 27 28  4  0  0  0  0
 28 29  4  0  0  0  0
 29 30  4  0  0  0  0
 29 32  1  0  0  0  0
 30 31  1  0  0  0  0
 32 33  4  0  0  0  0
 32 42  4  0  0  0  0
 33 34  4  0  0  0  0
 33 38  4  0  0  0  0
 34 35  4  0  0  0  0
 34 40  4  0  0  0  0
 35 36  4  0  0  0  0
 36 37  4  0  0  0  0
 36 39  1  0  0  0  0
 37 38  4  0  0  0  0
 40 41  4  0  0  0  0
 41 42  4  0  0  0  0
M  END
>  <Name_Molregno>
435500

>  <DOPAMINE D3>
8.1

$$$$
435543
  Marvin  02231216192D 0   1.00000     0.00000     0

 37 41  0  0  0  0  0  0  0  0999 V2000
    5.3664   -0.4310    0.0000 S   0  0  0  0  0  0  0  0  0
    4.9539    0.2835    0.0000 C   0  0  0  0  0  0  0  0  0
    4.1289    0.2835    0.0000 C   0  0  0  0  0  0  0  0  0
    3.7164    0.9979    0.0000 C   0  0  0  0  0  0  0  0  0
    2.8914    0.9979    0.0000 N   0  0  0  0  0  0  0  0  0
    2.5335    0.2546    0.0000 C   0  0  0  0  0  0  0  0  0
    1.7292    0.0711    0.0000 C   0  0  0  0  0  0  0  0  0
    1.0842    0.5854    0.0000 C   0  0  0  0  0  0  0  0  0
    1.0842    1.4104    0.0000 C   0  0  0  0  0  0  0  0  0
    1.7292    1.9248    0.0000 C   0  0  0  0  0  0  0  0  0
    2.5335    1.7412    0.0000 C   0  0  0  0  0  0  0  0  0
    0.3697    1.8229    0.0000 C   0  0  0  0  0  0  0  0  0
   -0.3448    1.4104    0.0000 C   0  0  0  0  0  0  0  0  0
   -1.1294    1.6654    0.0000 O   0  0  0  0  0  0  0  0  0
   -1.6143    0.9979    0.0000 C   0  0  0  0  0  0  0  0  0
   -1.1294    0.3305    0.0000 N   0  0  0  0  0  0  0  0  0
   -0.3448    0.5854    0.0000 C   0  0  0  0  0  0  0  0  0
    0.3697    0.1729    0.0000 C   0  0  0  0  0  0  0  0  0
   -2.4393    0.9979    0.0000 C   0  0  0  0  0  0  0  0  0
   -2.4393    0.1729    0.0000 F   0  0  0  0  0  0  0  0  0
   -2.4393    1.8229    0.0000 F   0  0  0  0  0  0  0  0  0
   -3.2643    0.9979    0.0000 C   0  0  0  0  0  0  0  0  0
   -4.0893    0.9979    0.0000 F   0  0  0  0  0  0  0  0  0
   -3.2643    0.1729    0.0000 F   0  0  0  0  0  0  0  0  0
   -3.2643    1.8229    0.0000 F   0  0  0  0  0  0  0  0  0
    6.1914   -0.4310    0.0000 C   0  0  0  0  0  0  0  0  0
    6.6764    0.2364    0.0000 N   0  0  0  0  0  0  0  0  0
    7.4610   -0.0185    0.0000 N   0  0  0  0  0  0  0  0  0
    7.4610   -0.8435    0.0000 C   0  0  0  0  0  0  0  0  0
    6.6764   -1.0984    0.0000 N   0  0  0  0  0  0  0  0  0
    6.4214   -1.8831    0.0000 C   0  0  0  0  0  0  0  0  0
    8.1284   -1.3284    0.0000 C   0  0  0  0  0  0  0  0  0
    8.9130   -1.0735    0.0000 O   0  0  0  0  0  0  0  0  0
    9.3980   -1.7409    0.0000 C   0  0  0  0  0  0  0  0  0
    8.9130   -2.4084    0.0000 N   0  0  0  0  0  0  0  0  0
    8.1284   -2.1534    0.0000 C   0  0  0  0  0  0  0  0  0
    7.4610   -2.6384    0.0000 C   0  0  0  0  0  0  0  0  0
  1  2  1  0  0  0  0
  1 26  1  0  0  0  0
  2  3  1  0  0  0  0
  3  4  1  0  0  0  0
  4  5  1  0  0  0  0
  5  6  1  0  0  0  0
  5 11  1  0  0  0  0
  6  7  1  0  0  0  0
  7  8  1  0  0  0  0
  8  9  4  0  0  0  0
  8 18  4  0  0  0  0
  9 10  1  0  0  0  0
  9 12  4  0  0  0  0
 10 11  1  0  0  0  0
 12 13  4  0  0  0  0
 13 14  4  0  0  0  0
 13 17  4  0  0  0  0
 14 15  4  0  0  0  0
 15 16  4  0  0  0  0
 15 19  1  0  0  0  0
 16 17  4  0  0  0  0
 17 18  4  0  0  0  0
 19 20  1  0  0  0  0
 19 21  1  0  0  0  0
 19 22  1  0  0  0  0
 22 23  1  0  0  0  0
 22 24  1  0  0  0  0
 22 25  1  0  0  0  0
 26 27  4  0  0  0  0
 26 30  4  0  0  0  0
 27 28  4  0  0  0  0
 28 29  4  0  0  0  0
 29 30  4  0  0  0  0
 29 32  1  0  0  0  0
 30 31  1  0  0  0  0
 32 33  4  0  0  0  0
 32 36  4  0  0  0  0
 33 34  4  0  0  0  0
 34 35  4  0  0  0  0
 35 36  4  0  0  0  0
 36 37  1  0  0  0  0
M  END
>  <Name_Molregno>
435543

>  <DOPAMINE D3>
8.5

$$$$
435545
  Marvin  02231216192D 0   1.00000     0.00000     0

 42 47  0  0  0  0  0  0  0  0999 V2000
    0.7396    1.5459    0.0000 S   0  0  0  0  0  0  0  0  0
    0.4041    0.7922    0.0000 C   0  0  0  0  0  0  0  0  0
    0.8890    0.1248    0.0000 C   0  0  0  0  0  0  0  0  0
    0.5534   -0.6289    0.0000 C   0  0  0  0  0  0  0  0  0
    1.0383   -1.2963    0.0000 N   0  0  0  0  0  0  0  0  0
    1.8501   -1.1490    0.0000 C   0  0  0  0  0  0  0  0  0
    2.4714   -1.6918    0.0000 C   0  0  0  0  0  0  0  0  0
    2.4344   -2.5160    0.0000 C   0  0  0  0  0  0  0  0  0
    1.7669   -3.0009    0.0000 C   0  0  0  0  0  0  0  0  0
    0.9716   -2.7814    0.0000 C   0  0  0  0  0  0  0  0  0
    0.6474   -2.0228    0.0000 C   0  0  0  0  0  0  0  0  0
    1.8532   -3.8214    0.0000 C   0  0  0  0  0  0  0  0  0
    2.6068   -4.1569    0.0000 C   0  0  0  0  0  0  0  0  0
    2.8618   -4.9416    0.0000 O   0  0  0  0  0  0  0  0  0
    3.6868   -4.9416    0.0000 C   0  0  0  0  0  0  0  0  0
    3.9417   -4.1569    0.0000 N   0  0  0  0  0  0  0  0  0
    3.2743   -3.6720    0.0000 C   0  0  0  0  0  0  0  0  0
    3.1880   -2.8515    0.0000 C   0  0  0  0  0  0  0  0  0
    4.1717   -5.6090    0.0000 C   0  0  0  0  0  0  0  0  0
    4.8391   -5.1241    0.0000 F   0  0  0  0  0  0  0  0  0
    3.5042   -6.0939    0.0000 F   0  0  0  0  0  0  0  0  0
    4.6566   -6.2764    0.0000 C   0  0  0  0  0  0  0  0  0
    5.1415   -6.9439    0.0000 F   0  0  0  0  0  0  0  0  0
    5.3240   -5.7915    0.0000 F   0  0  0  0  0  0  0  0  0
    3.9892   -6.7614    0.0000 F   0  0  0  0  0  0  0  0  0
    0.2547    2.2134    0.0000 C   0  0  0  0  0  0  0  0  0
   -0.5703    2.2134    0.0000 N   0  0  0  0  0  0  0  0  0
   -0.8253    2.9980    0.0000 N   0  0  0  0  0  0  0  0  0
   -0.1578    3.4829    0.0000 C   0  0  0  0  0  0  0  0  0
    0.5096    2.9980    0.0000 N   0  0  0  0  0  0  0  0  0
    1.2942    3.2529    0.0000 C   0  0  0  0  0  0  0  0  0
   -0.1578    4.3079    0.0000 C   0  0  0  0  0  0  0  0  0
    0.5567    4.7204    0.0000 C   0  0  0  0  0  0  0  0  0
    0.5567    5.5454    0.0000 C   0  0  0  0  0  0  0  0  0
    1.2711    5.9579    0.0000 N   0  0  0  0  0  0  0  0  0
    1.9856    5.5454    0.0000 C   0  0  0  0  0  0  0  0  0
    1.9856    4.7204    0.0000 C   0  0  0  0  0  0  0  0  0
    1.2711    4.3079    0.0000 C   0  0  0  0  0  0  0  0  0
    2.7001    5.9579    0.0000 C   0  0  0  0  0  0  0  0  0
   -0.1578    5.9579    0.0000 C   0  0  0  0  0  0  0  0  0
   -0.8723    5.5454    0.0000 C   0  0  0  0  0  0  0  0  0
   -0.8723    4.7204    0.0000 C   0  0  0  0  0  0  0  0  0
  1  2  1  0  0  0  0
  1 26  1  0  0  0  0
  2  3  1  0  0  0  0
  3  4  1  0  0  0  0
  4  5  1  0  0  0  0
  5  6  1  0  0  0  0
  5 11  1  0  0  0  0
  6  7  1  0  0  0  0
  7  8  1  0  0  0  0
  8  9  4  0  0  0  0
  8 18  4  0  0  0  0
  9 10  1  0  0  0  0
  9 12  4  0  0  0  0
 10 11  1  0  0  0  0
 12 13  4  0  0  0  0
 13 14  4  0  0  0  0
 13 17  4  0  0  0  0
 14 15  4  0  0  0  0
 15 16  4  0  0  0  0
 15 19  1  0  0  0  0
 16 17  4  0  0  0  0
 17 18  4  0  0  0  0
 19 20  1  0  0  0  0
 19 21  1  0  0  0  0
 19 22  1  0  0  0  0
 22 23  1  0  0  0  0
 22 24  1  0  0  0  0
 22 25  1  0  0  0  0
 26 27  4  0  0  0  0
 26 30  4  0  0  0  0
 27 28  4  0  0  0  0
 28 29  4  0  0  0  0
 29 30  4  0  0  0  0
 29 32  1  0  0  0  0
 30 31  1  0  0  0  0
 32 33  4  0  0  0  0
 32 42  4  0  0  0  0
 33 34  4  0  0  0  0
 33 38  4  0  0  0  0
 34 35  4  0  0  0  0
 34 40  4  0  0  0  0
 35 36  4  0  0  0  0
 36 37  4  0  0  0  0
 36 39  1  0  0  0  0
 37 38  4  0  0  0  0
 40 41  4  0  0  0  0
 41 42  4  0  0  0  0
M  END
>  <Name_Molregno>
435545

>  <DOPAMINE D3>
8.3

$$$$
435582
  Marvin  02231216192D 0   1.00000     0.00000     0

 39 44  0  0  1  0  0  0  0  0999 V2000
   -4.7042   -5.6713    0.0000 Br  0  0  0  0  0  0  0  0  0
   -4.0368   -5.1864    0.0000 C   0  0  0  0  0  0  0  0  0
   -4.1230   -4.3659    0.0000 C   0  0  0  0  0  0  0  0  0
   -4.9183   -4.1464    0.0000 C   0  0  0  0  0  0  0  0  0
   -5.2426   -3.3878    0.0000 C   0  0  0  0  0  0  0  0  0
   -4.8516   -2.6613    0.0000 N   0  0  0  0  0  0  0  0  0
   -4.0399   -2.5140    0.0000 C   0  0  0  0  0  0  0  0  0
   -3.4186   -3.0568    0.0000 C   0  0  0  0  0  0  0  0  0
   -3.4556   -3.8810    0.0000 C   0  0  0  0  0  0  0  0  0
   -2.7019   -4.2165    0.0000 C   0  0  0  0  0  0  0  0  0
   -2.6157   -5.0370    0.0000 C   0  0  0  0  0  0  0  0  0
   -1.9483   -5.5219    0.0000 N   0  0  0  0  0  0  0  0  0
   -2.2032   -6.3066    0.0000 C   0  0  0  0  0  0  0  0  0
   -3.0282   -6.3066    0.0000 O   0  0  0  0  0  0  0  0  0
   -3.2831   -5.5219    0.0000 C   0  0  0  0  0  0  0  0  0
   -1.7183   -6.9740    0.0000 C   0  0  0  0  0  0  0  0  0
   -2.0538   -7.7277    0.0000 C   0  0  0  0  0  0  0  0  0
   -5.3365   -1.9939    0.0000 C   0  0  0  0  0  0  0  0  0
   -5.0010   -1.2402    0.0000 C   0  0  0  0  0  0  0  0  0
   -5.4859   -0.5728    0.0000 C   0  0  0  0  0  0  0  0  0
   -5.1503    0.1809    0.0000 S   0  0  0  0  0  0  0  0  0
   -5.6353    0.8484    0.0000 C   0  0  0  0  0  0  0  0  0
   -6.4603    0.8484    0.0000 N   0  0  0  0  0  0  0  0  0
   -6.7152    1.6330    0.0000 N   0  0  0  0  0  0  0  0  0
   -6.0478    2.1179    0.0000 C   0  0  0  0  0  0  0  0  0
   -5.3803    1.6330    0.0000 N   0  0  0  0  0  0  0  0  0
   -4.5957    1.8879    0.0000 C   0  0  0  0  0  0  0  0  0
   -6.0478    2.9429    0.0000 C   0  0  0  0  0  0  0  0  0
   -5.3333    3.3554    0.0000 C   0  0  0  0  0  0  0  0  0
   -5.3333    4.1804    0.0000 C   0  0  0  0  0  0  0  0  0
   -4.6188    4.5929    0.0000 N   0  0  0  0  0  0  0  0  0
   -3.9044    4.1804    0.0000 C   0  0  0  0  0  0  0  0  0
   -3.9044    3.3554    0.0000 C   0  0  0  0  0  0  0  0  0
   -4.6188    2.9429    0.0000 C   0  0  0  0  0  0  0  0  0
   -3.1899    4.5929    0.0000 C   0  0  0  0  0  0  0  0  0
   -6.0478    4.5929    0.0000 C   0  0  0  0  0  0  0  0  0
   -6.7622    4.1804    0.0000 C   0  0  0  0  0  0  0  0  0
   -6.7622    3.3554    0.0000 C   0  0  0  0  0  0  0  0  0
   -6.1570   -2.0801    0.0000 C   0  0  0  0  0  0  0  0  0
  1  2  1  0  0  0  0
  2  3  4  0  0  0  0
  2 15  4  0  0  0  0
  3  4  1  0  0  0  0
  3  9  4  0  0  0  0
  4  5  1  0  0  0  0
  5  6  1  0  0  0  0
  6  7  1  0  0  0  0
  6 18  1  0  0  0  0
  7  8  1  0  0  0  0
  8  9  1  0  0  0  0
  9 10  4  0  0  0  0
 10 11  4  0  0  0  0
 11 12  4  0  0  0  0
 11 15  4  0  0  0  0
 12 13  4  0  0  0  0
 13 14  4  0  0  0  0
 13 16  1  0  0  0  0
 14 15  4  0  0  0  0
 16 17  1  0  0  0  0
 18 19  1  0  0  0  0
 18 39  1  0  0  0  0
 19 20  1  0  0  0  0
 20 21  1  0  0  0  0
 21 22  1  0  0  0  0
 22 23  4  0  0  0  0
 22 26  4  0  0  0  0
 23 24  4  0  0  0  0
 24 25  4  0  0  0  0
 25 26  4  0  0  0  0
 25 28  1  0  0  0  0
 26 27  1  0  0  0  0
 28 29  4  0  0  0  0
 28 38  4  0  0  0  0
 29 30  4  0  0  0  0
 29 34  4  0  0  0  0
 30 31  4  0  0  0  0
 30 36  4  0  0  0  0
 31 32  4  0  0  0  0
 32 33  4  0  0  0  0
 32 35  1  0  0  0  0
 33 34  4  0  0  0  0
 36 37  4  0  0  0  0
 37 38  4  0  0  0  0
M  END
>  <Name_Molregno>
435582

>  <DOPAMINE D3>
7

$$$$
435583
  Marvin  02231216192D 0   1.00000     0.00000     0

 41 46  0  0  1  0  0  0  0  0999 V2000
   -4.6449   -4.5679    0.0000 Br  0  0  0  0  0  0  0  0  0
   -3.9775   -4.0830    0.0000 C   0  0  0  0  0  0  0  0  0
   -4.0637   -3.2625    0.0000 C   0  0  0  0  0  0  0  0  0
   -4.8590   -3.0430    0.0000 C   0  0  0  0  0  0  0  0  0
   -5.1832   -2.2844    0.0000 C   0  0  0  0  0  0  0  0  0
   -4.7923   -1.5579    0.0000 N   0  0  0  0  0  0  0  0  0
   -3.9805   -1.4106    0.0000 C   0  0  0  0  0  0  0  0  0
   -3.3593   -1.9534    0.0000 C   0  0  0  0  0  0  0  0  0
   -3.3963   -2.7776    0.0000 C   0  0  0  0  0  0  0  0  0
   -2.6426   -3.1131    0.0000 C   0  0  0  0  0  0  0  0  0
   -2.5564   -3.9336    0.0000 C   0  0  0  0  0  0  0  0  0
   -1.8889   -4.4185    0.0000 N   0  0  0  0  0  0  0  0  0
   -2.1439   -5.2031    0.0000 C   0  0  0  0  0  0  0  0  0
   -2.9689   -5.2031    0.0000 O   0  0  0  0  0  0  0  0  0
   -3.2238   -4.4185    0.0000 C   0  0  0  0  0  0  0  0  0
   -1.6589   -5.8706    0.0000 C   0  0  0  0  0  0  0  0  0
   -1.1740   -6.5380    0.0000 F   0  0  0  0  0  0  0  0  0
   -0.9915   -5.3857    0.0000 F   0  0  0  0  0  0  0  0  0
   -2.3264   -6.3555    0.0000 F   0  0  0  0  0  0  0  0  0
   -5.2772   -0.8905    0.0000 C   0  0  0  0  0  0  0  0  0
   -4.9416   -0.1368    0.0000 C   0  0  0  0  0  0  0  0  0
   -5.4266    0.5307    0.0000 C   0  0  0  0  0  0  0  0  0
   -5.0910    1.2843    0.0000 S   0  0  0  0  0  0  0  0  0
   -5.5759    1.9518    0.0000 C   0  0  0  0  0  0  0  0  0
   -6.4009    1.9518    0.0000 N   0  0  0  0  0  0  0  0  0
   -6.6559    2.7364    0.0000 N   0  0  0  0  0  0  0  0  0
   -5.9884    3.2213    0.0000 C   0  0  0  0  0  0  0  0  0
   -5.3210    2.7364    0.0000 N   0  0  0  0  0  0  0  0  0
   -4.5364    2.9913    0.0000 C   0  0  0  0  0  0  0  0  0
   -5.9884    4.0463    0.0000 C   0  0  0  0  0  0  0  0  0
   -5.2740    4.4588    0.0000 C   0  0  0  0  0  0  0  0  0
   -5.2740    5.2838    0.0000 C   0  0  0  0  0  0  0  0  0
   -4.5595    5.6963    0.0000 N   0  0  0  0  0  0  0  0  0
   -3.8450    5.2838    0.0000 C   0  0  0  0  0  0  0  0  0
   -3.8450    4.4588    0.0000 C   0  0  0  0  0  0  0  0  0
   -4.5595    4.0463    0.0000 C   0  0  0  0  0  0  0  0  0
   -3.1305    5.6963    0.0000 C   0  0  0  0  0  0  0  0  0
   -5.9884    5.6963    0.0000 C   0  0  0  0  0  0  0  0  0
   -6.7029    5.2838    0.0000 C   0  0  0  0  0  0  0  0  0
   -6.7029    4.4588    0.0000 C   0  0  0  0  0  0  0  0  0
   -6.0977   -0.9767    0.0000 C   0  0  0  0  0  0  0  0  0
  1  2  1  0  0  0  0
  2  3  4  0  0  0  0
  2 15  4  0  0  0  0
  3  4  1  0  0  0  0
  3  9  4  0  0  0  0
  4  5  1  0  0  0  0
  5  6  1  0  0  0  0
  6  7  1  0  0  0  0
  6 20  1  0  0  0  0
  7  8  1  0  0  0  0
  8  9  1  0  0  0  0
  9 10  4  0  0  0  0
 10 11  4  0  0  0  0
 11 12  4  0  0  0  0
 11 15  4  0  0  0  0
 12 13  4  0  0  0  0
 13 14  4  0  0  0  0
 13 16  1  0  0  0  0
 14 15  4  0  0  0  0
 16 17  1  0  0  0  0
 16 18  1  0  0  0  0
 16 19  1  0  0  0  0
 20 21  1  0  0  0  0
 20 41  1  0  0  0  0
 21 22  1  0  0  0  0
 22 23  1  0  0  0  0
 23 24  1  0  0  0  0
 24 25  4  0  0  0  0
 24 28  4  0  0  0  0
 25 26  4  0  0  0  0
 26 27  4  0  0  0  0
 27 28  4  0  0  0  0
 27 30  1  0  0  0  0
 28 29  1  0  0  0  0
 30 31  4  0  0  0  0
 30 40  4  0  0  0  0
 31 32  4  0  0  0  0
 31 36  4  0  0  0  0
 32 33  4  0  0  0  0
 32 38  4  0  0  0  0
 33 34  4  0  0  0  0
 34 35  4  0  0  0  0
 34 37  1  0  0  0  0
 35 36  4  0  0  0  0
 38 39  4  0  0  0  0
 39 40  4  0  0  0  0
M  END
>  <Name_Molregno>
435583

>  <DOPAMINE D3>
7

$$$$
435584
  Marvin  02231216192D 0   1.00000     0.00000     0

 34 39  0  0  0  0  0  0  0  0999 V2000
    4.3827   -0.4428    0.0000 S   0  0  0  0  0  0  0  0  0
    3.9702    0.2717    0.0000 C   0  0  0  0  0  0  0  0  0
    3.1452    0.2717    0.0000 C   0  0  0  0  0  0  0  0  0
    2.7327    0.9861    0.0000 C   0  0  0  0  0  0  0  0  0
    1.9077    0.9861    0.0000 N   0  0  0  0  0  0  0  0  0
    1.5497    0.2428    0.0000 C   0  0  0  0  0  0  0  0  0
    0.7454    0.0593    0.0000 C   0  0  0  0  0  0  0  0  0
    0.1004    0.5736    0.0000 C   0  0  0  0  0  0  0  0  0
    0.1004    1.3986    0.0000 C   0  0  0  0  0  0  0  0  0
    0.7454    1.9130    0.0000 C   0  0  0  0  0  0  0  0  0
    1.5497    1.7294    0.0000 C   0  0  0  0  0  0  0  0  0
   -0.6141    1.8111    0.0000 C   0  0  0  0  0  0  0  0  0
   -1.3285    1.3986    0.0000 C   0  0  0  0  0  0  0  0  0
   -2.1132    1.6536    0.0000 O   0  0  0  0  0  0  0  0  0
   -2.5981    0.9861    0.0000 C   0  0  0  0  0  0  0  0  0
   -2.1132    0.3187    0.0000 N   0  0  0  0  0  0  0  0  0
   -1.3285    0.5736    0.0000 C   0  0  0  0  0  0  0  0  0
   -0.6141    0.1611    0.0000 C   0  0  0  0  0  0  0  0  0
   -3.4231    0.9861    0.0000 C   0  0  0  0  0  0  0  0  0
   -3.8356    0.2717    0.0000 C   0  0  0  0  0  0  0  0  0
   -3.8356   -0.5533    0.0000 C   0  0  0  0  0  0  0  0  0
   -4.5501   -0.1408    0.0000 C   0  0  0  0  0  0  0  0  0
    5.2077   -0.4428    0.0000 C   0  0  0  0  0  0  0  0  0
    5.6926    0.2246    0.0000 N   0  0  0  0  0  0  0  0  0
    6.4772   -0.0303    0.0000 N   0  0  0  0  0  0  0  0  0
    6.4772   -0.8553    0.0000 C   0  0  0  0  0  0  0  0  0
    5.6926   -1.1102    0.0000 N   0  0  0  0  0  0  0  0  0
    5.4377   -1.8949    0.0000 C   0  0  0  0  0  0  0  0  0
    7.1447   -1.3402    0.0000 C   0  0  0  0  0  0  0  0  0
    7.9293   -1.0853    0.0000 O   0  0  0  0  0  0  0  0  0
    8.4142   -1.7527    0.0000 C   0  0  0  0  0  0  0  0  0
    7.9293   -2.4202    0.0000 N   0  0  0  0  0  0  0  0  0
    7.1447   -2.1652    0.0000 C   0  0  0  0  0  0  0  0  0
    6.4772   -2.6501    0.0000 C   0  0  0  0  0  0  0  0  0
  1  2  1  0  0  0  0
  1 23  1  0  0  0  0
  2  3  1  0  0  0  0
  3  4  1  0  0  0  0
  4  5  1  0  0  0  0
  5  6  1  0  0  0  0
  5 11  1  0  0  0  0
  6  7  1  0  0  0  0
  7  8  1  0  0  0  0
  8  9  4  0  0  0  0
  8 18  4  0  0  0  0
  9 10  1  0  0  0  0
  9 12  4  0  0  0  0
 10 11  1  0  0  0  0
 12 13  4  0  0  0  0
 13 14  4  0  0  0  0
 13 17  4  0  0  0  0
 14 15  4  0  0  0  0
 15 16  4  0  0  0  0
 15 19  1  0  0  0  0
 16 17  4  0  0  0  0
 17 18  4  0  0  0  0
 19 20  1  0  0  0  0
 20 21  1  0  0  0  0
 20 22  1  0  0  0  0
 21 22  1  0  0  0  0
 23 24  4  0  0  0  0
 23 27  4  0  0  0  0
 24 25  4  0  0  0  0
 25 26  4  0  0  0  0
 26 27  4  0  0  0  0
 26 29  1  0  0  0  0
 27 28  1  0  0  0  0
 29 30  4  0  0  0  0
 29 33  4  0  0  0  0
 30 31  4  0  0  0  0
 31 32  4  0  0  0  0
 32 33  4  0  0  0  0
 33 34  1  0  0  0  0
M  END
>  <Name_Molregno>
435584

>  <DOPAMINE D3>
7.4

$$$$
435585
  Marvin  02231216192D 0   1.00000     0.00000     0

 41 47  0  0  0  0  0  0  0  0999 V2000
   -2.6974    1.5161    0.0000 S   0  0  0  0  0  0  0  0  0
   -3.0330    0.7625    0.0000 C   0  0  0  0  0  0  0  0  0
   -2.5480    0.0950    0.0000 C   0  0  0  0  0  0  0  0  0
   -2.8836   -0.6587    0.0000 C   0  0  0  0  0  0  0  0  0
   -2.3987   -1.3261    0.0000 N   0  0  0  0  0  0  0  0  0
   -1.5869   -1.1788    0.0000 C   0  0  0  0  0  0  0  0  0
   -0.9656   -1.7216    0.0000 C   0  0  0  0  0  0  0  0  0
   -1.0027   -2.5458    0.0000 C   0  0  0  0  0  0  0  0  0
   -1.6701   -3.0307    0.0000 C   0  0  0  0  0  0  0  0  0
   -2.4654   -2.8112    0.0000 C   0  0  0  0  0  0  0  0  0
   -2.7896   -2.0526    0.0000 C   0  0  0  0  0  0  0  0  0
   -1.5839   -3.8512    0.0000 C   0  0  0  0  0  0  0  0  0
   -0.8302   -4.1867    0.0000 C   0  0  0  0  0  0  0  0  0
   -0.5752   -4.9713    0.0000 O   0  0  0  0  0  0  0  0  0
    0.2498   -4.9713    0.0000 C   0  0  0  0  0  0  0  0  0
    0.5047   -4.1867    0.0000 N   0  0  0  0  0  0  0  0  0
   -0.1627   -3.7018    0.0000 C   0  0  0  0  0  0  0  0  0
   -0.2490   -2.8813    0.0000 C   0  0  0  0  0  0  0  0  0
    0.7347   -5.6388    0.0000 N   0  0  0  0  0  0  0  0  0
    1.5552   -5.5525    0.0000 C   0  0  0  0  0  0  0  0  0
    2.0401   -6.2200    0.0000 C   0  0  0  0  0  0  0  0  0
    1.7045   -6.9737    0.0000 C   0  0  0  0  0  0  0  0  0
    0.8840   -7.0599    0.0000 C   0  0  0  0  0  0  0  0  0
    0.3991   -6.3925    0.0000 C   0  0  0  0  0  0  0  0  0
   -3.1823    2.1836    0.0000 C   0  0  0  0  0  0  0  0  0
   -4.0073    2.1836    0.0000 N   0  0  0  0  0  0  0  0  0
   -4.2623    2.9682    0.0000 N   0  0  0  0  0  0  0  0  0
   -3.5948    3.4531    0.0000 C   0  0  0  0  0  0  0  0  0
   -2.9274    2.9682    0.0000 N   0  0  0  0  0  0  0  0  0
   -2.1428    3.2231    0.0000 C   0  0  0  0  0  0  0  0  0
   -3.5948    4.2781    0.0000 C   0  0  0  0  0  0  0  0  0
   -2.8804    4.6906    0.0000 C   0  0  0  0  0  0  0  0  0
   -2.8804    5.5156    0.0000 C   0  0  0  0  0  0  0  0  0
   -2.1659    5.9281    0.0000 N   0  0  0  0  0  0  0  0  0
   -1.4514    5.5156    0.0000 C   0  0  0  0  0  0  0  0  0
   -1.4514    4.6906    0.0000 C   0  0  0  0  0  0  0  0  0
   -2.1659    4.2781    0.0000 C   0  0  0  0  0  0  0  0  0
   -0.7369    5.9281    0.0000 C   0  0  0  0  0  0  0  0  0
   -3.5948    5.9281    0.0000 C   0  0  0  0  0  0  0  0  0
   -4.3093    5.5156    0.0000 C   0  0  0  0  0  0  0  0  0
   -4.3093    4.6906    0.0000 C   0  0  0  0  0  0  0  0  0
  1  2  1  0  0  0  0
  1 25  1  0  0  0  0
  2  3  1  0  0  0  0
  3  4  1  0  0  0  0
  4  5  1  0  0  0  0
  5  6  1  0  0  0  0
  5 11  1  0  0  0  0
  6  7  1  0  0  0  0
  7  8  1  0  0  0  0
  8  9  4  0  0  0  0
  8 18  4  0  0  0  0
  9 10  1  0  0  0  0
  9 12  4  0  0  0  0
 10 11  1  0  0  0  0
 12 13  4  0  0  0  0
 13 14  4  0  0  0  0
 13 17  4  0  0  0  0
 14 15  4  0  0  0  0
 15 16  4  0  0  0  0
 15 19  1  0  0  0  0
 16 17  4  0  0  0  0
 17 18  4  0  0  0  0
 19 20  1  0  0  0  0
 19 24  1  0  0  0  0
 20 21  1  0  0  0  0
 21 22  1  0  0  0  0
 22 23  1  0  0  0  0
 23 24  1  0  0  0  0
 25 26  4  0  0  0  0
 25 29  4  0  0  0  0
 26 27  4  0  0  0  0
 27 28  4  0  0  0  0
 28 29  4  0  0  0  0
 28 31  1  0  0  0  0
 29 30  1  0  0  0  0
 31 32  4  0  0  0  0
 31 41  4  0  0  0  0
 32 33  4  0  0  0  0
 32 37  4  0  0  0  0
 33 34  4  0  0  0  0
 33 39  4  0  0  0  0
 34 35  4  0  0  0  0
 35 36  4  0  0  0  0
 35 38  1  0  0  0  0
 36 37  4  0  0  0  0
 39 40  4  0  0  0  0
 40 41  4  0  0  0  0
M  END
>  <Name_Molregno>
435585

>  <DOPAMINE D3>
8.3

$$$$
435586
  Marvin  02231216192D 0   1.00000     0.00000     0

 38 43  0  0  0  0  0  0  0  0999 V2000
    0.6994   -0.2176    0.0000 S   0  0  0  0  0  0  0  0  0
    0.3638   -0.9713    0.0000 C   0  0  0  0  0  0  0  0  0
    0.8487   -1.6387    0.0000 C   0  0  0  0  0  0  0  0  0
    0.5132   -2.3924    0.0000 C   0  0  0  0  0  0  0  0  0
   -0.3073   -2.4786    0.0000 N   0  0  0  0  0  0  0  0  0
   -0.5856   -3.2553    0.0000 C   0  0  0  0  0  0  0  0  0
   -1.3663   -3.5219    0.0000 C   0  0  0  0  0  0  0  0  0
   -2.0616   -3.0778    0.0000 C   0  0  0  0  0  0  0  0  0
   -2.1478   -2.2573    0.0000 C   0  0  0  0  0  0  0  0  0
   -1.5601   -1.6783    0.0000 C   0  0  0  0  0  0  0  0  0
   -0.7410   -1.7768    0.0000 C   0  0  0  0  0  0  0  0  0
   -2.9015   -1.9217    0.0000 C   0  0  0  0  0  0  0  0  0
   -3.5689   -2.4067    0.0000 C   0  0  0  0  0  0  0  0  0
   -4.3759   -2.2351    0.0000 O   0  0  0  0  0  0  0  0  0
   -4.7884   -2.9496    0.0000 C   0  0  0  0  0  0  0  0  0
   -4.2364   -3.5627    0.0000 N   0  0  0  0  0  0  0  0  0
   -3.4827   -3.2271    0.0000 C   0  0  0  0  0  0  0  0  0
   -2.7290   -3.5627    0.0000 C   0  0  0  0  0  0  0  0  0
   -5.6089   -3.0358    0.0000 N   0  0  0  0  0  0  0  0  0
   -5.9444   -3.7895    0.0000 C   0  0  0  0  0  0  0  0  0
   -6.0938   -2.3684    0.0000 C   0  0  0  0  0  0  0  0  0
    0.2144    0.4498    0.0000 C   0  0  0  0  0  0  0  0  0
   -0.6106    0.4498    0.0000 N   0  0  0  0  0  0  0  0  0
   -0.8655    1.2345    0.0000 N   0  0  0  0  0  0  0  0  0
   -0.1981    1.7194    0.0000 C   0  0  0  0  0  0  0  0  0
    0.4694    1.2345    0.0000 N   0  0  0  0  0  0  0  0  0
    1.2540    1.4894    0.0000 C   0  0  0  0  0  0  0  0  0
   -0.1981    2.5444    0.0000 C   0  0  0  0  0  0  0  0  0
    0.5164    2.9569    0.0000 C   0  0  0  0  0  0  0  0  0
    0.5164    3.7819    0.0000 C   0  0  0  0  0  0  0  0  0
    1.2309    4.1944    0.0000 N   0  0  0  0  0  0  0  0  0
    1.9453    3.7819    0.0000 C   0  0  0  0  0  0  0  0  0
    1.9453    2.9569    0.0000 C   0  0  0  0  0  0  0  0  0
    1.2309    2.5444    0.0000 C   0  0  0  0  0  0  0  0  0
    2.6598    4.1944    0.0000 C   0  0  0  0  0  0  0  0  0
   -0.1981    4.1944    0.0000 C   0  0  0  0  0  0  0  0  0
   -0.9125    3.7819    0.0000 C   0  0  0  0  0  0  0  0  0
   -0.9125    2.9569    0.0000 C   0  0  0  0  0  0  0  0  0
  1  2  1  0  0  0  0
  1 22  1  0  0  0  0
  2  3  1  0  0  0  0
  3  4  1  0  0  0  0
  4  5  1  0  0  0  0
  5  6  1  0  0  0  0
  5 11  1  0  0  0  0
  6  7  1  0  0  0  0
  7  8  1  0  0  0  0
  8  9  4  0  0  0  0
  8 18  4  0  0  0  0
  9 10  1  0  0  0  0
  9 12  4  0  0  0  0
 10 11  1  0  0  0  0
 12 13  4  0  0  0  0
 13 14  4  0  0  0  0
 13 17  4  0  0  0  0
 14 15  4  0  0  0  0
 15 16  4  0  0  0  0
 15 19  1  0  0  0  0
 16 17  4  0  0  0  0
 17 18  4  0  0  0  0
 19 20  1  0  0  0  0
 19 21  1  0  0  0  0
 22 23  4  0  0  0  0
 22 26  4  0  0  0  0
 23 24  4  0  0  0  0
 24 25  4  0  0  0  0
 25 26  4  0  0  0  0
 25 28  1  0  0  0  0
 26 27  1  0  0  0  0
 28 29  4  0  0  0  0
 28 38  4  0  0  0  0
 29 30  4  0  0  0  0
 29 34  4  0  0  0  0
 30 31  4  0  0  0  0
 30 36  4  0  0  0  0
 31 32  4  0  0  0  0
 32 33  4  0  0  0  0
 32 35  1  0  0  0  0
 33 34  4  0  0  0  0
 36 37  4  0  0  0  0
 37 38  4  0  0  0  0
M  END
>  <Name_Molregno>
435586

>  <DOPAMINE D3>
9

$$$$
435587
  Marvin  02231216192D 0   1.00000     0.00000     0

 30 34  0  0  0  0  0  0  0  0999 V2000
    2.7452   -0.3475    0.0000 S   0  0  0  0  0  0  0  0  0
    2.3327    0.3670    0.0000 C   0  0  0  0  0  0  0  0  0
    1.5077    0.3670    0.0000 C   0  0  0  0  0  0  0  0  0
    1.0952    1.0815    0.0000 C   0  0  0  0  0  0  0  0  0
    0.2702    1.0815    0.0000 N   0  0  0  0  0  0  0  0  0
   -0.0878    0.3382    0.0000 C   0  0  0  0  0  0  0  0  0
   -0.8921    0.1546    0.0000 C   0  0  0  0  0  0  0  0  0
   -1.5371    0.6690    0.0000 C   0  0  0  0  0  0  0  0  0
   -1.5371    1.4940    0.0000 C   0  0  0  0  0  0  0  0  0
   -0.8921    2.0083    0.0000 C   0  0  0  0  0  0  0  0  0
   -0.0878    1.8248    0.0000 C   0  0  0  0  0  0  0  0  0
   -2.2516    1.9065    0.0000 C   0  0  0  0  0  0  0  0  0
   -2.9661    1.4940    0.0000 C   0  0  0  0  0  0  0  0  0
   -3.7507    1.7489    0.0000 O   0  0  0  0  0  0  0  0  0
   -4.2356    1.0815    0.0000 C   0  0  0  0  0  0  0  0  0
   -3.7507    0.4140    0.0000 N   0  0  0  0  0  0  0  0  0
   -2.9661    0.6690    0.0000 C   0  0  0  0  0  0  0  0  0
   -2.2516    0.2565    0.0000 C   0  0  0  0  0  0  0  0  0
    3.5702   -0.3475    0.0000 C   0  0  0  0  0  0  0  0  0
    4.0551    0.3200    0.0000 N   0  0  0  0  0  0  0  0  0
    4.8397    0.0650    0.0000 N   0  0  0  0  0  0  0  0  0
    4.8397   -0.7600    0.0000 C   0  0  0  0  0  0  0  0  0
    4.0551   -1.0149    0.0000 N   0  0  0  0  0  0  0  0  0
    3.8002   -1.7995    0.0000 C   0  0  0  0  0  0  0  0  0
    5.5071   -1.2449    0.0000 C   0  0  0  0  0  0  0  0  0
    6.2918   -0.9900    0.0000 O   0  0  0  0  0  0  0  0  0
    6.7767   -1.6574    0.0000 C   0  0  0  0  0  0  0  0  0
    6.2918   -2.3248    0.0000 N   0  0  0  0  0  0  0  0  0
    5.5071   -2.0699    0.0000 C   0  0  0  0  0  0  0  0  0
    4.8397   -2.5548    0.0000 C   0  0  0  0  0  0  0  0  0
  1  2  1  0  0  0  0
  1 19  1  0  0  0  0
  2  3  1  0  0  0  0
  3  4  1  0  0  0  0
  4  5  1  0  0  0  0
  5  6  1  0  0  0  0
  5 11  1  0  0  0  0
  6  7  1  0  0  0  0
  7  8  1  0  0  0  0
  8  9  4  0  0  0  0
  8 18  4  0  0  0  0
  9 10  1  0  0  0  0
  9 12  4  0  0  0  0
 10 11  1  0  0  0  0
 12 13  4  0  0  0  0
 13 14  4  0  0  0  0
 13 17  4  0  0  0  0
 14 15  4  0  0  0  0
 15 16  4  0  0  0  0
 16 17  4  0  0  0  0
 17 18  4  0  0  0  0
 19 20  4  0  0  0  0
 19 23  4  0  0  0  0
 20 21  4  0  0  0  0
 21 22  4  0  0  0  0
 22 23  4  0  0  0  0
 22 25  1  0  0  0  0
 23 24  1  0  0  0  0
 25 26  4  0  0  0  0
 25 29  4  0  0  0  0
 26 27  4  0  0  0  0
 27 28  4  0  0  0  0
 28 29  4  0  0  0  0
 29 30  1  0  0  0  0
M  END
>  <Name_Molregno>
435587

>  <DOPAMINE D3>
6.7

$$$$
435589
  Marvin  02231216192D 0   1.00000     0.00000     0

 31 35  0  0  0  0  0  0  0  0999 V2000
    3.1558   -0.4871    0.0000 S   0  0  0  0  0  0  0  0  0
    2.7433    0.2273    0.0000 C   0  0  0  0  0  0  0  0  0
    1.9183    0.2273    0.0000 C   0  0  0  0  0  0  0  0  0
    1.5058    0.9418    0.0000 C   0  0  0  0  0  0  0  0  0
    0.6808    0.9418    0.0000 N   0  0  0  0  0  0  0  0  0
    0.3229    0.1985    0.0000 C   0  0  0  0  0  0  0  0  0
   -0.4815    0.0149    0.0000 C   0  0  0  0  0  0  0  0  0
   -1.1265    0.5293    0.0000 C   0  0  0  0  0  0  0  0  0
   -1.1265    1.3543    0.0000 C   0  0  0  0  0  0  0  0  0
   -0.4815    1.8687    0.0000 C   0  0  0  0  0  0  0  0  0
    0.3229    1.6851    0.0000 C   0  0  0  0  0  0  0  0  0
   -1.8409    1.7668    0.0000 C   0  0  0  0  0  0  0  0  0
   -2.5554    1.3543    0.0000 C   0  0  0  0  0  0  0  0  0
   -3.3400    1.6092    0.0000 O   0  0  0  0  0  0  0  0  0
   -3.8250    0.9418    0.0000 C   0  0  0  0  0  0  0  0  0
   -3.3400    0.2744    0.0000 N   0  0  0  0  0  0  0  0  0
   -2.5554    0.5293    0.0000 C   0  0  0  0  0  0  0  0  0
   -1.8409    0.1168    0.0000 C   0  0  0  0  0  0  0  0  0
   -4.6500    0.9418    0.0000 C   0  0  0  0  0  0  0  0  0
    3.9808   -0.4871    0.0000 C   0  0  0  0  0  0  0  0  0
    4.4657    0.1803    0.0000 N   0  0  0  0  0  0  0  0  0
    5.2504   -0.0746    0.0000 N   0  0  0  0  0  0  0  0  0
    5.2504   -0.8996    0.0000 C   0  0  0  0  0  0  0  0  0
    4.4657   -1.1546    0.0000 N   0  0  0  0  0  0  0  0  0
    4.2108   -1.9392    0.0000 C   0  0  0  0  0  0  0  0  0
    5.9178   -1.3846    0.0000 C   0  0  0  0  0  0  0  0  0
    6.7024   -1.1296    0.0000 O   0  0  0  0  0  0  0  0  0
    7.1873   -1.7971    0.0000 C   0  0  0  0  0  0  0  0  0
    6.7024   -2.4645    0.0000 N   0  0  0  0  0  0  0  0  0
    5.9178   -2.2096    0.0000 C   0  0  0  0  0  0  0  0  0
    5.2504   -2.6945    0.0000 C   0  0  0  0  0  0  0  0  0
  1  2  1  0  0  0  0
  1 20  1  0  0  0  0
  2  3  1  0  0  0  0
  3  4  1  0  0  0  0
  4  5  1  0  0  0  0
  5  6  1  0  0  0  0
  5 11  1  0  0  0  0
  6  7  1  0  0  0  0
  7  8  1  0  0  0  0
  8  9  4  0  0  0  0
  8 18  4  0  0  0  0
  9 10  1  0  0  0  0
  9 12  4  0  0  0  0
 10 11  1  0  0  0  0
 12 13  4  0  0  0  0
 13 14  4  0  0  0  0
 13 17  4  0  0  0  0
 14 15  4  0  0  0  0
 15 16  4  0  0  0  0
 15 19  1  0  0  0  0
 16 17  4  0  0  0  0
 17 18  4  0  0  0  0
 20 21  4  0  0  0  0
 20 24  4  0  0  0  0
 21 22  4  0  0  0  0
 22 23  4  0  0  0  0
 23 24  4  0  0  0  0
 23 26  1  0  0  0  0
 24 25  1  0  0  0  0
 26 27  4  0  0  0  0
 26 30  4  0  0  0  0
 27 28  4  0  0  0  0
 28 29  4  0  0  0  0
 29 30  4  0  0  0  0
 30 31  1  0  0  0  0
M  END
>  <Name_Molregno>
435589

>  <DOPAMINE D3>
6.8

$$$$
435627
  Marvin  02231216192D 0   1.00000     0.00000     0

 38 43  0  0  1  0  0  0  0  0999 V2000
   -4.8812   -5.2955    0.0000 Br  0  0  0  0  0  0  0  0  0
   -4.2137   -4.8106    0.0000 C   0  0  0  0  0  0  0  0  0
   -4.3000   -3.9901    0.0000 C   0  0  0  0  0  0  0  0  0
   -5.0952   -3.7707    0.0000 C   0  0  0  0  0  0  0  0  0
   -5.4195   -3.0120    0.0000 C   0  0  0  0  0  0  0  0  0
   -5.0285   -2.2856    0.0000 N   0  0  0  0  0  0  0  0  0
   -4.2168   -2.1382    0.0000 C   0  0  0  0  0  0  0  0  0
   -3.5955   -2.6810    0.0000 C   0  0  0  0  0  0  0  0  0
   -3.6325   -3.5052    0.0000 C   0  0  0  0  0  0  0  0  0
   -2.8788   -3.8408    0.0000 C   0  0  0  0  0  0  0  0  0
   -2.7926   -4.6612    0.0000 C   0  0  0  0  0  0  0  0  0
   -2.1252   -5.1462    0.0000 N   0  0  0  0  0  0  0  0  0
   -2.3801   -5.9308    0.0000 C   0  0  0  0  0  0  0  0  0
   -3.2051   -5.9308    0.0000 O   0  0  0  0  0  0  0  0  0
   -3.4600   -5.1462    0.0000 C   0  0  0  0  0  0  0  0  0
   -1.8952   -6.5982    0.0000 C   0  0  0  0  0  0  0  0  0
   -5.5134   -1.6181    0.0000 C   0  0  0  0  0  0  0  0  0
   -5.1779   -0.8644    0.0000 C   0  0  0  0  0  0  0  0  0
   -5.6628   -0.1970    0.0000 C   0  0  0  0  0  0  0  0  0
   -5.3273    0.5567    0.0000 S   0  0  0  0  0  0  0  0  0
   -5.8122    1.2241    0.0000 C   0  0  0  0  0  0  0  0  0
   -6.6372    1.2241    0.0000 N   0  0  0  0  0  0  0  0  0
   -6.8921    2.0087    0.0000 N   0  0  0  0  0  0  0  0  0
   -6.2247    2.4937    0.0000 C   0  0  0  0  0  0  0  0  0
   -5.5572    2.0087    0.0000 N   0  0  0  0  0  0  0  0  0
   -4.7726    2.2637    0.0000 C   0  0  0  0  0  0  0  0  0
   -6.2247    3.3187    0.0000 C   0  0  0  0  0  0  0  0  0
   -5.5102    3.7312    0.0000 C   0  0  0  0  0  0  0  0  0
   -5.5102    4.5562    0.0000 C   0  0  0  0  0  0  0  0  0
   -4.7957    4.9687    0.0000 N   0  0  0  0  0  0  0  0  0
   -4.0813    4.5562    0.0000 C   0  0  0  0  0  0  0  0  0
   -4.0813    3.7312    0.0000 C   0  0  0  0  0  0  0  0  0
   -4.7957    3.3187    0.0000 C   0  0  0  0  0  0  0  0  0
   -3.3668    4.9687    0.0000 C   0  0  0  0  0  0  0  0  0
   -6.2247    4.9687    0.0000 C   0  0  0  0  0  0  0  0  0
   -6.9391    4.5562    0.0000 C   0  0  0  0  0  0  0  0  0
   -6.9391    3.7312    0.0000 C   0  0  0  0  0  0  0  0  0
   -6.3339   -1.7043    0.0000 C   0  0  0  0  0  0  0  0  0
  1  2  1  0  0  0  0
  2  3  4  0  0  0  0
  2 15  4  0  0  0  0
  3  4  1  0  0  0  0
  3  9  4  0  0  0  0
  4  5  1  0  0  0  0
  5  6  1  0  0  0  0
  6  7  1  0  0  0  0
  6 17  1  0  0  0  0
  7  8  1  0  0  0  0
  8  9  1  0  0  0  0
  9 10  4  0  0  0  0
 10 11  4  0  0  0  0
 11 12  4  0  0  0  0
 11 15  4  0  0  0  0
 12 13  4  0  0  0  0
 13 14  4  0  0  0  0
 13 16  1  0  0  0  0
 14 15  4  0  0  0  0
 17 18  1  0  0  0  0
 17 38  1  0  0  0  0
 18 19  1  0  0  0  0
 19 20  1  0  0  0  0
 20 21  1  0  0  0  0
 21 22  4  0  0  0  0
 21 25  4  0  0  0  0
 22 23  4  0  0  0  0
 23 24  4  0  0  0  0
 24 25  4  0  0  0  0
 24 27  1  0  0  0  0
 25 26  1  0  0  0  0
 27 28  4  0  0  0  0
 27 37  4  0  0  0  0
 28 29  4  0  0  0  0
 28 33  4  0  0  0  0
 29 30  4  0  0  0  0
 29 35  4  0  0  0  0
 30 31  4  0  0  0  0
 31 32  4  0  0  0  0
 31 34  1  0  0  0  0
 32 33  4  0  0  0  0
 35 36  4  0  0  0  0
 36 37  4  0  0  0  0
M  END
>  <Name_Molregno>
435627

>  <DOPAMINE D3>
7.3

$$$$
435628
  Marvin  02231216192D 0   1.00000     0.00000     0

 39 45  0  0  0  0  0  0  0  0999 V2000
    0.6046    0.3403    0.0000 S   0  0  0  0  0  0  0  0  0
    0.2691   -0.4134    0.0000 C   0  0  0  0  0  0  0  0  0
    0.7540   -1.0808    0.0000 C   0  0  0  0  0  0  0  0  0
    0.4184   -1.8345    0.0000 C   0  0  0  0  0  0  0  0  0
   -0.4021   -1.9207    0.0000 N   0  0  0  0  0  0  0  0  0
   -0.6803   -2.6974    0.0000 C   0  0  0  0  0  0  0  0  0
   -1.4611   -2.9640    0.0000 C   0  0  0  0  0  0  0  0  0
   -2.1563   -2.5199    0.0000 C   0  0  0  0  0  0  0  0  0
   -2.2425   -1.6994    0.0000 C   0  0  0  0  0  0  0  0  0
   -1.6548   -1.1204    0.0000 C   0  0  0  0  0  0  0  0  0
   -0.8357   -1.2189    0.0000 C   0  0  0  0  0  0  0  0  0
   -2.9962   -1.3639    0.0000 C   0  0  0  0  0  0  0  0  0
   -3.6637   -1.8488    0.0000 C   0  0  0  0  0  0  0  0  0
   -4.4706   -1.6773    0.0000 O   0  0  0  0  0  0  0  0  0
   -4.8831   -2.3917    0.0000 C   0  0  0  0  0  0  0  0  0
   -4.3311   -3.0048    0.0000 N   0  0  0  0  0  0  0  0  0
   -3.5774   -2.6693    0.0000 C   0  0  0  0  0  0  0  0  0
   -2.8238   -3.0048    0.0000 C   0  0  0  0  0  0  0  0  0
   -5.7036   -2.4780    0.0000 C   0  0  0  0  0  0  0  0  0
   -6.0392   -3.2316    0.0000 C   0  0  0  0  0  0  0  0  0
   -5.9529   -4.0521    0.0000 C   0  0  0  0  0  0  0  0  0
   -6.7066   -3.7166    0.0000 C   0  0  0  0  0  0  0  0  0
    0.1197    1.0077    0.0000 C   0  0  0  0  0  0  0  0  0
   -0.7053    1.0077    0.0000 N   0  0  0  0  0  0  0  0  0
   -0.9602    1.7923    0.0000 N   0  0  0  0  0  0  0  0  0
   -0.2928    2.2773    0.0000 C   0  0  0  0  0  0  0  0  0
    0.3746    1.7923    0.0000 N   0  0  0  0  0  0  0  0  0
    1.1593    2.0473    0.0000 C   0  0  0  0  0  0  0  0  0
   -0.2928    3.1023    0.0000 C   0  0  0  0  0  0  0  0  0
    0.4217    3.5148    0.0000 C   0  0  0  0  0  0  0  0  0
    0.4217    4.3398    0.0000 C   0  0  0  0  0  0  0  0  0
    1.1361    4.7523    0.0000 N   0  0  0  0  0  0  0  0  0
    1.8506    4.3398    0.0000 C   0  0  0  0  0  0  0  0  0
    1.8506    3.5148    0.0000 C   0  0  0  0  0  0  0  0  0
    1.1361    3.1023    0.0000 C   0  0  0  0  0  0  0  0  0
    2.5651    4.7523    0.0000 C   0  0  0  0  0  0  0  0  0
   -0.2928    4.7523    0.0000 C   0  0  0  0  0  0  0  0  0
   -1.0073    4.3398    0.0000 C   0  0  0  0  0  0  0  0  0
   -1.0073    3.5148    0.0000 C   0  0  0  0  0  0  0  0  0
  1  2  1  0  0  0  0
  1 23  1  0  0  0  0
  2  3  1  0  0  0  0
  3  4  1  0  0  0  0
  4  5  1  0  0  0  0
  5  6  1  0  0  0  0
  5 11  1  0  0  0  0
  6  7  1  0  0  0  0
  7  8  1  0  0  0  0
  8  9  4  0  0  0  0
  8 18  4  0  0  0  0
  9 10  1  0  0  0  0
  9 12  4  0  0  0  0
 10 11  1  0  0  0  0
 12 13  4  0  0  0  0
 13 14  4  0  0  0  0
 13 17  4  0  0  0  0
 14 15  4  0  0  0  0
 15 16  4  0  0  0  0
 15 19  1  0  0  0  0
 16 17  4  0  0  0  0
 17 18  4  0  0  0  0
 19 20  1  0  0  0  0
 20 21  1  0  0  0  0
 20 22  1  0  0  0  0
 21 22  1  0  0  0  0
 23 24  4  0  0  0  0
 23 27  4  0  0  0  0
 24 25  4  0  0  0  0
 25 26  4  0  0  0  0
 26 27  4  0  0  0  0
 26 29  1  0  0  0  0
 27 28  1  0  0  0  0
 29 30  4  0  0  0  0
 29 39  4  0  0  0  0
 30 31  4  0  0  0  0
 30 35  4  0  0  0  0
 31 32  4  0  0  0  0
 31 37  4  0  0  0  0
 32 33  4  0  0  0  0
 33 34  4  0  0  0  0
 33 36  1  0  0  0  0
 34 35  4  0  0  0  0
 37 38  4  0  0  0  0
 38 39  4  0  0  0  0
M  END
>  <Name_Molregno>
435628

>  <DOPAMINE D3>
7.9

$$$$
435630
  Marvin  02231216192D 0   1.00000     0.00000     0

 35 39  0  0  0  0  0  0  0  0999 V2000
    1.5072   -0.0291    0.0000 S   0  0  0  0  0  0  0  0  0
    1.0947    0.6853    0.0000 C   0  0  0  0  0  0  0  0  0
    0.2697    0.6853    0.0000 C   0  0  0  0  0  0  0  0  0
   -0.1428    1.3998    0.0000 C   0  0  0  0  0  0  0  0  0
   -0.9678    1.3998    0.0000 N   0  0  0  0  0  0  0  0  0
   -1.3257    0.6565    0.0000 C   0  0  0  0  0  0  0  0  0
   -2.1300    0.4729    0.0000 C   0  0  0  0  0  0  0  0  0
   -2.7750    0.9873    0.0000 C   0  0  0  0  0  0  0  0  0
   -2.7750    1.8123    0.0000 C   0  0  0  0  0  0  0  0  0
   -2.1300    2.3267    0.0000 C   0  0  0  0  0  0  0  0  0
   -1.3257    2.1431    0.0000 C   0  0  0  0  0  0  0  0  0
   -3.4895    2.2248    0.0000 C   0  0  0  0  0  0  0  0  0
   -4.2040    1.8123    0.0000 C   0  0  0  0  0  0  0  0  0
   -4.9886    2.0673    0.0000 O   0  0  0  0  0  0  0  0  0
   -5.4735    1.3998    0.0000 N   0  0  0  0  0  0  0  0  0
   -4.9886    0.7324    0.0000 C   0  0  0  0  0  0  0  0  0
   -4.2040    0.9873    0.0000 C   0  0  0  0  0  0  0  0  0
   -3.4895    0.5748    0.0000 C   0  0  0  0  0  0  0  0  0
   -5.2435   -0.0522    0.0000 C   0  0  0  0  0  0  0  0  0
    2.3322   -0.0291    0.0000 C   0  0  0  0  0  0  0  0  0
    2.8172    0.6383    0.0000 N   0  0  0  0  0  0  0  0  0
    3.6018    0.3834    0.0000 N   0  0  0  0  0  0  0  0  0
    3.6018   -0.4416    0.0000 C   0  0  0  0  0  0  0  0  0
    2.8172   -0.6966    0.0000 N   0  0  0  0  0  0  0  0  0
    2.5622   -1.4812    0.0000 C   0  0  0  0  0  0  0  0  0
    4.2692   -0.9265    0.0000 C   0  0  0  0  0  0  0  0  0
    5.0229   -0.5910    0.0000 C   0  0  0  0  0  0  0  0  0
    5.6903   -1.0759    0.0000 C   0  0  0  0  0  0  0  0  0
    5.6041   -1.8964    0.0000 C   0  0  0  0  0  0  0  0  0
    4.8504   -2.2319    0.0000 C   0  0  0  0  0  0  0  0  0
    4.1830   -1.7470    0.0000 C   0  0  0  0  0  0  0  0  0
    6.2715   -2.3813    0.0000 C   0  0  0  0  0  0  0  0  0
    6.9390   -2.8662    0.0000 F   0  0  0  0  0  0  0  0  0
    5.7866   -3.0488    0.0000 F   0  0  0  0  0  0  0  0  0
    6.7565   -1.7139    0.0000 F   0  0  0  0  0  0  0  0  0
  1  2  1  0  0  0  0
  1 20  1  0  0  0  0
  2  3  1  0  0  0  0
  3  4  1  0  0  0  0
  4  5  1  0  0  0  0
  5  6  1  0  0  0  0
  5 11  1  0  0  0  0
  6  7  1  0  0  0  0
  7  8  1  0  0  0  0
  8  9  4  0  0  0  0
  8 18  4  0  0  0  0
  9 10  1  0  0  0  0
  9 12  4  0  0  0  0
 10 11  1  0  0  0  0
 12 13  4  0  0  0  0
 13 14  4  0  0  0  0
 13 17  4  0  0  0  0
 14 15  4  0  0  0  0
 15 16  4  0  0  0  0
 16 17  4  0  0  0  0
 16 19  1  0  0  0  0
 17 18  4  0  0  0  0
 20 21  4  0  0  0  0
 20 24  4  0  0  0  0
 21 22  4  0  0  0  0
 22 23  4  0  0  0  0
 23 24  4  0  0  0  0
 23 26  1  0  0  0  0
 24 25  1  0  0  0  0
 26 27  4  0  0  0  0
 26 31  4  0  0  0  0
 27 28  4  0  0  0  0
 28 29  4  0  0  0  0
 29 30  4  0  0  0  0
 29 32  1  0  0  0  0
 30 31  4  0  0  0  0
 32 33  1  0  0  0  0
 32 34  1  0  0  0  0
 32 35  1  0  0  0  0
M  END
>  <Name_Molregno>
435630

>  <DOPAMINE D3>
7.9

$$$$
435631
  Marvin  02231216192D 0   1.00000     0.00000     0

 36 41  0  0  0  0  0  0  0  0999 V2000
   -1.3279    0.5757    0.0000 S   0  0  0  0  0  0  0  0  0
   -1.6635   -0.1780    0.0000 C   0  0  0  0  0  0  0  0  0
   -1.1785   -0.8454    0.0000 C   0  0  0  0  0  0  0  0  0
   -1.5141   -1.5991    0.0000 C   0  0  0  0  0  0  0  0  0
   -1.0292   -2.2665    0.0000 N   0  0  0  0  0  0  0  0  0
   -0.2174   -2.1192    0.0000 C   0  0  0  0  0  0  0  0  0
    0.4039   -2.6620    0.0000 C   0  0  0  0  0  0  0  0  0
    0.3668   -3.4862    0.0000 C   0  0  0  0  0  0  0  0  0
   -0.3006   -3.9711    0.0000 C   0  0  0  0  0  0  0  0  0
   -1.0959   -3.7516    0.0000 C   0  0  0  0  0  0  0  0  0
   -1.4201   -2.9930    0.0000 C   0  0  0  0  0  0  0  0  0
   -0.2144   -4.7916    0.0000 C   0  0  0  0  0  0  0  0  0
    0.5393   -5.1271    0.0000 C   0  0  0  0  0  0  0  0  0
    0.7942   -5.9118    0.0000 O   0  0  0  0  0  0  0  0  0
    1.6192   -5.9118    0.0000 C   0  0  0  0  0  0  0  0  0
    1.8742   -5.1271    0.0000 N   0  0  0  0  0  0  0  0  0
    1.2067   -4.6422    0.0000 C   0  0  0  0  0  0  0  0  0
    1.1205   -3.8217    0.0000 C   0  0  0  0  0  0  0  0  0
    2.1042   -6.5792    0.0000 C   0  0  0  0  0  0  0  0  0
   -1.8128    1.2432    0.0000 C   0  0  0  0  0  0  0  0  0
   -2.6378    1.2432    0.0000 N   0  0  0  0  0  0  0  0  0
   -2.8928    2.0278    0.0000 N   0  0  0  0  0  0  0  0  0
   -2.2253    2.5127    0.0000 C   0  0  0  0  0  0  0  0  0
   -1.5579    2.0278    0.0000 N   0  0  0  0  0  0  0  0  0
   -0.7733    2.2827    0.0000 C   0  0  0  0  0  0  0  0  0
   -2.2253    3.3377    0.0000 C   0  0  0  0  0  0  0  0  0
   -1.5109    3.7502    0.0000 C   0  0  0  0  0  0  0  0  0
   -1.5109    4.5752    0.0000 C   0  0  0  0  0  0  0  0  0
   -0.7964    4.9877    0.0000 N   0  0  0  0  0  0  0  0  0
   -0.0819    4.5752    0.0000 C   0  0  0  0  0  0  0  0  0
   -0.0819    3.7502    0.0000 C   0  0  0  0  0  0  0  0  0
   -0.7964    3.3377    0.0000 C   0  0  0  0  0  0  0  0  0
    0.6326    4.9877    0.0000 C   0  0  0  0  0  0  0  0  0
   -2.2253    4.9877    0.0000 C   0  0  0  0  0  0  0  0  0
   -2.9398    4.5752    0.0000 C   0  0  0  0  0  0  0  0  0
   -2.9398    3.7502    0.0000 C   0  0  0  0  0  0  0  0  0
  1  2  1  0  0  0  0
  1 20  1  0  0  0  0
  2  3  1  0  0  0  0
  3  4  1  0  0  0  0
  4  5  1  0  0  0  0
  5  6  1  0  0  0  0
  5 11  1  0  0  0  0
  6  7  1  0  0  0  0
  7  8  1  0  0  0  0
  8  9  4  0  0  0  0
  8 18  4  0  0  0  0
  9 10  1  0  0  0  0
  9 12  4  0  0  0  0
 10 11  1  0  0  0  0
 12 13  4  0  0  0  0
 13 14  4  0  0  0  0
 13 17  4  0  0  0  0
 14 15  4  0  0  0  0
 15 16  4  0  0  0  0
 15 19  1  0  0  0  0
 16 17  4  0  0  0  0
 17 18  4  0  0  0  0
 20 21  4  0  0  0  0
 20 24  4  0  0  0  0
 21 22  4  0  0  0  0
 22 23  4  0  0  0  0
 23 24  4  0  0  0  0
 23 26  1  0  0  0  0
 24 25  1  0  0  0  0
 26 27  4  0  0  0  0
 26 36  4  0  0  0  0
 27 28  4  0  0  0  0
 27 32  4  0  0  0  0
 28 29  4  0  0  0  0
 28 34  4  0  0  0  0
 29 30  4  0  0  0  0
 30 31  4  0  0  0  0
 30 33  1  0  0  0  0
 31 32  4  0  0  0  0
 34 35  4  0  0  0  0
 35 36  4  0  0  0  0
M  END
>  <Name_Molregno>
435631

>  <DOPAMINE D2>
5.6

>  <DOPAMINE D3>
7.2

$$$$
435672
  Marvin  02231216192D 0   1.00000     0.00000     0

 39 44  0  0  1  0  0  0  0  0999 V2000
    2.6138   -0.4079    0.0000 S   0  0  0  0  0  0  0  0  0
    2.2782   -1.1615    0.0000 C   0  0  0  0  0  0  0  0  0
    2.7632   -1.8290    0.0000 C   0  0  0  0  0  0  0  0  0
    2.4276   -2.5827    0.0000 C   0  0  0  0  0  0  0  0  0
    1.6071   -2.6689    0.0000 N   0  0  0  0  0  0  0  0  0
    1.3288   -3.4455    0.0000 C   0  0  0  0  0  0  0  0  0
    0.5481   -3.7122    0.0000 C   0  0  0  0  0  0  0  0  0
   -0.1471   -3.2680    0.0000 C   0  0  0  0  0  0  0  0  0
   -0.2334   -2.4476    0.0000 C   0  0  0  0  0  0  0  0  0
    0.3543   -1.8686    0.0000 C   0  0  0  0  0  0  0  0  0
    1.1734   -1.9671    0.0000 C   0  0  0  0  0  0  0  0  0
   -0.9871   -2.1120    0.0000 C   0  0  0  0  0  0  0  0  0
   -1.6545   -2.5969    0.0000 C   0  0  0  0  0  0  0  0  0
   -2.4615   -2.4254    0.0000 N   0  0  0  0  0  0  0  0  0
   -2.8740   -3.1399    0.0000 C   0  0  0  0  0  0  0  0  0
   -2.3219   -3.7530    0.0000 O   0  0  0  0  0  0  0  0  0
   -1.5683   -3.4174    0.0000 C   0  0  0  0  0  0  0  0  0
   -0.8146   -3.7530    0.0000 C   0  0  0  0  0  0  0  0  0
   -0.7283   -4.5735    0.0000 C   0  0  0  0  0  0  0  0  0
   -3.6944   -3.2261    0.0000 C   0  0  0  0  0  0  0  0  0
   -4.0300   -3.9798    0.0000 C   0  0  0  0  0  0  0  0  0
    2.9125   -3.2501    0.0000 C   0  0  0  0  0  0  0  0  0
    2.1289    0.2596    0.0000 C   0  0  0  0  0  0  0  0  0
    1.3039    0.2596    0.0000 N   0  0  0  0  0  0  0  0  0
    1.0489    1.0442    0.0000 N   0  0  0  0  0  0  0  0  0
    1.7164    1.5291    0.0000 C   0  0  0  0  0  0  0  0  0
    2.3838    1.0442    0.0000 N   0  0  0  0  0  0  0  0  0
    3.1684    1.2991    0.0000 C   0  0  0  0  0  0  0  0  0
    1.7164    2.3541    0.0000 C   0  0  0  0  0  0  0  0  0
    2.4308    2.7666    0.0000 C   0  0  0  0  0  0  0  0  0
    2.4308    3.5916    0.0000 C   0  0  0  0  0  0  0  0  0
    3.1453    4.0041    0.0000 N   0  0  0  0  0  0  0  0  0
    3.8598    3.5916    0.0000 C   0  0  0  0  0  0  0  0  0
    3.8598    2.7666    0.0000 C   0  0  0  0  0  0  0  0  0
    3.1453    2.3541    0.0000 C   0  0  0  0  0  0  0  0  0
    4.5743    4.0041    0.0000 C   0  0  0  0  0  0  0  0  0
    1.7164    4.0041    0.0000 C   0  0  0  0  0  0  0  0  0
    1.0019    3.5916    0.0000 C   0  0  0  0  0  0  0  0  0
    1.0019    2.7666    0.0000 C   0  0  0  0  0  0  0  0  0
  1  2  1  0  0  0  0
  1 23  1  0  0  0  0
  2  3  1  0  0  0  0
  3  4  1  0  0  0  0
  4  5  1  0  0  0  0
  4 22  1  0  0  0  0
  5  6  1  0  0  0  0
  5 11  1  0  0  0  0
  6  7  1  0  0  0  0
  7  8  1  0  0  0  0
  8  9  4  0  0  0  0
  8 18  4  0  0  0  0
  9 10  1  0  0  0  0
  9 12  4  0  0  0  0
 10 11  1  0  0  0  0
 12 13  4  0  0  0  0
 13 14  4  0  0  0  0
 13 17  4  0  0  0  0
 14 15  4  0  0  0  0
 15 16  4  0  0  0  0
 15 20  1  0  0  0  0
 16 17  4  0  0  0  0
 17 18  4  0  0  0  0
 18 19  1  0  0  0  0
 20 21  1  0  0  0  0
 23 24  4  0  0  0  0
 23 27  4  0  0  0  0
 24 25  4  0  0  0  0
 25 26  4  0  0  0  0
 26 27  4  0  0  0  0
 26 29  1  0  0  0  0
 27 28  1  0  0  0  0
 29 30  4  0  0  0  0
 29 39  4  0  0  0  0
 30 31  4  0  0  0  0
 30 35  4  0  0  0  0
 31 32  4  0  0  0  0
 31 37  4  0  0  0  0
 32 33  4  0  0  0  0
 33 34  4  0  0  0  0
 33 36  1  0  0  0  0
 34 35  4  0  0  0  0
 37 38  4  0  0  0  0
 38 39  4  0  0  0  0
M  END
>  <Name_Molregno>
435672

>  <DOPAMINE D3>
6.9

$$$$
435673
  Marvin  02231216192D 0   1.00000     0.00000     0

 41 46  0  0  1  0  0  0  0  0999 V2000
    0.5567    1.5813    0.0000 S   0  0  0  0  0  0  0  0  0
    0.2211    0.8276    0.0000 C   0  0  0  0  0  0  0  0  0
    0.7061    0.1602    0.0000 C   0  0  0  0  0  0  0  0  0
    0.3705   -0.5935    0.0000 C   0  0  0  0  0  0  0  0  0
    0.8554   -1.2609    0.0000 N   0  0  0  0  0  0  0  0  0
    1.6672   -1.1136    0.0000 C   0  0  0  0  0  0  0  0  0
    2.2885   -1.6564    0.0000 C   0  0  0  0  0  0  0  0  0
    2.2514   -2.4806    0.0000 C   0  0  0  0  0  0  0  0  0
    1.5840   -2.9655    0.0000 C   0  0  0  0  0  0  0  0  0
    0.7887   -2.7460    0.0000 C   0  0  0  0  0  0  0  0  0
    0.4645   -1.9874    0.0000 C   0  0  0  0  0  0  0  0  0
    1.6702   -3.7860    0.0000 C   0  0  0  0  0  0  0  0  0
    2.4239   -4.1216    0.0000 C   0  0  0  0  0  0  0  0  0
    2.6788   -4.9062    0.0000 N   0  0  0  0  0  0  0  0  0
    3.5038   -4.9062    0.0000 C   0  0  0  0  0  0  0  0  0
    3.7588   -4.1216    0.0000 O   0  0  0  0  0  0  0  0  0
    3.0913   -3.6366    0.0000 C   0  0  0  0  0  0  0  0  0
    3.0051   -2.8162    0.0000 C   0  0  0  0  0  0  0  0  0
    3.6726   -2.3312    0.0000 C   0  0  0  0  0  0  0  0  0
    3.9888   -5.5736    0.0000 C   0  0  0  0  0  0  0  0  0
    4.4737   -6.2411    0.0000 F   0  0  0  0  0  0  0  0  0
    4.6562   -5.0887    0.0000 F   0  0  0  0  0  0  0  0  0
    3.3213   -6.0585    0.0000 F   0  0  0  0  0  0  0  0  0
   -0.4500   -0.6797    0.0000 C   0  0  0  0  0  0  0  0  0
    0.0718    2.2487    0.0000 C   0  0  0  0  0  0  0  0  0
   -0.7532    2.2487    0.0000 N   0  0  0  0  0  0  0  0  0
   -1.0082    3.0334    0.0000 N   0  0  0  0  0  0  0  0  0
   -0.3407    3.5183    0.0000 C   0  0  0  0  0  0  0  0  0
    0.3267    3.0334    0.0000 N   0  0  0  0  0  0  0  0  0
    1.1113    3.2883    0.0000 C   0  0  0  0  0  0  0  0  0
   -0.3407    4.3433    0.0000 C   0  0  0  0  0  0  0  0  0
    0.3737    4.7558    0.0000 C   0  0  0  0  0  0  0  0  0
    0.3737    5.5808    0.0000 C   0  0  0  0  0  0  0  0  0
    1.0882    5.9933    0.0000 N   0  0  0  0  0  0  0  0  0
    1.8027    5.5808    0.0000 C   0  0  0  0  0  0  0  0  0
    1.8027    4.7558    0.0000 C   0  0  0  0  0  0  0  0  0
    1.0882    4.3433    0.0000 C   0  0  0  0  0  0  0  0  0
    2.5172    5.9933    0.0000 C   0  0  0  0  0  0  0  0  0
   -0.3407    5.9933    0.0000 C   0  0  0  0  0  0  0  0  0
   -1.0552    5.5808    0.0000 C   0  0  0  0  0  0  0  0  0
   -1.0552    4.7558    0.0000 C   0  0  0  0  0  0  0  0  0
  1  2  1  0  0  0  0
  1 25  1  0  0  0  0
  2  3  1  0  0  0  0
  3  4  1  0  0  0  0
  4  5  1  0  0  0  0
  4 24  1  0  0  0  0
  5  6  1  0  0  0  0
  5 11  1  0  0  0  0
  6  7  1  0  0  0  0
  7  8  1  0  0  0  0
  8  9  4  0  0  0  0
  8 18  4  0  0  0  0
  9 10  1  0  0  0  0
  9 12  4  0  0  0  0
 10 11  1  0  0  0  0
 12 13  4  0  0  0  0
 13 14  4  0  0  0  0
 13 17  4  0  0  0  0
 14 15  4  0  0  0  0
 15 16  4  0  0  0  0
 15 20  1  0  0  0  0
 16 17  4  0  0  0  0
 17 18  4  0  0  0  0
 18 19  1  0  0  0  0
 20 21  1  0  0  0  0
 20 22  1  0  0  0  0
 20 23  1  0  0  0  0
 25 26  4  0  0  0  0
 25 29  4  0  0  0  0
 26 27  4  0  0  0  0
 27 28  4  0  0  0  0
 28 29  4  0  0  0  0
 28 31  1  0  0  0  0
 29 30  1  0  0  0  0
 31 32  4  0  0  0  0
 31 41  4  0  0  0  0
 32 33  4  0  0  0  0
 32 37  4  0  0  0  0
 33 34  4  0  0  0  0
 33 39  4  0  0  0  0
 34 35  4  0  0  0  0
 35 36  4  0  0  0  0
 35 38  1  0  0  0  0
 36 37  4  0  0  0  0
 39 40  4  0  0  0  0
 40 41  4  0  0  0  0
M  END
>  <Name_Molregno>
435673

>  <DOPAMINE D3>
7.1

$$$$
435675
  Marvin  02231216192D 0   1.00000     0.00000     0

 38 43  0  0  0  0  0  0  0  0999 V2000
    0.6891   -0.2145    0.0000 S   0  0  0  0  0  0  0  0  0
    0.3535   -0.9682    0.0000 C   0  0  0  0  0  0  0  0  0
    0.8385   -1.6356    0.0000 C   0  0  0  0  0  0  0  0  0
    0.5029   -2.3893    0.0000 C   0  0  0  0  0  0  0  0  0
   -0.3176   -2.4756    0.0000 N   0  0  0  0  0  0  0  0  0
   -0.5959   -3.2522    0.0000 C   0  0  0  0  0  0  0  0  0
   -1.3766   -3.5189    0.0000 C   0  0  0  0  0  0  0  0  0
   -2.0718   -3.0747    0.0000 C   0  0  0  0  0  0  0  0  0
   -2.1581   -2.2542    0.0000 C   0  0  0  0  0  0  0  0  0
   -1.5704   -1.6752    0.0000 C   0  0  0  0  0  0  0  0  0
   -0.7513   -1.7737    0.0000 C   0  0  0  0  0  0  0  0  0
   -2.9118   -1.9187    0.0000 C   0  0  0  0  0  0  0  0  0
   -3.5792   -2.4036    0.0000 C   0  0  0  0  0  0  0  0  0
   -4.3862   -2.2321    0.0000 O   0  0  0  0  0  0  0  0  0
   -4.7987   -2.9465    0.0000 C   0  0  0  0  0  0  0  0  0
   -4.2466   -3.5596    0.0000 N   0  0  0  0  0  0  0  0  0
   -3.4930   -3.2241    0.0000 C   0  0  0  0  0  0  0  0  0
   -2.7393   -3.5596    0.0000 C   0  0  0  0  0  0  0  0  0
   -5.6191   -3.0328    0.0000 C   0  0  0  0  0  0  0  0  0
   -5.9547   -3.7865    0.0000 O   0  0  0  0  0  0  0  0  0
   -6.7752   -3.8727    0.0000 C   0  0  0  0  0  0  0  0  0
    0.2042    0.4529    0.0000 C   0  0  0  0  0  0  0  0  0
   -0.6208    0.4529    0.0000 N   0  0  0  0  0  0  0  0  0
   -0.8758    1.2375    0.0000 N   0  0  0  0  0  0  0  0  0
   -0.2083    1.7224    0.0000 C   0  0  0  0  0  0  0  0  0
    0.4591    1.2375    0.0000 N   0  0  0  0  0  0  0  0  0
    1.2437    1.4925    0.0000 C   0  0  0  0  0  0  0  0  0
   -0.2083    2.5474    0.0000 C   0  0  0  0  0  0  0  0  0
    0.5061    2.9599    0.0000 C   0  0  0  0  0  0  0  0  0
    0.5061    3.7849    0.0000 C   0  0  0  0  0  0  0  0  0
    1.2206    4.1974    0.0000 N   0  0  0  0  0  0  0  0  0
    1.9351    3.7849    0.0000 C   0  0  0  0  0  0  0  0  0
    1.9351    2.9599    0.0000 C   0  0  0  0  0  0  0  0  0
    1.2206    2.5474    0.0000 C   0  0  0  0  0  0  0  0  0
    2.6496    4.1974    0.0000 C   0  0  0  0  0  0  0  0  0
   -0.2083    4.1974    0.0000 C   0  0  0  0  0  0  0  0  0
   -0.9228    3.7849    0.0000 C   0  0  0  0  0  0  0  0  0
   -0.9228    2.9599    0.0000 C   0  0  0  0  0  0  0  0  0
  1  2  1  0  0  0  0
  1 22  1  0  0  0  0
  2  3  1  0  0  0  0
  3  4  1  0  0  0  0
  4  5  1  0  0  0  0
  5  6  1  0  0  0  0
  5 11  1  0  0  0  0
  6  7  1  0  0  0  0
  7  8  1  0  0  0  0
  8  9  4  0  0  0  0
  8 18  4  0  0  0  0
  9 10  1  0  0  0  0
  9 12  4  0  0  0  0
 10 11  1  0  0  0  0
 12 13  4  0  0  0  0
 13 14  4  0  0  0  0
 13 17  4  0  0  0  0
 14 15  4  0  0  0  0
 15 16  4  0  0  0  0
 15 19  1  0  0  0  0
 16 17  4  0  0  0  0
 17 18  4  0  0  0  0
 19 20  1  0  0  0  0
 20 21  1  0  0  0  0
 22 23  4  0  0  0  0
 22 26  4  0  0  0  0
 23 24  4  0  0  0  0
 24 25  4  0  0  0  0
 25 26  4  0  0  0  0
 25 28  1  0  0  0  0
 26 27  1  0  0  0  0
 28 29  4  0  0  0  0
 28 38  4  0  0  0  0
 29 30  4  0  0  0  0
 29 34  4  0  0  0  0
 30 31  4  0  0  0  0
 30 36  4  0  0  0  0
 31 32  4  0  0  0  0
 32 33  4  0  0  0  0
 32 35  1  0  0  0  0
 33 34  4  0  0  0  0
 36 37  4  0  0  0  0
 37 38  4  0  0  0  0
M  END
>  <Name_Molregno>
435675

>  <DOPAMINE D3>
6.6

$$$$
435676
  Marvin  02231216192D 0   1.00000     0.00000     0

 39 44  0  0  0  0  0  0  0  0999 V2000
   -2.1047    1.0393    0.0000 S   0  0  0  0  0  0  0  0  0
   -2.4402    0.2857    0.0000 C   0  0  0  0  0  0  0  0  0
   -1.9553   -0.3818    0.0000 C   0  0  0  0  0  0  0  0  0
   -2.2909   -1.1355    0.0000 C   0  0  0  0  0  0  0  0  0
   -1.8059   -1.8029    0.0000 N   0  0  0  0  0  0  0  0  0
   -0.9942   -1.6556    0.0000 C   0  0  0  0  0  0  0  0  0
   -0.3729   -2.1984    0.0000 C   0  0  0  0  0  0  0  0  0
   -0.4099   -3.0226    0.0000 C   0  0  0  0  0  0  0  0  0
   -1.0774   -3.5075    0.0000 C   0  0  0  0  0  0  0  0  0
   -1.8726   -3.2880    0.0000 C   0  0  0  0  0  0  0  0  0
   -2.1969   -2.5294    0.0000 C   0  0  0  0  0  0  0  0  0
   -0.9911   -4.3280    0.0000 C   0  0  0  0  0  0  0  0  0
   -0.2374   -4.6635    0.0000 C   0  0  0  0  0  0  0  0  0
    0.0175   -5.4481    0.0000 O   0  0  0  0  0  0  0  0  0
    0.8425   -5.4481    0.0000 C   0  0  0  0  0  0  0  0  0
    1.0974   -4.6635    0.0000 N   0  0  0  0  0  0  0  0  0
    0.4300   -4.1786    0.0000 C   0  0  0  0  0  0  0  0  0
    0.3438   -3.3581    0.0000 C   0  0  0  0  0  0  0  0  0
    1.3274   -6.1156    0.0000 C   0  0  0  0  0  0  0  0  0
    1.8123   -6.7830    0.0000 F   0  0  0  0  0  0  0  0  0
    1.9949   -5.6307    0.0000 F   0  0  0  0  0  0  0  0  0
    0.6600   -6.6005    0.0000 C   0  0  0  0  0  0  0  0  0
   -2.5896    1.7068    0.0000 C   0  0  0  0  0  0  0  0  0
   -3.4146    1.7068    0.0000 N   0  0  0  0  0  0  0  0  0
   -3.6695    2.4914    0.0000 N   0  0  0  0  0  0  0  0  0
   -3.0021    2.9763    0.0000 C   0  0  0  0  0  0  0  0  0
   -2.3346    2.4914    0.0000 N   0  0  0  0  0  0  0  0  0
   -1.5500    2.7463    0.0000 C   0  0  0  0  0  0  0  0  0
   -3.0021    3.8013    0.0000 C   0  0  0  0  0  0  0  0  0
   -2.2876    4.2138    0.0000 C   0  0  0  0  0  0  0  0  0
   -2.2876    5.0388    0.0000 C   0  0  0  0  0  0  0  0  0
   -1.5731    5.4513    0.0000 N   0  0  0  0  0  0  0  0  0
   -0.8587    5.0388    0.0000 C   0  0  0  0  0  0  0  0  0
   -0.8587    4.2138    0.0000 C   0  0  0  0  0  0  0  0  0
   -1.5731    3.8013    0.0000 C   0  0  0  0  0  0  0  0  0
   -0.1442    5.4513    0.0000 C   0  0  0  0  0  0  0  0  0
   -3.0021    5.4513    0.0000 C   0  0  0  0  0  0  0  0  0
   -3.7166    5.0388    0.0000 C   0  0  0  0  0  0  0  0  0
   -3.7166    4.2138    0.0000 C   0  0  0  0  0  0  0  0  0
  1  2  1  0  0  0  0
  1 23  1  0  0  0  0
  2  3  1  0  0  0  0
  3  4  1  0  0  0  0
  4  5  1  0  0  0  0
  5  6  1  0  0  0  0
  5 11  1  0  0  0  0
  6  7  1  0  0  0  0
  7  8  1  0  0  0  0
  8  9  4  0  0  0  0
  8 18  4  0  0  0  0
  9 10  1  0  0  0  0
  9 12  4  0  0  0  0
 10 11  1  0  0  0  0
 12 13  4  0  0  0  0
 13 14  4  0  0  0  0
 13 17  4  0  0  0  0
 14 15  4  0  0  0  0
 15 16  4  0  0  0  0
 15 19  1  0  0  0  0
 16 17  4  0  0  0  0
 17 18  4  0  0  0  0
 19 20  1  0  0  0  0
 19 21  1  0  0  0  0
 19 22  1  0  0  0  0
 23 24  4  0  0  0  0
 23 27  4  0  0  0  0
 24 25  4  0  0  0  0
 25 26  4  0  0  0  0
 26 27  4  0  0  0  0
 26 29  1  0  0  0  0
 27 28  1  0  0  0  0
 29 30  4  0  0  0  0
 29 39  4  0  0  0  0
 30 31  4  0  0  0  0
 30 35  4  0  0  0  0
 31 32  4  0  0  0  0
 31 37  4  0  0  0  0
 32 33  4  0  0  0  0
 33 34  4  0  0  0  0
 33 36  1  0  0  0  0
 34 35  4  0  0  0  0
 37 38  4  0  0  0  0
 38 39  4  0  0  0  0
M  END
>  <Name_Molregno>
435676

>  <DOPAMINE D3>
8.2

$$$$
435677
  Marvin  02231216192D 0   1.00000     0.00000     0

 34 38  0  0  0  0  0  0  0  0999 V2000
    0.0088   -0.4959    0.0000 S   0  0  0  0  0  0  0  0  0
   -0.4037    0.2186    0.0000 C   0  0  0  0  0  0  0  0  0
   -1.2287    0.2186    0.0000 C   0  0  0  0  0  0  0  0  0
   -1.6412    0.9331    0.0000 C   0  0  0  0  0  0  0  0  0
   -2.4662    0.9331    0.0000 N   0  0  0  0  0  0  0  0  0
   -2.8242    0.1898    0.0000 C   0  0  0  0  0  0  0  0  0
   -3.6285    0.0062    0.0000 C   0  0  0  0  0  0  0  0  0
   -4.2735    0.5206    0.0000 C   0  0  0  0  0  0  0  0  0
   -4.2735    1.3456    0.0000 C   0  0  0  0  0  0  0  0  0
   -3.6285    1.8599    0.0000 C   0  0  0  0  0  0  0  0  0
   -2.8242    1.6764    0.0000 C   0  0  0  0  0  0  0  0  0
   -4.9880    1.7581    0.0000 C   0  0  0  0  0  0  0  0  0
   -5.7024    1.3456    0.0000 C   0  0  0  0  0  0  0  0  0
   -6.4870    1.6005    0.0000 O   0  0  0  0  0  0  0  0  0
   -6.9720    0.9331    0.0000 C   0  0  0  0  0  0  0  0  0
   -6.4870    0.2656    0.0000 N   0  0  0  0  0  0  0  0  0
   -5.7024    0.5206    0.0000 C   0  0  0  0  0  0  0  0  0
   -4.9880    0.1081    0.0000 C   0  0  0  0  0  0  0  0  0
   -7.7970    0.9331    0.0000 C   0  0  0  0  0  0  0  0  0
   -8.6220    0.9331    0.0000 F   0  0  0  0  0  0  0  0  0
   -7.7970    0.1081    0.0000 F   0  0  0  0  0  0  0  0  0
   -7.7970    1.7581    0.0000 C   0  0  0  0  0  0  0  0  0
    0.8338   -0.4959    0.0000 C   0  0  0  0  0  0  0  0  0
    1.3187    0.1716    0.0000 N   0  0  0  0  0  0  0  0  0
    2.1033   -0.0834    0.0000 N   0  0  0  0  0  0  0  0  0
    2.1033   -0.9084    0.0000 C   0  0  0  0  0  0  0  0  0
    1.3187   -1.1633    0.0000 N   0  0  0  0  0  0  0  0  0
    1.0638   -1.9479    0.0000 C   0  0  0  0  0  0  0  0  0
    2.7708   -1.3933    0.0000 C   0  0  0  0  0  0  0  0  0
    3.5554   -1.1384    0.0000 O   0  0  0  0  0  0  0  0  0
    4.0403   -1.8058    0.0000 C   0  0  0  0  0  0  0  0  0
    3.5554   -2.4732    0.0000 N   0  0  0  0  0  0  0  0  0
    2.7708   -2.2183    0.0000 C   0  0  0  0  0  0  0  0  0
    2.1033   -2.7032    0.0000 C   0  0  0  0  0  0  0  0  0
  1  2  1  0  0  0  0
  1 23  1  0  0  0  0
  2  3  1  0  0  0  0
  3  4  1  0  0  0  0
  4  5  1  0  0  0  0
  5  6  1  0  0  0  0
  5 11  1  0  0  0  0
  6  7  1  0  0  0  0
  7  8  1  0  0  0  0
  8  9  4  0  0  0  0
  8 18  4  0  0  0  0
  9 10  1  0  0  0  0
  9 12  4  0  0  0  0
 10 11  1  0  0  0  0
 12 13  4  0  0  0  0
 13 14  4  0  0  0  0
 13 17  4  0  0  0  0
 14 15  4  0  0  0  0
 15 16  4  0  0  0  0
 15 19  1  0  0  0  0
 16 17  4  0  0  0  0
 17 18  4  0  0  0  0
 19 20  1  0  0  0  0
 19 21  1  0  0  0  0
 19 22  1  0  0  0  0
 23 24  4  0  0  0  0
 23 27  4  0  0  0  0
 24 25  4  0  0  0  0
 25 26  4  0  0  0  0
 26 27  4  0  0  0  0
 26 29  1  0  0  0  0
 27 28  1  0  0  0  0
 29 30  4  0  0  0  0
 29 33  4  0  0  0  0
 30 31  4  0  0  0  0
 31 32  4  0  0  0  0
 32 33  4  0  0  0  0
 33 34  1  0  0  0  0
M  END
>  <Name_Molregno>
435677

>  <DOPAMINE D3>
7.7

$$$$
435678
  Marvin  02231216192D 0   1.00000     0.00000     0

 31 35  0  0  0  0  0  0  0  0999 V2000
    3.1049   -0.3311    0.0000 S   0  0  0  0  0  0  0  0  0
    2.6924    0.3833    0.0000 C   0  0  0  0  0  0  0  0  0
    1.8674    0.3833    0.0000 C   0  0  0  0  0  0  0  0  0
    1.4549    1.0978    0.0000 C   0  0  0  0  0  0  0  0  0
    0.6299    1.0978    0.0000 N   0  0  0  0  0  0  0  0  0
    0.2719    0.3545    0.0000 C   0  0  0  0  0  0  0  0  0
   -0.5324    0.1709    0.0000 C   0  0  0  0  0  0  0  0  0
   -1.1774    0.6853    0.0000 C   0  0  0  0  0  0  0  0  0
   -1.1774    1.5103    0.0000 C   0  0  0  0  0  0  0  0  0
   -0.5324    2.0247    0.0000 C   0  0  0  0  0  0  0  0  0
    0.2719    1.8411    0.0000 C   0  0  0  0  0  0  0  0  0
   -1.8919    1.9228    0.0000 C   0  0  0  0  0  0  0  0  0
   -2.6063    1.5103    0.0000 C   0  0  0  0  0  0  0  0  0
   -3.3910    1.7652    0.0000 O   0  0  0  0  0  0  0  0  0
   -3.8759    1.0978    0.0000 N   0  0  0  0  0  0  0  0  0
   -3.3910    0.4304    0.0000 C   0  0  0  0  0  0  0  0  0
   -2.6063    0.6853    0.0000 C   0  0  0  0  0  0  0  0  0
   -1.8919    0.2728    0.0000 C   0  0  0  0  0  0  0  0  0
   -3.6459   -0.3543    0.0000 C   0  0  0  0  0  0  0  0  0
    3.9299   -0.3311    0.0000 C   0  0  0  0  0  0  0  0  0
    4.4148    0.3363    0.0000 N   0  0  0  0  0  0  0  0  0
    5.1994    0.0814    0.0000 N   0  0  0  0  0  0  0  0  0
    5.1994   -0.7436    0.0000 C   0  0  0  0  0  0  0  0  0
    4.4148   -0.9986    0.0000 N   0  0  0  0  0  0  0  0  0
    4.1599   -1.7832    0.0000 C   0  0  0  0  0  0  0  0  0
    5.8669   -1.2286    0.0000 C   0  0  0  0  0  0  0  0  0
    6.6515   -0.9736    0.0000 O   0  0  0  0  0  0  0  0  0
    7.1364   -1.6411    0.0000 C   0  0  0  0  0  0  0  0  0
    6.6515   -2.3085    0.0000 N   0  0  0  0  0  0  0  0  0
    5.8669   -2.0536    0.0000 C   0  0  0  0  0  0  0  0  0
    5.1994   -2.5385    0.0000 C   0  0  0  0  0  0  0  0  0
  1  2  1  0  0  0  0
  1 20  1  0  0  0  0
  2  3  1  0  0  0  0
  3  4  1  0  0  0  0
  4  5  1  0  0  0  0
  5  6  1  0  0  0  0
  5 11  1  0  0  0  0
  6  7  1  0  0  0  0
  7  8  1  0  0  0  0
  8  9  4  0  0  0  0
  8 18  4  0  0  0  0
  9 10  1  0  0  0  0
  9 12  4  0  0  0  0
 10 11  1  0  0  0  0
 12 13  4  0  0  0  0
 13 14  4  0  0  0  0
 13 17  4  0  0  0  0
 14 15  4  0  0  0  0
 15 16  4  0  0  0  0
 16 17  4  0  0  0  0
 16 19  1  0  0  0  0
 17 18  4  0  0  0  0
 20 21  4  0  0  0  0
 20 24  4  0  0  0  0
 21 22  4  0  0  0  0
 22 23  4  0  0  0  0
 23 24  4  0  0  0  0
 23 26  1  0  0  0  0
 24 25  1  0  0  0  0
 26 27  4  0  0  0  0
 26 30  4  0  0  0  0
 27 28  4  0  0  0  0
 28 29  4  0  0  0  0
 29 30  4  0  0  0  0
 30 31  1  0  0  0  0
M  END
>  <Name_Molregno>
435678

>  <DOPAMINE D3>
6.8

$$$$
435679
  Marvin  02231216192D 0   1.00000     0.00000     0

 37 42  0  0  0  0  0  0  0  0999 V2000
    1.4074   -1.1932    0.0000 S   0  0  0  0  0  0  0  0  0
    1.0718   -1.9469    0.0000 C   0  0  0  0  0  0  0  0  0
    0.2514   -2.0331    0.0000 C   0  0  0  0  0  0  0  0  0
   -0.2336   -1.3657    0.0000 C   0  0  0  0  0  0  0  0  0
   -1.0540   -1.4519    0.0000 N   0  0  0  0  0  0  0  0  0
   -1.3323   -2.2286    0.0000 C   0  0  0  0  0  0  0  0  0
   -2.1131   -2.4952    0.0000 C   0  0  0  0  0  0  0  0  0
   -2.8083   -2.0511    0.0000 C   0  0  0  0  0  0  0  0  0
   -2.8945   -1.2306    0.0000 C   0  0  0  0  0  0  0  0  0
   -2.3068   -0.6516    0.0000 C   0  0  0  0  0  0  0  0  0
   -1.4877   -0.7501    0.0000 C   0  0  0  0  0  0  0  0  0
   -3.6482   -0.8950    0.0000 C   0  0  0  0  0  0  0  0  0
   -4.3157   -1.3800    0.0000 C   0  0  0  0  0  0  0  0  0
   -5.1226   -1.2084    0.0000 O   0  0  0  0  0  0  0  0  0
   -5.5351   -1.9229    0.0000 N   0  0  0  0  0  0  0  0  0
   -4.9831   -2.5360    0.0000 C   0  0  0  0  0  0  0  0  0
   -4.2294   -2.2004    0.0000 C   0  0  0  0  0  0  0  0  0
   -3.4757   -2.5360    0.0000 C   0  0  0  0  0  0  0  0  0
   -5.1546   -3.3430    0.0000 C   0  0  0  0  0  0  0  0  0
   -5.9392   -3.5979    0.0000 C   0  0  0  0  0  0  0  0  0
    0.9225   -0.5258    0.0000 C   0  0  0  0  0  0  0  0  0
    0.0975   -0.5258    0.0000 N   0  0  0  0  0  0  0  0  0
   -0.1575    0.2588    0.0000 N   0  0  0  0  0  0  0  0  0
    0.5100    0.7438    0.0000 C   0  0  0  0  0  0  0  0  0
    1.1774    0.2588    0.0000 N   0  0  0  0  0  0  0  0  0
    1.9620    0.5138    0.0000 C   0  0  0  0  0  0  0  0  0
    0.5100    1.5688    0.0000 C   0  0  0  0  0  0  0  0  0
    1.2244    1.9813    0.0000 C   0  0  0  0  0  0  0  0  0
    1.2244    2.8063    0.0000 C   0  0  0  0  0  0  0  0  0
    1.9389    3.2188    0.0000 N   0  0  0  0  0  0  0  0  0
    2.6534    2.8063    0.0000 C   0  0  0  0  0  0  0  0  0
    2.6534    1.9813    0.0000 C   0  0  0  0  0  0  0  0  0
    1.9389    1.5688    0.0000 C   0  0  0  0  0  0  0  0  0
    3.3679    3.2188    0.0000 C   0  0  0  0  0  0  0  0  0
    0.5100    3.2188    0.0000 C   0  0  0  0  0  0  0  0  0
   -0.2045    2.8063    0.0000 C   0  0  0  0  0  0  0  0  0
   -0.2045    1.9813    0.0000 C   0  0  0  0  0  0  0  0  0
  1  2  1  0  0  0  0
  1 21  1  0  0  0  0
  2  3  1  0  0  0  0
  3  4  1  0  0  0  0
  4  5  1  0  0  0  0
  5  6  1  0  0  0  0
  5 11  1  0  0  0  0
  6  7  1  0  0  0  0
  7  8  1  0  0  0  0
  8  9  4  0  0  0  0
  8 18  4  0  0  0  0
  9 10  1  0  0  0  0
  9 12  4  0  0  0  0
 10 11  1  0  0  0  0
 12 13  4  0  0  0  0
 13 14  4  0  0  0  0
 13 17  4  0  0  0  0
 14 15  4  0  0  0  0
 15 16  4  0  0  0  0
 16 17  4  0  0  0  0
 16 19  1  0  0  0  0
 17 18  4  0  0  0  0
 19 20  1  0  0  0  0
 21 22  4  0  0  0  0
 21 25  4  0  0  0  0
 22 23  4  0  0  0  0
 23 24  4  0  0  0  0
 24 25  4  0  0  0  0
 24 27  1  0  0  0  0
 25 26  1  0  0  0  0
 27 28  4  0  0  0  0
 27 37  4  0  0  0  0
 28 29  4  0  0  0  0
 28 33  4  0  0  0  0
 29 30  4  0  0  0  0
 29 35  4  0  0  0  0
 30 31  4  0  0  0  0
 31 32  4  0  0  0  0
 31 34  1  0  0  0  0
 32 33  4  0  0  0  0
 35 36  4  0  0  0  0
 36 37  4  0  0  0  0
M  END
>  <Name_Molregno>
435679

>  <DOPAMINE D3>
7.6

$$$$
435681
  Marvin  02231216192D 0   1.00000     0.00000     0

 36 41  0  0  0  0  0  0  0  0999 V2000
   -1.3094    0.4342    0.0000 S   0  0  0  0  0  0  0  0  0
   -1.6450   -0.3195    0.0000 C   0  0  0  0  0  0  0  0  0
   -1.1600   -0.9870    0.0000 C   0  0  0  0  0  0  0  0  0
   -1.4956   -1.7406    0.0000 C   0  0  0  0  0  0  0  0  0
   -1.0107   -2.4081    0.0000 N   0  0  0  0  0  0  0  0  0
   -0.1989   -2.2608    0.0000 C   0  0  0  0  0  0  0  0  0
    0.4223   -2.8036    0.0000 C   0  0  0  0  0  0  0  0  0
    0.3853   -3.6277    0.0000 C   0  0  0  0  0  0  0  0  0
   -0.2821   -4.1126    0.0000 C   0  0  0  0  0  0  0  0  0
   -1.0774   -3.8932    0.0000 C   0  0  0  0  0  0  0  0  0
   -1.4016   -3.1346    0.0000 C   0  0  0  0  0  0  0  0  0
   -0.1959   -4.9331    0.0000 C   0  0  0  0  0  0  0  0  0
    0.5578   -5.2687    0.0000 C   0  0  0  0  0  0  0  0  0
    0.8127   -6.0533    0.0000 O   0  0  0  0  0  0  0  0  0
    1.6377   -6.0533    0.0000 N   0  0  0  0  0  0  0  0  0
    1.8927   -5.2687    0.0000 C   0  0  0  0  0  0  0  0  0
    1.2252   -4.7838    0.0000 C   0  0  0  0  0  0  0  0  0
    1.1390   -3.9633    0.0000 C   0  0  0  0  0  0  0  0  0
    2.6773   -5.0137    0.0000 C   0  0  0  0  0  0  0  0  0
   -1.7943    1.1016    0.0000 C   0  0  0  0  0  0  0  0  0
   -2.6193    1.1016    0.0000 N   0  0  0  0  0  0  0  0  0
   -2.8743    1.8862    0.0000 N   0  0  0  0  0  0  0  0  0
   -2.2068    2.3711    0.0000 C   0  0  0  0  0  0  0  0  0
   -1.5394    1.8862    0.0000 N   0  0  0  0  0  0  0  0  0
   -0.7548    2.1412    0.0000 C   0  0  0  0  0  0  0  0  0
   -2.2068    3.1961    0.0000 C   0  0  0  0  0  0  0  0  0
   -1.4924    3.6086    0.0000 C   0  0  0  0  0  0  0  0  0
   -1.4924    4.4336    0.0000 C   0  0  0  0  0  0  0  0  0
   -0.7779    4.8461    0.0000 N   0  0  0  0  0  0  0  0  0
   -0.0634    4.4336    0.0000 C   0  0  0  0  0  0  0  0  0
   -0.0634    3.6086    0.0000 C   0  0  0  0  0  0  0  0  0
   -0.7779    3.1961    0.0000 C   0  0  0  0  0  0  0  0  0
    0.6510    4.8461    0.0000 C   0  0  0  0  0  0  0  0  0
   -2.2068    4.8461    0.0000 C   0  0  0  0  0  0  0  0  0
   -2.9213    4.4336    0.0000 C   0  0  0  0  0  0  0  0  0
   -2.9213    3.6086    0.0000 C   0  0  0  0  0  0  0  0  0
  1  2  1  0  0  0  0
  1 20  1  0  0  0  0
  2  3  1  0  0  0  0
  3  4  1  0  0  0  0
  4  5  1  0  0  0  0
  5  6  1  0  0  0  0
  5 11  1  0  0  0  0
  6  7  1  0  0  0  0
  7  8  1  0  0  0  0
  8  9  4  0  0  0  0
  8 18  4  0  0  0  0
  9 10  1  0  0  0  0
  9 12  4  0  0  0  0
 10 11  1  0  0  0  0
 12 13  4  0  0  0  0
 13 14  4  0  0  0  0
 13 17  4  0  0  0  0
 14 15  4  0  0  0  0
 15 16  4  0  0  0  0
 16 17  4  0  0  0  0
 16 19  1  0  0  0  0
 17 18  4  0  0  0  0
 20 21  4  0  0  0  0
 20 24  4  0  0  0  0
 21 22  4  0  0  0  0
 22 23  4  0  0  0  0
 23 24  4  0  0  0  0
 23 26  1  0  0  0  0
 24 25  1  0  0  0  0
 26 27  4  0  0  0  0
 26 36  4  0  0  0  0
 27 28  4  0  0  0  0
 27 32  4  0  0  0  0
 28 29  4  0  0  0  0
 28 34  4  0  0  0  0
 29 30  4  0  0  0  0
 30 31  4  0  0  0  0
 30 33  1  0  0  0  0
 31 32  4  0  0  0  0
 34 35  4  0  0  0  0
 35 36  4  0  0  0  0
M  END
>  <Name_Molregno>
435681

>  <DOPAMINE D3>
7.7

$$$$
435708
  Marvin  02231216192D 0   1.00000     0.00000     0

 39 44  0  0  0  0  0  0  0  0999 V2000
    1.8082   -1.4638    0.0000 S   0  0  0  0  0  0  0  0  0
    2.1437   -0.7102    0.0000 C   0  0  0  0  0  0  0  0  0
    1.6588   -0.0427    0.0000 C   0  0  0  0  0  0  0  0  0
    1.9944    0.7109    0.0000 C   0  0  0  0  0  0  0  0  0
    1.5095    1.3784    0.0000 N   0  0  0  0  0  0  0  0  0
    0.6977    1.2311    0.0000 C   0  0  0  0  0  0  0  0  0
    0.0764    1.7739    0.0000 C   0  0  0  0  0  0  0  0  0
    0.1134    2.5980    0.0000 C   0  0  0  0  0  0  0  0  0
   -0.6402    2.9336    0.0000 C   0  0  0  0  0  0  0  0  0
   -0.7265    3.7541    0.0000 C   0  0  0  0  0  0  0  0  0
   -0.0590    4.2390    0.0000 C   0  0  0  0  0  0  0  0  0
    0.6947    3.9034    0.0000 C   0  0  0  0  0  0  0  0  0
    0.7809    3.0830    0.0000 C   0  0  0  0  0  0  0  0  0
    1.5762    2.8635    0.0000 C   0  0  0  0  0  0  0  0  0
    1.9004    2.1049    0.0000 C   0  0  0  0  0  0  0  0  0
   -1.4801    4.0896    0.0000 C   0  0  0  0  0  0  0  0  0
   -2.1946    3.6771    0.0000 N   0  0  0  0  0  0  0  0  0
   -2.8077    4.2292    0.0000 N   0  0  0  0  0  0  0  0  0
   -2.4721    4.9828    0.0000 C   0  0  0  0  0  0  0  0  0
   -1.6517    4.8966    0.0000 C   0  0  0  0  0  0  0  0  0
   -2.8846    5.6973    0.0000 C   0  0  0  0  0  0  0  0  0
   -2.2808    2.8567    0.0000 C   0  0  0  0  0  0  0  0  0
    2.2931   -2.1313    0.0000 C   0  0  0  0  0  0  0  0  0
    3.1181   -2.1313    0.0000 N   0  0  0  0  0  0  0  0  0
    3.3731   -2.9159    0.0000 N   0  0  0  0  0  0  0  0  0
    2.7056   -3.4008    0.0000 C   0  0  0  0  0  0  0  0  0
    2.0382   -2.9159    0.0000 N   0  0  0  0  0  0  0  0  0
    1.2536   -3.1708    0.0000 C   0  0  0  0  0  0  0  0  0
    2.7056   -4.2258    0.0000 C   0  0  0  0  0  0  0  0  0
    3.4201   -4.6383    0.0000 C   0  0  0  0  0  0  0  0  0
    4.1346   -4.2258    0.0000 C   0  0  0  0  0  0  0  0  0
    4.8490   -4.6383    0.0000 C   0  0  0  0  0  0  0  0  0
    4.8490   -5.4633    0.0000 N   0  0  0  0  0  0  0  0  0
    4.1346   -5.8758    0.0000 C   0  0  0  0  0  0  0  0  0
    3.4201   -5.4633    0.0000 C   0  0  0  0  0  0  0  0  0
    2.7056   -5.8758    0.0000 C   0  0  0  0  0  0  0  0  0
    1.9911   -5.4633    0.0000 C   0  0  0  0  0  0  0  0  0
    1.9911   -4.6383    0.0000 C   0  0  0  0  0  0  0  0  0
    5.5635   -4.2258    0.0000 C   0  0  0  0  0  0  0  0  0
  1  2  1  0  0  0  0
  1 23  1  0  0  0  0
  2  3  1  0  0  0  0
  3  4  1  0  0  0  0
  4  5  1  0  0  0  0
  5  6  1  0  0  0  0
  5 15  1  0  0  0  0
  6  7  1  0  0  0  0
  7  8  1  0  0  0  0
  8  9  4  0  0  0  0
  8 13  4  0  0  0  0
  9 10  4  0  0  0  0
 10 11  4  0  0  0  0
 10 16  1  0  0  0  0
 11 12  4  0  0  0  0
 12 13  4  0  0  0  0
 13 14  1  0  0  0  0
 14 15  1  0  0  0  0
 16 17  4  0  0  0  0
 16 20  4  0  0  0  0
 17 18  4  0  0  0  0
 17 22  1  0  0  0  0
 18 19  4  0  0  0  0
 19 20  4  0  0  0  0
 19 21  1  0  0  0  0
 23 24  4  0  0  0  0
 23 27  4  0  0  0  0
 24 25  4  0  0  0  0
 25 26  4  0  0  0  0
 26 27  4  0  0  0  0
 26 29  1  0  0  0  0
 27 28  1  0  0  0  0
 29 30  4  0  0  0  0
 29 38  4  0  0  0  0
 30 31  4  0  0  0  0
 30 35  4  0  0  0  0
 31 32  4  0  0  0  0
 32 33  4  0  0  0  0
 32 39  1  0  0  0  0
 33 34  4  0  0  0  0
 34 35  4  0  0  0  0
 35 36  4  0  0  0  0
 36 37  4  0  0  0  0
 37 38  4  0  0  0  0
M  END
>  <Name_Molregno>
435708

>  <DOPAMINE D3>
8.8

$$$$
435719
  Marvin  02231216192D 0   1.00000     0.00000     0

 38 43  0  0  1  0  0  0  0  0999 V2000
   -1.4843    0.5649    0.0000 S   0  0  0  0  0  0  0  0  0
   -1.8198   -0.1888    0.0000 C   0  0  0  0  0  0  0  0  0
   -1.3349   -0.8562    0.0000 C   0  0  0  0  0  0  0  0  0
   -1.6705   -1.6099    0.0000 C   0  0  0  0  0  0  0  0  0
   -1.1855   -2.2773    0.0000 N   0  0  0  0  0  0  0  0  0
   -0.3738   -2.1300    0.0000 C   0  0  0  0  0  0  0  0  0
    0.2475   -2.6728    0.0000 C   0  0  0  0  0  0  0  0  0
    0.2105   -3.4970    0.0000 C   0  0  0  0  0  0  0  0  0
   -0.4570   -3.9819    0.0000 C   0  0  0  0  0  0  0  0  0
   -1.2522   -3.7624    0.0000 C   0  0  0  0  0  0  0  0  0
   -1.5765   -3.0038    0.0000 C   0  0  0  0  0  0  0  0  0
   -0.3707   -4.8024    0.0000 C   0  0  0  0  0  0  0  0  0
    0.3829   -5.1379    0.0000 C   0  0  0  0  0  0  0  0  0
    0.6379   -5.9226    0.0000 N   0  0  0  0  0  0  0  0  0
    1.4629   -5.9226    0.0000 C   0  0  0  0  0  0  0  0  0
    1.7178   -5.1379    0.0000 O   0  0  0  0  0  0  0  0  0
    1.0504   -4.6530    0.0000 C   0  0  0  0  0  0  0  0  0
    0.9641   -3.8325    0.0000 C   0  0  0  0  0  0  0  0  0
    1.6316   -3.3476    0.0000 C   0  0  0  0  0  0  0  0  0
    1.9478   -6.5900    0.0000 C   0  0  0  0  0  0  0  0  0
   -2.4909   -1.6961    0.0000 C   0  0  0  0  0  0  0  0  0
   -1.9692    1.2324    0.0000 C   0  0  0  0  0  0  0  0  0
   -2.7942    1.2324    0.0000 N   0  0  0  0  0  0  0  0  0
   -3.0491    2.0170    0.0000 N   0  0  0  0  0  0  0  0  0
   -2.3817    2.5019    0.0000 C   0  0  0  0  0  0  0  0  0
   -1.7143    2.0170    0.0000 N   0  0  0  0  0  0  0  0  0
   -0.9296    2.2719    0.0000 C   0  0  0  0  0  0  0  0  0
   -2.3817    3.3269    0.0000 C   0  0  0  0  0  0  0  0  0
   -1.6672    3.7394    0.0000 C   0  0  0  0  0  0  0  0  0
   -1.6672    4.5644    0.0000 C   0  0  0  0  0  0  0  0  0
   -0.9528    4.9769    0.0000 N   0  0  0  0  0  0  0  0  0
   -0.2383    4.5644    0.0000 C   0  0  0  0  0  0  0  0  0
   -0.2383    3.7394    0.0000 C   0  0  0  0  0  0  0  0  0
   -0.9528    3.3269    0.0000 C   0  0  0  0  0  0  0  0  0
    0.4762    4.9769    0.0000 C   0  0  0  0  0  0  0  0  0
   -2.3817    4.9769    0.0000 C   0  0  0  0  0  0  0  0  0
   -3.0962    4.5644    0.0000 C   0  0  0  0  0  0  0  0  0
   -3.0962    3.7394    0.0000 C   0  0  0  0  0  0  0  0  0
  1  2  1  0  0  0  0
  1 22  1  0  0  0  0
  2  3  1  0  0  0  0
  3  4  1  0  0  0  0
  4  5  1  0  0  0  0
  4 21  1  0  0  0  0
  5  6  1  0  0  0  0
  5 11  1  0  0  0  0
  6  7  1  0  0  0  0
  7  8  1  0  0  0  0
  8  9  4  0  0  0  0
  8 18  4  0  0  0  0
  9 10  1  0  0  0  0
  9 12  4  0  0  0  0
 10 11  1  0  0  0  0
 12 13  4  0  0  0  0
 13 14  4  0  0  0  0
 13 17  4  0  0  0  0
 14 15  4  0  0  0  0
 15 16  4  0  0  0  0
 15 20  1  0  0  0  0
 16 17  4  0  0  0  0
 17 18  4  0  0  0  0
 18 19  1  0  0  0  0
 22 23  4  0  0  0  0
 22 26  4  0  0  0  0
 23 24  4  0  0  0  0
 24 25  4  0  0  0  0
 25 26  4  0  0  0  0
 25 28  1  0  0  0  0
 26 27  1  0  0  0  0
 28 29  4  0  0  0  0
 28 38  4  0  0  0  0
 29 30  4  0  0  0  0
 29 34  4  0  0  0  0
 30 31  4  0  0  0  0
 30 36  4  0  0  0  0
 31 32  4  0  0  0  0
 32 33  4  0  0  0  0
 32 35  1  0  0  0  0
 33 34  4  0  0  0  0
 36 37  4  0  0  0  0
 37 38  4  0  0  0  0
M  END
>  <Name_Molregno>
435719

>  <DOPAMINE D3>
6.6

$$$$
435724
  Marvin  02231216192D 0   1.00000     0.00000     0

 36 41  0  0  0  0  0  0  0  0999 V2000
   -1.2851    0.5083    0.0000 S   0  0  0  0  0  0  0  0  0
   -1.6207   -0.2454    0.0000 C   0  0  0  0  0  0  0  0  0
   -1.1357   -0.9128    0.0000 C   0  0  0  0  0  0  0  0  0
   -1.4713   -1.6665    0.0000 C   0  0  0  0  0  0  0  0  0
   -0.9864   -2.3339    0.0000 N   0  0  0  0  0  0  0  0  0
   -0.1746   -2.1866    0.0000 C   0  0  0  0  0  0  0  0  0
    0.4467   -2.7294    0.0000 C   0  0  0  0  0  0  0  0  0
    0.4096   -3.5536    0.0000 C   0  0  0  0  0  0  0  0  0
   -0.2578   -4.0385    0.0000 C   0  0  0  0  0  0  0  0  0
   -1.0531   -3.8190    0.0000 C   0  0  0  0  0  0  0  0  0
   -1.3773   -3.0604    0.0000 C   0  0  0  0  0  0  0  0  0
   -0.1716   -4.8590    0.0000 C   0  0  0  0  0  0  0  0  0
    0.5821   -5.1946    0.0000 C   0  0  0  0  0  0  0  0  0
    0.6683   -6.0150    0.0000 O   0  0  0  0  0  0  0  0  0
    1.4220   -6.3506    0.0000 C   0  0  0  0  0  0  0  0  0
    2.0895   -5.8657    0.0000 C   0  0  0  0  0  0  0  0  0
    2.0032   -5.0452    0.0000 N   0  0  0  0  0  0  0  0  0
    1.2496   -4.7096    0.0000 C   0  0  0  0  0  0  0  0  0
    1.1633   -3.8892    0.0000 C   0  0  0  0  0  0  0  0  0
   -1.7700    1.1757    0.0000 C   0  0  0  0  0  0  0  0  0
   -2.5950    1.1757    0.0000 N   0  0  0  0  0  0  0  0  0
   -2.8500    1.9603    0.0000 N   0  0  0  0  0  0  0  0  0
   -2.1825    2.4453    0.0000 C   0  0  0  0  0  0  0  0  0
   -1.5151    1.9603    0.0000 N   0  0  0  0  0  0  0  0  0
   -0.7305    2.2153    0.0000 C   0  0  0  0  0  0  0  0  0
   -2.1825    3.2703    0.0000 C   0  0  0  0  0  0  0  0  0
   -1.4681    3.6828    0.0000 C   0  0  0  0  0  0  0  0  0
   -1.4681    4.5078    0.0000 C   0  0  0  0  0  0  0  0  0
   -0.7536    4.9203    0.0000 N   0  0  0  0  0  0  0  0  0
   -0.0391    4.5078    0.0000 C   0  0  0  0  0  0  0  0  0
   -0.0391    3.6828    0.0000 C   0  0  0  0  0  0  0  0  0
   -0.7536    3.2703    0.0000 C   0  0  0  0  0  0  0  0  0
    0.6754    4.9203    0.0000 C   0  0  0  0  0  0  0  0  0
   -2.1825    4.9203    0.0000 C   0  0  0  0  0  0  0  0  0
   -2.8970    4.5078    0.0000 C   0  0  0  0  0  0  0  0  0
   -2.8970    3.6828    0.0000 C   0  0  0  0  0  0  0  0  0
  1  2  1  0  0  0  0
  1 20  1  0  0  0  0
  2  3  1  0  0  0  0
  3  4  1  0  0  0  0
  4  5  1  0  0  0  0
  5  6  1  0  0  0  0
  5 11  1  0  0  0  0
  6  7  1  0  0  0  0
  7  8  1  0  0  0  0
  8  9  4  0  0  0  0
  8 19  4  0  0  0  0
  9 10  1  0  0  0  0
  9 12  4  0  0  0  0
 10 11  1  0  0  0  0
 12 13  4  0  0  0  0
 13 14  1  0  0  0  0
 13 18  4  0  0  0  0
 14 15  1  0  0  0  0
 15 16  1  0  0  0  0
 16 17  1  0  0  0  0
 17 18  1  0  0  0  0
 18 19  4  0  0  0  0
 20 21  4  0  0  0  0
 20 24  4  0  0  0  0
 21 22  4  0  0  0  0
 22 23  4  0  0  0  0
 23 24  4  0  0  0  0
 23 26  1  0  0  0  0
 24 25  1  0  0  0  0
 26 27  4  0  0  0  0
 26 36  4  0  0  0  0
 27 28  4  0  0  0  0
 27 32  4  0  0  0  0
 28 29  4  0  0  0  0
 28 34  4  0  0  0  0
 29 30  4  0  0  0  0
 30 31  4  0  0  0  0
 30 33  1  0  0  0  0
 31 32  4  0  0  0  0
 34 35  4  0  0  0  0
 35 36  4  0  0  0  0
M  END
>  <Name_Molregno>
435724

>  <DOPAMINE D3>
8.1

$$$$
435761
  Marvin  02231216192D 0   1.00000     0.00000     0

 39 44  0  0  0  0  0  0  0  0999 V2000
    1.8379   -0.0704    0.0000 S   0  0  0  0  0  0  0  0  0
    1.5023   -0.8241    0.0000 C   0  0  0  0  0  0  0  0  0
    1.9872   -1.4915    0.0000 C   0  0  0  0  0  0  0  0  0
    1.6517   -2.2452    0.0000 N   0  0  0  0  0  0  0  0  0
    2.1851   -2.8745    0.0000 C   0  0  0  0  0  0  0  0  0
    2.0257   -3.6840    0.0000 C   0  0  0  0  0  0  0  0  0
    1.2934   -4.0640    0.0000 C   0  0  0  0  0  0  0  0  0
    0.5398   -3.7285    0.0000 C   0  0  0  0  0  0  0  0  0
    0.3322   -2.9300    0.0000 C   0  0  0  0  0  0  0  0  0
    0.8271   -2.2699    0.0000 C   0  0  0  0  0  0  0  0  0
   -0.1277   -4.2134    0.0000 C   0  0  0  0  0  0  0  0  0
   -0.0414   -5.0339    0.0000 C   0  0  0  0  0  0  0  0  0
   -0.5935   -5.6470    0.0000 N   0  0  0  0  0  0  0  0  0
   -0.1810   -6.3614    0.0000 C   0  0  0  0  0  0  0  0  0
    0.6260   -6.1899    0.0000 O   0  0  0  0  0  0  0  0  0
    0.7122   -5.3694    0.0000 C   0  0  0  0  0  0  0  0  0
    1.3797   -4.8845    0.0000 C   0  0  0  0  0  0  0  0  0
    2.1333   -5.2201    0.0000 C   0  0  0  0  0  0  0  0  0
   -0.5165   -7.1151    0.0000 C   0  0  0  0  0  0  0  0  0
   -0.8521   -7.8688    0.0000 F   0  0  0  0  0  0  0  0  0
    0.2371   -7.4507    0.0000 F   0  0  0  0  0  0  0  0  0
   -1.2702   -6.7795    0.0000 F   0  0  0  0  0  0  0  0  0
    1.3530    0.5970    0.0000 C   0  0  0  0  0  0  0  0  0
    0.5280    0.5970    0.0000 N   0  0  0  0  0  0  0  0  0
    0.2730    1.3816    0.0000 N   0  0  0  0  0  0  0  0  0
    0.9405    1.8666    0.0000 C   0  0  0  0  0  0  0  0  0
    1.6079    1.3816    0.0000 N   0  0  0  0  0  0  0  0  0
    2.3925    1.6366    0.0000 C   0  0  0  0  0  0  0  0  0
    0.9405    2.6916    0.0000 C   0  0  0  0  0  0  0  0  0
    1.6549    3.1041    0.0000 C   0  0  0  0  0  0  0  0  0
    1.6549    3.9291    0.0000 C   0  0  0  0  0  0  0  0  0
    2.3694    4.3416    0.0000 N   0  0  0  0  0  0  0  0  0
    3.0839    3.9291    0.0000 C   0  0  0  0  0  0  0  0  0
    3.0839    3.1041    0.0000 C   0  0  0  0  0  0  0  0  0
    2.3694    2.6916    0.0000 C   0  0  0  0  0  0  0  0  0
    3.7983    4.3416    0.0000 C   0  0  0  0  0  0  0  0  0
    0.9405    4.3416    0.0000 C   0  0  0  0  0  0  0  0  0
    0.2260    3.9291    0.0000 C   0  0  0  0  0  0  0  0  0
    0.2260    3.1041    0.0000 C   0  0  0  0  0  0  0  0  0
  1  2  1  0  0  0  0
  1 23  1  0  0  0  0
  2  3  1  0  0  0  0
  3  4  1  0  0  0  0
  4  5  1  0  0  0  0
  4 10  1  0  0  0  0
  5  6  1  0  0  0  0
  6  7  1  0  0  0  0
  7  8  4  0  0  0  0
  7 17  4  0  0  0  0
  8  9  1  0  0  0  0
  8 11  4  0  0  0  0
  9 10  1  0  0  0  0
 11 12  4  0  0  0  0
 12 13  4  0  0  0  0
 12 16  4  0  0  0  0
 13 14  4  0  0  0  0
 14 15  4  0  0  0  0
 14 19  1  0  0  0  0
 15 16  4  0  0  0  0
 16 17  4  0  0  0  0
 17 18  1  0  0  0  0
 19 20  1  0  0  0  0
 19 21  1  0  0  0  0
 19 22  1  0  0  0  0
 23 24  4  0  0  0  0
 23 27  4  0  0  0  0
 24 25  4  0  0  0  0
 25 26  4  0  0  0  0
 26 27  4  0  0  0  0
 26 29  1  0  0  0  0
 27 28  1  0  0  0  0
 29 30  4  0  0  0  0
 29 39  4  0  0  0  0
 30 31  4  0  0  0  0
 30 35  4  0  0  0  0
 31 32  4  0  0  0  0
 31 37  4  0  0  0  0
 32 33  4  0  0  0  0
 33 34  4  0  0  0  0
 33 36  1  0  0  0  0
 34 35  4  0  0  0  0
 37 38  4  0  0  0  0
 38 39  4  0  0  0  0
M  END
>  <Name_Molregno>
435761

>  <DOPAMINE D3>
6.9

$$$$
435762
  Marvin  02231216192D 0   1.00000     0.00000     0

 36 41  0  0  0  0  0  0  0  0999 V2000
    1.2049   -0.4559    0.0000 S   0  0  0  0  0  0  0  0  0
    0.8693   -1.2096    0.0000 C   0  0  0  0  0  0  0  0  0
    1.3542   -1.8770    0.0000 C   0  0  0  0  0  0  0  0  0
    1.0187   -2.6307    0.0000 N   0  0  0  0  0  0  0  0  0
    1.5521   -3.2600    0.0000 C   0  0  0  0  0  0  0  0  0
    1.3927   -4.0695    0.0000 C   0  0  0  0  0  0  0  0  0
    0.6604   -4.4495    0.0000 C   0  0  0  0  0  0  0  0  0
   -0.0932   -4.1140    0.0000 C   0  0  0  0  0  0  0  0  0
   -0.3008   -3.3155    0.0000 C   0  0  0  0  0  0  0  0  0
    0.1941   -2.6554    0.0000 C   0  0  0  0  0  0  0  0  0
   -0.7607   -4.5989    0.0000 C   0  0  0  0  0  0  0  0  0
   -0.6744   -5.4194    0.0000 C   0  0  0  0  0  0  0  0  0
   -1.2265   -6.0325    0.0000 N   0  0  0  0  0  0  0  0  0
   -0.8140   -6.7469    0.0000 C   0  0  0  0  0  0  0  0  0
   -0.0070   -6.5754    0.0000 O   0  0  0  0  0  0  0  0  0
    0.0792   -5.7549    0.0000 C   0  0  0  0  0  0  0  0  0
    0.7467   -5.2700    0.0000 C   0  0  0  0  0  0  0  0  0
    1.5003   -5.6055    0.0000 C   0  0  0  0  0  0  0  0  0
   -1.1495   -7.5006    0.0000 C   0  0  0  0  0  0  0  0  0
    0.7200    0.2115    0.0000 C   0  0  0  0  0  0  0  0  0
   -0.1050    0.2115    0.0000 N   0  0  0  0  0  0  0  0  0
   -0.3600    0.9962    0.0000 N   0  0  0  0  0  0  0  0  0
    0.3075    1.4811    0.0000 C   0  0  0  0  0  0  0  0  0
    0.9749    0.9962    0.0000 N   0  0  0  0  0  0  0  0  0
    1.7595    1.2511    0.0000 C   0  0  0  0  0  0  0  0  0
    0.3075    2.3061    0.0000 C   0  0  0  0  0  0  0  0  0
    1.0219    2.7186    0.0000 C   0  0  0  0  0  0  0  0  0
    1.0219    3.5436    0.0000 C   0  0  0  0  0  0  0  0  0
    1.7364    3.9561    0.0000 N   0  0  0  0  0  0  0  0  0
    2.4509    3.5436    0.0000 C   0  0  0  0  0  0  0  0  0
    2.4509    2.7186    0.0000 C   0  0  0  0  0  0  0  0  0
    1.7364    2.3061    0.0000 C   0  0  0  0  0  0  0  0  0
    3.1653    3.9561    0.0000 C   0  0  0  0  0  0  0  0  0
    0.3075    3.9561    0.0000 C   0  0  0  0  0  0  0  0  0
   -0.4070    3.5436    0.0000 C   0  0  0  0  0  0  0  0  0
   -0.4070    2.7186    0.0000 C   0  0  0  0  0  0  0  0  0
  1  2  1  0  0  0  0
  1 20  1  0  0  0  0
  2  3  1  0  0  0  0
  3  4  1  0  0  0  0
  4  5  1  0  0  0  0
  4 10  1  0  0  0  0
  5  6  1  0  0  0  0
  6  7  1  0  0  0  0
  7  8  4  0  0  0  0
  7 17  4  0  0  0  0
  8  9  1  0  0  0  0
  8 11  4  0  0  0  0
  9 10  1  0  0  0  0
 11 12  4  0  0  0  0
 12 13  4  0  0  0  0
 12 16  4  0  0  0  0
 13 14  4  0  0  0  0
 14 15  4  0  0  0  0
 14 19  1  0  0  0  0
 15 16  4  0  0  0  0
 16 17  4  0  0  0  0
 17 18  1  0  0  0  0
 20 21  4  0  0  0  0
 20 24  4  0  0  0  0
 21 22  4  0  0  0  0
 22 23  4  0  0  0  0
 23 24  4  0  0  0  0
 23 26  1  0  0  0  0
 24 25  1  0  0  0  0
 26 27  4  0  0  0  0
 26 36  4  0  0  0  0
 27 28  4  0  0  0  0
 27 32  4  0  0  0  0
 28 29  4  0  0  0  0
 28 34  4  0  0  0  0
 29 30  4  0  0  0  0
 30 31  4  0  0  0  0
 30 33  1  0  0  0  0
 31 32  4  0  0  0  0
 34 35  4  0  0  0  0
 35 36  4  0  0  0  0
M  END
>  <Name_Molregno>
435762

>  <DOPAMINE D3>
6.5

$$$$
435763
  Marvin  02231216192D 0   1.00000     0.00000     0

 37 42  0  0  0  0  0  0  0  0999 V2000
    1.3997   -0.3316    0.0000 S   0  0  0  0  0  0  0  0  0
    1.0642   -1.0853    0.0000 C   0  0  0  0  0  0  0  0  0
    1.5491   -1.7527    0.0000 C   0  0  0  0  0  0  0  0  0
    1.2135   -2.5064    0.0000 N   0  0  0  0  0  0  0  0  0
    1.7470   -3.1357    0.0000 C   0  0  0  0  0  0  0  0  0
    1.5875   -3.9452    0.0000 C   0  0  0  0  0  0  0  0  0
    0.8553   -4.3252    0.0000 C   0  0  0  0  0  0  0  0  0
    0.1016   -3.9897    0.0000 C   0  0  0  0  0  0  0  0  0
   -0.1060   -3.1912    0.0000 C   0  0  0  0  0  0  0  0  0
    0.3889   -2.5311    0.0000 C   0  0  0  0  0  0  0  0  0
   -0.5658   -4.4746    0.0000 C   0  0  0  0  0  0  0  0  0
   -0.4796   -5.2951    0.0000 C   0  0  0  0  0  0  0  0  0
   -1.0316   -5.9082    0.0000 N   0  0  0  0  0  0  0  0  0
   -0.6191   -6.6226    0.0000 C   0  0  0  0  0  0  0  0  0
    0.1878   -6.4511    0.0000 O   0  0  0  0  0  0  0  0  0
    0.2741   -5.6306    0.0000 C   0  0  0  0  0  0  0  0  0
    0.9415   -5.1457    0.0000 C   0  0  0  0  0  0  0  0  0
    1.6952   -5.4812    0.0000 C   0  0  0  0  0  0  0  0  0
   -0.9547   -7.3763    0.0000 C   0  0  0  0  0  0  0  0  0
   -0.4698   -8.0437    0.0000 C   0  0  0  0  0  0  0  0  0
    0.9148    0.3358    0.0000 C   0  0  0  0  0  0  0  0  0
    0.0898    0.3358    0.0000 N   0  0  0  0  0  0  0  0  0
   -0.1651    1.1205    0.0000 N   0  0  0  0  0  0  0  0  0
    0.5023    1.6054    0.0000 C   0  0  0  0  0  0  0  0  0
    1.1697    1.1205    0.0000 N   0  0  0  0  0  0  0  0  0
    1.9544    1.3754    0.0000 C   0  0  0  0  0  0  0  0  0
    0.5023    2.4304    0.0000 C   0  0  0  0  0  0  0  0  0
    1.2168    2.8429    0.0000 C   0  0  0  0  0  0  0  0  0
    1.2168    3.6679    0.0000 C   0  0  0  0  0  0  0  0  0
    1.9312    4.0804    0.0000 N   0  0  0  0  0  0  0  0  0
    2.6457    3.6679    0.0000 C   0  0  0  0  0  0  0  0  0
    2.6457    2.8429    0.0000 C   0  0  0  0  0  0  0  0  0
    1.9312    2.4304    0.0000 C   0  0  0  0  0  0  0  0  0
    3.3602    4.0804    0.0000 C   0  0  0  0  0  0  0  0  0
    0.5023    4.0804    0.0000 C   0  0  0  0  0  0  0  0  0
   -0.2122    3.6679    0.0000 C   0  0  0  0  0  0  0  0  0
   -0.2122    2.8429    0.0000 C   0  0  0  0  0  0  0  0  0
  1  2  1  0  0  0  0
  1 21  1  0  0  0  0
  2  3  1  0  0  0  0
  3  4  1  0  0  0  0
  4  5  1  0  0  0  0
  4 10  1  0  0  0  0
  5  6  1  0  0  0  0
  6  7  1  0  0  0  0
  7  8  4  0  0  0  0
  7 17  4  0  0  0  0
  8  9  1  0  0  0  0
  8 11  4  0  0  0  0
  9 10  1  0  0  0  0
 11 12  4  0  0  0  0
 12 13  4  0  0  0  0
 12 16  4  0  0  0  0
 13 14  4  0  0  0  0
 14 15  4  0  0  0  0
 14 19  1  0  0  0  0
 15 16  4  0  0  0  0
 16 17  4  0  0  0  0
 17 18  1  0  0  0  0
 19 20  1  0  0  0  0
 21 22  4  0  0  0  0
 21 25  4  0  0  0  0
 22 23  4  0  0  0  0
 23 24  4  0  0  0  0
 24 25  4  0  0  0  0
 24 27  1  0  0  0  0
 25 26  1  0  0  0  0
 27 28  4  0  0  0  0
 27 37  4  0  0  0  0
 28 29  4  0  0  0  0
 28 33  4  0  0  0  0
 29 30  4  0  0  0  0
 29 35  4  0  0  0  0
 30 31  4  0  0  0  0
 31 32  4  0  0  0  0
 31 34  1  0  0  0  0
 32 33  4  0  0  0  0
 35 36  4  0  0  0  0
 36 37  4  0  0  0  0
M  END
>  <Name_Molregno>
435763

>  <DOPAMINE D3>
6.6

$$$$
435764
  Marvin  02231216192D 0   1.00000     0.00000     0

 40 45  0  0  0  0  0  0  0  0999 V2000
    0.5514    0.0790    0.0000 S   0  0  0  0  0  0  0  0  0
    0.2158   -0.6747    0.0000 C   0  0  0  0  0  0  0  0  0
    0.7007   -1.3421    0.0000 C   0  0  0  0  0  0  0  0  0
    0.3652   -2.0958    0.0000 C   0  0  0  0  0  0  0  0  0
   -0.4553   -2.1820    0.0000 N   0  0  0  0  0  0  0  0  0
   -0.7336   -2.9587    0.0000 C   0  0  0  0  0  0  0  0  0
   -1.5143   -3.2253    0.0000 C   0  0  0  0  0  0  0  0  0
   -2.2096   -2.7812    0.0000 C   0  0  0  0  0  0  0  0  0
   -2.2958   -1.9607    0.0000 C   0  0  0  0  0  0  0  0  0
   -1.7081   -1.3817    0.0000 C   0  0  0  0  0  0  0  0  0
   -0.8890   -1.4802    0.0000 C   0  0  0  0  0  0  0  0  0
   -3.0495   -1.6251    0.0000 C   0  0  0  0  0  0  0  0  0
   -3.7169   -2.1101    0.0000 C   0  0  0  0  0  0  0  0  0
   -4.5239   -1.9385    0.0000 O   0  0  0  0  0  0  0  0  0
   -4.9364   -2.6530    0.0000 C   0  0  0  0  0  0  0  0  0
   -4.3844   -3.2661    0.0000 N   0  0  0  0  0  0  0  0  0
   -3.6307   -2.9305    0.0000 C   0  0  0  0  0  0  0  0  0
   -2.8770   -3.2661    0.0000 C   0  0  0  0  0  0  0  0  0
   -5.7569   -2.7392    0.0000 C   0  0  0  0  0  0  0  0  0
   -6.0924   -3.4929    0.0000 C   0  0  0  0  0  0  0  0  0
   -6.4280   -4.2466    0.0000 F   0  0  0  0  0  0  0  0  0
   -5.3388   -3.8285    0.0000 F   0  0  0  0  0  0  0  0  0
   -6.8461   -3.1574    0.0000 F   0  0  0  0  0  0  0  0  0
    0.0664    0.7464    0.0000 C   0  0  0  0  0  0  0  0  0
   -0.7586    0.7464    0.0000 N   0  0  0  0  0  0  0  0  0
   -1.0135    1.5311    0.0000 N   0  0  0  0  0  0  0  0  0
   -0.3461    2.0160    0.0000 C   0  0  0  0  0  0  0  0  0
    0.3214    1.5311    0.0000 N   0  0  0  0  0  0  0  0  0
    1.1060    1.7860    0.0000 C   0  0  0  0  0  0  0  0  0
   -0.3461    2.8410    0.0000 C   0  0  0  0  0  0  0  0  0
    0.3684    3.2535    0.0000 C   0  0  0  0  0  0  0  0  0
    0.3684    4.0785    0.0000 C   0  0  0  0  0  0  0  0  0
    1.0829    4.4910    0.0000 N   0  0  0  0  0  0  0  0  0
    1.7973    4.0785    0.0000 C   0  0  0  0  0  0  0  0  0
    1.7973    3.2535    0.0000 C   0  0  0  0  0  0  0  0  0
    1.0829    2.8410    0.0000 C   0  0  0  0  0  0  0  0  0
    2.5118    4.4910    0.0000 C   0  0  0  0  0  0  0  0  0
   -0.3461    4.4910    0.0000 C   0  0  0  0  0  0  0  0  0
   -1.0605    4.0785    0.0000 C   0  0  0  0  0  0  0  0  0
   -1.0605    3.2535    0.0000 C   0  0  0  0  0  0  0  0  0
  1  2  1  0  0  0  0
  1 24  1  0  0  0  0
  2  3  1  0  0  0  0
  3  4  1  0  0  0  0
  4  5  1  0  0  0  0
  5  6  1  0  0  0  0
  5 11  1  0  0  0  0
  6  7  1  0  0  0  0
  7  8  1  0  0  0  0
  8  9  4  0  0  0  0
  8 18  4  0  0  0  0
  9 10  1  0  0  0  0
  9 12  4  0  0  0  0
 10 11  1  0  0  0  0
 12 13  4  0  0  0  0
 13 14  4  0  0  0  0
 13 17  4  0  0  0  0
 14 15  4  0  0  0  0
 15 16  4  0  0  0  0
 15 19  1  0  0  0  0
 16 17  4  0  0  0  0
 17 18  4  0  0  0  0
 19 20  1  0  0  0  0
 20 21  1  0  0  0  0
 20 22  1  0  0  0  0
 20 23  1  0  0  0  0
 24 25  4  0  0  0  0
 24 28  4  0  0  0  0
 25 26  4  0  0  0  0
 26 27  4  0  0  0  0
 27 28  4  0  0  0  0
 27 30  1  0  0  0  0
 28 29  1  0  0  0  0
 30 31  4  0  0  0  0
 30 40  4  0  0  0  0
 31 32  4  0  0  0  0
 31 36  4  0  0  0  0
 32 33  4  0  0  0  0
 32 38  4  0  0  0  0
 33 34  4  0  0  0  0
 34 35  4  0  0  0  0
 34 37  1  0  0  0  0
 35 36  4  0  0  0  0
 38 39  4  0  0  0  0
 39 40  4  0  0  0  0
M  END
>  <Name_Molregno>
435764

>  <DOPAMINE D3>
7.4

$$$$
435769
  Marvin  02231216192D 0   1.00000     0.00000     0

 39 44  0  0  0  0  0  0  0  0999 V2000
    1.2765   -0.7538    0.0000 S   0  0  0  0  0  0  0  0  0
    0.9410   -1.5075    0.0000 C   0  0  0  0  0  0  0  0  0
    0.1205   -1.5937    0.0000 C   0  0  0  0  0  0  0  0  0
   -0.3644   -0.9263    0.0000 C   0  0  0  0  0  0  0  0  0
   -1.1849   -1.0125    0.0000 N   0  0  0  0  0  0  0  0  0
   -1.4632   -1.7891    0.0000 C   0  0  0  0  0  0  0  0  0
   -2.2439   -2.0558    0.0000 C   0  0  0  0  0  0  0  0  0
   -2.9392   -1.6116    0.0000 C   0  0  0  0  0  0  0  0  0
   -3.0254   -0.7912    0.0000 C   0  0  0  0  0  0  0  0  0
   -2.4377   -0.2122    0.0000 C   0  0  0  0  0  0  0  0  0
   -1.6186   -0.3107    0.0000 C   0  0  0  0  0  0  0  0  0
   -3.7791   -0.4556    0.0000 C   0  0  0  0  0  0  0  0  0
   -4.4465   -0.9405    0.0000 C   0  0  0  0  0  0  0  0  0
   -5.2002   -0.6050    0.0000 O   0  0  0  0  0  0  0  0  0
   -5.8676   -1.0899    0.0000 C   0  0  0  0  0  0  0  0  0
   -5.7814   -1.9104    0.0000 C   0  0  0  0  0  0  0  0  0
   -5.0277   -2.2459    0.0000 N   0  0  0  0  0  0  0  0  0
   -4.3603   -1.7610    0.0000 C   0  0  0  0  0  0  0  0  0
   -3.6066   -2.0966    0.0000 C   0  0  0  0  0  0  0  0  0
   -4.9415   -3.0664    0.0000 C   0  0  0  0  0  0  0  0  0
   -5.6089   -3.5513    0.0000 O   0  0  0  0  0  0  0  0  0
   -4.1878   -3.4020    0.0000 C   0  0  0  0  0  0  0  0  0
    0.7916   -0.0863    0.0000 C   0  0  0  0  0  0  0  0  0
   -0.0334   -0.0863    0.0000 N   0  0  0  0  0  0  0  0  0
   -0.2883    0.6983    0.0000 N   0  0  0  0  0  0  0  0  0
    0.3791    1.1832    0.0000 C   0  0  0  0  0  0  0  0  0
    1.0465    0.6983    0.0000 N   0  0  0  0  0  0  0  0  0
    1.8312    0.9532    0.0000 C   0  0  0  0  0  0  0  0  0
    0.3791    2.0082    0.0000 C   0  0  0  0  0  0  0  0  0
    1.0936    2.4207    0.0000 C   0  0  0  0  0  0  0  0  0
    1.0936    3.2457    0.0000 C   0  0  0  0  0  0  0  0  0
    1.8080    3.6582    0.0000 N   0  0  0  0  0  0  0  0  0
    2.5225    3.2457    0.0000 C   0  0  0  0  0  0  0  0  0
    2.5225    2.4207    0.0000 C   0  0  0  0  0  0  0  0  0
    1.8080    2.0082    0.0000 C   0  0  0  0  0  0  0  0  0
    3.2370    3.6582    0.0000 C   0  0  0  0  0  0  0  0  0
    0.3791    3.6582    0.0000 C   0  0  0  0  0  0  0  0  0
   -0.3354    3.2457    0.0000 C   0  0  0  0  0  0  0  0  0
   -0.3354    2.4207    0.0000 C   0  0  0  0  0  0  0  0  0
  1  2  1  0  0  0  0
  1 23  1  0  0  0  0
  2  3  1  0  0  0  0
  3  4  1  0  0  0  0
  4  5  1  0  0  0  0
  5  6  1  0  0  0  0
  5 11  1  0  0  0  0
  6  7  1  0  0  0  0
  7  8  1  0  0  0  0
  8  9  4  0  0  0  0
  8 19  4  0  0  0  0
  9 10  1  0  0  0  0
  9 12  4  0  0  0  0
 10 11  1  0  0  0  0
 12 13  4  0  0  0  0
 13 14  1  0  0  0  0
 13 18  4  0  0  0  0
 14 15  1  0  0  0  0
 15 16  1  0  0  0  0
 16 17  1  0  0  0  0
 17 18  1  0  0  0  0
 17 20  1  0  0  0  0
 18 19  4  0  0  0  0
 20 21  2  0  0  0  0
 20 22  1  0  0  0  0
 23 24  4  0  0  0  0
 23 27  4  0  0  0  0
 24 25  4  0  0  0  0
 25 26  4  0  0  0  0
 26 27  4  0  0  0  0
 26 29  1  0  0  0  0
 27 28  1  0  0  0  0
 29 30  4  0  0  0  0
 29 39  4  0  0  0  0
 30 31  4  0  0  0  0
 30 35  4  0  0  0  0
 31 32  4  0  0  0  0
 31 37  4  0  0  0  0
 32 33  4  0  0  0  0
 33 34  4  0  0  0  0
 33 36  1  0  0  0  0
 34 35  4  0  0  0  0
 37 38  4  0  0  0  0
 38 39  4  0  0  0  0
M  END
>  <Name_Molregno>
435769

>  <DOPAMINE D3>
6.8

$$$$
435809
  Marvin  02231216192D 0   1.00000     0.00000     0

 39 44  0  0  0  0  0  0  0  0999 V2000
   -5.8276   -3.9662    0.0000 Br  0  0  0  0  0  0  0  0  0
   -5.0739   -4.3018    0.0000 C   0  0  0  0  0  0  0  0  0
   -4.4065   -3.8169    0.0000 C   0  0  0  0  0  0  0  0  0
   -4.6140   -3.0184    0.0000 C   0  0  0  0  0  0  0  0  0
   -4.1192   -2.3583    0.0000 C   0  0  0  0  0  0  0  0  0
   -3.2945   -2.3336    0.0000 N   0  0  0  0  0  0  0  0  0
   -2.7611   -2.9630    0.0000 C   0  0  0  0  0  0  0  0  0
   -2.9205   -3.7724    0.0000 C   0  0  0  0  0  0  0  0  0
   -3.6528   -4.1524    0.0000 C   0  0  0  0  0  0  0  0  0
   -3.5666   -4.9729    0.0000 C   0  0  0  0  0  0  0  0  0
   -4.2340   -5.4578    0.0000 C   0  0  0  0  0  0  0  0  0
   -4.3202   -6.2783    0.0000 N   0  0  0  0  0  0  0  0  0
   -5.1272   -6.4499    0.0000 C   0  0  0  0  0  0  0  0  0
   -5.5397   -5.7354    0.0000 O   0  0  0  0  0  0  0  0  0
   -4.9877   -5.1223    0.0000 C   0  0  0  0  0  0  0  0  0
   -5.4628   -7.2035    0.0000 C   0  0  0  0  0  0  0  0  0
   -5.7983   -7.9572    0.0000 F   0  0  0  0  0  0  0  0  0
   -4.7091   -7.5391    0.0000 F   0  0  0  0  0  0  0  0  0
   -6.2164   -6.8680    0.0000 F   0  0  0  0  0  0  0  0  0
   -2.9590   -1.5800    0.0000 C   0  0  0  0  0  0  0  0  0
   -3.4439   -0.9125    0.0000 C   0  0  0  0  0  0  0  0  0
   -3.1083   -0.1588    0.0000 S   0  0  0  0  0  0  0  0  0
   -3.5933    0.5086    0.0000 C   0  0  0  0  0  0  0  0  0
   -4.4183    0.5086    0.0000 N   0  0  0  0  0  0  0  0  0
   -4.6732    1.2932    0.0000 N   0  0  0  0  0  0  0  0  0
   -4.0058    1.7781    0.0000 C   0  0  0  0  0  0  0  0  0
   -3.3383    1.2932    0.0000 N   0  0  0  0  0  0  0  0  0
   -2.5537    1.5482    0.0000 C   0  0  0  0  0  0  0  0  0
   -4.0058    2.6031    0.0000 C   0  0  0  0  0  0  0  0  0
   -3.2913    3.0156    0.0000 C   0  0  0  0  0  0  0  0  0
   -3.2913    3.8406    0.0000 C   0  0  0  0  0  0  0  0  0
   -2.5768    4.2531    0.0000 N   0  0  0  0  0  0  0  0  0
   -1.8624    3.8406    0.0000 C   0  0  0  0  0  0  0  0  0
   -1.8624    3.0156    0.0000 C   0  0  0  0  0  0  0  0  0
   -2.5768    2.6031    0.0000 C   0  0  0  0  0  0  0  0  0
   -1.1479    4.2531    0.0000 C   0  0  0  0  0  0  0  0  0
   -4.0058    4.2531    0.0000 C   0  0  0  0  0  0  0  0  0
   -4.7202    3.8406    0.0000 C   0  0  0  0  0  0  0  0  0
   -4.7202    3.0156    0.0000 C   0  0  0  0  0  0  0  0  0
  1  2  1  0  0  0  0
  2  3  4  0  0  0  0
  2 15  4  0  0  0  0
  3  4  1  0  0  0  0
  3  9  4  0  0  0  0
  4  5  1  0  0  0  0
  5  6  1  0  0  0  0
  6  7  1  0  0  0  0
  6 20  1  0  0  0  0
  7  8  1  0  0  0  0
  8  9  1  0  0  0  0
  9 10  4  0  0  0  0
 10 11  4  0  0  0  0
 11 12  4  0  0  0  0
 11 15  4  0  0  0  0
 12 13  4  0  0  0  0
 13 14  4  0  0  0  0
 13 16  1  0  0  0  0
 14 15  4  0  0  0  0
 16 17  1  0  0  0  0
 16 18  1  0  0  0  0
 16 19  1  0  0  0  0
 20 21  1  0  0  0  0
 21 22  1  0  0  0  0
 22 23  1  0  0  0  0
 23 24  4  0  0  0  0
 23 27  4  0  0  0  0
 24 25  4  0  0  0  0
 25 26  4  0  0  0  0
 26 27  4  0  0  0  0
 26 29  1  0  0  0  0
 27 28  1  0  0  0  0
 29 30  4  0  0  0  0
 29 39  4  0  0  0  0
 30 31  4  0  0  0  0
 30 35  4  0  0  0  0
 31 32  4  0  0  0  0
 31 37  4  0  0  0  0
 32 33  4  0  0  0  0
 33 34  4  0  0  0  0
 33 36  1  0  0  0  0
 34 35  4  0  0  0  0
 37 38  4  0  0  0  0
 38 39  4  0  0  0  0
M  END
>  <Name_Molregno>
435809

>  <DOPAMINE D3>
6.5

$$$$
435810
  Marvin  02231216192D 0   1.00000     0.00000     0

 37 42  0  0  0  0  0  0  0  0999 V2000
   -6.2265   -4.2232    0.0000 Br  0  0  0  0  0  0  0  0  0
   -5.4728   -4.5587    0.0000 C   0  0  0  0  0  0  0  0  0
   -4.8054   -4.0738    0.0000 C   0  0  0  0  0  0  0  0  0
   -5.0130   -3.2753    0.0000 C   0  0  0  0  0  0  0  0  0
   -4.5181   -2.6152    0.0000 C   0  0  0  0  0  0  0  0  0
   -3.6935   -2.5905    0.0000 N   0  0  0  0  0  0  0  0  0
   -3.1600   -3.2199    0.0000 C   0  0  0  0  0  0  0  0  0
   -3.3195   -4.0293    0.0000 C   0  0  0  0  0  0  0  0  0
   -4.0517   -4.4094    0.0000 C   0  0  0  0  0  0  0  0  0
   -3.9655   -5.2298    0.0000 C   0  0  0  0  0  0  0  0  0
   -4.6329   -5.7148    0.0000 C   0  0  0  0  0  0  0  0  0
   -4.7192   -6.5352    0.0000 N   0  0  0  0  0  0  0  0  0
   -5.5261   -6.7068    0.0000 C   0  0  0  0  0  0  0  0  0
   -5.9386   -5.9923    0.0000 O   0  0  0  0  0  0  0  0  0
   -5.3866   -5.3792    0.0000 C   0  0  0  0  0  0  0  0  0
   -5.8617   -7.4604    0.0000 C   0  0  0  0  0  0  0  0  0
   -6.6822   -7.5467    0.0000 C   0  0  0  0  0  0  0  0  0
   -3.3579   -1.8369    0.0000 C   0  0  0  0  0  0  0  0  0
   -3.8428   -1.1694    0.0000 C   0  0  0  0  0  0  0  0  0
   -3.5073   -0.4158    0.0000 S   0  0  0  0  0  0  0  0  0
   -3.9922    0.2517    0.0000 C   0  0  0  0  0  0  0  0  0
   -4.8172    0.2517    0.0000 N   0  0  0  0  0  0  0  0  0
   -5.0721    1.0363    0.0000 N   0  0  0  0  0  0  0  0  0
   -4.4047    1.5212    0.0000 C   0  0  0  0  0  0  0  0  0
   -3.7373    1.0363    0.0000 N   0  0  0  0  0  0  0  0  0
   -2.9526    1.2912    0.0000 C   0  0  0  0  0  0  0  0  0
   -4.4047    2.3462    0.0000 C   0  0  0  0  0  0  0  0  0
   -3.6902    2.7587    0.0000 C   0  0  0  0  0  0  0  0  0
   -3.6902    3.5837    0.0000 C   0  0  0  0  0  0  0  0  0
   -2.9758    3.9962    0.0000 N   0  0  0  0  0  0  0  0  0
   -2.2613    3.5837    0.0000 C   0  0  0  0  0  0  0  0  0
   -2.2613    2.7587    0.0000 C   0  0  0  0  0  0  0  0  0
   -2.9758    2.3462    0.0000 C   0  0  0  0  0  0  0  0  0
   -1.5468    3.9962    0.0000 C   0  0  0  0  0  0  0  0  0
   -4.4047    3.9962    0.0000 C   0  0  0  0  0  0  0  0  0
   -5.1192    3.5837    0.0000 C   0  0  0  0  0  0  0  0  0
   -5.1192    2.7587    0.0000 C   0  0  0  0  0  0  0  0  0
  1  2  1  0  0  0  0
  2  3  4  0  0  0  0
  2 15  4  0  0  0  0
  3  4  1  0  0  0  0
  3  9  4  0  0  0  0
  4  5  1  0  0  0  0
  5  6  1  0  0  0  0
  6  7  1  0  0  0  0
  6 18  1  0  0  0  0
  7  8  1  0  0  0  0
  8  9  1  0  0  0  0
  9 10  4  0  0  0  0
 10 11  4  0  0  0  0
 11 12  4  0  0  0  0
 11 15  4  0  0  0  0
 12 13  4  0  0  0  0
 13 14  4  0  0  0  0
 13 16  1  0  0  0  0
 14 15  4  0  0  0  0
 16 17  1  0  0  0  0
 18 19  1  0  0  0  0
 19 20  1  0  0  0  0
 20 21  1  0  0  0  0
 21 22  4  0  0  0  0
 21 25  4  0  0  0  0
 22 23  4  0  0  0  0
 23 24  4  0  0  0  0
 24 25  4  0  0  0  0
 24 27  1  0  0  0  0
 25 26  1  0  0  0  0
 27 28  4  0  0  0  0
 27 37  4  0  0  0  0
 28 29  4  0  0  0  0
 28 33  4  0  0  0  0
 29 30  4  0  0  0  0
 29 35  4  0  0  0  0
 30 31  4  0  0  0  0
 31 32  4  0  0  0  0
 31 34  1  0  0  0  0
 32 33  4  0  0  0  0
 35 36  4  0  0  0  0
 36 37  4  0  0  0  0
M  END
>  <Name_Molregno>
435810

>  <DOPAMINE D3>
6.7

$$$$
435811
  Marvin  02231216192D 0   1.00000     0.00000     0

 40 45  0  0  0  0  0  0  0  0999 V2000
    0.4275    1.2554    0.0000 S   0  0  0  0  0  0  0  0  0
    0.0920    0.5018    0.0000 C   0  0  0  0  0  0  0  0  0
    0.5769   -0.1657    0.0000 C   0  0  0  0  0  0  0  0  0
    0.2413   -0.9194    0.0000 C   0  0  0  0  0  0  0  0  0
    0.7263   -1.5868    0.0000 N   0  0  0  0  0  0  0  0  0
    1.5380   -1.4395    0.0000 C   0  0  0  0  0  0  0  0  0
    2.1593   -1.9823    0.0000 C   0  0  0  0  0  0  0  0  0
    2.1223   -2.8065    0.0000 C   0  0  0  0  0  0  0  0  0
    1.4548   -3.2914    0.0000 C   0  0  0  0  0  0  0  0  0
    0.6596   -3.0719    0.0000 C   0  0  0  0  0  0  0  0  0
    0.3353   -2.3133    0.0000 C   0  0  0  0  0  0  0  0  0
    1.5411   -4.1119    0.0000 C   0  0  0  0  0  0  0  0  0
    2.2948   -4.4474    0.0000 C   0  0  0  0  0  0  0  0  0
    2.3810   -5.2679    0.0000 O   0  0  0  0  0  0  0  0  0
    3.1347   -5.6035    0.0000 C   0  0  0  0  0  0  0  0  0
    3.8021   -5.1185    0.0000 C   0  0  0  0  0  0  0  0  0
    3.7159   -4.2981    0.0000 N   0  0  0  0  0  0  0  0  0
    4.3833   -3.8131    0.0000 S   0  0  0  0  0  0  0  0  0
    5.0507   -3.3282    0.0000 O   0  0  0  0  0  0  0  0  0
    3.8984   -3.1457    0.0000 O   0  0  0  0  0  0  0  0  0
    4.8682   -4.4806    0.0000 C   0  0  0  0  0  0  0  0  0
    2.9622   -3.9625    0.0000 C   0  0  0  0  0  0  0  0  0
    2.8760   -3.1420    0.0000 C   0  0  0  0  0  0  0  0  0
   -0.0574    1.9229    0.0000 C   0  0  0  0  0  0  0  0  0
   -0.8824    1.9229    0.0000 N   0  0  0  0  0  0  0  0  0
   -1.1373    2.7075    0.0000 N   0  0  0  0  0  0  0  0  0
   -0.4699    3.1924    0.0000 C   0  0  0  0  0  0  0  0  0
    0.1976    2.7075    0.0000 N   0  0  0  0  0  0  0  0  0
    0.9822    2.9624    0.0000 C   0  0  0  0  0  0  0  0  0
   -0.4699    4.0174    0.0000 C   0  0  0  0  0  0  0  0  0
    0.2446    4.4299    0.0000 C   0  0  0  0  0  0  0  0  0
    0.2446    5.2549    0.0000 C   0  0  0  0  0  0  0  0  0
    0.9591    5.6674    0.0000 N   0  0  0  0  0  0  0  0  0
    1.6735    5.2549    0.0000 C   0  0  0  0  0  0  0  0  0
    1.6735    4.4299    0.0000 C   0  0  0  0  0  0  0  0  0
    0.9591    4.0174    0.0000 C   0  0  0  0  0  0  0  0  0
    2.3880    5.6674    0.0000 C   0  0  0  0  0  0  0  0  0
   -0.4699    5.6674    0.0000 C   0  0  0  0  0  0  0  0  0
   -1.1844    5.2549    0.0000 C   0  0  0  0  0  0  0  0  0
   -1.1844    4.4299    0.0000 C   0  0  0  0  0  0  0  0  0
  1  2  1  0  0  0  0
  1 24  1  0  0  0  0
  2  3  1  0  0  0  0
  3  4  1  0  0  0  0
  4  5  1  0  0  0  0
  5  6  1  0  0  0  0
  5 11  1  0  0  0  0
  6  7  1  0  0  0  0
  7  8  1  0  0  0  0
  8  9  4  0  0  0  0
  8 23  4  0  0  0  0
  9 10  1  0  0  0  0
  9 12  4  0  0  0  0
 10 11  1  0  0  0  0
 12 13  4  0  0  0  0
 13 14  1  0  0  0  0
 13 22  4  0  0  0  0
 14 15  1  0  0  0  0
 15 16  1  0  0  0  0
 16 17  1  0  0  0  0
 17 18  1  0  0  0  0
 17 22  1  0  0  0  0
 18 19  2  0  0  0  0
 18 20  2  0  0  0  0
 18 21  1  0  0  0  0
 22 23  4  0  0  0  0
 24 25  4  0  0  0  0
 24 28  4  0  0  0  0
 25 26  4  0  0  0  0
 26 27  4  0  0  0  0
 27 28  4  0  0  0  0
 27 30  1  0  0  0  0
 28 29  1  0  0  0  0
 30 31  4  0  0  0  0
 30 40  4  0  0  0  0
 31 32  4  0  0  0  0
 31 36  4  0  0  0  0
 32 33  4  0  0  0  0
 32 38  4  0  0  0  0
 33 34  4  0  0  0  0
 34 35  4  0  0  0  0
 34 37  1  0  0  0  0
 35 36  4  0  0  0  0
 38 39  4  0  0  0  0
 39 40  4  0  0  0  0
M  END
>  <Name_Molregno>
435811

>  <DOPAMINE D3>
7.9

$$$$
435845
  Marvin  02231216192D 0   1.00000     0.00000     0

 38 43  0  0  0  0  0  0  0  0999 V2000
    1.4069   -1.2168    0.0000 S   0  0  0  0  0  0  0  0  0
    1.0713   -1.9705    0.0000 C   0  0  0  0  0  0  0  0  0
    0.2508   -2.0567    0.0000 C   0  0  0  0  0  0  0  0  0
   -0.2341   -1.3893    0.0000 C   0  0  0  0  0  0  0  0  0
   -1.0546   -1.4755    0.0000 N   0  0  0  0  0  0  0  0  0
   -1.3329   -2.2521    0.0000 C   0  0  0  0  0  0  0  0  0
   -2.1136   -2.5188    0.0000 C   0  0  0  0  0  0  0  0  0
   -2.8088   -2.0747    0.0000 C   0  0  0  0  0  0  0  0  0
   -2.8951   -1.2542    0.0000 C   0  0  0  0  0  0  0  0  0
   -2.3074   -0.6752    0.0000 C   0  0  0  0  0  0  0  0  0
   -1.4883   -0.7737    0.0000 C   0  0  0  0  0  0  0  0  0
   -3.6487   -0.9186    0.0000 C   0  0  0  0  0  0  0  0  0
   -4.3162   -1.4035    0.0000 C   0  0  0  0  0  0  0  0  0
   -5.1232   -1.2320    0.0000 N   0  0  0  0  0  0  0  0  0
   -5.5357   -1.9465    0.0000 N   0  0  0  0  0  0  0  0  0
   -4.9836   -2.5596    0.0000 C   0  0  0  0  0  0  0  0  0
   -4.2300   -2.2240    0.0000 C   0  0  0  0  0  0  0  0  0
   -3.4763   -2.5596    0.0000 C   0  0  0  0  0  0  0  0  0
   -5.1552   -3.3665    0.0000 C   0  0  0  0  0  0  0  0  0
   -5.9398   -3.6215    0.0000 C   0  0  0  0  0  0  0  0  0
   -5.4587   -0.4783    0.0000 C   0  0  0  0  0  0  0  0  0
    0.9219   -0.5494    0.0000 C   0  0  0  0  0  0  0  0  0
    0.0969   -0.5494    0.0000 N   0  0  0  0  0  0  0  0  0
   -0.1580    0.2353    0.0000 N   0  0  0  0  0  0  0  0  0
    0.5094    0.7202    0.0000 C   0  0  0  0  0  0  0  0  0
    1.1769    0.2353    0.0000 N   0  0  0  0  0  0  0  0  0
    1.9615    0.4902    0.0000 C   0  0  0  0  0  0  0  0  0
    0.5094    1.5452    0.0000 C   0  0  0  0  0  0  0  0  0
    1.2239    1.9577    0.0000 C   0  0  0  0  0  0  0  0  0
    1.2239    2.7827    0.0000 C   0  0  0  0  0  0  0  0  0
    1.9384    3.1952    0.0000 N   0  0  0  0  0  0  0  0  0
    2.6529    2.7827    0.0000 C   0  0  0  0  0  0  0  0  0
    2.6529    1.9577    0.0000 C   0  0  0  0  0  0  0  0  0
    1.9384    1.5452    0.0000 C   0  0  0  0  0  0  0  0  0
    3.3673    3.1952    0.0000 C   0  0  0  0  0  0  0  0  0
    0.5094    3.1952    0.0000 C   0  0  0  0  0  0  0  0  0
   -0.2050    2.7827    0.0000 C   0  0  0  0  0  0  0  0  0
   -0.2050    1.9577    0.0000 C   0  0  0  0  0  0  0  0  0
  1  2  1  0  0  0  0
  1 22  1  0  0  0  0
  2  3  1  0  0  0  0
  3  4  1  0  0  0  0
  4  5  1  0  0  0  0
  5  6  1  0  0  0  0
  5 11  1  0  0  0  0
  6  7  1  0  0  0  0
  7  8  1  0  0  0  0
  8  9  4  0  0  0  0
  8 18  4  0  0  0  0
  9 10  1  0  0  0  0
  9 12  4  0  0  0  0
 10 11  1  0  0  0  0
 12 13  4  0  0  0  0
 13 14  4  0  0  0  0
 13 17  4  0  0  0  0
 14 15  4  0  0  0  0
 14 21  1  0  0  0  0
 15 16  4  0  0  0  0
 16 17  4  0  0  0  0
 16 19  1  0  0  0  0
 17 18  4  0  0  0  0
 19 20  1  0  0  0  0
 22 23  4  0  0  0  0
 22 26  4  0  0  0  0
 23 24  4  0  0  0  0
 24 25  4  0  0  0  0
 25 26  4  0  0  0  0
 25 28  1  0  0  0  0
 26 27  1  0  0  0  0
 28 29  4  0  0  0  0
 28 38  4  0  0  0  0
 29 30  4  0  0  0  0
 29 34  4  0  0  0  0
 30 31  4  0  0  0  0
 30 36  4  0  0  0  0
 31 32  4  0  0  0  0
 32 33  4  0  0  0  0
 32 35  1  0  0  0  0
 33 34  4  0  0  0  0
 36 37  4  0  0  0  0
 37 38  4  0  0  0  0
M  END
>  <Name_Molregno>
435845

>  <DOPAMINE D3>
8.6

$$$$
435847
  Marvin  02231216192D 0   1.00000     0.00000     0

 36 41  0  0  0  0  0  0  0  0999 V2000
   -6.4541   -4.3614    0.0000 Br  0  0  0  0  0  0  0  0  0
   -5.7004   -4.6970    0.0000 C   0  0  0  0  0  0  0  0  0
   -5.0330   -4.2121    0.0000 C   0  0  0  0  0  0  0  0  0
   -5.2405   -3.4136    0.0000 C   0  0  0  0  0  0  0  0  0
   -4.7457   -2.7535    0.0000 C   0  0  0  0  0  0  0  0  0
   -3.9210   -2.7288    0.0000 N   0  0  0  0  0  0  0  0  0
   -3.3876   -3.3582    0.0000 C   0  0  0  0  0  0  0  0  0
   -3.5470   -4.1676    0.0000 C   0  0  0  0  0  0  0  0  0
   -4.2793   -4.5476    0.0000 C   0  0  0  0  0  0  0  0  0
   -4.1930   -5.3681    0.0000 C   0  0  0  0  0  0  0  0  0
   -4.8605   -5.8530    0.0000 C   0  0  0  0  0  0  0  0  0
   -4.9467   -6.6735    0.0000 N   0  0  0  0  0  0  0  0  0
   -5.7537   -6.8450    0.0000 C   0  0  0  0  0  0  0  0  0
   -6.1662   -6.1306    0.0000 O   0  0  0  0  0  0  0  0  0
   -5.6142   -5.5175    0.0000 C   0  0  0  0  0  0  0  0  0
   -6.0892   -7.5987    0.0000 C   0  0  0  0  0  0  0  0  0
   -3.5855   -1.9751    0.0000 C   0  0  0  0  0  0  0  0  0
   -4.0704   -1.3077    0.0000 C   0  0  0  0  0  0  0  0  0
   -3.7348   -0.5540    0.0000 S   0  0  0  0  0  0  0  0  0
   -4.2198    0.1134    0.0000 C   0  0  0  0  0  0  0  0  0
   -5.0448    0.1134    0.0000 N   0  0  0  0  0  0  0  0  0
   -5.2997    0.8980    0.0000 N   0  0  0  0  0  0  0  0  0
   -4.6323    1.3830    0.0000 C   0  0  0  0  0  0  0  0  0
   -3.9648    0.8980    0.0000 N   0  0  0  0  0  0  0  0  0
   -3.1802    1.1530    0.0000 C   0  0  0  0  0  0  0  0  0
   -4.6323    2.2080    0.0000 C   0  0  0  0  0  0  0  0  0
   -3.9178    2.6205    0.0000 C   0  0  0  0  0  0  0  0  0
   -3.9178    3.4455    0.0000 C   0  0  0  0  0  0  0  0  0
   -3.2033    3.8580    0.0000 N   0  0  0  0  0  0  0  0  0
   -2.4888    3.4455    0.0000 C   0  0  0  0  0  0  0  0  0
   -2.4888    2.6205    0.0000 C   0  0  0  0  0  0  0  0  0
   -3.2033    2.2080    0.0000 C   0  0  0  0  0  0  0  0  0
   -1.7744    3.8580    0.0000 C   0  0  0  0  0  0  0  0  0
   -4.6323    3.8580    0.0000 C   0  0  0  0  0  0  0  0  0
   -5.3467    3.4455    0.0000 C   0  0  0  0  0  0  0  0  0
   -5.3467    2.6205    0.0000 C   0  0  0  0  0  0  0  0  0
  1  2  1  0  0  0  0
  2  3  4  0  0  0  0
  2 15  4  0  0  0  0
  3  4  1  0  0  0  0
  3  9  4  0  0  0  0
  4  5  1  0  0  0  0
  5  6  1  0  0  0  0
  6  7  1  0  0  0  0
  6 17  1  0  0  0  0
  7  8  1  0  0  0  0
  8  9  1  0  0  0  0
  9 10  4  0  0  0  0
 10 11  4  0  0  0  0
 11 12  4  0  0  0  0
 11 15  4  0  0  0  0
 12 13  4  0  0  0  0
 13 14  4  0  0  0  0
 13 16  1  0  0  0  0
 14 15  4  0  0  0  0
 17 18  1  0  0  0  0
 18 19  1  0  0  0  0
 19 20  1  0  0  0  0
 20 21  4  0  0  0  0
 20 24  4  0  0  0  0
 21 22  4  0  0  0  0
 22 23  4  0  0  0  0
 23 24  4  0  0  0  0
 23 26  1  0  0  0  0
 24 25  1  0  0  0  0
 26 27  4  0  0  0  0
 26 36  4  0  0  0  0
 27 28  4  0  0  0  0
 27 32  4  0  0  0  0
 28 29  4  0  0  0  0
 28 34  4  0  0  0  0
 29 30  4  0  0  0  0
 30 31  4  0  0  0  0
 30 33  1  0  0  0  0
 31 32  4  0  0  0  0
 34 35  4  0  0  0  0
 35 36  4  0  0  0  0
M  END
>  <Name_Molregno>
435847

>  <DOPAMINE D3>
6.5

$$$$
435849
  Marvin  02231216192D 0   1.00000     0.00000     0

 35 40  0  0  0  0  0  0  0  0999 V2000
    1.0991   -0.6199    0.0000 S   0  0  0  0  0  0  0  0  0
    0.7636   -1.3736    0.0000 C   0  0  0  0  0  0  0  0  0
    1.2485   -2.0411    0.0000 C   0  0  0  0  0  0  0  0  0
    0.9129   -2.7947    0.0000 N   0  0  0  0  0  0  0  0  0
    1.4464   -3.4241    0.0000 C   0  0  0  0  0  0  0  0  0
    1.2870   -4.2335    0.0000 C   0  0  0  0  0  0  0  0  0
    0.5547   -4.6135    0.0000 C   0  0  0  0  0  0  0  0  0
   -0.1990   -4.2780    0.0000 C   0  0  0  0  0  0  0  0  0
   -0.4065   -3.4795    0.0000 C   0  0  0  0  0  0  0  0  0
    0.0883   -2.8194    0.0000 C   0  0  0  0  0  0  0  0  0
   -0.8664   -4.7629    0.0000 C   0  0  0  0  0  0  0  0  0
   -0.7802   -5.5834    0.0000 C   0  0  0  0  0  0  0  0  0
   -1.3322   -6.1965    0.0000 O   0  0  0  0  0  0  0  0  0
   -0.9197   -6.9110    0.0000 C   0  0  0  0  0  0  0  0  0
   -0.1127   -6.7394    0.0000 N   0  0  0  0  0  0  0  0  0
   -0.0265   -5.9189    0.0000 C   0  0  0  0  0  0  0  0  0
    0.6409   -5.4340    0.0000 C   0  0  0  0  0  0  0  0  0
   -1.2553   -7.6646    0.0000 C   0  0  0  0  0  0  0  0  0
    0.6142    0.0475    0.0000 C   0  0  0  0  0  0  0  0  0
   -0.2108    0.0475    0.0000 N   0  0  0  0  0  0  0  0  0
   -0.4657    0.8321    0.0000 N   0  0  0  0  0  0  0  0  0
    0.2017    1.3170    0.0000 C   0  0  0  0  0  0  0  0  0
    0.8692    0.8321    0.0000 N   0  0  0  0  0  0  0  0  0
    1.6538    1.0871    0.0000 C   0  0  0  0  0  0  0  0  0
    0.2017    2.1420    0.0000 C   0  0  0  0  0  0  0  0  0
    0.9162    2.5545    0.0000 C   0  0  0  0  0  0  0  0  0
    0.9162    3.3795    0.0000 C   0  0  0  0  0  0  0  0  0
    1.6307    3.7920    0.0000 N   0  0  0  0  0  0  0  0  0
    2.3451    3.3795    0.0000 C   0  0  0  0  0  0  0  0  0
    2.3451    2.5545    0.0000 C   0  0  0  0  0  0  0  0  0
    1.6307    2.1420    0.0000 C   0  0  0  0  0  0  0  0  0
    3.0596    3.7920    0.0000 C   0  0  0  0  0  0  0  0  0
    0.2017    3.7920    0.0000 C   0  0  0  0  0  0  0  0  0
   -0.5128    3.3795    0.0000 C   0  0  0  0  0  0  0  0  0
   -0.5128    2.5545    0.0000 C   0  0  0  0  0  0  0  0  0
  1  2  1  0  0  0  0
  1 19  1  0  0  0  0
  2  3  1  0  0  0  0
  3  4  1  0  0  0  0
  4  5  1  0  0  0  0
  4 10  1  0  0  0  0
  5  6  1  0  0  0  0
  6  7  1  0  0  0  0
  7  8  4  0  0  0  0
  7 17  4  0  0  0  0
  8  9  1  0  0  0  0
  8 11  4  0  0  0  0
  9 10  1  0  0  0  0
 11 12  4  0  0  0  0
 12 13  4  0  0  0  0
 12 16  4  0  0  0  0
 13 14  4  0  0  0  0
 14 15  4  0  0  0  0
 14 18  1  0  0  0  0
 15 16  4  0  0  0  0
 16 17  4  0  0  0  0
 19 20  4  0  0  0  0
 19 23  4  0  0  0  0
 20 21  4  0  0  0  0
 21 22  4  0  0  0  0
 22 23  4  0  0  0  0
 22 25  1  0  0  0  0
 23 24  1  0  0  0  0
 25 26  4  0  0  0  0
 25 35  4  0  0  0  0
 26 27  4  0  0  0  0
 26 31  4  0  0  0  0
 27 28  4  0  0  0  0
 27 33  4  0  0  0  0
 28 29  4  0  0  0  0
 29 30  4  0  0  0  0
 29 32  1  0  0  0  0
 30 31  4  0  0  0  0
 33 34  4  0  0  0  0
 34 35  4  0  0  0  0
M  END
>  <Name_Molregno>
435849

>  <DOPAMINE D3>
7.5

$$$$
435850
  Marvin  02231216192D 0   1.00000     0.00000     0

 39 44  0  0  0  0  0  0  0  0999 V2000
   -2.0937    1.0458    0.0000 S   0  0  0  0  0  0  0  0  0
   -2.4293    0.2922    0.0000 C   0  0  0  0  0  0  0  0  0
   -1.9443   -0.3753    0.0000 C   0  0  0  0  0  0  0  0  0
   -2.2799   -1.1290    0.0000 C   0  0  0  0  0  0  0  0  0
   -1.7950   -1.7964    0.0000 N   0  0  0  0  0  0  0  0  0
   -0.9832   -1.6491    0.0000 C   0  0  0  0  0  0  0  0  0
   -0.3620   -2.1919    0.0000 C   0  0  0  0  0  0  0  0  0
   -0.3990   -3.0161    0.0000 C   0  0  0  0  0  0  0  0  0
   -1.0664   -3.5010    0.0000 C   0  0  0  0  0  0  0  0  0
   -1.8617   -3.2815    0.0000 C   0  0  0  0  0  0  0  0  0
   -2.1859   -2.5229    0.0000 C   0  0  0  0  0  0  0  0  0
   -0.9802   -4.3215    0.0000 C   0  0  0  0  0  0  0  0  0
   -0.2265   -4.6570    0.0000 C   0  0  0  0  0  0  0  0  0
    0.0284   -5.4416    0.0000 O   0  0  0  0  0  0  0  0  0
    0.8534   -5.4416    0.0000 C   0  0  0  0  0  0  0  0  0
    1.1084   -4.6570    0.0000 N   0  0  0  0  0  0  0  0  0
    0.4409   -4.1721    0.0000 C   0  0  0  0  0  0  0  0  0
    0.3547   -3.3516    0.0000 C   0  0  0  0  0  0  0  0  0
    1.3384   -6.1091    0.0000 C   0  0  0  0  0  0  0  0  0
    1.8233   -6.7765    0.0000 F   0  0  0  0  0  0  0  0  0
    2.0058   -5.6242    0.0000 F   0  0  0  0  0  0  0  0  0
    0.6709   -6.5940    0.0000 F   0  0  0  0  0  0  0  0  0
   -2.5786    1.7133    0.0000 C   0  0  0  0  0  0  0  0  0
   -3.4036    1.7133    0.0000 N   0  0  0  0  0  0  0  0  0
   -3.6586    2.4979    0.0000 N   0  0  0  0  0  0  0  0  0
   -2.9911    2.9828    0.0000 C   0  0  0  0  0  0  0  0  0
   -2.3237    2.4979    0.0000 N   0  0  0  0  0  0  0  0  0
   -1.5391    2.7528    0.0000 C   0  0  0  0  0  0  0  0  0
   -2.9911    3.8078    0.0000 C   0  0  0  0  0  0  0  0  0
   -2.2767    4.2203    0.0000 C   0  0  0  0  0  0  0  0  0
   -2.2767    5.0453    0.0000 C   0  0  0  0  0  0  0  0  0
   -1.5622    5.4578    0.0000 N   0  0  0  0  0  0  0  0  0
   -0.8477    5.0453    0.0000 C   0  0  0  0  0  0  0  0  0
   -0.8477    4.2203    0.0000 C   0  0  0  0  0  0  0  0  0
   -1.5622    3.8078    0.0000 C   0  0  0  0  0  0  0  0  0
   -0.1332    5.4578    0.0000 C   0  0  0  0  0  0  0  0  0
   -2.9911    5.4578    0.0000 C   0  0  0  0  0  0  0  0  0
   -3.7056    5.0453    0.0000 C   0  0  0  0  0  0  0  0  0
   -3.7056    4.2203    0.0000 C   0  0  0  0  0  0  0  0  0
  1  2  1  0  0  0  0
  1 23  1  0  0  0  0
  2  3  1  0  0  0  0
  3  4  1  0  0  0  0
  4  5  1  0  0  0  0
  5  6  1  0  0  0  0
  5 11  1  0  0  0  0
  6  7  1  0  0  0  0
  7  8  1  0  0  0  0
  8  9  4  0  0  0  0
  8 18  4  0  0  0  0
  9 10  1  0  0  0  0
  9 12  4  0  0  0  0
 10 11  1  0  0  0  0
 12 13  4  0  0  0  0
 13 14  4  0  0  0  0
 13 17  4  0  0  0  0
 14 15  4  0  0  0  0
 15 16  4  0  0  0  0
 15 19  1  0  0  0  0
 16 17  4  0  0  0  0
 17 18  4  0  0  0  0
 19 20  1  0  0  0  0
 19 21  1  0  0  0  0
 19 22  1  0  0  0  0
 23 24  4  0  0  0  0
 23 27  4  0  0  0  0
 24 25  4  0  0  0  0
 25 26  4  0  0  0  0
 26 27  4  0  0  0  0
 26 29  1  0  0  0  0
 27 28  1  0  0  0  0
 29 30  4  0  0  0  0
 29 39  4  0  0  0  0
 30 31  4  0  0  0  0
 30 35  4  0  0  0  0
 31 32  4  0  0  0  0
 31 37  4  0  0  0  0
 32 33  4  0  0  0  0
 33 34  4  0  0  0  0
 33 36  1  0  0  0  0
 34 35  4  0  0  0  0
 37 38  4  0  0  0  0
 38 39  4  0  0  0  0
M  END
>  <Name_Molregno>
435850

>  <DOPAMINE D3>
7.3

$$$$
435851
  Marvin  02231216192D 0   1.00000     0.00000     0

 34 38  0  0  0  0  0  0  0  0999 V2000
    2.7110   -0.3982    0.0000 S   0  0  0  0  0  0  0  0  0
    2.2985    0.3162    0.0000 C   0  0  0  0  0  0  0  0  0
    1.4735    0.3162    0.0000 C   0  0  0  0  0  0  0  0  0
    1.0610    1.0307    0.0000 C   0  0  0  0  0  0  0  0  0
    0.2360    1.0307    0.0000 N   0  0  0  0  0  0  0  0  0
   -0.1220    0.2874    0.0000 C   0  0  0  0  0  0  0  0  0
   -0.9263    0.1038    0.0000 C   0  0  0  0  0  0  0  0  0
   -1.5713    0.6182    0.0000 C   0  0  0  0  0  0  0  0  0
   -1.5713    1.4432    0.0000 C   0  0  0  0  0  0  0  0  0
   -0.9263    1.9576    0.0000 C   0  0  0  0  0  0  0  0  0
   -0.1220    1.7740    0.0000 C   0  0  0  0  0  0  0  0  0
   -2.2858    1.8557    0.0000 C   0  0  0  0  0  0  0  0  0
   -3.0002    1.4432    0.0000 C   0  0  0  0  0  0  0  0  0
   -3.7849    1.6981    0.0000 O   0  0  0  0  0  0  0  0  0
   -4.2698    1.0307    0.0000 C   0  0  0  0  0  0  0  0  0
   -3.7849    0.3633    0.0000 N   0  0  0  0  0  0  0  0  0
   -3.0002    0.6182    0.0000 C   0  0  0  0  0  0  0  0  0
   -2.2858    0.2057    0.0000 C   0  0  0  0  0  0  0  0  0
   -5.0948    1.0307    0.0000 C   0  0  0  0  0  0  0  0  0
   -5.5073    0.3162    0.0000 C   0  0  0  0  0  0  0  0  0
    3.5360   -0.3982    0.0000 C   0  0  0  0  0  0  0  0  0
    4.0209    0.2692    0.0000 N   0  0  0  0  0  0  0  0  0
    4.8055    0.0143    0.0000 N   0  0  0  0  0  0  0  0  0
    4.8055   -0.8107    0.0000 C   0  0  0  0  0  0  0  0  0
    4.0209   -1.0657    0.0000 N   0  0  0  0  0  0  0  0  0
    3.7660   -1.8503    0.0000 C   0  0  0  0  0  0  0  0  0
    5.4730   -1.2957    0.0000 C   0  0  0  0  0  0  0  0  0
    6.2266   -0.9601    0.0000 C   0  0  0  0  0  0  0  0  0
    6.8941   -1.4450    0.0000 C   0  0  0  0  0  0  0  0  0
    7.6478   -1.1095    0.0000 F   0  0  0  0  0  0  0  0  0
    6.8078   -2.2655    0.0000 C   0  0  0  0  0  0  0  0  0
    7.4753   -2.7504    0.0000 F   0  0  0  0  0  0  0  0  0
    6.0542   -2.6011    0.0000 C   0  0  0  0  0  0  0  0  0
    5.3867   -2.1162    0.0000 C   0  0  0  0  0  0  0  0  0
  1  2  1  0  0  0  0
  1 21  1  0  0  0  0
  2  3  1  0  0  0  0
  3  4  1  0  0  0  0
  4  5  1  0  0  0  0
  5  6  1  0  0  0  0
  5 11  1  0  0  0  0
  6  7  1  0  0  0  0
  7  8  1  0  0  0  0
  8  9  4  0  0  0  0
  8 18  4  0  0  0  0
  9 10  1  0  0  0  0
  9 12  4  0  0  0  0
 10 11  1  0  0  0  0
 12 13  4  0  0  0  0
 13 14  4  0  0  0  0
 13 17  4  0  0  0  0
 14 15  4  0  0  0  0
 15 16  4  0  0  0  0
 15 19  1  0  0  0  0
 16 17  4  0  0  0  0
 17 18  4  0  0  0  0
 19 20  1  0  0  0  0
 21 22  4  0  0  0  0
 21 25  4  0  0  0  0
 22 23  4  0  0  0  0
 23 24  4  0  0  0  0
 24 25  4  0  0  0  0
 24 27  1  0  0  0  0
 25 26  1  0  0  0  0
 27 28  4  0  0  0  0
 27 34  4  0  0  0  0
 28 29  4  0  0  0  0
 29 30  1  0  0  0  0
 29 31  4  0  0  0  0
 31 32  1  0  0  0  0
 31 33  4  0  0  0  0
 33 34  4  0  0  0  0
M  END
>  <Name_Molregno>
435851

>  <DOPAMINE D3>
7.6

$$$$
435852
  Marvin  02231216192D 0   1.00000     0.00000     0

 38 43  0  0  0  0  0  0  0  0999 V2000
   -1.8171    0.7414    0.0000 S   0  0  0  0  0  0  0  0  0
   -2.1527   -0.0123    0.0000 C   0  0  0  0  0  0  0  0  0
   -1.6677   -0.6797    0.0000 C   0  0  0  0  0  0  0  0  0
   -2.0033   -1.4334    0.0000 C   0  0  0  0  0  0  0  0  0
   -1.5184   -2.1008    0.0000 N   0  0  0  0  0  0  0  0  0
   -0.7066   -1.9535    0.0000 C   0  0  0  0  0  0  0  0  0
   -0.0853   -2.4963    0.0000 C   0  0  0  0  0  0  0  0  0
   -0.1224   -3.3205    0.0000 C   0  0  0  0  0  0  0  0  0
   -0.7898   -3.8054    0.0000 C   0  0  0  0  0  0  0  0  0
   -1.5851   -3.5859    0.0000 C   0  0  0  0  0  0  0  0  0
   -1.9093   -2.8273    0.0000 C   0  0  0  0  0  0  0  0  0
   -0.7036   -4.6259    0.0000 C   0  0  0  0  0  0  0  0  0
    0.0501   -4.9615    0.0000 C   0  0  0  0  0  0  0  0  0
    0.1363   -5.7819    0.0000 O   0  0  0  0  0  0  0  0  0
    0.8900   -6.1175    0.0000 C   0  0  0  0  0  0  0  0  0
    1.5575   -5.6326    0.0000 C   0  0  0  0  0  0  0  0  0
    2.3111   -5.9681    0.0000 O   0  0  0  0  0  0  0  0  0
    1.4712   -4.8121    0.0000 N   0  0  0  0  0  0  0  0  0
    0.7176   -4.4765    0.0000 C   0  0  0  0  0  0  0  0  0
    0.6313   -3.6561    0.0000 C   0  0  0  0  0  0  0  0  0
    2.1387   -4.3272    0.0000 C   0  0  0  0  0  0  0  0  0
   -2.3020    1.4088    0.0000 C   0  0  0  0  0  0  0  0  0
   -3.1270    1.4088    0.0000 N   0  0  0  0  0  0  0  0  0
   -3.3820    2.1934    0.0000 N   0  0  0  0  0  0  0  0  0
   -2.7145    2.6784    0.0000 C   0  0  0  0  0  0  0  0  0
   -2.0471    2.1934    0.0000 N   0  0  0  0  0  0  0  0  0
   -1.2625    2.4484    0.0000 C   0  0  0  0  0  0  0  0  0
   -2.7145    3.5034    0.0000 C   0  0  0  0  0  0  0  0  0
   -2.0001    3.9159    0.0000 C   0  0  0  0  0  0  0  0  0
   -2.0001    4.7409    0.0000 C   0  0  0  0  0  0  0  0  0
   -1.2856    5.1534    0.0000 N   0  0  0  0  0  0  0  0  0
   -0.5711    4.7409    0.0000 C   0  0  0  0  0  0  0  0  0
   -0.5711    3.9159    0.0000 C   0  0  0  0  0  0  0  0  0
   -1.2856    3.5034    0.0000 C   0  0  0  0  0  0  0  0  0
    0.1434    5.1534    0.0000 C   0  0  0  0  0  0  0  0  0
   -2.7145    5.1534    0.0000 C   0  0  0  0  0  0  0  0  0
   -3.4290    4.7409    0.0000 C   0  0  0  0  0  0  0  0  0
   -3.4290    3.9159    0.0000 C   0  0  0  0  0  0  0  0  0
  1  2  1  0  0  0  0
  1 22  1  0  0  0  0
  2  3  1  0  0  0  0
  3  4  1  0  0  0  0
  4  5  1  0  0  0  0
  5  6  1  0  0  0  0
  5 11  1  0  0  0  0
  6  7  1  0  0  0  0
  7  8  1  0  0  0  0
  8  9  4  0  0  0  0
  8 20  4  0  0  0  0
  9 10  1  0  0  0  0
  9 12  4  0  0  0  0
 10 11  1  0  0  0  0
 12 13  4  0  0  0  0
 13 14  1  0  0  0  0
 13 19  4  0  0  0  0
 14 15  1  0  0  0  0
 15 16  1  0  0  0  0
 16 17  2  0  0  0  0
 16 18  1  0  0  0  0
 18 19  1  0  0  0  0
 18 21  1  0  0  0  0
 19 20  4  0  0  0  0
 22 23  4  0  0  0  0
 22 26  4  0  0  0  0
 23 24  4  0  0  0  0
 24 25  4  0  0  0  0
 25 26  4  0  0  0  0
 25 28  1  0  0  0  0
 26 27  1  0  0  0  0
 28 29  4  0  0  0  0
 28 38  4  0  0  0  0
 29 30  4  0  0  0  0
 29 34  4  0  0  0  0
 30 31  4  0  0  0  0
 30 36  4  0  0  0  0
 31 32  4  0  0  0  0
 32 33  4  0  0  0  0
 32 35  1  0  0  0  0
 33 34  4  0  0  0  0
 36 37  4  0  0  0  0
 37 38  4  0  0  0  0
M  END
>  <Name_Molregno>
435852

>  <DOPAMINE D3>
7.4

$$$$
435853
  Marvin  02231216192D 0   1.00000     0.00000     0

 33 37  0  0  0  0  0  0  0  0999 V2000
    3.8090   -0.4975    0.0000 S   0  0  0  0  0  0  0  0  0
    3.3965    0.2169    0.0000 C   0  0  0  0  0  0  0  0  0
    2.5715    0.2169    0.0000 C   0  0  0  0  0  0  0  0  0
    2.1590    0.9314    0.0000 C   0  0  0  0  0  0  0  0  0
    1.3340    0.9314    0.0000 N   0  0  0  0  0  0  0  0  0
    0.9760    0.1881    0.0000 C   0  0  0  0  0  0  0  0  0
    0.1717    0.0045    0.0000 C   0  0  0  0  0  0  0  0  0
   -0.4733    0.5189    0.0000 C   0  0  0  0  0  0  0  0  0
   -0.4733    1.3439    0.0000 C   0  0  0  0  0  0  0  0  0
    0.1717    1.8583    0.0000 C   0  0  0  0  0  0  0  0  0
    0.9760    1.6747    0.0000 C   0  0  0  0  0  0  0  0  0
   -1.1878    1.7564    0.0000 C   0  0  0  0  0  0  0  0  0
   -1.9023    1.3439    0.0000 C   0  0  0  0  0  0  0  0  0
   -2.6167    1.7564    0.0000 O   0  0  0  0  0  0  0  0  0
   -3.3312    1.3439    0.0000 C   0  0  0  0  0  0  0  0  0
   -3.3312    0.5189    0.0000 C   0  0  0  0  0  0  0  0  0
   -4.0457    0.1064    0.0000 O   0  0  0  0  0  0  0  0  0
   -2.6167    0.1064    0.0000 N   0  0  0  0  0  0  0  0  0
   -1.9023    0.5189    0.0000 C   0  0  0  0  0  0  0  0  0
   -1.1878    0.1064    0.0000 C   0  0  0  0  0  0  0  0  0
   -2.6167   -0.7186    0.0000 C   0  0  0  0  0  0  0  0  0
    4.6340   -0.4975    0.0000 C   0  0  0  0  0  0  0  0  0
    5.1189    0.1699    0.0000 N   0  0  0  0  0  0  0  0  0
    5.9035   -0.0850    0.0000 N   0  0  0  0  0  0  0  0  0
    5.9035   -0.9100    0.0000 C   0  0  0  0  0  0  0  0  0
    5.1189   -1.1650    0.0000 N   0  0  0  0  0  0  0  0  0
    4.8639   -1.9496    0.0000 C   0  0  0  0  0  0  0  0  0
    6.5709   -1.3950    0.0000 C   0  0  0  0  0  0  0  0  0
    7.3556   -1.1400    0.0000 O   0  0  0  0  0  0  0  0  0
    7.8405   -1.8075    0.0000 C   0  0  0  0  0  0  0  0  0
    7.3556   -2.4749    0.0000 N   0  0  0  0  0  0  0  0  0
    6.5709   -2.2200    0.0000 C   0  0  0  0  0  0  0  0  0
    5.9035   -2.7049    0.0000 C   0  0  0  0  0  0  0  0  0
  1  2  1  0  0  0  0
  1 22  1  0  0  0  0
  2  3  1  0  0  0  0
  3  4  1  0  0  0  0
  4  5  1  0  0  0  0
  5  6  1  0  0  0  0
  5 11  1  0  0  0  0
  6  7  1  0  0  0  0
  7  8  1  0  0  0  0
  8  9  4  0  0  0  0
  8 20  4  0  0  0  0
  9 10  1  0  0  0  0
  9 12  4  0  0  0  0
 10 11  1  0  0  0  0
 12 13  4  0  0  0  0
 13 14  1  0  0  0  0
 13 19  4  0  0  0  0
 14 15  1  0  0  0  0
 15 16  1  0  0  0  0
 16 17  2  0  0  0  0
 16 18  1  0  0  0  0
 18 19  1  0  0  0  0
 18 21  1  0  0  0  0
 19 20  4  0  0  0  0
 22 23  4  0  0  0  0
 22 26  4  0  0  0  0
 23 24  4  0  0  0  0
 24 25  4  0  0  0  0
 25 26  4  0  0  0  0
 25 28  1  0  0  0  0
 26 27  1  0  0  0  0
 28 29  4  0  0  0  0
 28 32  4  0  0  0  0
 29 30  4  0  0  0  0
 30 31  4  0  0  0  0
 31 32  4  0  0  0  0
 32 33  1  0  0  0  0
M  END
>  <Name_Molregno>
435853

>  <DOPAMINE D3>
7.2

$$$$
435855
  Marvin  02231216192D 0   1.00000     0.00000     0

 32 36  0  0  0  0  0  0  0  0999 V2000
    3.5125   -0.4817    0.0000 S   0  0  0  0  0  0  0  0  0
    3.1000    0.2328    0.0000 C   0  0  0  0  0  0  0  0  0
    2.2750    0.2328    0.0000 C   0  0  0  0  0  0  0  0  0
    1.8625    0.9472    0.0000 C   0  0  0  0  0  0  0  0  0
    1.0375    0.9472    0.0000 N   0  0  0  0  0  0  0  0  0
    0.6795    0.2039    0.0000 C   0  0  0  0  0  0  0  0  0
   -0.1248    0.0204    0.0000 C   0  0  0  0  0  0  0  0  0
   -0.7698    0.5347    0.0000 C   0  0  0  0  0  0  0  0  0
   -0.7698    1.3597    0.0000 C   0  0  0  0  0  0  0  0  0
   -0.1248    1.8741    0.0000 C   0  0  0  0  0  0  0  0  0
    0.6795    1.6905    0.0000 C   0  0  0  0  0  0  0  0  0
   -1.4843    1.7722    0.0000 C   0  0  0  0  0  0  0  0  0
   -2.1987    1.3597    0.0000 C   0  0  0  0  0  0  0  0  0
   -2.9132    1.7722    0.0000 O   0  0  0  0  0  0  0  0  0
   -3.6277    1.3597    0.0000 C   0  0  0  0  0  0  0  0  0
   -3.6277    0.5347    0.0000 C   0  0  0  0  0  0  0  0  0
   -4.3422    0.1222    0.0000 O   0  0  0  0  0  0  0  0  0
   -2.9132    0.1222    0.0000 N   0  0  0  0  0  0  0  0  0
   -2.1987    0.5347    0.0000 C   0  0  0  0  0  0  0  0  0
   -1.4843    0.1222    0.0000 C   0  0  0  0  0  0  0  0  0
    4.3375   -0.4817    0.0000 C   0  0  0  0  0  0  0  0  0
    4.8224    0.1857    0.0000 N   0  0  0  0  0  0  0  0  0
    5.6070   -0.0692    0.0000 N   0  0  0  0  0  0  0  0  0
    5.6070   -0.8942    0.0000 C   0  0  0  0  0  0  0  0  0
    4.8224   -1.1491    0.0000 N   0  0  0  0  0  0  0  0  0
    4.5675   -1.9338    0.0000 C   0  0  0  0  0  0  0  0  0
    6.2745   -1.3791    0.0000 C   0  0  0  0  0  0  0  0  0
    7.0591   -1.1242    0.0000 O   0  0  0  0  0  0  0  0  0
    7.5440   -1.7916    0.0000 C   0  0  0  0  0  0  0  0  0
    7.0591   -2.4591    0.0000 N   0  0  0  0  0  0  0  0  0
    6.2745   -2.2041    0.0000 C   0  0  0  0  0  0  0  0  0
    5.6070   -2.6890    0.0000 C   0  0  0  0  0  0  0  0  0
  1  2  1  0  0  0  0
  1 21  1  0  0  0  0
  2  3  1  0  0  0  0
  3  4  1  0  0  0  0
  4  5  1  0  0  0  0
  5  6  1  0  0  0  0
  5 11  1  0  0  0  0
  6  7  1  0  0  0  0
  7  8  1  0  0  0  0
  8  9  4  0  0  0  0
  8 20  4  0  0  0  0
  9 10  1  0  0  0  0
  9 12  4  0  0  0  0
 10 11  1  0  0  0  0
 12 13  4  0  0  0  0
 13 14  1  0  0  0  0
 13 19  4  0  0  0  0
 14 15  1  0  0  0  0
 15 16  1  0  0  0  0
 16 17  2  0  0  0  0
 16 18  1  0  0  0  0
 18 19  1  0  0  0  0
 19 20  4  0  0  0  0
 21 22  4  0  0  0  0
 21 25  4  0  0  0  0
 22 23  4  0  0  0  0
 23 24  4  0  0  0  0
 24 25  4  0  0  0  0
 24 27  1  0  0  0  0
 25 26  1  0  0  0  0
 27 28  4  0  0  0  0
 27 31  4  0  0  0  0
 28 29  4  0  0  0  0
 29 30  4  0  0  0  0
 30 31  4  0  0  0  0
 31 32  1  0  0  0  0
M  END
>  <Name_Molregno>
435855

>  <DOPAMINE D3>
5.6

$$$$
435894
  Marvin  02231216192D 0   1.00000     0.00000     0

 36 40  0  0  0  0  0  0  0  0999 V2000
    1.9664   -0.2780    0.0000 S   0  0  0  0  0  0  0  0  0
    1.5539    0.4364    0.0000 C   0  0  0  0  0  0  0  0  0
    0.7289    0.4364    0.0000 C   0  0  0  0  0  0  0  0  0
    0.3164    1.1509    0.0000 C   0  0  0  0  0  0  0  0  0
   -0.5086    1.1509    0.0000 N   0  0  0  0  0  0  0  0  0
   -0.8665    0.4076    0.0000 C   0  0  0  0  0  0  0  0  0
   -1.6709    0.2240    0.0000 C   0  0  0  0  0  0  0  0  0
   -2.3159    0.7384    0.0000 C   0  0  0  0  0  0  0  0  0
   -2.3159    1.5634    0.0000 C   0  0  0  0  0  0  0  0  0
   -1.6709    2.0778    0.0000 C   0  0  0  0  0  0  0  0  0
   -0.8665    1.8942    0.0000 C   0  0  0  0  0  0  0  0  0
   -3.0303    1.9759    0.0000 C   0  0  0  0  0  0  0  0  0
   -3.7448    1.5634    0.0000 C   0  0  0  0  0  0  0  0  0
   -4.5294    1.8183    0.0000 O   0  0  0  0  0  0  0  0  0
   -5.0144    1.1509    0.0000 C   0  0  0  0  0  0  0  0  0
   -4.5294    0.4835    0.0000 N   0  0  0  0  0  0  0  0  0
   -3.7448    0.7384    0.0000 C   0  0  0  0  0  0  0  0  0
   -3.0303    0.3259    0.0000 C   0  0  0  0  0  0  0  0  0
   -5.8394    1.1509    0.0000 C   0  0  0  0  0  0  0  0  0
   -6.2519    0.4364    0.0000 C   0  0  0  0  0  0  0  0  0
    2.7914   -0.2780    0.0000 C   0  0  0  0  0  0  0  0  0
    3.2763    0.3894    0.0000 N   0  0  0  0  0  0  0  0  0
    4.0609    0.1345    0.0000 N   0  0  0  0  0  0  0  0  0
    4.0609   -0.6905    0.0000 C   0  0  0  0  0  0  0  0  0
    3.2763   -0.9455    0.0000 N   0  0  0  0  0  0  0  0  0
    3.0214   -1.7301    0.0000 C   0  0  0  0  0  0  0  0  0
    4.7284   -1.1755    0.0000 C   0  0  0  0  0  0  0  0  0
    5.4821   -0.8399    0.0000 C   0  0  0  0  0  0  0  0  0
    6.1495   -1.3248    0.0000 C   0  0  0  0  0  0  0  0  0
    6.0633   -2.1453    0.0000 C   0  0  0  0  0  0  0  0  0
    5.3096   -2.4809    0.0000 C   0  0  0  0  0  0  0  0  0
    4.6422   -1.9960    0.0000 C   0  0  0  0  0  0  0  0  0
    6.7307   -2.6302    0.0000 C   0  0  0  0  0  0  0  0  0
    7.3981   -3.1152    0.0000 F   0  0  0  0  0  0  0  0  0
    6.2458   -3.2977    0.0000 F   0  0  0  0  0  0  0  0  0
    7.2156   -1.9628    0.0000 F   0  0  0  0  0  0  0  0  0
  1  2  1  0  0  0  0
  1 21  1  0  0  0  0
  2  3  1  0  0  0  0
  3  4  1  0  0  0  0
  4  5  1  0  0  0  0
  5  6  1  0  0  0  0
  5 11  1  0  0  0  0
  6  7  1  0  0  0  0
  7  8  1  0  0  0  0
  8  9  4  0  0  0  0
  8 18  4  0  0  0  0
  9 10  1  0  0  0  0
  9 12  4  0  0  0  0
 10 11  1  0  0  0  0
 12 13  4  0  0  0  0
 13 14  4  0  0  0  0
 13 17  4  0  0  0  0
 14 15  4  0  0  0  0
 15 16  4  0  0  0  0
 15 19  1  0  0  0  0
 16 17  4  0  0  0  0
 17 18  4  0  0  0  0
 19 20  1  0  0  0  0
 21 22  4  0  0  0  0
 21 25  4  0  0  0  0
 22 23  4  0  0  0  0
 23 24  4  0  0  0  0
 24 25  4  0  0  0  0
 24 27  1  0  0  0  0
 25 26  1  0  0  0  0
 27 28  4  0  0  0  0
 27 32  4  0  0  0  0
 28 29  4  0  0  0  0
 29 30  4  0  0  0  0
 30 31  4  0  0  0  0
 30 33  1  0  0  0  0
 31 32  4  0  0  0  0
 33 34  1  0  0  0  0
 33 35  1  0  0  0  0
 33 36  1  0  0  0  0
M  END
>  <Name_Molregno>
435894

>  <DOPAMINE D3>
8.1

$$$$
435895
  Marvin  02231216192D 0   1.00000     0.00000     0

 41 46  0  0  0  0  0  0  0  0999 V2000
    2.4181    3.1190    0.0000 S   0  0  0  0  0  0  0  0  0
    2.0825    2.3653    0.0000 C   0  0  0  0  0  0  0  0  0
    2.5675    1.6978    0.0000 C   0  0  0  0  0  0  0  0  0
    2.2319    0.9442    0.0000 C   0  0  0  0  0  0  0  0  0
    2.7168    0.2767    0.0000 C   0  0  0  0  0  0  0  0  0
    2.3813   -0.4769    0.0000 N   0  0  0  0  0  0  0  0  0
    2.9147   -1.1063    0.0000 C   0  0  0  0  0  0  0  0  0
    2.7553   -1.9157    0.0000 C   0  0  0  0  0  0  0  0  0
    2.0230   -2.2958    0.0000 C   0  0  0  0  0  0  0  0  0
    1.2693   -1.9602    0.0000 C   0  0  0  0  0  0  0  0  0
    1.0618   -1.1617    0.0000 C   0  0  0  0  0  0  0  0  0
    1.5566   -0.5016    0.0000 C   0  0  0  0  0  0  0  0  0
    0.6019   -2.4451    0.0000 C   0  0  0  0  0  0  0  0  0
    0.6881   -3.2656    0.0000 C   0  0  0  0  0  0  0  0  0
    0.1361   -3.8787    0.0000 N   0  0  0  0  0  0  0  0  0
    0.5486   -4.5932    0.0000 C   0  0  0  0  0  0  0  0  0
    1.3556   -4.4216    0.0000 O   0  0  0  0  0  0  0  0  0
    1.4418   -3.6012    0.0000 C   0  0  0  0  0  0  0  0  0
    2.1092   -3.1162    0.0000 C   0  0  0  0  0  0  0  0  0
    2.8629   -3.4518    0.0000 C   0  0  0  0  0  0  0  0  0
    0.2130   -5.3468    0.0000 C   0  0  0  0  0  0  0  0  0
   -0.1225   -6.1005    0.0000 F   0  0  0  0  0  0  0  0  0
    0.9667   -5.6824    0.0000 F   0  0  0  0  0  0  0  0  0
   -0.5406   -5.0113    0.0000 F   0  0  0  0  0  0  0  0  0
    1.9332    3.7864    0.0000 C   0  0  0  0  0  0  0  0  0
    1.1082    3.7864    0.0000 N   0  0  0  0  0  0  0  0  0
    0.8532    4.5710    0.0000 N   0  0  0  0  0  0  0  0  0
    1.5207    5.0559    0.0000 C   0  0  0  0  0  0  0  0  0
    2.1881    4.5710    0.0000 N   0  0  0  0  0  0  0  0  0
    2.9727    4.8260    0.0000 C   0  0  0  0  0  0  0  0  0
    1.5207    5.8809    0.0000 C   0  0  0  0  0  0  0  0  0
    2.2351    6.2934    0.0000 C   0  0  0  0  0  0  0  0  0
    2.2351    7.1184    0.0000 C   0  0  0  0  0  0  0  0  0
    2.9496    7.5309    0.0000 N   0  0  0  0  0  0  0  0  0
    3.6641    7.1184    0.0000 C   0  0  0  0  0  0  0  0  0
    3.6641    6.2934    0.0000 C   0  0  0  0  0  0  0  0  0
    2.9496    5.8809    0.0000 C   0  0  0  0  0  0  0  0  0
    4.3785    7.5309    0.0000 C   0  0  0  0  0  0  0  0  0
    1.5207    7.5309    0.0000 C   0  0  0  0  0  0  0  0  0
    0.8062    7.1184    0.0000 C   0  0  0  0  0  0  0  0  0
    0.8062    6.2934    0.0000 C   0  0  0  0  0  0  0  0  0
  1  2  1  0  0  0  0
  1 25  1  0  0  0  0
  2  3  1  0  0  0  0
  3  4  1  0  0  0  0
  4  5  1  0  0  0  0
  5  6  1  0  0  0  0
  6  7  1  0  0  0  0
  6 12  1  0  0  0  0
  7  8  1  0  0  0  0
  8  9  1  0  0  0  0
  9 10  4  0  0  0  0
  9 19  4  0  0  0  0
 10 11  1  0  0  0  0
 10 13  4  0  0  0  0
 11 12  1  0  0  0  0
 13 14  4  0  0  0  0
 14 15  4  0  0  0  0
 14 18  4  0  0  0  0
 15 16  4  0  0  0  0
 16 17  4  0  0  0  0
 16 21  1  0  0  0  0
 17 18  4  0  0  0  0
 18 19  4  0  0  0  0
 19 20  1  0  0  0  0
 21 22  1  0  0  0  0
 21 23  1  0  0  0  0
 21 24  1  0  0  0  0
 25 26  4  0  0  0  0
 25 29  4  0  0  0  0
 26 27  4  0  0  0  0
 27 28  4  0  0  0  0
 28 29  4  0  0  0  0
 28 31  1  0  0  0  0
 29 30  1  0  0  0  0
 31 32  4  0  0  0  0
 31 41  4  0  0  0  0
 32 33  4  0  0  0  0
 32 37  4  0  0  0  0
 33 34  4  0  0  0  0
 33 39  4  0  0  0  0
 34 35  4  0  0  0  0
 35 36  4  0  0  0  0
 35 38  1  0  0  0  0
 36 37  4  0  0  0  0
 39 40  4  0  0  0  0
 40 41  4  0  0  0  0
M  END
>  <Name_Molregno>
435895

>  <DOPAMINE D3>
7.2

$$$$
435898
  Marvin  02231216192D 0   1.00000     0.00000     0

 37 42  0  0  0  0  0  0  0  0999 V2000
   -1.5775    0.6692    0.0000 S   0  0  0  0  0  0  0  0  0
   -1.9130   -0.0845    0.0000 C   0  0  0  0  0  0  0  0  0
   -1.4281   -0.7519    0.0000 C   0  0  0  0  0  0  0  0  0
   -1.7637   -1.5056    0.0000 C   0  0  0  0  0  0  0  0  0
   -1.2787   -2.1730    0.0000 N   0  0  0  0  0  0  0  0  0
   -0.4670   -2.0257    0.0000 C   0  0  0  0  0  0  0  0  0
    0.1543   -2.5685    0.0000 C   0  0  0  0  0  0  0  0  0
    0.1173   -3.3927    0.0000 C   0  0  0  0  0  0  0  0  0
   -0.5502   -3.8776    0.0000 C   0  0  0  0  0  0  0  0  0
   -1.3454   -3.6581    0.0000 C   0  0  0  0  0  0  0  0  0
   -1.6697   -2.8995    0.0000 C   0  0  0  0  0  0  0  0  0
   -0.4639   -4.6981    0.0000 C   0  0  0  0  0  0  0  0  0
    0.2897   -5.0337    0.0000 C   0  0  0  0  0  0  0  0  0
    0.3760   -5.8541    0.0000 O   0  0  0  0  0  0  0  0  0
    1.1297   -6.1897    0.0000 C   0  0  0  0  0  0  0  0  0
    1.7971   -5.7048    0.0000 C   0  0  0  0  0  0  0  0  0
    2.5508   -6.0403    0.0000 O   0  0  0  0  0  0  0  0  0
    1.7109   -4.8843    0.0000 N   0  0  0  0  0  0  0  0  0
    0.9572   -4.5487    0.0000 C   0  0  0  0  0  0  0  0  0
    0.8709   -3.7282    0.0000 C   0  0  0  0  0  0  0  0  0
   -2.0624    1.3366    0.0000 C   0  0  0  0  0  0  0  0  0
   -2.8874    1.3366    0.0000 N   0  0  0  0  0  0  0  0  0
   -3.1423    2.1213    0.0000 N   0  0  0  0  0  0  0  0  0
   -2.4749    2.6062    0.0000 C   0  0  0  0  0  0  0  0  0
   -1.8075    2.1213    0.0000 N   0  0  0  0  0  0  0  0  0
   -1.0228    2.3762    0.0000 C   0  0  0  0  0  0  0  0  0
   -2.4749    3.4312    0.0000 C   0  0  0  0  0  0  0  0  0
   -1.7604    3.8437    0.0000 C   0  0  0  0  0  0  0  0  0
   -1.7604    4.6687    0.0000 C   0  0  0  0  0  0  0  0  0
   -1.0460    5.0812    0.0000 N   0  0  0  0  0  0  0  0  0
   -0.3315    4.6687    0.0000 C   0  0  0  0  0  0  0  0  0
   -0.3315    3.8437    0.0000 C   0  0  0  0  0  0  0  0  0
   -1.0460    3.4312    0.0000 C   0  0  0  0  0  0  0  0  0
    0.3830    5.0812    0.0000 C   0  0  0  0  0  0  0  0  0
   -2.4749    5.0812    0.0000 C   0  0  0  0  0  0  0  0  0
   -3.1894    4.6687    0.0000 C   0  0  0  0  0  0  0  0  0
   -3.1894    3.8437    0.0000 C   0  0  0  0  0  0  0  0  0
  1  2  1  0  0  0  0
  1 21  1  0  0  0  0
  2  3  1  0  0  0  0
  3  4  1  0  0  0  0
  4  5  1  0  0  0  0
  5  6  1  0  0  0  0
  5 11  1  0  0  0  0
  6  7  1  0  0  0  0
  7  8  1  0  0  0  0
  8  9  4  0  0  0  0
  8 20  4  0  0  0  0
  9 10  1  0  0  0  0
  9 12  4  0  0  0  0
 10 11  1  0  0  0  0
 12 13  4  0  0  0  0
 13 14  1  0  0  0  0
 13 19  4  0  0  0  0
 14 15  1  0  0  0  0
 15 16  1  0  0  0  0
 16 17  2  0  0  0  0
 16 18  1  0  0  0  0
 18 19  1  0  0  0  0
 19 20  4  0  0  0  0
 21 22  4  0  0  0  0
 21 25  4  0  0  0  0
 22 23  4  0  0  0  0
 23 24  4  0  0  0  0
 24 25  4  0  0  0  0
 24 27  1  0  0  0  0
 25 26  1  0  0  0  0
 27 28  4  0  0  0  0
 27 37  4  0  0  0  0
 28 29  4  0  0  0  0
 28 33  4  0  0  0  0
 29 30  4  0  0  0  0
 29 35  4  0  0  0  0
 30 31  4  0  0  0  0
 31 32  4  0  0  0  0
 31 34  1  0  0  0  0
 32 33  4  0  0  0  0
 35 36  4  0  0  0  0
 36 37  4  0  0  0  0
M  END
>  <Name_Molregno>
435898

>  <DOPAMINE D3>
6.6

$$$$
435915
  Marvin  02231216192D 0   1.00000     0.00000     0

 39 44  0  0  0  0  0  0  0  0999 V2000
    0.2812    0.6905    0.0000 S   0  0  0  0  0  0  0  0  0
   -0.0543   -0.0631    0.0000 C   0  0  0  0  0  0  0  0  0
    0.4306   -0.7306    0.0000 C   0  0  0  0  0  0  0  0  0
    0.0950   -1.4842    0.0000 C   0  0  0  0  0  0  0  0  0
    0.5799   -2.1517    0.0000 N   0  0  0  0  0  0  0  0  0
    1.3917   -2.0044    0.0000 C   0  0  0  0  0  0  0  0  0
    2.0130   -2.5472    0.0000 C   0  0  0  0  0  0  0  0  0
    1.9760   -3.3713    0.0000 C   0  0  0  0  0  0  0  0  0
    1.3085   -3.8563    0.0000 C   0  0  0  0  0  0  0  0  0
    0.5132   -3.6368    0.0000 C   0  0  0  0  0  0  0  0  0
    0.1890   -2.8782    0.0000 C   0  0  0  0  0  0  0  0  0
    1.3947   -4.6767    0.0000 C   0  0  0  0  0  0  0  0  0
    2.1484   -5.0123    0.0000 C   0  0  0  0  0  0  0  0  0
    2.8159   -4.5274    0.0000 C   0  0  0  0  0  0  0  0  0
    3.6228   -4.6989    0.0000 O   0  0  0  0  0  0  0  0  0
    4.0353   -3.9844    0.0000 C   0  0  0  0  0  0  0  0  0
    3.4833   -3.3713    0.0000 N   0  0  0  0  0  0  0  0  0
    2.7296   -3.7069    0.0000 C   0  0  0  0  0  0  0  0  0
    4.8558   -3.8982    0.0000 C   0  0  0  0  0  0  0  0  0
    5.6763   -3.8120    0.0000 F   0  0  0  0  0  0  0  0  0
    4.7696   -3.0777    0.0000 F   0  0  0  0  0  0  0  0  0
    4.9421   -4.7187    0.0000 F   0  0  0  0  0  0  0  0  0
   -0.2037    1.3580    0.0000 C   0  0  0  0  0  0  0  0  0
   -1.0287    1.3580    0.0000 N   0  0  0  0  0  0  0  0  0
   -1.2837    2.1426    0.0000 N   0  0  0  0  0  0  0  0  0
   -0.6162    2.6275    0.0000 C   0  0  0  0  0  0  0  0  0
    0.0512    2.1426    0.0000 N   0  0  0  0  0  0  0  0  0
    0.8358    2.3975    0.0000 C   0  0  0  0  0  0  0  0  0
   -0.6162    3.4525    0.0000 C   0  0  0  0  0  0  0  0  0
    0.0983    3.8650    0.0000 C   0  0  0  0  0  0  0  0  0
    0.0983    4.6900    0.0000 C   0  0  0  0  0  0  0  0  0
    0.8127    5.1025    0.0000 N   0  0  0  0  0  0  0  0  0
    1.5272    4.6900    0.0000 C   0  0  0  0  0  0  0  0  0
    1.5272    3.8650    0.0000 C   0  0  0  0  0  0  0  0  0
    0.8127    3.4525    0.0000 C   0  0  0  0  0  0  0  0  0
    2.2417    5.1025    0.0000 C   0  0  0  0  0  0  0  0  0
   -0.6162    5.1025    0.0000 C   0  0  0  0  0  0  0  0  0
   -1.3307    4.6900    0.0000 C   0  0  0  0  0  0  0  0  0
   -1.3307    3.8650    0.0000 C   0  0  0  0  0  0  0  0  0
  1  2  1  0  0  0  0
  1 23  1  0  0  0  0
  2  3  1  0  0  0  0
  3  4  1  0  0  0  0
  4  5  1  0  0  0  0
  5  6  1  0  0  0  0
  5 11  1  0  0  0  0
  6  7  1  0  0  0  0
  7  8  1  0  0  0  0
  8  9  4  0  0  0  0
  8 18  4  0  0  0  0
  9 10  1  0  0  0  0
  9 12  4  0  0  0  0
 10 11  1  0  0  0  0
 12 13  4  0  0  0  0
 13 14  4  0  0  0  0
 14 15  4  0  0  0  0
 14 18  4  0  0  0  0
 15 16  4  0  0  0  0
 16 17  4  0  0  0  0
 16 19  1  0  0  0  0
 17 18  4  0  0  0  0
 19 20  1  0  0  0  0
 19 21  1  0  0  0  0
 19 22  1  0  0  0  0
 23 24  4  0  0  0  0
 23 27  4  0  0  0  0
 24 25  4  0  0  0  0
 25 26  4  0  0  0  0
 26 27  4  0  0  0  0
 26 29  1  0  0  0  0
 27 28  1  0  0  0  0
 29 30  4  0  0  0  0
 29 39  4  0  0  0  0
 30 31  4  0  0  0  0
 30 35  4  0  0  0  0
 31 32  4  0  0  0  0
 31 37  4  0  0  0  0
 32 33  4  0  0  0  0
 33 34  4  0  0  0  0
 33 36  1  0  0  0  0
 34 35  4  0  0  0  0
 37 38  4  0  0  0  0
 38 39  4  0  0  0  0
M  END
>  <Name_Molregno>
435915

>  <DOPAMINE D2>
6.1

>  <DOPAMINE D3>
8.4

$$$$
435938
  Marvin  02231216192D 0   1.00000     0.00000     0

 40 45  0  0  1  0  0  0  0  0999 V2000
   -2.0808    1.1002    0.0000 S   0  0  0  0  0  0  0  0  0
   -2.4163    0.3465    0.0000 C   0  0  0  0  0  0  0  0  0
   -1.9314   -0.3209    0.0000 C   0  0  0  0  0  0  0  0  0
   -2.2670   -1.0746    0.0000 C   0  0  0  0  0  0  0  0  0
   -1.7821   -1.7420    0.0000 N   0  0  0  0  0  0  0  0  0
   -0.9703   -1.5947    0.0000 C   0  0  0  0  0  0  0  0  0
   -0.3490   -2.1375    0.0000 C   0  0  0  0  0  0  0  0  0
   -0.3860   -2.9617    0.0000 C   0  0  0  0  0  0  0  0  0
   -1.0535   -3.4466    0.0000 C   0  0  0  0  0  0  0  0  0
   -1.8488   -3.2272    0.0000 C   0  0  0  0  0  0  0  0  0
   -2.1730   -2.4685    0.0000 C   0  0  0  0  0  0  0  0  0
   -0.9672   -4.2671    0.0000 C   0  0  0  0  0  0  0  0  0
   -0.2136   -4.6027    0.0000 C   0  0  0  0  0  0  0  0  0
    0.4539   -4.1177    0.0000 C   0  0  0  0  0  0  0  0  0
    0.3676   -3.2973    0.0000 C   0  0  0  0  0  0  0  0  0
    1.1213   -4.6027    0.0000 C   0  0  0  0  0  0  0  0  0
    1.9059   -4.3477    0.0000 O   0  0  0  0  0  0  0  0  0
    0.8664   -5.3873    0.0000 N   0  0  0  0  0  0  0  0  0
    0.0414   -5.3873    0.0000 C   0  0  0  0  0  0  0  0  0
    1.3513   -6.0547    0.0000 C   0  0  0  0  0  0  0  0  0
    1.0157   -6.8084    0.0000 C   0  0  0  0  0  0  0  0  0
    2.1718   -5.9685    0.0000 C   0  0  0  0  0  0  0  0  0
   -3.0875   -1.1608    0.0000 C   0  0  0  0  0  0  0  0  0
   -2.5657    1.7676    0.0000 C   0  0  0  0  0  0  0  0  0
   -3.3907    1.7676    0.0000 N   0  0  0  0  0  0  0  0  0
   -3.6456    2.5522    0.0000 N   0  0  0  0  0  0  0  0  0
   -2.9782    3.0372    0.0000 C   0  0  0  0  0  0  0  0  0
   -2.3108    2.5522    0.0000 N   0  0  0  0  0  0  0  0  0
   -1.5261    2.8072    0.0000 C   0  0  0  0  0  0  0  0  0
   -2.9782    3.8622    0.0000 C   0  0  0  0  0  0  0  0  0
   -2.2637    4.2747    0.0000 C   0  0  0  0  0  0  0  0  0
   -2.2637    5.0997    0.0000 C   0  0  0  0  0  0  0  0  0
   -1.5493    5.5122    0.0000 N   0  0  0  0  0  0  0  0  0
   -0.8348    5.0997    0.0000 C   0  0  0  0  0  0  0  0  0
   -0.8348    4.2747    0.0000 C   0  0  0  0  0  0  0  0  0
   -1.5493    3.8622    0.0000 C   0  0  0  0  0  0  0  0  0
   -0.1203    5.5122    0.0000 C   0  0  0  0  0  0  0  0  0
   -2.9782    5.5122    0.0000 C   0  0  0  0  0  0  0  0  0
   -3.6927    5.0997    0.0000 C   0  0  0  0  0  0  0  0  0
   -3.6927    4.2747    0.0000 C   0  0  0  0  0  0  0  0  0
  1  2  1  0  0  0  0
  1 24  1  0  0  0  0
  2  3  1  0  0  0  0
  3  4  1  0  0  0  0
  4  5  1  0  0  0  0
  4 23  1  0  0  0  0
  5  6  1  0  0  0  0
  5 11  1  0  0  0  0
  6  7  1  0  0  0  0
  7  8  1  0  0  0  0
  8  9  4  0  0  0  0
  8 15  4  0  0  0  0
  9 10  1  0  0  0  0
  9 12  4  0  0  0  0
 10 11  1  0  0  0  0
 12 13  4  0  0  0  0
 13 14  4  0  0  0  0
 13 19  1  0  0  0  0
 14 15  4  0  0  0  0
 14 16  1  0  0  0  0
 16 17  2  0  0  0  0
 16 18  1  0  0  0  0
 18 19  1  0  0  0  0
 18 20  1  0  0  0  0
 20 21  1  0  0  0  0
 20 22  1  0  0  0  0
 24 25  4  0  0  0  0
 24 28  4  0  0  0  0
 25 26  4  0  0  0  0
 26 27  4  0  0  0  0
 27 28  4  0  0  0  0
 27 30  1  0  0  0  0
 28 29  1  0  0  0  0
 30 31  4  0  0  0  0
 30 40  4  0  0  0  0
 31 32  4  0  0  0  0
 31 36  4  0  0  0  0
 32 33  4  0  0  0  0
 32 38  4  0  0  0  0
 33 34  4  0  0  0  0
 34 35  4  0  0  0  0
 34 37  1  0  0  0  0
 35 36  4  0  0  0  0
 38 39  4  0  0  0  0
 39 40  4  0  0  0  0
M  END
>  <Name_Molregno>
435938

>  <DOPAMINE D3>
6.9

$$$$
435940
  Marvin  02231216192D 0   1.00000     0.00000     0

 38 43  0  0  1  0  0  0  0  0999 V2000
    0.2609    0.6188    0.0000 S   0  0  0  0  0  0  0  0  0
   -0.0747   -0.1349    0.0000 C   0  0  0  0  0  0  0  0  0
    0.4102   -0.8023    0.0000 C   0  0  0  0  0  0  0  0  0
    0.0747   -1.5560    0.0000 C   0  0  0  0  0  0  0  0  0
    0.5596   -2.2234    0.0000 N   0  0  0  0  0  0  0  0  0
    1.3713   -2.0761    0.0000 C   0  0  0  0  0  0  0  0  0
    1.9926   -2.6189    0.0000 C   0  0  0  0  0  0  0  0  0
    1.9556   -3.4431    0.0000 C   0  0  0  0  0  0  0  0  0
    1.2882   -3.9280    0.0000 C   0  0  0  0  0  0  0  0  0
    0.4929   -3.7085    0.0000 C   0  0  0  0  0  0  0  0  0
    0.1686   -2.9499    0.0000 C   0  0  0  0  0  0  0  0  0
    1.3744   -4.7485    0.0000 C   0  0  0  0  0  0  0  0  0
    2.1281   -5.0840    0.0000 C   0  0  0  0  0  0  0  0  0
    2.7955   -4.5991    0.0000 C   0  0  0  0  0  0  0  0  0
    2.7093   -3.7786    0.0000 C   0  0  0  0  0  0  0  0  0
    3.4629   -5.0840    0.0000 C   0  0  0  0  0  0  0  0  0
    4.2476   -4.8291    0.0000 O   0  0  0  0  0  0  0  0  0
    3.2080   -5.8686    0.0000 N   0  0  0  0  0  0  0  0  0
    2.3830   -5.8686    0.0000 C   0  0  0  0  0  0  0  0  0
    3.6929   -6.5361    0.0000 C   0  0  0  0  0  0  0  0  0
   -0.7458   -1.6422    0.0000 C   0  0  0  0  0  0  0  0  0
   -0.2241    1.2863    0.0000 C   0  0  0  0  0  0  0  0  0
   -1.0491    1.2863    0.0000 N   0  0  0  0  0  0  0  0  0
   -1.3040    2.0709    0.0000 N   0  0  0  0  0  0  0  0  0
   -0.6366    2.5558    0.0000 C   0  0  0  0  0  0  0  0  0
    0.0309    2.0709    0.0000 N   0  0  0  0  0  0  0  0  0
    0.8155    2.3258    0.0000 C   0  0  0  0  0  0  0  0  0
   -0.6366    3.3808    0.0000 C   0  0  0  0  0  0  0  0  0
    0.0779    3.7933    0.0000 C   0  0  0  0  0  0  0  0  0
    0.0779    4.6183    0.0000 C   0  0  0  0  0  0  0  0  0
    0.7924    5.0308    0.0000 N   0  0  0  0  0  0  0  0  0
    1.5068    4.6183    0.0000 C   0  0  0  0  0  0  0  0  0
    1.5068    3.7933    0.0000 C   0  0  0  0  0  0  0  0  0
    0.7924    3.3808    0.0000 C   0  0  0  0  0  0  0  0  0
    2.2213    5.0308    0.0000 C   0  0  0  0  0  0  0  0  0
   -0.6366    5.0308    0.0000 C   0  0  0  0  0  0  0  0  0
   -1.3510    4.6183    0.0000 C   0  0  0  0  0  0  0  0  0
   -1.3510    3.7933    0.0000 C   0  0  0  0  0  0  0  0  0
  1  2  1  0  0  0  0
  1 22  1  0  0  0  0
  2  3  1  0  0  0  0
  3  4  1  0  0  0  0
  4  5  1  0  0  0  0
  4 21  1  0  0  0  0
  5  6  1  0  0  0  0
  5 11  1  0  0  0  0
  6  7  1  0  0  0  0
  7  8  1  0  0  0  0
  8  9  4  0  0  0  0
  8 15  4  0  0  0  0
  9 10  1  0  0  0  0
  9 12  4  0  0  0  0
 10 11  1  0  0  0  0
 12 13  4  0  0  0  0
 13 14  4  0  0  0  0
 13 19  1  0  0  0  0
 14 15  4  0  0  0  0
 14 16  1  0  0  0  0
 16 17  2  0  0  0  0
 16 18  1  0  0  0  0
 18 19  1  0  0  0  0
 18 20  1  0  0  0  0
 22 23  4  0  0  0  0
 22 26  4  0  0  0  0
 23 24  4  0  0  0  0
 24 25  4  0  0  0  0
 25 26  4  0  0  0  0
 25 28  1  0  0  0  0
 26 27  1  0  0  0  0
 28 29  4  0  0  0  0
 28 38  4  0  0  0  0
 29 30  4  0  0  0  0
 29 34  4  0  0  0  0
 30 31  4  0  0  0  0
 30 36  4  0  0  0  0
 31 32  4  0  0  0  0
 32 33  4  0  0  0  0
 32 35  1  0  0  0  0
 33 34  4  0  0  0  0
 36 37  4  0  0  0  0
 37 38  4  0  0  0  0
M  END
>  <Name_Molregno>
435940

>  <DOPAMINE D3>
6.3

$$$$
435942
  Marvin  02231216192D 0   1.00000     0.00000     0

 32 36  0  0  0  0  0  0  0  0999 V2000
    3.4233    0.0166    0.0000 S   0  0  0  0  0  0  0  0  0
    3.0108    0.7311    0.0000 C   0  0  0  0  0  0  0  0  0
    2.1858    0.7311    0.0000 C   0  0  0  0  0  0  0  0  0
    1.7733    1.4455    0.0000 C   0  0  0  0  0  0  0  0  0
    0.9483    1.4455    0.0000 N   0  0  0  0  0  0  0  0  0
    0.5903    0.7022    0.0000 C   0  0  0  0  0  0  0  0  0
   -0.2140    0.5187    0.0000 C   0  0  0  0  0  0  0  0  0
   -0.8590    1.0330    0.0000 C   0  0  0  0  0  0  0  0  0
   -0.8590    1.8580    0.0000 C   0  0  0  0  0  0  0  0  0
   -0.2140    2.3724    0.0000 C   0  0  0  0  0  0  0  0  0
    0.5903    2.1888    0.0000 C   0  0  0  0  0  0  0  0  0
   -1.5735    2.2705    0.0000 C   0  0  0  0  0  0  0  0  0
   -2.2879    1.8580    0.0000 C   0  0  0  0  0  0  0  0  0
   -3.0726    2.1130    0.0000 O   0  0  0  0  0  0  0  0  0
   -3.5575    1.4455    0.0000 C   0  0  0  0  0  0  0  0  0
   -3.0726    0.7781    0.0000 N   0  0  0  0  0  0  0  0  0
   -2.2879    1.0330    0.0000 C   0  0  0  0  0  0  0  0  0
   -1.5735    0.6205    0.0000 C   0  0  0  0  0  0  0  0  0
   -4.3825    1.4455    0.0000 C   0  0  0  0  0  0  0  0  0
   -4.7950    0.7311    0.0000 C   0  0  0  0  0  0  0  0  0
    4.2483    0.0166    0.0000 C   0  0  0  0  0  0  0  0  0
    4.7332    0.6840    0.0000 N   0  0  0  0  0  0  0  0  0
    5.5178    0.4291    0.0000 N   0  0  0  0  0  0  0  0  0
    5.5178   -0.3959    0.0000 C   0  0  0  0  0  0  0  0  0
    4.7332   -0.6508    0.0000 N   0  0  0  0  0  0  0  0  0
    4.4783   -1.4355    0.0000 C   0  0  0  0  0  0  0  0  0
    6.1853   -0.8808    0.0000 C   0  0  0  0  0  0  0  0  0
    6.9389   -0.5453    0.0000 C   0  0  0  0  0  0  0  0  0
    7.6064   -1.0302    0.0000 C   0  0  0  0  0  0  0  0  0
    7.5201   -1.8507    0.0000 C   0  0  0  0  0  0  0  0  0
    6.7665   -2.1862    0.0000 N   0  0  0  0  0  0  0  0  0
    6.0990   -1.7013    0.0000 C   0  0  0  0  0  0  0  0  0
  1  2  1  0  0  0  0
  1 21  1  0  0  0  0
  2  3  1  0  0  0  0
  3  4  1  0  0  0  0
  4  5  1  0  0  0  0
  5  6  1  0  0  0  0
  5 11  1  0  0  0  0
  6  7  1  0  0  0  0
  7  8  1  0  0  0  0
  8  9  4  0  0  0  0
  8 18  4  0  0  0  0
  9 10  1  0  0  0  0
  9 12  4  0  0  0  0
 10 11  1  0  0  0  0
 12 13  4  0  0  0  0
 13 14  4  0  0  0  0
 13 17  4  0  0  0  0
 14 15  4  0  0  0  0
 15 16  4  0  0  0  0
 15 19  1  0  0  0  0
 16 17  4  0  0  0  0
 17 18  4  0  0  0  0
 19 20  1  0  0  0  0
 21 22  4  0  0  0  0
 21 25  4  0  0  0  0
 22 23  4  0  0  0  0
 23 24  4  0  0  0  0
 24 25  4  0  0  0  0
 24 27  1  0  0  0  0
 25 26  1  0  0  0  0
 27 28  4  0  0  0  0
 27 32  4  0  0  0  0
 28 29  4  0  0  0  0
 29 30  4  0  0  0  0
 30 31  4  0  0  0  0
 31 32  4  0  0  0  0
M  END
>  <Name_Molregno>
435942

>  <DOPAMINE D3>
7

$$$$
435943
  Marvin  02231216192D 0   1.00000     0.00000     0

 39 44  0  0  0  0  0  0  0  0999 V2000
    2.2433    2.2450    0.0000 S   0  0  0  0  0  0  0  0  0
    1.9077    1.4913    0.0000 C   0  0  0  0  0  0  0  0  0
    2.3927    0.8239    0.0000 C   0  0  0  0  0  0  0  0  0
    2.0571    0.0702    0.0000 C   0  0  0  0  0  0  0  0  0
    2.5420   -0.5972    0.0000 C   0  0  0  0  0  0  0  0  0
    2.2065   -1.3509    0.0000 N   0  0  0  0  0  0  0  0  0
    2.7399   -1.9802    0.0000 C   0  0  0  0  0  0  0  0  0
    2.5805   -2.7897    0.0000 C   0  0  0  0  0  0  0  0  0
    1.8482   -3.1697    0.0000 C   0  0  0  0  0  0  0  0  0
    1.0945   -2.8341    0.0000 C   0  0  0  0  0  0  0  0  0
    0.8870   -2.0357    0.0000 C   0  0  0  0  0  0  0  0  0
    1.3818   -1.3756    0.0000 C   0  0  0  0  0  0  0  0  0
    0.4271   -3.3191    0.0000 C   0  0  0  0  0  0  0  0  0
    0.5133   -4.1396    0.0000 C   0  0  0  0  0  0  0  0  0
   -0.0387   -4.7526    0.0000 N   0  0  0  0  0  0  0  0  0
    0.3738   -5.4671    0.0000 C   0  0  0  0  0  0  0  0  0
    1.1808   -5.2956    0.0000 O   0  0  0  0  0  0  0  0  0
    1.2670   -4.4751    0.0000 C   0  0  0  0  0  0  0  0  0
    1.9344   -3.9902    0.0000 C   0  0  0  0  0  0  0  0  0
    2.6881   -4.3257    0.0000 C   0  0  0  0  0  0  0  0  0
    0.0382   -6.2208    0.0000 C   0  0  0  0  0  0  0  0  0
    0.5232   -6.8882    0.0000 C   0  0  0  0  0  0  0  0  0
    1.7584    2.9124    0.0000 C   0  0  0  0  0  0  0  0  0
    0.9334    2.9124    0.0000 N   0  0  0  0  0  0  0  0  0
    0.6784    3.6971    0.0000 N   0  0  0  0  0  0  0  0  0
    1.3459    4.1820    0.0000 C   0  0  0  0  0  0  0  0  0
    2.0133    3.6971    0.0000 N   0  0  0  0  0  0  0  0  0
    2.7979    3.9520    0.0000 C   0  0  0  0  0  0  0  0  0
    1.3459    5.0070    0.0000 C   0  0  0  0  0  0  0  0  0
    2.0603    5.4195    0.0000 C   0  0  0  0  0  0  0  0  0
    2.0603    6.2445    0.0000 C   0  0  0  0  0  0  0  0  0
    2.7748    6.6570    0.0000 N   0  0  0  0  0  0  0  0  0
    3.4893    6.2445    0.0000 C   0  0  0  0  0  0  0  0  0
    3.4893    5.4195    0.0000 C   0  0  0  0  0  0  0  0  0
    2.7748    5.0070    0.0000 C   0  0  0  0  0  0  0  0  0
    4.2037    6.6570    0.0000 C   0  0  0  0  0  0  0  0  0
    1.3459    6.6570    0.0000 C   0  0  0  0  0  0  0  0  0
    0.6314    6.2445    0.0000 C   0  0  0  0  0  0  0  0  0
    0.6314    5.4195    0.0000 C   0  0  0  0  0  0  0  0  0
  1  2  1  0  0  0  0
  1 23  1  0  0  0  0
  2  3  1  0  0  0  0
  3  4  1  0  0  0  0
  4  5  1  0  0  0  0
  5  6  1  0  0  0  0
  6  7  1  0  0  0  0
  6 12  1  0  0  0  0
  7  8  1  0  0  0  0
  8  9  1  0  0  0  0
  9 10  4  0  0  0  0
  9 19  4  0  0  0  0
 10 11  1  0  0  0  0
 10 13  4  0  0  0  0
 11 12  1  0  0  0  0
 13 14  4  0  0  0  0
 14 15  4  0  0  0  0
 14 18  4  0  0  0  0
 15 16  4  0  0  0  0
 16 17  4  0  0  0  0
 16 21  1  0  0  0  0
 17 18  4  0  0  0  0
 18 19  4  0  0  0  0
 19 20  1  0  0  0  0
 21 22  1  0  0  0  0
 23 24  4  0  0  0  0
 23 27  4  0  0  0  0
 24 25  4  0  0  0  0
 25 26  4  0  0  0  0
 26 27  4  0  0  0  0
 26 29  1  0  0  0  0
 27 28  1  0  0  0  0
 29 30  4  0  0  0  0
 29 39  4  0  0  0  0
 30 31  4  0  0  0  0
 30 35  4  0  0  0  0
 31 32  4  0  0  0  0
 31 37  4  0  0  0  0
 32 33  4  0  0  0  0
 33 34  4  0  0  0  0
 33 36  1  0  0  0  0
 34 35  4  0  0  0  0
 37 38  4  0  0  0  0
 38 39  4  0  0  0  0
M  END
>  <Name_Molregno>
435943

>  <DOPAMINE D3>
7.6

$$$$
435944
  Marvin  02231216192D 0   1.00000     0.00000     0

 33 37  0  0  0  0  0  0  0  0999 V2000
    2.2941   -0.3567    0.0000 S   0  0  0  0  0  0  0  0  0
    1.8816    0.3577    0.0000 C   0  0  0  0  0  0  0  0  0
    1.0566    0.3577    0.0000 C   0  0  0  0  0  0  0  0  0
    0.6441    1.0722    0.0000 C   0  0  0  0  0  0  0  0  0
   -0.1809    1.0722    0.0000 N   0  0  0  0  0  0  0  0  0
   -0.5388    0.3289    0.0000 C   0  0  0  0  0  0  0  0  0
   -1.3431    0.1453    0.0000 C   0  0  0  0  0  0  0  0  0
   -1.9881    0.6597    0.0000 C   0  0  0  0  0  0  0  0  0
   -1.9881    1.4847    0.0000 C   0  0  0  0  0  0  0  0  0
   -1.3431    1.9991    0.0000 C   0  0  0  0  0  0  0  0  0
   -0.5388    1.8155    0.0000 C   0  0  0  0  0  0  0  0  0
   -2.7026    1.8972    0.0000 C   0  0  0  0  0  0  0  0  0
   -3.4171    1.4847    0.0000 C   0  0  0  0  0  0  0  0  0
   -4.2017    1.7396    0.0000 O   0  0  0  0  0  0  0  0  0
   -4.6866    1.0722    0.0000 C   0  0  0  0  0  0  0  0  0
   -4.2017    0.4048    0.0000 N   0  0  0  0  0  0  0  0  0
   -3.4171    0.6597    0.0000 C   0  0  0  0  0  0  0  0  0
   -2.7026    0.2472    0.0000 C   0  0  0  0  0  0  0  0  0
   -5.5116    1.0722    0.0000 C   0  0  0  0  0  0  0  0  0
    3.1191   -0.3567    0.0000 C   0  0  0  0  0  0  0  0  0
    3.6041    0.3107    0.0000 N   0  0  0  0  0  0  0  0  0
    4.3887    0.0558    0.0000 N   0  0  0  0  0  0  0  0  0
    4.3887   -0.7692    0.0000 C   0  0  0  0  0  0  0  0  0
    3.6041   -1.0242    0.0000 N   0  0  0  0  0  0  0  0  0
    3.3491   -1.8088    0.0000 C   0  0  0  0  0  0  0  0  0
    5.0561   -1.2542    0.0000 C   0  0  0  0  0  0  0  0  0
    5.8098   -0.9186    0.0000 C   0  0  0  0  0  0  0  0  0
    6.4772   -1.4035    0.0000 C   0  0  0  0  0  0  0  0  0
    7.2309   -1.0680    0.0000 F   0  0  0  0  0  0  0  0  0
    6.3910   -2.2240    0.0000 C   0  0  0  0  0  0  0  0  0
    7.0584   -2.7089    0.0000 F   0  0  0  0  0  0  0  0  0
    5.6373   -2.5596    0.0000 C   0  0  0  0  0  0  0  0  0
    4.9699   -2.0746    0.0000 C   0  0  0  0  0  0  0  0  0
  1  2  1  0  0  0  0
  1 20  1  0  0  0  0
  2  3  1  0  0  0  0
  3  4  1  0  0  0  0
  4  5  1  0  0  0  0
  5  6  1  0  0  0  0
  5 11  1  0  0  0  0
  6  7  1  0  0  0  0
  7  8  1  0  0  0  0
  8  9  4  0  0  0  0
  8 18  4  0  0  0  0
  9 10  1  0  0  0  0
  9 12  4  0  0  0  0
 10 11  1  0  0  0  0
 12 13  4  0  0  0  0
 13 14  4  0  0  0  0
 13 17  4  0  0  0  0
 14 15  4  0  0  0  0
 15 16  4  0  0  0  0
 15 19  1  0  0  0  0
 16 17  4  0  0  0  0
 17 18  4  0  0  0  0
 20 21  4  0  0  0  0
 20 24  4  0  0  0  0
 21 22  4  0  0  0  0
 22 23  4  0  0  0  0
 23 24  4  0  0  0  0
 23 26  1  0  0  0  0
 24 25  1  0  0  0  0
 26 27  4  0  0  0  0
 26 33  4  0  0  0  0
 27 28  4  0  0  0  0
 28 29  1  0  0  0  0
 28 30  4  0  0  0  0
 30 31  1  0  0  0  0
 30 32  4  0  0  0  0
 32 33  4  0  0  0  0
M  END
>  <Name_Molregno>
435944

>  <DOPAMINE D3>
7.5

$$$$
435945
  Marvin  02231216192D 0   1.00000     0.00000     0

 31 35  0  0  0  0  0  0  0  0999 V2000
    3.0745   -0.4391    0.0000 S   0  0  0  0  0  0  0  0  0
    2.6620    0.2754    0.0000 C   0  0  0  0  0  0  0  0  0
    1.8370    0.2754    0.0000 C   0  0  0  0  0  0  0  0  0
    1.4245    0.9898    0.0000 C   0  0  0  0  0  0  0  0  0
    0.5995    0.9898    0.0000 N   0  0  0  0  0  0  0  0  0
    0.2416    0.2465    0.0000 C   0  0  0  0  0  0  0  0  0
   -0.5628    0.0630    0.0000 C   0  0  0  0  0  0  0  0  0
   -1.2078    0.5773    0.0000 C   0  0  0  0  0  0  0  0  0
   -1.2078    1.4023    0.0000 C   0  0  0  0  0  0  0  0  0
   -0.5628    1.9167    0.0000 C   0  0  0  0  0  0  0  0  0
    0.2416    1.7331    0.0000 C   0  0  0  0  0  0  0  0  0
   -1.9222    1.8148    0.0000 C   0  0  0  0  0  0  0  0  0
   -2.6367    1.4023    0.0000 C   0  0  0  0  0  0  0  0  0
   -3.4213    1.6573    0.0000 O   0  0  0  0  0  0  0  0  0
   -3.9063    0.9898    0.0000 C   0  0  0  0  0  0  0  0  0
   -3.4213    0.3224    0.0000 N   0  0  0  0  0  0  0  0  0
   -2.6367    0.5773    0.0000 C   0  0  0  0  0  0  0  0  0
   -1.9222    0.1648    0.0000 C   0  0  0  0  0  0  0  0  0
   -4.7313    0.9898    0.0000 C   0  0  0  0  0  0  0  0  0
    3.8995   -0.4391    0.0000 C   0  0  0  0  0  0  0  0  0
    4.3844    0.2283    0.0000 N   0  0  0  0  0  0  0  0  0
    5.1691   -0.0266    0.0000 N   0  0  0  0  0  0  0  0  0
    5.1691   -0.8516    0.0000 C   0  0  0  0  0  0  0  0  0
    4.3844   -1.1065    0.0000 N   0  0  0  0  0  0  0  0  0
    4.1295   -1.8912    0.0000 C   0  0  0  0  0  0  0  0  0
    5.8365   -1.3365    0.0000 C   0  0  0  0  0  0  0  0  0
    6.5902   -1.0010    0.0000 C   0  0  0  0  0  0  0  0  0
    7.2576   -1.4859    0.0000 C   0  0  0  0  0  0  0  0  0
    7.1714   -2.3064    0.0000 O   0  0  0  0  0  0  0  0  0
    6.4177   -2.6419    0.0000 C   0  0  0  0  0  0  0  0  0
    5.7503   -2.1570    0.0000 C   0  0  0  0  0  0  0  0  0
  1  2  1  0  0  0  0
  1 20  1  0  0  0  0
  2  3  1  0  0  0  0
  3  4  1  0  0  0  0
  4  5  1  0  0  0  0
  5  6  1  0  0  0  0
  5 11  1  0  0  0  0
  6  7  1  0  0  0  0
  7  8  1  0  0  0  0
  8  9  4  0  0  0  0
  8 18  4  0  0  0  0
  9 10  1  0  0  0  0
  9 12  4  0  0  0  0
 10 11  1  0  0  0  0
 12 13  4  0  0  0  0
 13 14  4  0  0  0  0
 13 17  4  0  0  0  0
 14 15  4  0  0  0  0
 15 16  4  0  0  0  0
 15 19  1  0  0  0  0
 16 17  4  0  0  0  0
 17 18  4  0  0  0  0
 20 21  4  0  0  0  0
 20 24  4  0  0  0  0
 21 22  4  0  0  0  0
 22 23  4  0  0  0  0
 23 24  4  0  0  0  0
 23 26  1  0  0  0  0
 24 25  1  0  0  0  0
 26 27  1  0  0  0  0
 26 31  1  0  0  0  0
 27 28  1  0  0  0  0
 28 29  1  0  0  0  0
 29 30  1  0  0  0  0
 30 31  1  0  0  0  0
M  END
>  <Name_Molregno>
435945

>  <DOPAMINE D3>
7

$$$$
435992
  Marvin  02231216192D 0   1.00000     0.00000     0

 38 43  0  0  0  0  0  0  0  0999 V2000
    2.0740    0.8492    0.0000 S   0  0  0  0  0  0  0  0  0
    1.7385    0.0956    0.0000 C   0  0  0  0  0  0  0  0  0
    2.2234   -0.5719    0.0000 C   0  0  0  0  0  0  0  0  0
    1.8878   -1.3255    0.0000 C   0  0  0  0  0  0  0  0  0
    2.3727   -1.9930    0.0000 C   0  0  0  0  0  0  0  0  0
    2.0372   -2.7467    0.0000 N   0  0  0  0  0  0  0  0  0
    2.5706   -3.3760    0.0000 C   0  0  0  0  0  0  0  0  0
    2.4112   -4.1854    0.0000 C   0  0  0  0  0  0  0  0  0
    1.6789   -4.5655    0.0000 C   0  0  0  0  0  0  0  0  0
    0.9253   -4.2299    0.0000 C   0  0  0  0  0  0  0  0  0
    0.7177   -3.4314    0.0000 C   0  0  0  0  0  0  0  0  0
    1.2126   -2.7713    0.0000 C   0  0  0  0  0  0  0  0  0
    0.2578   -4.7148    0.0000 C   0  0  0  0  0  0  0  0  0
    0.3441   -5.5353    0.0000 C   0  0  0  0  0  0  0  0  0
   -0.2080   -6.1484    0.0000 N   0  0  0  0  0  0  0  0  0
    0.2045   -6.8629    0.0000 C   0  0  0  0  0  0  0  0  0
    1.0115   -6.6914    0.0000 O   0  0  0  0  0  0  0  0  0
    1.0977   -5.8709    0.0000 C   0  0  0  0  0  0  0  0  0
    1.7652   -5.3859    0.0000 C   0  0  0  0  0  0  0  0  0
    2.5188   -5.7215    0.0000 C   0  0  0  0  0  0  0  0  0
   -0.1310   -7.6166    0.0000 C   0  0  0  0  0  0  0  0  0
    1.5891    1.5167    0.0000 C   0  0  0  0  0  0  0  0  0
    0.7641    1.5167    0.0000 N   0  0  0  0  0  0  0  0  0
    0.5091    2.3013    0.0000 N   0  0  0  0  0  0  0  0  0
    1.1766    2.7862    0.0000 C   0  0  0  0  0  0  0  0  0
    1.8440    2.3013    0.0000 N   0  0  0  0  0  0  0  0  0
    2.6286    2.5562    0.0000 C   0  0  0  0  0  0  0  0  0
    1.1766    3.6112    0.0000 C   0  0  0  0  0  0  0  0  0
    1.8911    4.0237    0.0000 C   0  0  0  0  0  0  0  0  0
    1.8911    4.8487    0.0000 C   0  0  0  0  0  0  0  0  0
    2.6055    5.2612    0.0000 N   0  0  0  0  0  0  0  0  0
    3.3200    4.8487    0.0000 C   0  0  0  0  0  0  0  0  0
    3.3200    4.0237    0.0000 C   0  0  0  0  0  0  0  0  0
    2.6055    3.6112    0.0000 C   0  0  0  0  0  0  0  0  0
    4.0345    5.2612    0.0000 C   0  0  0  0  0  0  0  0  0
    1.1766    5.2612    0.0000 C   0  0  0  0  0  0  0  0  0
    0.4621    4.8487    0.0000 C   0  0  0  0  0  0  0  0  0
    0.4621    4.0237    0.0000 C   0  0  0  0  0  0  0  0  0
  1  2  1  0  0  0  0
  1 22  1  0  0  0  0
  2  3  1  0  0  0  0
  3  4  1  0  0  0  0
  4  5  1  0  0  0  0
  5  6  1  0  0  0  0
  6  7  1  0  0  0  0
  6 12  1  0  0  0  0
  7  8  1  0  0  0  0
  8  9  1  0  0  0  0
  9 10  4  0  0  0  0
  9 19  4  0  0  0  0
 10 11  1  0  0  0  0
 10 13  4  0  0  0  0
 11 12  1  0  0  0  0
 13 14  4  0  0  0  0
 14 15  4  0  0  0  0
 14 18  4  0  0  0  0
 15 16  4  0  0  0  0
 16 17  4  0  0  0  0
 16 21  1  0  0  0  0
 17 18  4  0  0  0  0
 18 19  4  0  0  0  0
 19 20  1  0  0  0  0
 22 23  4  0  0  0  0
 22 26  4  0  0  0  0
 23 24  4  0  0  0  0
 24 25  4  0  0  0  0
 25 26  4  0  0  0  0
 25 28  1  0  0  0  0
 26 27  1  0  0  0  0
 28 29  4  0  0  0  0
 28 38  4  0  0  0  0
 29 30  4  0  0  0  0
 29 34  4  0  0  0  0
 30 31  4  0  0  0  0
 30 36  4  0  0  0  0
 31 32  4  0  0  0  0
 32 33  4  0  0  0  0
 32 35  1  0  0  0  0
 33 34  4  0  0  0  0
 36 37  4  0  0  0  0
 37 38  4  0  0  0  0
M  END
>  <Name_Molregno>
435992

>  <DOPAMINE D3>
8.2

$$$$
435993
  Marvin  02231216192D 0   1.00000     0.00000     0

 39 44  0  0  0  0  0  0  0  0999 V2000
    3.0262   -4.8456    0.0000 Br  0  0  0  0  0  0  0  0  0
    3.7798   -5.1812    0.0000 C   0  0  0  0  0  0  0  0  0
    4.4473   -4.6963    0.0000 C   0  0  0  0  0  0  0  0  0
    4.2397   -3.8978    0.0000 C   0  0  0  0  0  0  0  0  0
    4.7346   -3.2377    0.0000 C   0  0  0  0  0  0  0  0  0
    5.5592   -3.2130    0.0000 N   0  0  0  0  0  0  0  0  0
    6.0926   -3.8424    0.0000 C   0  0  0  0  0  0  0  0  0
    5.9332   -4.6518    0.0000 C   0  0  0  0  0  0  0  0  0
    5.2009   -5.0318    0.0000 C   0  0  0  0  0  0  0  0  0
    5.2872   -5.8523    0.0000 C   0  0  0  0  0  0  0  0  0
    4.6197   -6.3372    0.0000 C   0  0  0  0  0  0  0  0  0
    4.5335   -7.1577    0.0000 N   0  0  0  0  0  0  0  0  0
    3.7265   -7.3292    0.0000 C   0  0  0  0  0  0  0  0  0
    3.3140   -6.6148    0.0000 O   0  0  0  0  0  0  0  0  0
    3.8661   -6.0017    0.0000 C   0  0  0  0  0  0  0  0  0
    3.3910   -8.0829    0.0000 C   0  0  0  0  0  0  0  0  0
    2.5705   -8.1691    0.0000 C   0  0  0  0  0  0  0  0  0
    5.8948   -2.4593    0.0000 C   0  0  0  0  0  0  0  0  0
    5.4098   -1.7919    0.0000 C   0  0  0  0  0  0  0  0  0
    5.7454   -1.0382    0.0000 C   0  0  0  0  0  0  0  0  0
    5.2605   -0.3708    0.0000 C   0  0  0  0  0  0  0  0  0
    5.5960    0.3829    0.0000 S   0  0  0  0  0  0  0  0  0
    5.1111    1.0503    0.0000 C   0  0  0  0  0  0  0  0  0
    4.2861    1.0503    0.0000 N   0  0  0  0  0  0  0  0  0
    4.0312    1.8349    0.0000 N   0  0  0  0  0  0  0  0  0
    4.6986    2.3199    0.0000 C   0  0  0  0  0  0  0  0  0
    5.3660    1.8349    0.0000 N   0  0  0  0  0  0  0  0  0
    6.1507    2.0899    0.0000 C   0  0  0  0  0  0  0  0  0
    4.6986    3.1449    0.0000 C   0  0  0  0  0  0  0  0  0
    5.4131    3.5574    0.0000 C   0  0  0  0  0  0  0  0  0
    5.4131    4.3824    0.0000 C   0  0  0  0  0  0  0  0  0
    6.1275    4.7949    0.0000 N   0  0  0  0  0  0  0  0  0
    6.8420    4.3824    0.0000 C   0  0  0  0  0  0  0  0  0
    6.8420    3.5574    0.0000 C   0  0  0  0  0  0  0  0  0
    6.1275    3.1449    0.0000 C   0  0  0  0  0  0  0  0  0
    7.5565    4.7949    0.0000 C   0  0  0  0  0  0  0  0  0
    4.6986    4.7949    0.0000 C   0  0  0  0  0  0  0  0  0
    3.9841    4.3824    0.0000 C   0  0  0  0  0  0  0  0  0
    3.9841    3.5574    0.0000 C   0  0  0  0  0  0  0  0  0
  1  2  1  0  0  0  0
  2  3  4  0  0  0  0
  2 15  4  0  0  0  0
  3  4  1  0  0  0  0
  3  9  4  0  0  0  0
  4  5  1  0  0  0  0
  5  6  1  0  0  0  0
  6  7  1  0  0  0  0
  6 18  1  0  0  0  0
  7  8  1  0  0  0  0
  8  9  1  0  0  0  0
  9 10  4  0  0  0  0
 10 11  4  0  0  0  0
 11 12  4  0  0  0  0
 11 15  4  0  0  0  0
 12 13  4  0  0  0  0
 13 14  4  0  0  0  0
 13 16  1  0  0  0  0
 14 15  4  0  0  0  0
 16 17  1  0  0  0  0
 18 19  1  0  0  0  0
 19 20  1  0  0  0  0
 20 21  1  0  0  0  0
 21 22  1  0  0  0  0
 22 23  1  0  0  0  0
 23 24  4  0  0  0  0
 23 27  4  0  0  0  0
 24 25  4  0  0  0  0
 25 26  4  0  0  0  0
 26 27  4  0  0  0  0
 26 29  1  0  0  0  0
 27 28  1  0  0  0  0
 29 30  4  0  0  0  0
 29 39  4  0  0  0  0
 30 31  4  0  0  0  0
 30 35  4  0  0  0  0
 31 32  4  0  0  0  0
 31 37  4  0  0  0  0
 32 33  4  0  0  0  0
 33 34  4  0  0  0  0
 33 36  1  0  0  0  0
 34 35  4  0  0  0  0
 37 38  4  0  0  0  0
 38 39  4  0  0  0  0
M  END
>  <Name_Molregno>
435993

>  <DOPAMINE D3>
7.4

$$$$
435994
  Marvin  02231216192D 0   1.00000     0.00000     0

 41 46  0  0  0  0  0  0  0  0999 V2000
    2.7485   -4.5650    0.0000 Br  0  0  0  0  0  0  0  0  0
    3.5022   -4.9006    0.0000 C   0  0  0  0  0  0  0  0  0
    4.1696   -4.4156    0.0000 C   0  0  0  0  0  0  0  0  0
    3.9620   -3.6172    0.0000 C   0  0  0  0  0  0  0  0  0
    4.4569   -2.9571    0.0000 C   0  0  0  0  0  0  0  0  0
    5.2815   -2.9324    0.0000 N   0  0  0  0  0  0  0  0  0
    5.8150   -3.5617    0.0000 C   0  0  0  0  0  0  0  0  0
    5.6555   -4.3712    0.0000 C   0  0  0  0  0  0  0  0  0
    4.9233   -4.7512    0.0000 C   0  0  0  0  0  0  0  0  0
    5.0095   -5.5717    0.0000 C   0  0  0  0  0  0  0  0  0
    4.3421   -6.0566    0.0000 C   0  0  0  0  0  0  0  0  0
    4.2558   -6.8771    0.0000 N   0  0  0  0  0  0  0  0  0
    3.4489   -7.0486    0.0000 C   0  0  0  0  0  0  0  0  0
    3.0364   -6.3341    0.0000 O   0  0  0  0  0  0  0  0  0
    3.5884   -5.7210    0.0000 C   0  0  0  0  0  0  0  0  0
    3.1133   -7.8023    0.0000 C   0  0  0  0  0  0  0  0  0
    2.7778   -8.5560    0.0000 F   0  0  0  0  0  0  0  0  0
    3.8670   -8.1378    0.0000 F   0  0  0  0  0  0  0  0  0
    2.3596   -7.4667    0.0000 F   0  0  0  0  0  0  0  0  0
    5.6171   -2.1787    0.0000 C   0  0  0  0  0  0  0  0  0
    5.1322   -1.5113    0.0000 C   0  0  0  0  0  0  0  0  0
    5.4677   -0.7576    0.0000 C   0  0  0  0  0  0  0  0  0
    4.9828   -0.0902    0.0000 C   0  0  0  0  0  0  0  0  0
    5.3184    0.6635    0.0000 S   0  0  0  0  0  0  0  0  0
    4.8334    1.3310    0.0000 C   0  0  0  0  0  0  0  0  0
    4.0084    1.3310    0.0000 N   0  0  0  0  0  0  0  0  0
    3.7535    2.1156    0.0000 N   0  0  0  0  0  0  0  0  0
    4.4209    2.6005    0.0000 C   0  0  0  0  0  0  0  0  0
    5.0884    2.1156    0.0000 N   0  0  0  0  0  0  0  0  0
    5.8730    2.3705    0.0000 C   0  0  0  0  0  0  0  0  0
    4.4209    3.4255    0.0000 C   0  0  0  0  0  0  0  0  0
    5.1354    3.8380    0.0000 C   0  0  0  0  0  0  0  0  0
    5.1354    4.6630    0.0000 C   0  0  0  0  0  0  0  0  0
    5.8499    5.0755    0.0000 N   0  0  0  0  0  0  0  0  0
    6.5643    4.6630    0.0000 C   0  0  0  0  0  0  0  0  0
    6.5643    3.8380    0.0000 C   0  0  0  0  0  0  0  0  0
    5.8499    3.4255    0.0000 C   0  0  0  0  0  0  0  0  0
    7.2788    5.0755    0.0000 C   0  0  0  0  0  0  0  0  0
    4.4209    5.0755    0.0000 C   0  0  0  0  0  0  0  0  0
    3.7065    4.6630    0.0000 C   0  0  0  0  0  0  0  0  0
    3.7065    3.8380    0.0000 C   0  0  0  0  0  0  0  0  0
  1  2  1  0  0  0  0
  2  3  4  0  0  0  0
  2 15  4  0  0  0  0
  3  4  1  0  0  0  0
  3  9  4  0  0  0  0
  4  5  1  0  0  0  0
  5  6  1  0  0  0  0
  6  7  1  0  0  0  0
  6 20  1  0  0  0  0
  7  8  1  0  0  0  0
  8  9  1  0  0  0  0
  9 10  4  0  0  0  0
 10 11  4  0  0  0  0
 11 12  4  0  0  0  0
 11 15  4  0  0  0  0
 12 13  4  0  0  0  0
 13 14  4  0  0  0  0
 13 16  1  0  0  0  0
 14 15  4  0  0  0  0
 16 17  1  0  0  0  0
 16 18  1  0  0  0  0
 16 19  1  0  0  0  0
 20 21  1  0  0  0  0
 21 22  1  0  0  0  0
 22 23  1  0  0  0  0
 23 24  1  0  0  0  0
 24 25  1  0  0  0  0
 25 26  4  0  0  0  0
 25 29  4  0  0  0  0
 26 27  4  0  0  0  0
 27 28  4  0  0  0  0
 28 29  4  0  0  0  0
 28 31  1  0  0  0  0
 29 30  1  0  0  0  0
 31 32  4  0  0  0  0
 31 41  4  0  0  0  0
 32 33  4  0  0  0  0
 32 37  4  0  0  0  0
 33 34  4  0  0  0  0
 33 39  4  0  0  0  0
 34 35  4  0  0  0  0
 35 36  4  0  0  0  0
 35 38  1  0  0  0  0
 36 37  4  0  0  0  0
 39 40  4  0  0  0  0
 40 41  4  0  0  0  0
M  END
>  <Name_Molregno>
435994

>  <DOPAMINE D3>
7.7

$$$$
435995
  Marvin  02231216192D 0   1.00000     0.00000     0

 35 39  0  0  0  0  0  0  0  0999 V2000
    1.5533   -0.2410    0.0000 S   0  0  0  0  0  0  0  0  0
    1.1408    0.4735    0.0000 C   0  0  0  0  0  0  0  0  0
    0.3158    0.4735    0.0000 C   0  0  0  0  0  0  0  0  0
   -0.0967    1.1880    0.0000 C   0  0  0  0  0  0  0  0  0
   -0.9217    1.1880    0.0000 N   0  0  0  0  0  0  0  0  0
   -1.2797    0.4447    0.0000 C   0  0  0  0  0  0  0  0  0
   -2.0840    0.2611    0.0000 C   0  0  0  0  0  0  0  0  0
   -2.7290    0.7755    0.0000 C   0  0  0  0  0  0  0  0  0
   -2.7290    1.6005    0.0000 C   0  0  0  0  0  0  0  0  0
   -2.0840    2.1148    0.0000 C   0  0  0  0  0  0  0  0  0
   -1.2797    1.9313    0.0000 C   0  0  0  0  0  0  0  0  0
   -3.4435    2.0130    0.0000 C   0  0  0  0  0  0  0  0  0
   -4.1579    1.6005    0.0000 C   0  0  0  0  0  0  0  0  0
   -4.9426    1.8554    0.0000 O   0  0  0  0  0  0  0  0  0
   -5.4275    1.1880    0.0000 C   0  0  0  0  0  0  0  0  0
   -4.9426    0.5205    0.0000 N   0  0  0  0  0  0  0  0  0
   -4.1579    0.7755    0.0000 C   0  0  0  0  0  0  0  0  0
   -3.4435    0.3630    0.0000 C   0  0  0  0  0  0  0  0  0
   -6.2525    1.1880    0.0000 C   0  0  0  0  0  0  0  0  0
    2.3783   -0.2410    0.0000 C   0  0  0  0  0  0  0  0  0
    2.8632    0.4265    0.0000 N   0  0  0  0  0  0  0  0  0
    3.6478    0.1715    0.0000 N   0  0  0  0  0  0  0  0  0
    3.6478   -0.6535    0.0000 C   0  0  0  0  0  0  0  0  0
    2.8632   -0.9084    0.0000 N   0  0  0  0  0  0  0  0  0
    2.6083   -1.6930    0.0000 C   0  0  0  0  0  0  0  0  0
    4.3153   -1.1384    0.0000 C   0  0  0  0  0  0  0  0  0
    5.0689   -0.8028    0.0000 C   0  0  0  0  0  0  0  0  0
    5.7364   -1.2878    0.0000 C   0  0  0  0  0  0  0  0  0
    5.6501   -2.1082    0.0000 C   0  0  0  0  0  0  0  0  0
    4.8965   -2.4438    0.0000 C   0  0  0  0  0  0  0  0  0
    4.2290   -1.9589    0.0000 C   0  0  0  0  0  0  0  0  0
    6.3176   -2.5932    0.0000 C   0  0  0  0  0  0  0  0  0
    6.9850   -3.0781    0.0000 F   0  0  0  0  0  0  0  0  0
    5.8327   -3.2606    0.0000 F   0  0  0  0  0  0  0  0  0
    6.8025   -1.9257    0.0000 F   0  0  0  0  0  0  0  0  0
  1  2  1  0  0  0  0
  1 20  1  0  0  0  0
  2  3  1  0  0  0  0
  3  4  1  0  0  0  0
  4  5  1  0  0  0  0
  5  6  1  0  0  0  0
  5 11  1  0  0  0  0
  6  7  1  0  0  0  0
  7  8  1  0  0  0  0
  8  9  4  0  0  0  0
  8 18  4  0  0  0  0
  9 10  1  0  0  0  0
  9 12  4  0  0  0  0
 10 11  1  0  0  0  0
 12 13  4  0  0  0  0
 13 14  4  0  0  0  0
 13 17  4  0  0  0  0
 14 15  4  0  0  0  0
 15 16  4  0  0  0  0
 15 19  1  0  0  0  0
 16 17  4  0  0  0  0
 17 18  4  0  0  0  0
 20 21  4  0  0  0  0
 20 24  4  0  0  0  0
 21 22  4  0  0  0  0
 22 23  4  0  0  0  0
 23 24  4  0  0  0  0
 23 26  1  0  0  0  0
 24 25  1  0  0  0  0
 26 27  4  0  0  0  0
 26 31  4  0  0  0  0
 27 28  4  0  0  0  0
 28 29  4  0  0  0  0
 29 30  4  0  0  0  0
 29 32  1  0  0  0  0
 30 31  4  0  0  0  0
 32 33  1  0  0  0  0
 32 34  1  0  0  0  0
 32 35  1  0  0  0  0
M  END
>  <Name_Molregno>
435995

>  <DOPAMINE D3>
7.6

$$$$
435996
  Marvin  02231216192D 0   1.00000     0.00000     0

 39 44  0  0  0  0  0  0  0  0999 V2000
    0.4385    1.0458    0.0000 S   0  0  0  0  0  0  0  0  0
    0.1029    0.2922    0.0000 C   0  0  0  0  0  0  0  0  0
    0.5878   -0.3753    0.0000 C   0  0  0  0  0  0  0  0  0
    0.2523   -1.1290    0.0000 C   0  0  0  0  0  0  0  0  0
    0.7372   -1.7964    0.0000 N   0  0  0  0  0  0  0  0  0
    1.5489   -1.6491    0.0000 C   0  0  0  0  0  0  0  0  0
    2.1702   -2.1919    0.0000 C   0  0  0  0  0  0  0  0  0
    2.1332   -3.0161    0.0000 C   0  0  0  0  0  0  0  0  0
    1.4658   -3.5010    0.0000 C   0  0  0  0  0  0  0  0  0
    0.6705   -3.2815    0.0000 C   0  0  0  0  0  0  0  0  0
    0.3462   -2.5229    0.0000 C   0  0  0  0  0  0  0  0  0
    1.5520   -4.3215    0.0000 C   0  0  0  0  0  0  0  0  0
    2.3057   -4.6570    0.0000 C   0  0  0  0  0  0  0  0  0
    2.5606   -5.4416    0.0000 O   0  0  0  0  0  0  0  0  0
    3.3856   -5.4416    0.0000 C   0  0  0  0  0  0  0  0  0
    3.6406   -4.6570    0.0000 N   0  0  0  0  0  0  0  0  0
    2.9731   -4.1721    0.0000 C   0  0  0  0  0  0  0  0  0
    2.8869   -3.3516    0.0000 C   0  0  0  0  0  0  0  0  0
    3.8705   -6.1091    0.0000 C   0  0  0  0  0  0  0  0  0
    4.3555   -6.7765    0.0000 C   0  0  0  0  0  0  0  0  0
    4.5380   -5.6242    0.0000 C   0  0  0  0  0  0  0  0  0
    3.2031   -6.5940    0.0000 C   0  0  0  0  0  0  0  0  0
   -0.0465    1.7133    0.0000 C   0  0  0  0  0  0  0  0  0
   -0.8715    1.7133    0.0000 N   0  0  0  0  0  0  0  0  0
   -1.1264    2.4979    0.0000 N   0  0  0  0  0  0  0  0  0
   -0.4590    2.9828    0.0000 C   0  0  0  0  0  0  0  0  0
    0.2085    2.4979    0.0000 N   0  0  0  0  0  0  0  0  0
    0.9931    2.7528    0.0000 C   0  0  0  0  0  0  0  0  0
   -0.4590    3.8078    0.0000 C   0  0  0  0  0  0  0  0  0
    0.2555    4.2203    0.0000 C   0  0  0  0  0  0  0  0  0
    0.2555    5.0453    0.0000 C   0  0  0  0  0  0  0  0  0
    0.9700    5.4578    0.0000 N   0  0  0  0  0  0  0  0  0
    1.6845    5.0453    0.0000 C   0  0  0  0  0  0  0  0  0
    1.6845    4.2203    0.0000 C   0  0  0  0  0  0  0  0  0
    0.9700    3.8078    0.0000 C   0  0  0  0  0  0  0  0  0
    2.3989    5.4578    0.0000 C   0  0  0  0  0  0  0  0  0
   -0.4590    5.4578    0.0000 C   0  0  0  0  0  0  0  0  0
   -1.1734    5.0453    0.0000 C   0  0  0  0  0  0  0  0  0
   -1.1734    4.2203    0.0000 C   0  0  0  0  0  0  0  0  0
  1  2  1  0  0  0  0
  1 23  1  0  0  0  0
  2  3  1  0  0  0  0
  3  4  1  0  0  0  0
  4  5  1  0  0  0  0
  5  6  1  0  0  0  0
  5 11  1  0  0  0  0
  6  7  1  0  0  0  0
  7  8  1  0  0  0  0
  8  9  4  0  0  0  0
  8 18  4  0  0  0  0
  9 10  1  0  0  0  0
  9 12  4  0  0  0  0
 10 11  1  0  0  0  0
 12 13  4  0  0  0  0
 13 14  4  0  0  0  0
 13 17  4  0  0  0  0
 14 15  4  0  0  0  0
 15 16  4  0  0  0  0
 15 19  1  0  0  0  0
 16 17  4  0  0  0  0
 17 18  4  0  0  0  0
 19 20  1  0  0  0  0
 19 21  1  0  0  0  0
 19 22  1  0  0  0  0
 23 24  4  0  0  0  0
 23 27  4  0  0  0  0
 24 25  4  0  0  0  0
 25 26  4  0  0  0  0
 26 27  4  0  0  0  0
 26 29  1  0  0  0  0
 27 28  1  0  0  0  0
 29 30  4  0  0  0  0
 29 39  4  0  0  0  0
 30 31  4  0  0  0  0
 30 35  4  0  0  0  0
 31 32  4  0  0  0  0
 31 37  4  0  0  0  0
 32 33  4  0  0  0  0
 33 34  4  0  0  0  0
 33 36  1  0  0  0  0
 34 35  4  0  0  0  0
 37 38  4  0  0  0  0
 38 39  4  0  0  0  0
M  END
>  <Name_Molregno>
435996

>  <DOPAMINE D3>
9.1

$$$$
435997
  Marvin  02231216192D 0   1.00000     0.00000     0

 31 35  0  0  0  0  0  0  0  0999 V2000
    3.0745   -0.4391    0.0000 S   0  0  0  0  0  0  0  0  0
    2.6620    0.2754    0.0000 C   0  0  0  0  0  0  0  0  0
    1.8370    0.2754    0.0000 C   0  0  0  0  0  0  0  0  0
    1.4245    0.9898    0.0000 C   0  0  0  0  0  0  0  0  0
    0.5995    0.9898    0.0000 N   0  0  0  0  0  0  0  0  0
    0.2416    0.2465    0.0000 C   0  0  0  0  0  0  0  0  0
   -0.5628    0.0630    0.0000 C   0  0  0  0  0  0  0  0  0
   -1.2078    0.5773    0.0000 C   0  0  0  0  0  0  0  0  0
   -1.2078    1.4023    0.0000 C   0  0  0  0  0  0  0  0  0
   -0.5628    1.9167    0.0000 C   0  0  0  0  0  0  0  0  0
    0.2416    1.7331    0.0000 C   0  0  0  0  0  0  0  0  0
   -1.9222    1.8148    0.0000 C   0  0  0  0  0  0  0  0  0
   -2.6367    1.4023    0.0000 C   0  0  0  0  0  0  0  0  0
   -3.4213    1.6573    0.0000 O   0  0  0  0  0  0  0  0  0
   -3.9063    0.9898    0.0000 C   0  0  0  0  0  0  0  0  0
   -3.4213    0.3224    0.0000 N   0  0  0  0  0  0  0  0  0
   -2.6367    0.5773    0.0000 C   0  0  0  0  0  0  0  0  0
   -1.9222    0.1648    0.0000 C   0  0  0  0  0  0  0  0  0
   -4.7313    0.9898    0.0000 C   0  0  0  0  0  0  0  0  0
    3.8995   -0.4391    0.0000 C   0  0  0  0  0  0  0  0  0
    4.3844    0.2283    0.0000 N   0  0  0  0  0  0  0  0  0
    5.1691   -0.0266    0.0000 N   0  0  0  0  0  0  0  0  0
    5.1691   -0.8516    0.0000 C   0  0  0  0  0  0  0  0  0
    4.3844   -1.1065    0.0000 N   0  0  0  0  0  0  0  0  0
    4.1295   -1.8912    0.0000 C   0  0  0  0  0  0  0  0  0
    5.8365   -1.3365    0.0000 C   0  0  0  0  0  0  0  0  0
    6.5902   -1.0010    0.0000 C   0  0  0  0  0  0  0  0  0
    7.2576   -1.4859    0.0000 C   0  0  0  0  0  0  0  0  0
    7.1714   -2.3064    0.0000 C   0  0  0  0  0  0  0  0  0
    6.4177   -2.6419    0.0000 N   0  0  0  0  0  0  0  0  0
    5.7503   -2.1570    0.0000 C   0  0  0  0  0  0  0  0  0
  1  2  1  0  0  0  0
  1 20  1  0  0  0  0
  2  3  1  0  0  0  0
  3  4  1  0  0  0  0
  4  5  1  0  0  0  0
  5  6  1  0  0  0  0
  5 11  1  0  0  0  0
  6  7  1  0  0  0  0
  7  8  1  0  0  0  0
  8  9  4  0  0  0  0
  8 18  4  0  0  0  0
  9 10  1  0  0  0  0
  9 12  4  0  0  0  0
 10 11  1  0  0  0  0
 12 13  4  0  0  0  0
 13 14  4  0  0  0  0
 13 17  4  0  0  0  0
 14 15  4  0  0  0  0
 15 16  4  0  0  0  0
 15 19  1  0  0  0  0
 16 17  4  0  0  0  0
 17 18  4  0  0  0  0
 20 21  4  0  0  0  0
 20 24  4  0  0  0  0
 21 22  4  0  0  0  0
 22 23  4  0  0  0  0
 23 24  4  0  0  0  0
 23 26  1  0  0  0  0
 24 25  1  0  0  0  0
 26 27  4  0  0  0  0
 26 31  4  0  0  0  0
 27 28  4  0  0  0  0
 28 29  4  0  0  0  0
 29 30  4  0  0  0  0
 30 31  4  0  0  0  0
M  END
>  <Name_Molregno>
435997

>  <DOPAMINE D3>
6.9

$$$$
436016
  Marvin  02231216192D 0   1.00000     0.00000     0

 36 41  0  0  0  0  0  0  0  0999 V2000
    0.0844    0.3709    0.0000 S   0  0  0  0  0  0  0  0  0
   -0.2512   -0.3827    0.0000 C   0  0  0  0  0  0  0  0  0
    0.2337   -1.0502    0.0000 C   0  0  0  0  0  0  0  0  0
   -0.1018   -1.8039    0.0000 C   0  0  0  0  0  0  0  0  0
    0.3831   -2.4713    0.0000 N   0  0  0  0  0  0  0  0  0
    1.1948   -2.3240    0.0000 C   0  0  0  0  0  0  0  0  0
    1.8161   -2.8668    0.0000 C   0  0  0  0  0  0  0  0  0
    1.7791   -3.6910    0.0000 C   0  0  0  0  0  0  0  0  0
    1.1117   -4.1759    0.0000 C   0  0  0  0  0  0  0  0  0
    0.3164   -3.9564    0.0000 C   0  0  0  0  0  0  0  0  0
   -0.0079   -3.1978    0.0000 C   0  0  0  0  0  0  0  0  0
    1.1979   -4.9964    0.0000 C   0  0  0  0  0  0  0  0  0
    1.9516   -5.3319    0.0000 C   0  0  0  0  0  0  0  0  0
    2.6190   -4.8470    0.0000 C   0  0  0  0  0  0  0  0  0
    3.4260   -5.0185    0.0000 O   0  0  0  0  0  0  0  0  0
    3.8385   -4.3040    0.0000 C   0  0  0  0  0  0  0  0  0
    3.2864   -3.6910    0.0000 N   0  0  0  0  0  0  0  0  0
    2.5328   -4.0265    0.0000 C   0  0  0  0  0  0  0  0  0
    4.6590   -4.2178    0.0000 C   0  0  0  0  0  0  0  0  0
   -0.4006    1.0384    0.0000 C   0  0  0  0  0  0  0  0  0
   -1.2256    1.0384    0.0000 N   0  0  0  0  0  0  0  0  0
   -1.4805    1.8230    0.0000 N   0  0  0  0  0  0  0  0  0
   -0.8131    2.3079    0.0000 C   0  0  0  0  0  0  0  0  0
   -0.1456    1.8230    0.0000 N   0  0  0  0  0  0  0  0  0
    0.6390    2.0779    0.0000 C   0  0  0  0  0  0  0  0  0
   -0.8131    3.1329    0.0000 C   0  0  0  0  0  0  0  0  0
   -0.0986    3.5454    0.0000 C   0  0  0  0  0  0  0  0  0
   -0.0986    4.3704    0.0000 C   0  0  0  0  0  0  0  0  0
    0.6159    4.7829    0.0000 N   0  0  0  0  0  0  0  0  0
    1.3303    4.3704    0.0000 C   0  0  0  0  0  0  0  0  0
    1.3303    3.5454    0.0000 C   0  0  0  0  0  0  0  0  0
    0.6159    3.1329    0.0000 C   0  0  0  0  0  0  0  0  0
    2.0448    4.7829    0.0000 C   0  0  0  0  0  0  0  0  0
   -0.8131    4.7829    0.0000 C   0  0  0  0  0  0  0  0  0
   -1.5275    4.3704    0.0000 C   0  0  0  0  0  0  0  0  0
   -1.5275    3.5454    0.0000 C   0  0  0  0  0  0  0  0  0
  1  2  1  0  0  0  0
  1 20  1  0  0  0  0
  2  3  1  0  0  0  0
  3  4  1  0  0  0  0
  4  5  1  0  0  0  0
  5  6  1  0  0  0  0
  5 11  1  0  0  0  0
  6  7  1  0  0  0  0
  7  8  1  0  0  0  0
  8  9  4  0  0  0  0
  8 18  4  0  0  0  0
  9 10  1  0  0  0  0
  9 12  4  0  0  0  0
 10 11  1  0  0  0  0
 12 13  4  0  0  0  0
 13 14  4  0  0  0  0
 14 15  4  0  0  0  0
 14 18  4  0  0  0  0
 15 16  4  0  0  0  0
 16 17  4  0  0  0  0
 16 19  1  0  0  0  0
 17 18  4  0  0  0  0
 20 21  4  0  0  0  0
 20 24  4  0  0  0  0
 21 22  4  0  0  0  0
 22 23  4  0  0  0  0
 23 24  4  0  0  0  0
 23 26  1  0  0  0  0
 24 25  1  0  0  0  0
 26 27  4  0  0  0  0
 26 36  4  0  0  0  0
 27 28  4  0  0  0  0
 27 32  4  0  0  0  0
 28 29  4  0  0  0  0
 28 34  4  0  0  0  0
 29 30  4  0  0  0  0
 30 31  4  0  0  0  0
 30 33  1  0  0  0  0
 31 32  4  0  0  0  0
 34 35  4  0  0  0  0
 35 36  4  0  0  0  0
M  END
>  <Name_Molregno>
436016

>  <DOPAMINE D2>
6.2

>  <DOPAMINE D3>
7.2

$$$$
436037
  Marvin  02231216192D 0   1.00000     0.00000     0

 40 45  0  0  0  0  0  0  0  0999 V2000
    2.6000    1.3048    0.0000 S   0  0  0  0  0  0  0  0  0
    2.2644    0.5511    0.0000 C   0  0  0  0  0  0  0  0  0
    2.7494   -0.1163    0.0000 C   0  0  0  0  0  0  0  0  0
    2.4138   -0.8700    0.0000 C   0  0  0  0  0  0  0  0  0
    2.8987   -1.5374    0.0000 C   0  0  0  0  0  0  0  0  0
    2.5632   -2.2911    0.0000 N   0  0  0  0  0  0  0  0  0
    3.0966   -2.9204    0.0000 C   0  0  0  0  0  0  0  0  0
    2.9372   -3.7299    0.0000 C   0  0  0  0  0  0  0  0  0
    2.2049   -4.1099    0.0000 C   0  0  0  0  0  0  0  0  0
    1.4512   -3.7744    0.0000 C   0  0  0  0  0  0  0  0  0
    1.2437   -2.9759    0.0000 C   0  0  0  0  0  0  0  0  0
    1.7385   -2.3158    0.0000 C   0  0  0  0  0  0  0  0  0
    0.7838   -4.2593    0.0000 C   0  0  0  0  0  0  0  0  0
    0.8700   -5.0798    0.0000 C   0  0  0  0  0  0  0  0  0
    1.6237   -5.4153    0.0000 C   0  0  0  0  0  0  0  0  0
    2.2911   -4.9304    0.0000 C   0  0  0  0  0  0  0  0  0
    1.5375   -6.2358    0.0000 C   0  0  0  0  0  0  0  0  0
    2.1506   -6.7878    0.0000 O   0  0  0  0  0  0  0  0  0
    0.7305   -6.4073    0.0000 N   0  0  0  0  0  0  0  0  0
    0.3180   -5.6929    0.0000 C   0  0  0  0  0  0  0  0  0
    0.3949   -7.1610    0.0000 C   0  0  0  0  0  0  0  0  0
   -0.4255   -7.2472    0.0000 C   0  0  0  0  0  0  0  0  0
    0.8799   -7.8285    0.0000 C   0  0  0  0  0  0  0  0  0
    2.1151    1.9722    0.0000 C   0  0  0  0  0  0  0  0  0
    1.2901    1.9722    0.0000 N   0  0  0  0  0  0  0  0  0
    1.0351    2.7568    0.0000 N   0  0  0  0  0  0  0  0  0
    1.7026    3.2418    0.0000 C   0  0  0  0  0  0  0  0  0
    2.3700    2.7568    0.0000 N   0  0  0  0  0  0  0  0  0
    3.1546    3.0118    0.0000 C   0  0  0  0  0  0  0  0  0
    1.7026    4.0668    0.0000 C   0  0  0  0  0  0  0  0  0
    2.4170    4.4793    0.0000 C   0  0  0  0  0  0  0  0  0
    2.4170    5.3043    0.0000 C   0  0  0  0  0  0  0  0  0
    3.1315    5.7168    0.0000 N   0  0  0  0  0  0  0  0  0
    3.8460    5.3043    0.0000 C   0  0  0  0  0  0  0  0  0
    3.8460    4.4793    0.0000 C   0  0  0  0  0  0  0  0  0
    3.1315    4.0668    0.0000 C   0  0  0  0  0  0  0  0  0
    4.5604    5.7168    0.0000 C   0  0  0  0  0  0  0  0  0
    1.7026    5.7168    0.0000 C   0  0  0  0  0  0  0  0  0
    0.9881    5.3043    0.0000 C   0  0  0  0  0  0  0  0  0
    0.9881    4.4793    0.0000 C   0  0  0  0  0  0  0  0  0
  1  2  1  0  0  0  0
  1 24  1  0  0  0  0
  2  3  1  0  0  0  0
  3  4  1  0  0  0  0
  4  5  1  0  0  0  0
  5  6  1  0  0  0  0
  6  7  1  0  0  0  0
  6 12  1  0  0  0  0
  7  8  1  0  0  0  0
  8  9  1  0  0  0  0
  9 10  4  0  0  0  0
  9 16  4  0  0  0  0
 10 11  1  0  0  0  0
 10 13  4  0  0  0  0
 11 12  1  0  0  0  0
 13 14  4  0  0  0  0
 14 15  4  0  0  0  0
 14 20  1  0  0  0  0
 15 16  4  0  0  0  0
 15 17  1  0  0  0  0
 17 18  2  0  0  0  0
 17 19  1  0  0  0  0
 19 20  1  0  0  0  0
 19 21  1  0  0  0  0
 21 22  1  0  0  0  0
 21 23  1  0  0  0  0
 24 25  4  0  0  0  0
 24 28  4  0  0  0  0
 25 26  4  0  0  0  0
 26 27  4  0  0  0  0
 27 28  4  0  0  0  0
 27 30  1  0  0  0  0
 28 29  1  0  0  0  0
 30 31  4  0  0  0  0
 30 40  4  0  0  0  0
 31 32  4  0  0  0  0
 31 36  4  0  0  0  0
 32 33  4  0  0  0  0
 32 38  4  0  0  0  0
 33 34  4  0  0  0  0
 34 35  4  0  0  0  0
 34 37  1  0  0  0  0
 35 36  4  0  0  0  0
 38 39  4  0  0  0  0
 39 40  4  0  0  0  0
M  END
>  <Name_Molregno>
436037

>  <DOPAMINE D3>
7.4

$$$$
436039
  Marvin  02231216192D 0   1.00000     0.00000     0

 38 43  0  0  0  0  0  0  0  0999 V2000
    2.0932    0.7511    0.0000 S   0  0  0  0  0  0  0  0  0
    1.7577   -0.0026    0.0000 C   0  0  0  0  0  0  0  0  0
    2.2426   -0.6700    0.0000 C   0  0  0  0  0  0  0  0  0
    1.9070   -1.4237    0.0000 C   0  0  0  0  0  0  0  0  0
    2.3919   -2.0911    0.0000 C   0  0  0  0  0  0  0  0  0
    2.0564   -2.8448    0.0000 N   0  0  0  0  0  0  0  0  0
    2.5898   -3.4742    0.0000 C   0  0  0  0  0  0  0  0  0
    2.4304   -4.2836    0.0000 C   0  0  0  0  0  0  0  0  0
    1.6981   -4.6636    0.0000 C   0  0  0  0  0  0  0  0  0
    0.9445   -4.3281    0.0000 C   0  0  0  0  0  0  0  0  0
    0.7369   -3.5296    0.0000 C   0  0  0  0  0  0  0  0  0
    1.2318   -2.8695    0.0000 C   0  0  0  0  0  0  0  0  0
    0.2770   -4.8130    0.0000 C   0  0  0  0  0  0  0  0  0
    0.3633   -5.6335    0.0000 C   0  0  0  0  0  0  0  0  0
    1.1169   -5.9690    0.0000 C   0  0  0  0  0  0  0  0  0
    1.7844   -5.4841    0.0000 C   0  0  0  0  0  0  0  0  0
    1.0307   -6.7895    0.0000 C   0  0  0  0  0  0  0  0  0
    1.6438   -7.3415    0.0000 O   0  0  0  0  0  0  0  0  0
    0.2237   -6.9610    0.0000 N   0  0  0  0  0  0  0  0  0
   -0.1888   -6.2466    0.0000 C   0  0  0  0  0  0  0  0  0
   -0.1118   -7.7147    0.0000 C   0  0  0  0  0  0  0  0  0
    1.6083    1.4185    0.0000 C   0  0  0  0  0  0  0  0  0
    0.7833    1.4185    0.0000 N   0  0  0  0  0  0  0  0  0
    0.5284    2.2031    0.0000 N   0  0  0  0  0  0  0  0  0
    1.1958    2.6881    0.0000 C   0  0  0  0  0  0  0  0  0
    1.8632    2.2031    0.0000 N   0  0  0  0  0  0  0  0  0
    2.6479    2.4581    0.0000 C   0  0  0  0  0  0  0  0  0
    1.1958    3.5131    0.0000 C   0  0  0  0  0  0  0  0  0
    1.9103    3.9256    0.0000 C   0  0  0  0  0  0  0  0  0
    1.9103    4.7506    0.0000 C   0  0  0  0  0  0  0  0  0
    2.6247    5.1631    0.0000 N   0  0  0  0  0  0  0  0  0
    3.3392    4.7506    0.0000 C   0  0  0  0  0  0  0  0  0
    3.3392    3.9256    0.0000 C   0  0  0  0  0  0  0  0  0
    2.6247    3.5131    0.0000 C   0  0  0  0  0  0  0  0  0
    4.0537    5.1631    0.0000 C   0  0  0  0  0  0  0  0  0
    1.1958    5.1631    0.0000 C   0  0  0  0  0  0  0  0  0
    0.4813    4.7506    0.0000 C   0  0  0  0  0  0  0  0  0
    0.4813    3.9256    0.0000 C   0  0  0  0  0  0  0  0  0
  1  2  1  0  0  0  0
  1 22  1  0  0  0  0
  2  3  1  0  0  0  0
  3  4  1  0  0  0  0
  4  5  1  0  0  0  0
  5  6  1  0  0  0  0
  6  7  1  0  0  0  0
  6 12  1  0  0  0  0
  7  8  1  0  0  0  0
  8  9  1  0  0  0  0
  9 10  4  0  0  0  0
  9 16  4  0  0  0  0
 10 11  1  0  0  0  0
 10 13  4  0  0  0  0
 11 12  1  0  0  0  0
 13 14  4  0  0  0  0
 14 15  4  0  0  0  0
 14 20  1  0  0  0  0
 15 16  4  0  0  0  0
 15 17  1  0  0  0  0
 17 18  2  0  0  0  0
 17 19  1  0  0  0  0
 19 20  1  0  0  0  0
 19 21  1  0  0  0  0
 22 23  4  0  0  0  0
 22 26  4  0  0  0  0
 23 24  4  0  0  0  0
 24 25  4  0  0  0  0
 25 26  4  0  0  0  0
 25 28  1  0  0  0  0
 26 27  1  0  0  0  0
 28 29  4  0  0  0  0
 28 38  4  0  0  0  0
 29 30  4  0  0  0  0
 29 34  4  0  0  0  0
 30 31  4  0  0  0  0
 30 36  4  0  0  0  0
 31 32  4  0  0  0  0
 32 33  4  0  0  0  0
 32 35  1  0  0  0  0
 33 34  4  0  0  0  0
 36 37  4  0  0  0  0
 37 38  4  0  0  0  0
M  END
>  <Name_Molregno>
436039

>  <DOPAMINE D3>
6.6

$$$$
436041
  Marvin  02231216192D 0   1.00000     0.00000     0

 38 43  0  0  0  0  0  0  0  0999 V2000
   -7.1260   -5.0247    0.0000 Br  0  0  0  0  0  0  0  0  0
   -6.3724   -5.3603    0.0000 C   0  0  0  0  0  0  0  0  0
   -5.7049   -4.8753    0.0000 C   0  0  0  0  0  0  0  0  0
   -5.9125   -4.0769    0.0000 C   0  0  0  0  0  0  0  0  0
   -5.4176   -3.4168    0.0000 C   0  0  0  0  0  0  0  0  0
   -4.5930   -3.3921    0.0000 N   0  0  0  0  0  0  0  0  0
   -4.0595   -4.0214    0.0000 C   0  0  0  0  0  0  0  0  0
   -4.2190   -4.8309    0.0000 C   0  0  0  0  0  0  0  0  0
   -4.9512   -5.2109    0.0000 C   0  0  0  0  0  0  0  0  0
   -4.8650   -6.0314    0.0000 C   0  0  0  0  0  0  0  0  0
   -5.5324   -6.5163    0.0000 C   0  0  0  0  0  0  0  0  0
   -5.6187   -7.3368    0.0000 N   0  0  0  0  0  0  0  0  0
   -6.4257   -7.5083    0.0000 C   0  0  0  0  0  0  0  0  0
   -6.8382   -6.7938    0.0000 O   0  0  0  0  0  0  0  0  0
   -6.2861   -6.1807    0.0000 C   0  0  0  0  0  0  0  0  0
   -6.7612   -8.2620    0.0000 C   0  0  0  0  0  0  0  0  0
   -4.2574   -2.6384    0.0000 C   0  0  0  0  0  0  0  0  0
   -4.7424   -1.9710    0.0000 C   0  0  0  0  0  0  0  0  0
   -4.4068   -1.2173    0.0000 C   0  0  0  0  0  0  0  0  0
   -4.8917   -0.5499    0.0000 C   0  0  0  0  0  0  0  0  0
   -4.5562    0.2038    0.0000 S   0  0  0  0  0  0  0  0  0
   -5.0411    0.8713    0.0000 C   0  0  0  0  0  0  0  0  0
   -5.8661    0.8713    0.0000 N   0  0  0  0  0  0  0  0  0
   -6.1210    1.6559    0.0000 N   0  0  0  0  0  0  0  0  0
   -5.4536    2.1408    0.0000 C   0  0  0  0  0  0  0  0  0
   -4.7861    1.6559    0.0000 N   0  0  0  0  0  0  0  0  0
   -4.0015    1.9108    0.0000 C   0  0  0  0  0  0  0  0  0
   -5.4536    2.9658    0.0000 C   0  0  0  0  0  0  0  0  0
   -4.7391    3.3783    0.0000 C   0  0  0  0  0  0  0  0  0
   -4.7391    4.2033    0.0000 C   0  0  0  0  0  0  0  0  0
   -4.0246    4.6158    0.0000 N   0  0  0  0  0  0  0  0  0
   -3.3102    4.2033    0.0000 C   0  0  0  0  0  0  0  0  0
   -3.3102    3.3783    0.0000 C   0  0  0  0  0  0  0  0  0
   -4.0246    2.9658    0.0000 C   0  0  0  0  0  0  0  0  0
   -2.5957    4.6158    0.0000 C   0  0  0  0  0  0  0  0  0
   -5.4536    4.6158    0.0000 C   0  0  0  0  0  0  0  0  0
   -6.1681    4.2033    0.0000 C   0  0  0  0  0  0  0  0  0
   -6.1681    3.3783    0.0000 C   0  0  0  0  0  0  0  0  0
  1  2  1  0  0  0  0
  2  3  4  0  0  0  0
  2 15  4  0  0  0  0
  3  4  1  0  0  0  0
  3  9  4  0  0  0  0
  4  5  1  0  0  0  0
  5  6  1  0  0  0  0
  6  7  1  0  0  0  0
  6 17  1  0  0  0  0
  7  8  1  0  0  0  0
  8  9  1  0  0  0  0
  9 10  4  0  0  0  0
 10 11  4  0  0  0  0
 11 12  4  0  0  0  0
 11 15  4  0  0  0  0
 12 13  4  0  0  0  0
 13 14  4  0  0  0  0
 13 16  1  0  0  0  0
 14 15  4  0  0  0  0
 17 18  1  0  0  0  0
 18 19  1  0  0  0  0
 19 20  1  0  0  0  0
 20 21  1  0  0  0  0
 21 22  1  0  0  0  0
 22 23  4  0  0  0  0
 22 26  4  0  0  0  0
 23 24  4  0  0  0  0
 24 25  4  0  0  0  0
 25 26  4  0  0  0  0
 25 28  1  0  0  0  0
 26 27  1  0  0  0  0
 28 29  4  0  0  0  0
 28 38  4  0  0  0  0
 29 30  4  0  0  0  0
 29 34  4  0  0  0  0
 30 31  4  0  0  0  0
 30 36  4  0  0  0  0
 31 32  4  0  0  0  0
 32 33  4  0  0  0  0
 32 35  1  0  0  0  0
 33 34  4  0  0  0  0
 36 37  4  0  0  0  0
 37 38  4  0  0  0  0
M  END
>  <Name_Molregno>
436041

>  <DOPAMINE D3>
7.4

$$$$
436042
  Marvin  02231216192D 0   1.00000     0.00000     0

 40 45  0  0  0  0  0  0  0  0999 V2000
    0.4918    1.5909    0.0000 S   0  0  0  0  0  0  0  0  0
    0.1563    0.8372    0.0000 C   0  0  0  0  0  0  0  0  0
    0.6412    0.1697    0.0000 C   0  0  0  0  0  0  0  0  0
    0.3056   -0.5839    0.0000 C   0  0  0  0  0  0  0  0  0
    0.7905   -1.2514    0.0000 N   0  0  0  0  0  0  0  0  0
    1.6023   -1.1041    0.0000 C   0  0  0  0  0  0  0  0  0
    2.2236   -1.6469    0.0000 C   0  0  0  0  0  0  0  0  0
    2.1866   -2.4710    0.0000 C   0  0  0  0  0  0  0  0  0
    1.5191   -2.9560    0.0000 C   0  0  0  0  0  0  0  0  0
    0.7238   -2.7365    0.0000 C   0  0  0  0  0  0  0  0  0
    0.3996   -1.9779    0.0000 C   0  0  0  0  0  0  0  0  0
    1.6053   -3.7764    0.0000 C   0  0  0  0  0  0  0  0  0
    2.3590   -4.1120    0.0000 C   0  0  0  0  0  0  0  0  0
    2.6140   -4.8966    0.0000 N   0  0  0  0  0  0  0  0  0
    3.4390   -4.8966    0.0000 C   0  0  0  0  0  0  0  0  0
    3.6939   -4.1120    0.0000 O   0  0  0  0  0  0  0  0  0
    3.0265   -3.6271    0.0000 C   0  0  0  0  0  0  0  0  0
    2.9402   -2.8066    0.0000 C   0  0  0  0  0  0  0  0  0
    3.6077   -2.3217    0.0000 C   0  0  0  0  0  0  0  0  0
    3.9239   -5.5641    0.0000 C   0  0  0  0  0  0  0  0  0
    4.4088   -6.2315    0.0000 C   0  0  0  0  0  0  0  0  0
    4.5913   -5.0791    0.0000 C   0  0  0  0  0  0  0  0  0
    3.2564   -6.0490    0.0000 C   0  0  0  0  0  0  0  0  0
    0.0069    2.2583    0.0000 C   0  0  0  0  0  0  0  0  0
   -0.8181    2.2583    0.0000 N   0  0  0  0  0  0  0  0  0
   -1.0731    3.0429    0.0000 N   0  0  0  0  0  0  0  0  0
   -0.4056    3.5278    0.0000 C   0  0  0  0  0  0  0  0  0
    0.2618    3.0429    0.0000 N   0  0  0  0  0  0  0  0  0
    1.0464    3.2979    0.0000 C   0  0  0  0  0  0  0  0  0
   -0.4056    4.3528    0.0000 C   0  0  0  0  0  0  0  0  0
    0.3089    4.7653    0.0000 C   0  0  0  0  0  0  0  0  0
    0.3089    5.5903    0.0000 C   0  0  0  0  0  0  0  0  0
    1.0233    6.0028    0.0000 N   0  0  0  0  0  0  0  0  0
    1.7378    5.5903    0.0000 C   0  0  0  0  0  0  0  0  0
    1.7378    4.7653    0.0000 C   0  0  0  0  0  0  0  0  0
    1.0233    4.3528    0.0000 C   0  0  0  0  0  0  0  0  0
    2.4523    6.0028    0.0000 C   0  0  0  0  0  0  0  0  0
   -0.4056    6.0028    0.0000 C   0  0  0  0  0  0  0  0  0
   -1.1201    5.5903    0.0000 C   0  0  0  0  0  0  0  0  0
   -1.1201    4.7653    0.0000 C   0  0  0  0  0  0  0  0  0
  1  2  1  0  0  0  0
  1 24  1  0  0  0  0
  2  3  1  0  0  0  0
  3  4  1  0  0  0  0
  4  5  1  0  0  0  0
  5  6  1  0  0  0  0
  5 11  1  0  0  0  0
  6  7  1  0  0  0  0
  7  8  1  0  0  0  0
  8  9  4  0  0  0  0
  8 18  4  0  0  0  0
  9 10  1  0  0  0  0
  9 12  4  0  0  0  0
 10 11  1  0  0  0  0
 12 13  4  0  0  0  0
 13 14  4  0  0  0  0
 13 17  4  0  0  0  0
 14 15  4  0  0  0  0
 15 16  4  0  0  0  0
 15 20  1  0  0  0  0
 16 17  4  0  0  0  0
 17 18  4  0  0  0  0
 18 19  1  0  0  0  0
 20 21  1  0  0  0  0
 20 22  1  0  0  0  0
 20 23  1  0  0  0  0
 24 25  4  0  0  0  0
 24 28  4  0  0  0  0
 25 26  4  0  0  0  0
 26 27  4  0  0  0  0
 27 28  4  0  0  0  0
 27 30  1  0  0  0  0
 28 29  1  0  0  0  0
 30 31  4  0  0  0  0
 30 40  4  0  0  0  0
 31 32  4  0  0  0  0
 31 36  4  0  0  0  0
 32 33  4  0  0  0  0
 32 38  4  0  0  0  0
 33 34  4  0  0  0  0
 34 35  4  0  0  0  0
 34 37  1  0  0  0  0
 35 36  4  0  0  0  0
 38 39  4  0  0  0  0
 39 40  4  0  0  0  0
M  END
>  <Name_Molregno>
436042

>  <DOPAMINE D3>
7.4

$$$$
436043
  Marvin  02231216192D 0   1.00000     0.00000     0

 32 36  0  0  0  0  0  0  0  0999 V2000
    4.3079    0.4886    0.0000 S   0  0  0  0  0  0  0  0  0
    3.4829    0.4886    0.0000 C   0  0  0  0  0  0  0  0  0
    3.0704   -0.2259    0.0000 C   0  0  0  0  0  0  0  0  0
    2.2454   -0.2259    0.0000 C   0  0  0  0  0  0  0  0  0
    1.8329   -0.9404    0.0000 C   0  0  0  0  0  0  0  0  0
    1.0079   -0.9404    0.0000 N   0  0  0  0  0  0  0  0  0
    0.6500   -1.6836    0.0000 C   0  0  0  0  0  0  0  0  0
   -0.1543   -1.8672    0.0000 C   0  0  0  0  0  0  0  0  0
   -0.7993   -1.3529    0.0000 C   0  0  0  0  0  0  0  0  0
   -0.7993   -0.5279    0.0000 C   0  0  0  0  0  0  0  0  0
   -0.1543   -0.0135    0.0000 C   0  0  0  0  0  0  0  0  0
    0.6500   -0.1971    0.0000 C   0  0  0  0  0  0  0  0  0
   -1.5138   -0.1154    0.0000 C   0  0  0  0  0  0  0  0  0
   -2.2283   -0.5279    0.0000 C   0  0  0  0  0  0  0  0  0
   -3.0129   -0.2729    0.0000 O   0  0  0  0  0  0  0  0  0
   -3.4978   -0.9404    0.0000 C   0  0  0  0  0  0  0  0  0
   -3.0129   -1.6078    0.0000 N   0  0  0  0  0  0  0  0  0
   -2.2283   -1.3529    0.0000 C   0  0  0  0  0  0  0  0  0
   -1.5138   -1.7654    0.0000 C   0  0  0  0  0  0  0  0  0
   -4.3228   -0.9404    0.0000 C   0  0  0  0  0  0  0  0  0
    4.7204    1.2031    0.0000 C   0  0  0  0  0  0  0  0  0
    4.3849    1.9567    0.0000 N   0  0  0  0  0  0  0  0  0
    4.9980    2.5088    0.0000 N   0  0  0  0  0  0  0  0  0
    5.7124    2.0963    0.0000 C   0  0  0  0  0  0  0  0  0
    5.5409    1.2893    0.0000 N   0  0  0  0  0  0  0  0  0
    6.0930    0.6762    0.0000 C   0  0  0  0  0  0  0  0  0
    6.4661    2.4318    0.0000 C   0  0  0  0  0  0  0  0  0
    6.6377    3.2388    0.0000 O   0  0  0  0  0  0  0  0  0
    7.4581    3.3250    0.0000 C   0  0  0  0  0  0  0  0  0
    7.7937    2.5714    0.0000 N   0  0  0  0  0  0  0  0  0
    7.1806    2.0193    0.0000 C   0  0  0  0  0  0  0  0  0
    7.2668    1.1988    0.0000 C   0  0  0  0  0  0  0  0  0
  1  2  1  0  0  0  0
  1 21  1  0  0  0  0
  2  3  1  0  0  0  0
  3  4  1  0  0  0  0
  4  5  1  0  0  0  0
  5  6  1  0  0  0  0
  6  7  1  0  0  0  0
  6 12  1  0  0  0  0
  7  8  1  0  0  0  0
  8  9  1  0  0  0  0
  9 10  4  0  0  0  0
  9 19  4  0  0  0  0
 10 11  1  0  0  0  0
 10 13  4  0  0  0  0
 11 12  1  0  0  0  0
 13 14  4  0  0  0  0
 14 15  4  0  0  0  0
 14 18  4  0  0  0  0
 15 16  4  0  0  0  0
 16 17  4  0  0  0  0
 16 20  1  0  0  0  0
 17 18  4  0  0  0  0
 18 19  4  0  0  0  0
 21 22  4  0  0  0  0
 21 25  4  0  0  0  0
 22 23  4  0  0  0  0
 23 24  4  0  0  0  0
 24 25  4  0  0  0  0
 24 27  1  0  0  0  0
 25 26  1  0  0  0  0
 27 28  4  0  0  0  0
 27 31  4  0  0  0  0
 28 29  4  0  0  0  0
 29 30  4  0  0  0  0
 30 31  4  0  0  0  0
 31 32  1  0  0  0  0
M  END
>  <Name_Molregno>
436043

>  <DOPAMINE D3>
6.5

$$$$
436044
  Marvin  02231216192D 0   1.00000     0.00000     0

 33 38  0  0  0  0  0  0  0  0999 V2000
    3.9856   -0.4818    0.0000 S   0  0  0  0  0  0  0  0  0
    3.5731    0.2327    0.0000 C   0  0  0  0  0  0  0  0  0
    2.7481    0.2327    0.0000 C   0  0  0  0  0  0  0  0  0
    2.3356    0.9471    0.0000 C   0  0  0  0  0  0  0  0  0
    1.5106    0.9471    0.0000 N   0  0  0  0  0  0  0  0  0
    1.1527    0.2038    0.0000 C   0  0  0  0  0  0  0  0  0
    0.3484    0.0202    0.0000 C   0  0  0  0  0  0  0  0  0
   -0.2966    0.5346    0.0000 C   0  0  0  0  0  0  0  0  0
   -0.2966    1.3596    0.0000 C   0  0  0  0  0  0  0  0  0
    0.3484    1.8740    0.0000 C   0  0  0  0  0  0  0  0  0
    1.1527    1.6904    0.0000 C   0  0  0  0  0  0  0  0  0
   -1.0111    1.7721    0.0000 C   0  0  0  0  0  0  0  0  0
   -1.7256    1.3596    0.0000 C   0  0  0  0  0  0  0  0  0
   -2.5102    1.6146    0.0000 O   0  0  0  0  0  0  0  0  0
   -2.9951    0.9471    0.0000 C   0  0  0  0  0  0  0  0  0
   -2.5102    0.2797    0.0000 N   0  0  0  0  0  0  0  0  0
   -1.7256    0.5346    0.0000 C   0  0  0  0  0  0  0  0  0
   -1.0111    0.1221    0.0000 C   0  0  0  0  0  0  0  0  0
   -3.8201    0.9471    0.0000 C   0  0  0  0  0  0  0  0  0
   -4.5346    0.5346    0.0000 C   0  0  0  0  0  0  0  0  0
   -4.5346    1.3596    0.0000 C   0  0  0  0  0  0  0  0  0
    4.8106   -0.4818    0.0000 C   0  0  0  0  0  0  0  0  0
    5.2956    0.1856    0.0000 N   0  0  0  0  0  0  0  0  0
    6.0802   -0.0693    0.0000 N   0  0  0  0  0  0  0  0  0
    6.0802   -0.8943    0.0000 C   0  0  0  0  0  0  0  0  0
    5.2956   -1.1493    0.0000 N   0  0  0  0  0  0  0  0  0
    5.0406   -1.9339    0.0000 C   0  0  0  0  0  0  0  0  0
    6.7476   -1.3792    0.0000 C   0  0  0  0  0  0  0  0  0
    7.5323   -1.1243    0.0000 O   0  0  0  0  0  0  0  0  0
    8.0172   -1.7917    0.0000 C   0  0  0  0  0  0  0  0  0
    7.5323   -2.4592    0.0000 N   0  0  0  0  0  0  0  0  0
    6.7476   -2.2042    0.0000 C   0  0  0  0  0  0  0  0  0
    6.0802   -2.6892    0.0000 C   0  0  0  0  0  0  0  0  0
  1  2  1  0  0  0  0
  1 22  1  0  0  0  0
  2  3  1  0  0  0  0
  3  4  1  0  0  0  0
  4  5  1  0  0  0  0
  5  6  1  0  0  0  0
  5 11  1  0  0  0  0
  6  7  1  0  0  0  0
  7  8  1  0  0  0  0
  8  9  4  0  0  0  0
  8 18  4  0  0  0  0
  9 10  1  0  0  0  0
  9 12  4  0  0  0  0
 10 11  1  0  0  0  0
 12 13  4  0  0  0  0
 13 14  4  0  0  0  0
 13 17  4  0  0  0  0
 14 15  4  0  0  0  0
 15 16  4  0  0  0  0
 15 19  1  0  0  0  0
 16 17  4  0  0  0  0
 17 18  4  0  0  0  0
 19 20  1  0  0  0  0
 19 21  1  0  0  0  0
 20 21  1  0  0  0  0
 22 23  4  0  0  0  0
 22 26  4  0  0  0  0
 23 24  4  0  0  0  0
 24 25  4  0  0  0  0
 25 26  4  0  0  0  0
 25 28  1  0  0  0  0
 26 27  1  0  0  0  0
 28 29  4  0  0  0  0
 28 32  4  0  0  0  0
 29 30  4  0  0  0  0
 30 31  4  0  0  0  0
 31 32  4  0  0  0  0
 32 33  1  0  0  0  0
M  END
>  <Name_Molregno>
436044

>  <DOPAMINE D3>
6.7

$$$$
436085
  Marvin  02231216192D 0   1.00000     0.00000     0

 39 44  0  0  0  0  0  0  0  0999 V2000
   -2.1137    1.1104    0.0000 S   0  0  0  0  0  0  0  0  0
   -2.4492    0.3567    0.0000 C   0  0  0  0  0  0  0  0  0
   -1.9643   -0.3107    0.0000 C   0  0  0  0  0  0  0  0  0
   -2.2999   -1.0644    0.0000 C   0  0  0  0  0  0  0  0  0
   -1.8149   -1.7318    0.0000 N   0  0  0  0  0  0  0  0  0
   -1.0032   -1.5845    0.0000 C   0  0  0  0  0  0  0  0  0
   -0.3819   -2.1273    0.0000 C   0  0  0  0  0  0  0  0  0
   -0.4189   -2.9515    0.0000 C   0  0  0  0  0  0  0  0  0
   -1.0864   -3.4364    0.0000 C   0  0  0  0  0  0  0  0  0
   -1.8816   -3.2169    0.0000 C   0  0  0  0  0  0  0  0  0
   -2.2059   -2.4583    0.0000 C   0  0  0  0  0  0  0  0  0
   -1.0001   -4.2569    0.0000 C   0  0  0  0  0  0  0  0  0
   -0.2465   -4.5924    0.0000 C   0  0  0  0  0  0  0  0  0
    0.4210   -4.1075    0.0000 C   0  0  0  0  0  0  0  0  0
    0.3347   -3.2870    0.0000 C   0  0  0  0  0  0  0  0  0
    1.0884   -4.5924    0.0000 C   0  0  0  0  0  0  0  0  0
    1.8730   -4.3375    0.0000 O   0  0  0  0  0  0  0  0  0
    0.8335   -5.3771    0.0000 N   0  0  0  0  0  0  0  0  0
    0.0085   -5.3771    0.0000 C   0  0  0  0  0  0  0  0  0
    1.3184   -6.0445    0.0000 C   0  0  0  0  0  0  0  0  0
    0.9828   -6.7982    0.0000 C   0  0  0  0  0  0  0  0  0
    2.1389   -5.9583    0.0000 C   0  0  0  0  0  0  0  0  0
   -2.5986    1.7779    0.0000 C   0  0  0  0  0  0  0  0  0
   -3.4236    1.7779    0.0000 N   0  0  0  0  0  0  0  0  0
   -3.6785    2.5625    0.0000 N   0  0  0  0  0  0  0  0  0
   -3.0111    3.0474    0.0000 C   0  0  0  0  0  0  0  0  0
   -2.3437    2.5625    0.0000 N   0  0  0  0  0  0  0  0  0
   -1.5590    2.8174    0.0000 C   0  0  0  0  0  0  0  0  0
   -3.0111    3.8724    0.0000 C   0  0  0  0  0  0  0  0  0
   -2.2966    4.2849    0.0000 C   0  0  0  0  0  0  0  0  0
   -2.2966    5.1099    0.0000 C   0  0  0  0  0  0  0  0  0
   -1.5822    5.5224    0.0000 N   0  0  0  0  0  0  0  0  0
   -0.8677    5.1099    0.0000 C   0  0  0  0  0  0  0  0  0
   -0.8677    4.2849    0.0000 C   0  0  0  0  0  0  0  0  0
   -1.5822    3.8724    0.0000 C   0  0  0  0  0  0  0  0  0
   -0.1532    5.5224    0.0000 C   0  0  0  0  0  0  0  0  0
   -3.0111    5.5224    0.0000 C   0  0  0  0  0  0  0  0  0
   -3.7256    5.1099    0.0000 C   0  0  0  0  0  0  0  0  0
   -3.7256    4.2849    0.0000 C   0  0  0  0  0  0  0  0  0
  1  2  1  0  0  0  0
  1 23  1  0  0  0  0
  2  3  1  0  0  0  0
  3  4  1  0  0  0  0
  4  5  1  0  0  0  0
  5  6  1  0  0  0  0
  5 11  1  0  0  0  0
  6  7  1  0  0  0  0
  7  8  1  0  0  0  0
  8  9  4  0  0  0  0
  8 15  4  0  0  0  0
  9 10  1  0  0  0  0
  9 12  4  0  0  0  0
 10 11  1  0  0  0  0
 12 13  4  0  0  0  0
 13 14  4  0  0  0  0
 13 19  1  0  0  0  0
 14 15  4  0  0  0  0
 14 16  1  0  0  0  0
 16 17  2  0  0  0  0
 16 18  1  0  0  0  0
 18 19  1  0  0  0  0
 18 20  1  0  0  0  0
 20 21  1  0  0  0  0
 20 22  1  0  0  0  0
 23 24  4  0  0  0  0
 23 27  4  0  0  0  0
 24 25  4  0  0  0  0
 25 26  4  0  0  0  0
 26 27  4  0  0  0  0
 26 29  1  0  0  0  0
 27 28  1  0  0  0  0
 29 30  4  0  0  0  0
 29 39  4  0  0  0  0
 30 31  4  0  0  0  0
 30 35  4  0  0  0  0
 31 32  4  0  0  0  0
 31 37  4  0  0  0  0
 32 33  4  0  0  0  0
 33 34  4  0  0  0  0
 33 36  1  0  0  0  0
 34 35  4  0  0  0  0
 37 38  4  0  0  0  0
 38 39  4  0  0  0  0
M  END
>  <Name_Molregno>
436085

>  <DOPAMINE D3>
7.6

$$$$
436087
  Marvin  02231216192D 0   1.00000     0.00000     0

 37 42  0  0  0  0  0  0  0  0999 V2000
   -1.6166    0.9397    0.0000 S   0  0  0  0  0  0  0  0  0
   -1.9521    0.1861    0.0000 C   0  0  0  0  0  0  0  0  0
   -1.4672   -0.4814    0.0000 C   0  0  0  0  0  0  0  0  0
   -1.8028   -1.2351    0.0000 C   0  0  0  0  0  0  0  0  0
   -1.3178   -1.9025    0.0000 N   0  0  0  0  0  0  0  0  0
   -0.5061   -1.7552    0.0000 C   0  0  0  0  0  0  0  0  0
    0.1152   -2.2980    0.0000 C   0  0  0  0  0  0  0  0  0
    0.0782   -3.1221    0.0000 C   0  0  0  0  0  0  0  0  0
   -0.5893   -3.6071    0.0000 C   0  0  0  0  0  0  0  0  0
   -1.3845   -3.3876    0.0000 C   0  0  0  0  0  0  0  0  0
   -1.7088   -2.6290    0.0000 C   0  0  0  0  0  0  0  0  0
   -0.5030   -4.4276    0.0000 C   0  0  0  0  0  0  0  0  0
    0.2506   -4.7631    0.0000 C   0  0  0  0  0  0  0  0  0
    0.9181   -4.2782    0.0000 C   0  0  0  0  0  0  0  0  0
    0.8318   -3.4577    0.0000 C   0  0  0  0  0  0  0  0  0
    1.5855   -4.7631    0.0000 C   0  0  0  0  0  0  0  0  0
    2.3701   -4.5082    0.0000 O   0  0  0  0  0  0  0  0  0
    1.3306   -5.5477    0.0000 N   0  0  0  0  0  0  0  0  0
    0.5056   -5.5477    0.0000 C   0  0  0  0  0  0  0  0  0
    1.8155   -6.2152    0.0000 C   0  0  0  0  0  0  0  0  0
   -2.1015    1.6072    0.0000 C   0  0  0  0  0  0  0  0  0
   -2.9265    1.6072    0.0000 N   0  0  0  0  0  0  0  0  0
   -3.1814    2.3918    0.0000 N   0  0  0  0  0  0  0  0  0
   -2.5140    2.8767    0.0000 C   0  0  0  0  0  0  0  0  0
   -1.8466    2.3918    0.0000 N   0  0  0  0  0  0  0  0  0
   -1.0619    2.6467    0.0000 C   0  0  0  0  0  0  0  0  0
   -2.5140    3.7017    0.0000 C   0  0  0  0  0  0  0  0  0
   -1.7995    4.1142    0.0000 C   0  0  0  0  0  0  0  0  0
   -1.7995    4.9392    0.0000 C   0  0  0  0  0  0  0  0  0
   -1.0851    5.3517    0.0000 N   0  0  0  0  0  0  0  0  0
   -0.3706    4.9392    0.0000 C   0  0  0  0  0  0  0  0  0
   -0.3706    4.1142    0.0000 C   0  0  0  0  0  0  0  0  0
   -1.0851    3.7017    0.0000 C   0  0  0  0  0  0  0  0  0
    0.3439    5.3517    0.0000 C   0  0  0  0  0  0  0  0  0
   -2.5140    5.3517    0.0000 C   0  0  0  0  0  0  0  0  0
   -3.2285    4.9392    0.0000 C   0  0  0  0  0  0  0  0  0
   -3.2285    4.1142    0.0000 C   0  0  0  0  0  0  0  0  0
  1  2  1  0  0  0  0
  1 21  1  0  0  0  0
  2  3  1  0  0  0  0
  3  4  1  0  0  0  0
  4  5  1  0  0  0  0
  5  6  1  0  0  0  0
  5 11  1  0  0  0  0
  6  7  1  0  0  0  0
  7  8  1  0  0  0  0
  8  9  4  0  0  0  0
  8 15  4  0  0  0  0
  9 10  1  0  0  0  0
  9 12  4  0  0  0  0
 10 11  1  0  0  0  0
 12 13  4  0  0  0  0
 13 14  4  0  0  0  0
 13 19  1  0  0  0  0
 14 15  4  0  0  0  0
 14 16  1  0  0  0  0
 16 17  2  0  0  0  0
 16 18  1  0  0  0  0
 18 19  1  0  0  0  0
 18 20  1  0  0  0  0
 21 22  4  0  0  0  0
 21 25  4  0  0  0  0
 22 23  4  0  0  0  0
 23 24  4  0  0  0  0
 24 25  4  0  0  0  0
 24 27  1  0  0  0  0
 25 26  1  0  0  0  0
 27 28  4  0  0  0  0
 27 37  4  0  0  0  0
 28 29  4  0  0  0  0
 28 33  4  0  0  0  0
 29 30  4  0  0  0  0
 29 35  4  0  0  0  0
 30 31  4  0  0  0  0
 31 32  4  0  0  0  0
 31 34  1  0  0  0  0
 32 33  4  0  0  0  0
 35 36  4  0  0  0  0
 36 37  4  0  0  0  0
M  END
>  <Name_Molregno>
436087

>  <DOPAMINE D3>
6.2

$$$$
436088
  Marvin  02231216192D 0   1.00000     0.00000     0

 38 43  0  0  0  0  0  0  0  0999 V2000
    0.6665   -0.1247    0.0000 S   0  0  0  0  0  0  0  0  0
    0.3310   -0.8784    0.0000 C   0  0  0  0  0  0  0  0  0
    0.8159   -1.5458    0.0000 C   0  0  0  0  0  0  0  0  0
    0.4803   -2.2995    0.0000 C   0  0  0  0  0  0  0  0  0
   -0.3402   -2.3857    0.0000 N   0  0  0  0  0  0  0  0  0
   -0.6185   -3.1624    0.0000 C   0  0  0  0  0  0  0  0  0
   -1.3992   -3.4290    0.0000 C   0  0  0  0  0  0  0  0  0
   -2.0944   -2.9849    0.0000 C   0  0  0  0  0  0  0  0  0
   -2.1807   -2.1644    0.0000 C   0  0  0  0  0  0  0  0  0
   -1.5930   -1.5854    0.0000 C   0  0  0  0  0  0  0  0  0
   -0.7739   -1.6839    0.0000 C   0  0  0  0  0  0  0  0  0
   -2.9343   -1.8289    0.0000 C   0  0  0  0  0  0  0  0  0
   -3.6018   -2.3138    0.0000 C   0  0  0  0  0  0  0  0  0
   -4.4087   -2.1423    0.0000 N   0  0  0  0  0  0  0  0  0
   -4.8212   -2.8567    0.0000 C   0  0  0  0  0  0  0  0  0
   -4.2692   -3.4698    0.0000 O   0  0  0  0  0  0  0  0  0
   -3.5155   -3.1343    0.0000 C   0  0  0  0  0  0  0  0  0
   -2.7619   -3.4698    0.0000 C   0  0  0  0  0  0  0  0  0
   -2.6756   -4.2903    0.0000 C   0  0  0  0  0  0  0  0  0
   -5.6417   -2.9430    0.0000 C   0  0  0  0  0  0  0  0  0
   -5.9773   -3.6966    0.0000 C   0  0  0  0  0  0  0  0  0
    0.1816    0.5427    0.0000 C   0  0  0  0  0  0  0  0  0
   -0.6434    0.5427    0.0000 N   0  0  0  0  0  0  0  0  0
   -0.8984    1.3273    0.0000 N   0  0  0  0  0  0  0  0  0
   -0.2309    1.8123    0.0000 C   0  0  0  0  0  0  0  0  0
    0.4365    1.3273    0.0000 N   0  0  0  0  0  0  0  0  0
    1.2211    1.5823    0.0000 C   0  0  0  0  0  0  0  0  0
   -0.2309    2.6373    0.0000 C   0  0  0  0  0  0  0  0  0
    0.4836    3.0498    0.0000 C   0  0  0  0  0  0  0  0  0
    0.4836    3.8748    0.0000 C   0  0  0  0  0  0  0  0  0
    1.1980    4.2873    0.0000 N   0  0  0  0  0  0  0  0  0
    1.9125    3.8748    0.0000 C   0  0  0  0  0  0  0  0  0
    1.9125    3.0498    0.0000 C   0  0  0  0  0  0  0  0  0
    1.1980    2.6373    0.0000 C   0  0  0  0  0  0  0  0  0
    2.6270    4.2873    0.0000 C   0  0  0  0  0  0  0  0  0
   -0.2309    4.2873    0.0000 C   0  0  0  0  0  0  0  0  0
   -0.9454    3.8748    0.0000 C   0  0  0  0  0  0  0  0  0
   -0.9454    3.0498    0.0000 C   0  0  0  0  0  0  0  0  0
  1  2  1  0  0  0  0
  1 22  1  0  0  0  0
  2  3  1  0  0  0  0
  3  4  1  0  0  0  0
  4  5  1  0  0  0  0
  5  6  1  0  0  0  0
  5 11  1  0  0  0  0
  6  7  1  0  0  0  0
  7  8  1  0  0  0  0
  8  9  4  0  0  0  0
  8 18  4  0  0  0  0
  9 10  1  0  0  0  0
  9 12  4  0  0  0  0
 10 11  1  0  0  0  0
 12 13  4  0  0  0  0
 13 14  4  0  0  0  0
 13 17  4  0  0  0  0
 14 15  4  0  0  0  0
 15 16  4  0  0  0  0
 15 20  1  0  0  0  0
 16 17  4  0  0  0  0
 17 18  4  0  0  0  0
 18 19  1  0  0  0  0
 20 21  1  0  0  0  0
 22 23  4  0  0  0  0
 22 26  4  0  0  0  0
 23 24  4  0  0  0  0
 24 25  4  0  0  0  0
 25 26  4  0  0  0  0
 25 28  1  0  0  0  0
 26 27  1  0  0  0  0
 28 29  4  0  0  0  0
 28 38  4  0  0  0  0
 29 30  4  0  0  0  0
 29 34  4  0  0  0  0
 30 31  4  0  0  0  0
 30 36  4  0  0  0  0
 31 32  4  0  0  0  0
 32 33  4  0  0  0  0
 32 35  1  0  0  0  0
 33 34  4  0  0  0  0
 36 37  4  0  0  0  0
 37 38  4  0  0  0  0
M  END
>  <Name_Molregno>
436088

>  <DOPAMINE D3>
7.5

$$$$
436089
  Marvin  02231216192D 0   1.00000     0.00000     0

 37 42  0  0  0  0  0  0  0  0999 V2000
   -1.5062    0.5648    0.0000 S   0  0  0  0  0  0  0  0  0
   -1.8418   -0.1889    0.0000 C   0  0  0  0  0  0  0  0  0
   -1.3569   -0.8564    0.0000 C   0  0  0  0  0  0  0  0  0
   -1.6924   -1.6100    0.0000 C   0  0  0  0  0  0  0  0  0
   -1.2075   -2.2775    0.0000 N   0  0  0  0  0  0  0  0  0
   -0.3957   -2.1302    0.0000 C   0  0  0  0  0  0  0  0  0
    0.2255   -2.6730    0.0000 C   0  0  0  0  0  0  0  0  0
    0.1885   -3.4971    0.0000 C   0  0  0  0  0  0  0  0  0
   -0.4789   -3.9821    0.0000 C   0  0  0  0  0  0  0  0  0
   -1.2742   -3.7626    0.0000 C   0  0  0  0  0  0  0  0  0
   -1.5984   -3.0040    0.0000 C   0  0  0  0  0  0  0  0  0
   -0.3927   -4.8025    0.0000 C   0  0  0  0  0  0  0  0  0
    0.3610   -5.1381    0.0000 C   0  0  0  0  0  0  0  0  0
    0.6159   -5.9227    0.0000 N   0  0  0  0  0  0  0  0  0
    1.4409   -5.9227    0.0000 C   0  0  0  0  0  0  0  0  0
    1.6959   -5.1381    0.0000 O   0  0  0  0  0  0  0  0  0
    1.0284   -4.6532    0.0000 C   0  0  0  0  0  0  0  0  0
    0.9422   -3.8327    0.0000 C   0  0  0  0  0  0  0  0  0
    1.6096   -3.3478    0.0000 C   0  0  0  0  0  0  0  0  0
    1.9259   -6.5902    0.0000 C   0  0  0  0  0  0  0  0  0
   -1.9911    1.2322    0.0000 C   0  0  0  0  0  0  0  0  0
   -2.8161    1.2322    0.0000 N   0  0  0  0  0  0  0  0  0
   -3.0711    2.0168    0.0000 N   0  0  0  0  0  0  0  0  0
   -2.4036    2.5017    0.0000 C   0  0  0  0  0  0  0  0  0
   -1.7362    2.0168    0.0000 N   0  0  0  0  0  0  0  0  0
   -0.9516    2.2718    0.0000 C   0  0  0  0  0  0  0  0  0
   -2.4036    3.3267    0.0000 C   0  0  0  0  0  0  0  0  0
   -1.6892    3.7392    0.0000 C   0  0  0  0  0  0  0  0  0
   -1.6892    4.5642    0.0000 C   0  0  0  0  0  0  0  0  0
   -0.9747    4.9767    0.0000 N   0  0  0  0  0  0  0  0  0
   -0.2602    4.5642    0.0000 C   0  0  0  0  0  0  0  0  0
   -0.2602    3.7392    0.0000 C   0  0  0  0  0  0  0  0  0
   -0.9747    3.3267    0.0000 C   0  0  0  0  0  0  0  0  0
    0.4542    4.9767    0.0000 C   0  0  0  0  0  0  0  0  0
   -2.4036    4.9767    0.0000 C   0  0  0  0  0  0  0  0  0
   -3.1181    4.5642    0.0000 C   0  0  0  0  0  0  0  0  0
   -3.1181    3.7392    0.0000 C   0  0  0  0  0  0  0  0  0
  1  2  1  0  0  0  0
  1 21  1  0  0  0  0
  2  3  1  0  0  0  0
  3  4  1  0  0  0  0
  4  5  1  0  0  0  0
  5  6  1  0  0  0  0
  5 11  1  0  0  0  0
  6  7  1  0  0  0  0
  7  8  1  0  0  0  0
  8  9  4  0  0  0  0
  8 18  4  0  0  0  0
  9 10  1  0  0  0  0
  9 12  4  0  0  0  0
 10 11  1  0  0  0  0
 12 13  4  0  0  0  0
 13 14  4  0  0  0  0
 13 17  4  0  0  0  0
 14 15  4  0  0  0  0
 15 16  4  0  0  0  0
 15 20  1  0  0  0  0
 16 17  4  0  0  0  0
 17 18  4  0  0  0  0
 18 19  1  0  0  0  0
 21 22  4  0  0  0  0
 21 25  4  0  0  0  0
 22 23  4  0  0  0  0
 23 24  4  0  0  0  0
 24 25  4  0  0  0  0
 24 27  1  0  0  0  0
 25 26  1  0  0  0  0
 27 28  4  0  0  0  0
 27 37  4  0  0  0  0
 28 29  4  0  0  0  0
 28 33  4  0  0  0  0
 29 30  4  0  0  0  0
 29 35  4  0  0  0  0
 30 31  4  0  0  0  0
 31 32  4  0  0  0  0
 31 34  1  0  0  0  0
 32 33  4  0  0  0  0
 35 36  4  0  0  0  0
 36 37  4  0  0  0  0
M  END
>  <Name_Molregno>
436089

>  <DOPAMINE D3>
7.4

$$$$
436090
  Marvin  02231216192D 0   1.00000     0.00000     0

 38 44  0  0  0  0  0  0  0  0999 V2000
   -1.8879    0.9380    0.0000 S   0  0  0  0  0  0  0  0  0
   -2.2235    0.1844    0.0000 C   0  0  0  0  0  0  0  0  0
   -1.7386   -0.4831    0.0000 C   0  0  0  0  0  0  0  0  0
   -2.0741   -1.2367    0.0000 C   0  0  0  0  0  0  0  0  0
   -1.5892   -1.9042    0.0000 N   0  0  0  0  0  0  0  0  0
   -0.7775   -1.7569    0.0000 C   0  0  0  0  0  0  0  0  0
   -0.1562   -2.2997    0.0000 C   0  0  0  0  0  0  0  0  0
   -0.1932   -3.1238    0.0000 C   0  0  0  0  0  0  0  0  0
   -0.8606   -3.6088    0.0000 C   0  0  0  0  0  0  0  0  0
   -1.6559   -3.3893    0.0000 C   0  0  0  0  0  0  0  0  0
   -1.9802   -2.6307    0.0000 C   0  0  0  0  0  0  0  0  0
   -0.7744   -4.4292    0.0000 C   0  0  0  0  0  0  0  0  0
   -0.0207   -4.7648    0.0000 C   0  0  0  0  0  0  0  0  0
    0.2342   -5.5494    0.0000 O   0  0  0  0  0  0  0  0  0
    1.0592   -5.5494    0.0000 C   0  0  0  0  0  0  0  0  0
    1.3141   -4.7648    0.0000 N   0  0  0  0  0  0  0  0  0
    0.6467   -4.2799    0.0000 C   0  0  0  0  0  0  0  0  0
    0.5605   -3.4594    0.0000 C   0  0  0  0  0  0  0  0  0
    1.5441   -6.2169    0.0000 C   0  0  0  0  0  0  0  0  0
    2.2978   -6.5524    0.0000 C   0  0  0  0  0  0  0  0  0
    1.6304   -7.0373    0.0000 C   0  0  0  0  0  0  0  0  0
   -2.3729    1.6055    0.0000 C   0  0  0  0  0  0  0  0  0
   -3.1979    1.6055    0.0000 N   0  0  0  0  0  0  0  0  0
   -3.4528    2.3901    0.0000 N   0  0  0  0  0  0  0  0  0
   -2.7854    2.8750    0.0000 C   0  0  0  0  0  0  0  0  0
   -2.1179    2.3901    0.0000 N   0  0  0  0  0  0  0  0  0
   -1.3333    2.6450    0.0000 C   0  0  0  0  0  0  0  0  0
   -2.7854    3.7000    0.0000 C   0  0  0  0  0  0  0  0  0
   -2.0709    4.1125    0.0000 C   0  0  0  0  0  0  0  0  0
   -2.0709    4.9375    0.0000 C   0  0  0  0  0  0  0  0  0
   -1.3564    5.3500    0.0000 N   0  0  0  0  0  0  0  0  0
   -0.6420    4.9375    0.0000 C   0  0  0  0  0  0  0  0  0
   -0.6420    4.1125    0.0000 C   0  0  0  0  0  0  0  0  0
   -1.3564    3.7000    0.0000 C   0  0  0  0  0  0  0  0  0
    0.0725    5.3500    0.0000 C   0  0  0  0  0  0  0  0  0
   -2.7854    5.3500    0.0000 C   0  0  0  0  0  0  0  0  0
   -3.4998    4.9375    0.0000 C   0  0  0  0  0  0  0  0  0
   -3.4998    4.1125    0.0000 C   0  0  0  0  0  0  0  0  0
  1  2  1  0  0  0  0
  1 22  1  0  0  0  0
  2  3  1  0  0  0  0
  3  4  1  0  0  0  0
  4  5  1  0  0  0  0
  5  6  1  0  0  0  0
  5 11  1  0  0  0  0
  6  7  1  0  0  0  0
  7  8  1  0  0  0  0
  8  9  4  0  0  0  0
  8 18  4  0  0  0  0
  9 10  1  0  0  0  0
  9 12  4  0  0  0  0
 10 11  1  0  0  0  0
 12 13  4  0  0  0  0
 13 14  4  0  0  0  0
 13 17  4  0  0  0  0
 14 15  4  0  0  0  0
 15 16  4  0  0  0  0
 15 19  1  0  0  0  0
 16 17  4  0  0  0  0
 17 18  4  0  0  0  0
 19 20  1  0  0  0  0
 19 21  1  0  0  0  0
 20 21  1  0  0  0  0
 22 23  4  0  0  0  0
 22 26  4  0  0  0  0
 23 24  4  0  0  0  0
 24 25  4  0  0  0  0
 25 26  4  0  0  0  0
 25 28  1  0  0  0  0
 26 27  1  0  0  0  0
 28 29  4  0  0  0  0
 28 38  4  0  0  0  0
 29 30  4  0  0  0  0
 29 34  4  0  0  0  0
 30 31  4  0  0  0  0
 30 36  4  0  0  0  0
 31 32  4  0  0  0  0
 32 33  4  0  0  0  0
 32 35  1  0  0  0  0
 33 34  4  0  0  0  0
 36 37  4  0  0  0  0
 37 38  4  0  0  0  0
M  END
>  <Name_Molregno>
436090

>  <DOPAMINE D3>
7.3

$$$$
436129
  Marvin  02231216192D 0   1.00000     0.00000     0

 40 45  0  0  0  0  0  0  0  0999 V2000
    3.9636   -4.6238    0.0000 Br  0  0  0  0  0  0  0  0  0
    4.6311   -4.1389    0.0000 C   0  0  0  0  0  0  0  0  0
    4.5448   -3.3184    0.0000 C   0  0  0  0  0  0  0  0  0
    3.7496   -3.0990    0.0000 C   0  0  0  0  0  0  0  0  0
    3.4253   -2.3403    0.0000 C   0  0  0  0  0  0  0  0  0
    3.8163   -1.6139    0.0000 N   0  0  0  0  0  0  0  0  0
    4.6280   -1.4665    0.0000 C   0  0  0  0  0  0  0  0  0
    5.2493   -2.0093    0.0000 C   0  0  0  0  0  0  0  0  0
    5.2123   -2.8335    0.0000 C   0  0  0  0  0  0  0  0  0
    5.9659   -3.1691    0.0000 C   0  0  0  0  0  0  0  0  0
    6.0522   -3.9896    0.0000 C   0  0  0  0  0  0  0  0  0
    6.7196   -4.4745    0.0000 N   0  0  0  0  0  0  0  0  0
    6.4647   -5.2591    0.0000 C   0  0  0  0  0  0  0  0  0
    5.6397   -5.2591    0.0000 O   0  0  0  0  0  0  0  0  0
    5.3847   -4.4745    0.0000 C   0  0  0  0  0  0  0  0  0
    6.9496   -5.9265    0.0000 C   0  0  0  0  0  0  0  0  0
    7.4345   -6.5940    0.0000 C   0  0  0  0  0  0  0  0  0
    7.6170   -5.4416    0.0000 C   0  0  0  0  0  0  0  0  0
    6.2822   -6.4115    0.0000 C   0  0  0  0  0  0  0  0  0
    3.3313   -0.9464    0.0000 C   0  0  0  0  0  0  0  0  0
    3.6669   -0.1927    0.0000 C   0  0  0  0  0  0  0  0  0
    3.1820    0.4747    0.0000 C   0  0  0  0  0  0  0  0  0
    3.5175    1.2284    0.0000 S   0  0  0  0  0  0  0  0  0
    3.0326    1.8958    0.0000 C   0  0  0  0  0  0  0  0  0
    2.2076    1.8958    0.0000 N   0  0  0  0  0  0  0  0  0
    1.9527    2.6804    0.0000 N   0  0  0  0  0  0  0  0  0
    2.6201    3.1654    0.0000 C   0  0  0  0  0  0  0  0  0
    3.2875    2.6804    0.0000 N   0  0  0  0  0  0  0  0  0
    4.0722    2.9354    0.0000 C   0  0  0  0  0  0  0  0  0
    2.6201    3.9904    0.0000 C   0  0  0  0  0  0  0  0  0
    3.3346    4.4029    0.0000 C   0  0  0  0  0  0  0  0  0
    3.3346    5.2279    0.0000 C   0  0  0  0  0  0  0  0  0
    4.0490    5.6404    0.0000 N   0  0  0  0  0  0  0  0  0
    4.7635    5.2279    0.0000 C   0  0  0  0  0  0  0  0  0
    4.7635    4.4029    0.0000 C   0  0  0  0  0  0  0  0  0
    4.0490    3.9904    0.0000 C   0  0  0  0  0  0  0  0  0
    5.4780    5.6404    0.0000 C   0  0  0  0  0  0  0  0  0
    2.6201    5.6404    0.0000 C   0  0  0  0  0  0  0  0  0
    1.9056    5.2279    0.0000 C   0  0  0  0  0  0  0  0  0
    1.9056    4.4029    0.0000 C   0  0  0  0  0  0  0  0  0
  1  2  1  0  0  0  0
  2  3  4  0  0  0  0
  2 15  4  0  0  0  0
  3  4  1  0  0  0  0
  3  9  4  0  0  0  0
  4  5  1  0  0  0  0
  5  6  1  0  0  0  0
  6  7  1  0  0  0  0
  6 20  1  0  0  0  0
  7  8  1  0  0  0  0
  8  9  1  0  0  0  0
  9 10  4  0  0  0  0
 10 11  4  0  0  0  0
 11 12  4  0  0  0  0
 11 15  4  0  0  0  0
 12 13  4  0  0  0  0
 13 14  4  0  0  0  0
 13 16  1  0  0  0  0
 14 15  4  0  0  0  0
 16 17  1  0  0  0  0
 16 18  1  0  0  0  0
 16 19  1  0  0  0  0
 20 21  1  0  0  0  0
 21 22  1  0  0  0  0
 22 23  1  0  0  0  0
 23 24  1  0  0  0  0
 24 25  4  0  0  0  0
 24 28  4  0  0  0  0
 25 26  4  0  0  0  0
 26 27  4  0  0  0  0
 27 28  4  0  0  0  0
 27 30  1  0  0  0  0
 28 29  1  0  0  0  0
 30 31  4  0  0  0  0
 30 40  4  0  0  0  0
 31 32  4  0  0  0  0
 31 36  4  0  0  0  0
 32 33  4  0  0  0  0
 32 38  4  0  0  0  0
 33 34  4  0  0  0  0
 34 35  4  0  0  0  0
 34 37  1  0  0  0  0
 35 36  4  0  0  0  0
 38 39  4  0  0  0  0
 39 40  4  0  0  0  0
M  END
>  <Name_Molregno>
436129

>  <DOPAMINE D3>
7.9

$$$$
436130
  Marvin  02231216192D 0   1.00000     0.00000     0

 32 36  0  0  0  0  0  0  0  0999 V2000
   -0.1587   -0.2862    0.0000 S   0  0  0  0  0  0  0  0  0
   -0.9433   -0.5411    0.0000 C   0  0  0  0  0  0  0  0  0
   -0.9433   -1.3661    0.0000 C   0  0  0  0  0  0  0  0  0
   -0.1587   -1.6211    0.0000 N   0  0  0  0  0  0  0  0  0
    0.3262   -0.9536    0.0000 C   0  0  0  0  0  0  0  0  0
    1.1512   -0.9536    0.0000 C   0  0  0  0  0  0  0  0  0
    1.5637   -0.2391    0.0000 C   0  0  0  0  0  0  0  0  0
   -1.6578   -1.7786    0.0000 C   0  0  0  0  0  0  0  0  0
   -2.3722   -1.3661    0.0000 C   0  0  0  0  0  0  0  0  0
   -3.0173   -1.8805    0.0000 C   0  0  0  0  0  0  0  0  0
   -3.8216   -1.6969    0.0000 C   0  0  0  0  0  0  0  0  0
   -4.1795   -0.9536    0.0000 N   0  0  0  0  0  0  0  0  0
   -3.8216   -0.2103    0.0000 C   0  0  0  0  0  0  0  0  0
   -3.0173   -0.0267    0.0000 C   0  0  0  0  0  0  0  0  0
   -2.3722   -0.5411    0.0000 C   0  0  0  0  0  0  0  0  0
   -1.6578   -0.1286    0.0000 C   0  0  0  0  0  0  0  0  0
   -5.0045   -0.9536    0.0000 C   0  0  0  0  0  0  0  0  0
   -5.4170   -0.2391    0.0000 C   0  0  0  0  0  0  0  0  0
   -6.2420   -0.2391    0.0000 C   0  0  0  0  0  0  0  0  0
   -6.6545    0.4753    0.0000 S   0  0  0  0  0  0  0  0  0
   -7.4795    0.4753    0.0000 C   0  0  0  0  0  0  0  0  0
   -7.9644   -0.1921    0.0000 N   0  0  0  0  0  0  0  0  0
   -8.7491    0.0628    0.0000 N   0  0  0  0  0  0  0  0  0
   -8.7491    0.8878    0.0000 C   0  0  0  0  0  0  0  0  0
   -7.9644    1.1428    0.0000 N   0  0  0  0  0  0  0  0  0
   -7.7095    1.9274    0.0000 C   0  0  0  0  0  0  0  0  0
   -9.4165    1.3728    0.0000 C   0  0  0  0  0  0  0  0  0
  -10.2011    1.1178    0.0000 O   0  0  0  0  0  0  0  0  0
  -10.6861    1.7853    0.0000 C   0  0  0  0  0  0  0  0  0
  -10.2011    2.4527    0.0000 N   0  0  0  0  0  0  0  0  0
   -9.4165    2.1978    0.0000 C   0  0  0  0  0  0  0  0  0
   -8.7491    2.6827    0.0000 C   0  0  0  0  0  0  0  0  0
  1  2  4  0  0  0  0
  1  5  4  0  0  0  0
  2  3  4  0  0  0  0
  2 16  4  0  0  0  0
  3  4  4  0  0  0  0
  3  8  4  0  0  0  0
  4  5  4  0  0  0  0
  5  6  1  0  0  0  0
  6  7  1  0  0  0  0
  8  9  4  0  0  0  0
  9 10  1  0  0  0  0
  9 15  4  0  0  0  0
 10 11  1  0  0  0  0
 11 12  1  0  0  0  0
 12 13  1  0  0  0  0
 12 17  1  0  0  0  0
 13 14  1  0  0  0  0
 14 15  1  0  0  0  0
 15 16  4  0  0  0  0
 17 18  1  0  0  0  0
 18 19  1  0  0  0  0
 19 20  1  0  0  0  0
 20 21  1  0  0  0  0
 21 22  4  0  0  0  0
 21 25  4  0  0  0  0
 22 23  4  0  0  0  0
 23 24  4  0  0  0  0
 24 25  4  0  0  0  0
 24 27  1  0  0  0  0
 25 26  1  0  0  0  0
 27 28  4  0  0  0  0
 27 31  4  0  0  0  0
 28 29  4  0  0  0  0
 29 30  4  0  0  0  0
 30 31  4  0  0  0  0
 31 32  1  0  0  0  0
M  END
>  <Name_Molregno>
436130

>  <DOPAMINE D3>
8.4

$$$$
436131
  Marvin  02231216192D 0   1.00000     0.00000     0

 38 43  0  0  0  0  0  0  0  0999 V2000
   -4.8447   -5.2622    0.0000 Br  0  0  0  0  0  0  0  0  0
   -4.1773   -4.7773    0.0000 C   0  0  0  0  0  0  0  0  0
   -4.2635   -3.9568    0.0000 C   0  0  0  0  0  0  0  0  0
   -5.0588   -3.7373    0.0000 C   0  0  0  0  0  0  0  0  0
   -5.3830   -2.9787    0.0000 C   0  0  0  0  0  0  0  0  0
   -4.9921   -2.2522    0.0000 N   0  0  0  0  0  0  0  0  0
   -4.1804   -2.1049    0.0000 C   0  0  0  0  0  0  0  0  0
   -3.5591   -2.6477    0.0000 C   0  0  0  0  0  0  0  0  0
   -3.5961   -3.4719    0.0000 C   0  0  0  0  0  0  0  0  0
   -2.8424   -3.8075    0.0000 C   0  0  0  0  0  0  0  0  0
   -2.7562   -4.6279    0.0000 C   0  0  0  0  0  0  0  0  0
   -2.0887   -5.1129    0.0000 N   0  0  0  0  0  0  0  0  0
   -2.3437   -5.8975    0.0000 C   0  0  0  0  0  0  0  0  0
   -3.1687   -5.8975    0.0000 O   0  0  0  0  0  0  0  0  0
   -3.4236   -5.1129    0.0000 C   0  0  0  0  0  0  0  0  0
   -1.8588   -6.5649    0.0000 C   0  0  0  0  0  0  0  0  0
   -2.1943   -7.3186    0.0000 C   0  0  0  0  0  0  0  0  0
   -5.4770   -1.5848    0.0000 C   0  0  0  0  0  0  0  0  0
   -5.1415   -0.8311    0.0000 C   0  0  0  0  0  0  0  0  0
   -5.6264   -0.1637    0.0000 C   0  0  0  0  0  0  0  0  0
   -5.2908    0.5900    0.0000 S   0  0  0  0  0  0  0  0  0
   -5.7758    1.2574    0.0000 C   0  0  0  0  0  0  0  0  0
   -6.6008    1.2574    0.0000 N   0  0  0  0  0  0  0  0  0
   -6.8557    2.0421    0.0000 N   0  0  0  0  0  0  0  0  0
   -6.1883    2.5270    0.0000 C   0  0  0  0  0  0  0  0  0
   -5.5208    2.0421    0.0000 N   0  0  0  0  0  0  0  0  0
   -4.7362    2.2970    0.0000 C   0  0  0  0  0  0  0  0  0
   -6.1883    3.3520    0.0000 C   0  0  0  0  0  0  0  0  0
   -5.4738    3.7645    0.0000 C   0  0  0  0  0  0  0  0  0
   -5.4738    4.5895    0.0000 C   0  0  0  0  0  0  0  0  0
   -4.7593    5.0020    0.0000 N   0  0  0  0  0  0  0  0  0
   -4.0448    4.5895    0.0000 C   0  0  0  0  0  0  0  0  0
   -4.0448    3.7645    0.0000 C   0  0  0  0  0  0  0  0  0
   -4.7593    3.3520    0.0000 C   0  0  0  0  0  0  0  0  0
   -3.3304    5.0020    0.0000 C   0  0  0  0  0  0  0  0  0
   -6.1883    5.0020    0.0000 C   0  0  0  0  0  0  0  0  0
   -6.9027    4.5895    0.0000 C   0  0  0  0  0  0  0  0  0
   -6.9027    3.7645    0.0000 C   0  0  0  0  0  0  0  0  0
  1  2  1  0  0  0  0
  2  3  4  0  0  0  0
  2 15  4  0  0  0  0
  3  4  1  0  0  0  0
  3  9  4  0  0  0  0
  4  5  1  0  0  0  0
  5  6  1  0  0  0  0
  6  7  1  0  0  0  0
  6 18  1  0  0  0  0
  7  8  1  0  0  0  0
  8  9  1  0  0  0  0
  9 10  4  0  0  0  0
 10 11  4  0  0  0  0
 11 12  4  0  0  0  0
 11 15  4  0  0  0  0
 12 13  4  0  0  0  0
 13 14  4  0  0  0  0
 13 16  1  0  0  0  0
 14 15  4  0  0  0  0
 16 17  1  0  0  0  0
 18 19  1  0  0  0  0
 19 20  1  0  0  0  0
 20 21  1  0  0  0  0
 21 22  1  0  0  0  0
 22 23  4  0  0  0  0
 22 26  4  0  0  0  0
 23 24  4  0  0  0  0
 24 25  4  0  0  0  0
 25 26  4  0  0  0  0
 25 28  1  0  0  0  0
 26 27  1  0  0  0  0
 28 29  4  0  0  0  0
 28 38  4  0  0  0  0
 29 30  4  0  0  0  0
 29 34  4  0  0  0  0
 30 31  4  0  0  0  0
 30 36  4  0  0  0  0
 31 32  4  0  0  0  0
 32 33  4  0  0  0  0
 32 35  1  0  0  0  0
 33 34  4  0  0  0  0
 36 37  4  0  0  0  0
 37 38  4  0  0  0  0
M  END
>  <Name_Molregno>
436131

>  <DOPAMINE D3>
7.2

$$$$
436132
  Marvin  02231216192D 0   1.00000     0.00000     0

 37 42  0  0  0  0  0  0  0  0999 V2000
   -4.9519   -5.3731    0.0000 Br  0  0  0  0  0  0  0  0  0
   -4.2844   -4.8881    0.0000 C   0  0  0  0  0  0  0  0  0
   -4.3707   -4.0677    0.0000 C   0  0  0  0  0  0  0  0  0
   -5.1659   -3.8482    0.0000 C   0  0  0  0  0  0  0  0  0
   -5.4902   -3.0896    0.0000 C   0  0  0  0  0  0  0  0  0
   -5.0992   -2.3631    0.0000 N   0  0  0  0  0  0  0  0  0
   -4.2875   -2.2158    0.0000 C   0  0  0  0  0  0  0  0  0
   -3.6662   -2.7586    0.0000 C   0  0  0  0  0  0  0  0  0
   -3.7032   -3.5827    0.0000 C   0  0  0  0  0  0  0  0  0
   -2.9496   -3.9183    0.0000 C   0  0  0  0  0  0  0  0  0
   -2.8633   -4.7388    0.0000 C   0  0  0  0  0  0  0  0  0
   -2.1959   -5.2237    0.0000 N   0  0  0  0  0  0  0  0  0
   -2.4508   -6.0083    0.0000 C   0  0  0  0  0  0  0  0  0
   -3.2758   -6.0083    0.0000 O   0  0  0  0  0  0  0  0  0
   -3.5308   -5.2237    0.0000 C   0  0  0  0  0  0  0  0  0
   -1.9659   -6.6758    0.0000 C   0  0  0  0  0  0  0  0  0
   -5.5842   -1.6956    0.0000 C   0  0  0  0  0  0  0  0  0
   -5.2486   -0.9420    0.0000 C   0  0  0  0  0  0  0  0  0
   -5.7335   -0.2745    0.0000 C   0  0  0  0  0  0  0  0  0
   -5.3980    0.4792    0.0000 S   0  0  0  0  0  0  0  0  0
   -5.8829    1.1466    0.0000 C   0  0  0  0  0  0  0  0  0
   -6.7079    1.1466    0.0000 N   0  0  0  0  0  0  0  0  0
   -6.9628    1.9312    0.0000 N   0  0  0  0  0  0  0  0  0
   -6.2954    2.4161    0.0000 C   0  0  0  0  0  0  0  0  0
   -5.6280    1.9312    0.0000 N   0  0  0  0  0  0  0  0  0
   -4.8433    2.1861    0.0000 C   0  0  0  0  0  0  0  0  0
   -6.2954    3.2411    0.0000 C   0  0  0  0  0  0  0  0  0
   -5.5809    3.6536    0.0000 C   0  0  0  0  0  0  0  0  0
   -5.5809    4.4786    0.0000 C   0  0  0  0  0  0  0  0  0
   -4.8665    4.8911    0.0000 N   0  0  0  0  0  0  0  0  0
   -4.1520    4.4786    0.0000 C   0  0  0  0  0  0  0  0  0
   -4.1520    3.6536    0.0000 C   0  0  0  0  0  0  0  0  0
   -4.8665    3.2411    0.0000 C   0  0  0  0  0  0  0  0  0
   -3.4375    4.8911    0.0000 C   0  0  0  0  0  0  0  0  0
   -6.2954    4.8911    0.0000 C   0  0  0  0  0  0  0  0  0
   -7.0099    4.4786    0.0000 C   0  0  0  0  0  0  0  0  0
   -7.0099    3.6536    0.0000 C   0  0  0  0  0  0  0  0  0
  1  2  1  0  0  0  0
  2  3  4  0  0  0  0
  2 15  4  0  0  0  0
  3  4  1  0  0  0  0
  3  9  4  0  0  0  0
  4  5  1  0  0  0  0
  5  6  1  0  0  0  0
  6  7  1  0  0  0  0
  6 17  1  0  0  0  0
  7  8  1  0  0  0  0
  8  9  1  0  0  0  0
  9 10  4  0  0  0  0
 10 11  4  0  0  0  0
 11 12  4  0  0  0  0
 11 15  4  0  0  0  0
 12 13  4  0  0  0  0
 13 14  4  0  0  0  0
 13 16  1  0  0  0  0
 14 15  4  0  0  0  0
 17 18  1  0  0  0  0
 18 19  1  0  0  0  0
 19 20  1  0  0  0  0
 20 21  1  0  0  0  0
 21 22  4  0  0  0  0
 21 25  4  0  0  0  0
 22 23  4  0  0  0  0
 23 24  4  0  0  0  0
 24 25  4  0  0  0  0
 24 27  1  0  0  0  0
 25 26  1  0  0  0  0
 27 28  4  0  0  0  0
 27 37  4  0  0  0  0
 28 29  4  0  0  0  0
 28 33  4  0  0  0  0
 29 30  4  0  0  0  0
 29 35  4  0  0  0  0
 30 31  4  0  0  0  0
 31 32  4  0  0  0  0
 31 34  1  0  0  0  0
 32 33  4  0  0  0  0
 35 36  4  0  0  0  0
 36 37  4  0  0  0  0
M  END
>  <Name_Molregno>
436132

>  <DOPAMINE D3>
7.6

$$$$
436133
  Marvin  02231216192D 0   1.00000     0.00000     0

 38 43  0  0  0  0  0  0  0  0999 V2000
    0.6994   -0.2176    0.0000 S   0  0  0  0  0  0  0  0  0
    0.3638   -0.9713    0.0000 C   0  0  0  0  0  0  0  0  0
    0.8487   -1.6387    0.0000 C   0  0  0  0  0  0  0  0  0
    0.5132   -2.3924    0.0000 C   0  0  0  0  0  0  0  0  0
   -0.3073   -2.4786    0.0000 N   0  0  0  0  0  0  0  0  0
   -0.5856   -3.2553    0.0000 C   0  0  0  0  0  0  0  0  0
   -1.3663   -3.5219    0.0000 C   0  0  0  0  0  0  0  0  0
   -2.0616   -3.0778    0.0000 C   0  0  0  0  0  0  0  0  0
   -2.1478   -2.2573    0.0000 C   0  0  0  0  0  0  0  0  0
   -1.5601   -1.6783    0.0000 C   0  0  0  0  0  0  0  0  0
   -0.7410   -1.7768    0.0000 C   0  0  0  0  0  0  0  0  0
   -2.9015   -1.9217    0.0000 C   0  0  0  0  0  0  0  0  0
   -3.5689   -2.4067    0.0000 C   0  0  0  0  0  0  0  0  0
   -4.3759   -2.2351    0.0000 O   0  0  0  0  0  0  0  0  0
   -4.7884   -2.9496    0.0000 C   0  0  0  0  0  0  0  0  0
   -4.2364   -3.5627    0.0000 N   0  0  0  0  0  0  0  0  0
   -3.4827   -3.2271    0.0000 C   0  0  0  0  0  0  0  0  0
   -2.7290   -3.5627    0.0000 C   0  0  0  0  0  0  0  0  0
   -5.6089   -3.0358    0.0000 C   0  0  0  0  0  0  0  0  0
   -5.9444   -3.7895    0.0000 C   0  0  0  0  0  0  0  0  0
   -6.0938   -2.3684    0.0000 C   0  0  0  0  0  0  0  0  0
    0.2144    0.4498    0.0000 C   0  0  0  0  0  0  0  0  0
   -0.6106    0.4498    0.0000 N   0  0  0  0  0  0  0  0  0
   -0.8655    1.2345    0.0000 N   0  0  0  0  0  0  0  0  0
   -0.1981    1.7194    0.0000 C   0  0  0  0  0  0  0  0  0
    0.4694    1.2345    0.0000 N   0  0  0  0  0  0  0  0  0
    1.2540    1.4894    0.0000 C   0  0  0  0  0  0  0  0  0
   -0.1981    2.5444    0.0000 C   0  0  0  0  0  0  0  0  0
    0.5164    2.9569    0.0000 C   0  0  0  0  0  0  0  0  0
    0.5164    3.7819    0.0000 C   0  0  0  0  0  0  0  0  0
    1.2309    4.1944    0.0000 N   0  0  0  0  0  0  0  0  0
    1.9453    3.7819    0.0000 C   0  0  0  0  0  0  0  0  0
    1.9453    2.9569    0.0000 C   0  0  0  0  0  0  0  0  0
    1.2309    2.5444    0.0000 C   0  0  0  0  0  0  0  0  0
    2.6598    4.1944    0.0000 C   0  0  0  0  0  0  0  0  0
   -0.1981    4.1944    0.0000 C   0  0  0  0  0  0  0  0  0
   -0.9125    3.7819    0.0000 C   0  0  0  0  0  0  0  0  0
   -0.9125    2.9569    0.0000 C   0  0  0  0  0  0  0  0  0
  1  2  1  0  0  0  0
  1 22  1  0  0  0  0
  2  3  1  0  0  0  0
  3  4  1  0  0  0  0
  4  5  1  0  0  0  0
  5  6  1  0  0  0  0
  5 11  1  0  0  0  0
  6  7  1  0  0  0  0
  7  8  1  0  0  0  0
  8  9  4  0  0  0  0
  8 18  4  0  0  0  0
  9 10  1  0  0  0  0
  9 12  4  0  0  0  0
 10 11  1  0  0  0  0
 12 13  4  0  0  0  0
 13 14  4  0  0  0  0
 13 17  4  0  0  0  0
 14 15  4  0  0  0  0
 15 16  4  0  0  0  0
 15 19  1  0  0  0  0
 16 17  4  0  0  0  0
 17 18  4  0  0  0  0
 19 20  1  0  0  0  0
 19 21  1  0  0  0  0
 22 23  4  0  0  0  0
 22 26  4  0  0  0  0
 23 24  4  0  0  0  0
 24 25  4  0  0  0  0
 25 26  4  0  0  0  0
 25 28  1  0  0  0  0
 26 27  1  0  0  0  0
 28 29  4  0  0  0  0
 28 38  4  0  0  0  0
 29 30  4  0  0  0  0
 29 34  4  0  0  0  0
 30 31  4  0  0  0  0
 30 36  4  0  0  0  0
 31 32  4  0  0  0  0
 32 33  4  0  0  0  0
 32 35  1  0  0  0  0
 33 34  4  0  0  0  0
 36 37  4  0  0  0  0
 37 38  4  0  0  0  0
M  END
>  <Name_Molregno>
436133

>  <DOPAMINE D3>
8.5

$$$$
436134
  Marvin  02231216192D 0   1.00000     0.00000     0

 33 37  0  0  0  0  0  0  0  0999 V2000
    3.9503   -0.4815    0.0000 S   0  0  0  0  0  0  0  0  0
    3.5378    0.2330    0.0000 C   0  0  0  0  0  0  0  0  0
    2.7128    0.2330    0.0000 C   0  0  0  0  0  0  0  0  0
    2.3003    0.9474    0.0000 C   0  0  0  0  0  0  0  0  0
    1.4753    0.9474    0.0000 N   0  0  0  0  0  0  0  0  0
    1.1173    0.2041    0.0000 C   0  0  0  0  0  0  0  0  0
    0.3130    0.0206    0.0000 C   0  0  0  0  0  0  0  0  0
   -0.3320    0.5349    0.0000 C   0  0  0  0  0  0  0  0  0
   -0.3320    1.3599    0.0000 C   0  0  0  0  0  0  0  0  0
    0.3130    1.8743    0.0000 C   0  0  0  0  0  0  0  0  0
    1.1173    1.6907    0.0000 C   0  0  0  0  0  0  0  0  0
   -1.0465    1.7724    0.0000 C   0  0  0  0  0  0  0  0  0
   -1.7610    1.3599    0.0000 C   0  0  0  0  0  0  0  0  0
   -2.5456    1.6149    0.0000 O   0  0  0  0  0  0  0  0  0
   -3.0305    0.9474    0.0000 C   0  0  0  0  0  0  0  0  0
   -2.5456    0.2800    0.0000 N   0  0  0  0  0  0  0  0  0
   -1.7610    0.5349    0.0000 C   0  0  0  0  0  0  0  0  0
   -1.0465    0.1224    0.0000 C   0  0  0  0  0  0  0  0  0
   -3.8555    0.9474    0.0000 C   0  0  0  0  0  0  0  0  0
   -4.2680    0.2330    0.0000 C   0  0  0  0  0  0  0  0  0
   -4.2680    1.6619    0.0000 C   0  0  0  0  0  0  0  0  0
    4.7753   -0.4815    0.0000 C   0  0  0  0  0  0  0  0  0
    5.2602    0.1859    0.0000 N   0  0  0  0  0  0  0  0  0
    6.0448   -0.0690    0.0000 N   0  0  0  0  0  0  0  0  0
    6.0448   -0.8940    0.0000 C   0  0  0  0  0  0  0  0  0
    5.2602   -1.1489    0.0000 N   0  0  0  0  0  0  0  0  0
    5.0053   -1.9336    0.0000 C   0  0  0  0  0  0  0  0  0
    6.7123   -1.3789    0.0000 C   0  0  0  0  0  0  0  0  0
    7.4969   -1.1240    0.0000 O   0  0  0  0  0  0  0  0  0
    7.9818   -1.7914    0.0000 C   0  0  0  0  0  0  0  0  0
    7.4969   -2.4589    0.0000 N   0  0  0  0  0  0  0  0  0
    6.7123   -2.2039    0.0000 C   0  0  0  0  0  0  0  0  0
    6.0448   -2.6889    0.0000 C   0  0  0  0  0  0  0  0  0
  1  2  1  0  0  0  0
  1 22  1  0  0  0  0
  2  3  1  0  0  0  0
  3  4  1  0  0  0  0
  4  5  1  0  0  0  0
  5  6  1  0  0  0  0
  5 11  1  0  0  0  0
  6  7  1  0  0  0  0
  7  8  1  0  0  0  0
  8  9  4  0  0  0  0
  8 18  4  0  0  0  0
  9 10  1  0  0  0  0
  9 12  4  0  0  0  0
 10 11  1  0  0  0  0
 12 13  4  0  0  0  0
 13 14  4  0  0  0  0
 13 17  4  0  0  0  0
 14 15  4  0  0  0  0
 15 16  4  0  0  0  0
 15 19  1  0  0  0  0
 16 17  4  0  0  0  0
 17 18  4  0  0  0  0
 19 20  1  0  0  0  0
 19 21  1  0  0  0  0
 22 23  4  0  0  0  0
 22 26  4  0  0  0  0
 23 24  4  0  0  0  0
 24 25  4  0  0  0  0
 25 26  4  0  0  0  0
 25 28  1  0  0  0  0
 26 27  1  0  0  0  0
 28 29  4  0  0  0  0
 28 32  4  0  0  0  0
 29 30  4  0  0  0  0
 30 31  4  0  0  0  0
 31 32  4  0  0  0  0
 32 33  1  0  0  0  0
M  END
>  <Name_Molregno>
436134

>  <DOPAMINE D3>
8

$$$$
436135
  Marvin  02231216192D 0   1.00000     0.00000     0

 38 43  0  0  0  0  0  0  0  0999 V2000
    0.6891   -0.2145    0.0000 S   0  0  0  0  0  0  0  0  0
    0.3535   -0.9682    0.0000 C   0  0  0  0  0  0  0  0  0
    0.8385   -1.6356    0.0000 C   0  0  0  0  0  0  0  0  0
    0.5029   -2.3893    0.0000 C   0  0  0  0  0  0  0  0  0
   -0.3176   -2.4756    0.0000 N   0  0  0  0  0  0  0  0  0
   -0.5959   -3.2522    0.0000 C   0  0  0  0  0  0  0  0  0
   -1.3766   -3.5189    0.0000 C   0  0  0  0  0  0  0  0  0
   -2.0718   -3.0747    0.0000 C   0  0  0  0  0  0  0  0  0
   -2.1581   -2.2542    0.0000 C   0  0  0  0  0  0  0  0  0
   -1.5704   -1.6752    0.0000 C   0  0  0  0  0  0  0  0  0
   -0.7513   -1.7737    0.0000 C   0  0  0  0  0  0  0  0  0
   -2.9118   -1.9187    0.0000 C   0  0  0  0  0  0  0  0  0
   -3.5792   -2.4036    0.0000 C   0  0  0  0  0  0  0  0  0
   -4.3862   -2.2321    0.0000 O   0  0  0  0  0  0  0  0  0
   -4.7987   -2.9465    0.0000 C   0  0  0  0  0  0  0  0  0
   -4.2466   -3.5596    0.0000 N   0  0  0  0  0  0  0  0  0
   -3.4930   -3.2241    0.0000 C   0  0  0  0  0  0  0  0  0
   -2.7393   -3.5596    0.0000 C   0  0  0  0  0  0  0  0  0
   -5.6191   -3.0328    0.0000 C   0  0  0  0  0  0  0  0  0
   -5.9547   -3.7865    0.0000 C   0  0  0  0  0  0  0  0  0
   -6.7752   -3.8727    0.0000 C   0  0  0  0  0  0  0  0  0
    0.2042    0.4529    0.0000 C   0  0  0  0  0  0  0  0  0
   -0.6208    0.4529    0.0000 N   0  0  0  0  0  0  0  0  0
   -0.8758    1.2375    0.0000 N   0  0  0  0  0  0  0  0  0
   -0.2083    1.7224    0.0000 C   0  0  0  0  0  0  0  0  0
    0.4591    1.2375    0.0000 N   0  0  0  0  0  0  0  0  0
    1.2437    1.4925    0.0000 C   0  0  0  0  0  0  0  0  0
   -0.2083    2.5474    0.0000 C   0  0  0  0  0  0  0  0  0
    0.5061    2.9599    0.0000 C   0  0  0  0  0  0  0  0  0
    0.5061    3.7849    0.0000 C   0  0  0  0  0  0  0  0  0
    1.2206    4.1974    0.0000 N   0  0  0  0  0  0  0  0  0
    1.9351    3.7849    0.0000 C   0  0  0  0  0  0  0  0  0
    1.9351    2.9599    0.0000 C   0  0  0  0  0  0  0  0  0
    1.2206    2.5474    0.0000 C   0  0  0  0  0  0  0  0  0
    2.6496    4.1974    0.0000 C   0  0  0  0  0  0  0  0  0
   -0.2083    4.1974    0.0000 C   0  0  0  0  0  0  0  0  0
   -0.9228    3.7849    0.0000 C   0  0  0  0  0  0  0  0  0
   -0.9228    2.9599    0.0000 C   0  0  0  0  0  0  0  0  0
  1  2  1  0  0  0  0
  1 22  1  0  0  0  0
  2  3  1  0  0  0  0
  3  4  1  0  0  0  0
  4  5  1  0  0  0  0
  5  6  1  0  0  0  0
  5 11  1  0  0  0  0
  6  7  1  0  0  0  0
  7  8  1  0  0  0  0
  8  9  4  0  0  0  0
  8 18  4  0  0  0  0
  9 10  1  0  0  0  0
  9 12  4  0  0  0  0
 10 11  1  0  0  0  0
 12 13  4  0  0  0  0
 13 14  4  0  0  0  0
 13 17  4  0  0  0  0
 14 15  4  0  0  0  0
 15 16  4  0  0  0  0
 15 19  1  0  0  0  0
 16 17  4  0  0  0  0
 17 18  4  0  0  0  0
 19 20  1  0  0  0  0
 20 21  1  0  0  0  0
 22 23  4  0  0  0  0
 22 26  4  0  0  0  0
 23 24  4  0  0  0  0
 24 25  4  0  0  0  0
 25 26  4  0  0  0  0
 25 28  1  0  0  0  0
 26 27  1  0  0  0  0
 28 29  4  0  0  0  0
 28 38  4  0  0  0  0
 29 30  4  0  0  0  0
 29 34  4  0  0  0  0
 30 31  4  0  0  0  0
 30 36  4  0  0  0  0
 31 32  4  0  0  0  0
 32 33  4  0  0  0  0
 32 35  1  0  0  0  0
 33 34  4  0  0  0  0
 36 37  4  0  0  0  0
 37 38  4  0  0  0  0
M  END
>  <Name_Molregno>
436135

>  <DOPAMINE D3>
8.4

$$$$
436490
  Marvin  02231216192D 0   1.00000     0.00000     0

 24 26  0  0  0  0  0  0  0  0999 V2000
    5.1915    4.1132    0.0000 Cl  0  0  0  0  0  0  0  0  0
    5.1915    3.2882    0.0000 C   0  0  0  0  0  0  0  0  0
    5.9060    2.8757    0.0000 C   0  0  0  0  0  0  0  0  0
    5.9060    2.0507    0.0000 C   0  0  0  0  0  0  0  0  0
    5.1915    1.6382    0.0000 C   0  0  0  0  0  0  0  0  0
    5.1915    0.8132    0.0000 N   0  0  0  0  0  0  0  0  0
    5.9060    0.4007    0.0000 C   0  0  0  0  0  0  0  0  0
    5.9060   -0.4243    0.0000 C   0  0  0  0  0  0  0  0  0
    5.1915   -0.8368    0.0000 N   0  0  0  0  0  0  0  0  0
    4.4771   -0.4243    0.0000 C   0  0  0  0  0  0  0  0  0
    4.4771    0.4007    0.0000 C   0  0  0  0  0  0  0  0  0
    5.1915   -1.6618    0.0000 C   0  0  0  0  0  0  0  0  0
    4.4771   -2.0743    0.0000 C   0  0  0  0  0  0  0  0  0
    4.4771   -2.8993    0.0000 C   0  0  0  0  0  0  0  0  0
    3.7626   -3.3118    0.0000 C   0  0  0  0  0  0  0  0  0
    3.7626   -4.1368    0.0000 O   0  0  0  0  0  0  0  0  0
    4.4771   -4.5493    0.0000 C   0  0  0  0  0  0  0  0  0
    4.4771   -5.3743    0.0000 C   0  0  0  0  0  0  0  0  0
    5.1915   -5.7868    0.0000 F   0  0  0  0  0  0  0  0  0
    3.0481   -2.8993    0.0000 C   0  0  0  0  0  0  0  0  0
    3.0481   -2.0743    0.0000 C   0  0  0  0  0  0  0  0  0
    3.7626   -1.6618    0.0000 C   0  0  0  0  0  0  0  0  0
    4.4771    2.0507    0.0000 C   0  0  0  0  0  0  0  0  0
    4.4771    2.8757    0.0000 C   0  0  0  0  0  0  0  0  0
  1  2  1  0  0  0  0
  2  3  4  0  0  0  0
  2 24  4  0  0  0  0
  3  4  4  0  0  0  0
  4  5  4  0  0  0  0
  5  6  1  0  0  0  0
  5 23  4  0  0  0  0
  6  7  1  0  0  0  0
  6 11  1  0  0  0  0
  7  8  1  0  0  0  0
  8  9  1  0  0  0  0
  9 10  1  0  0  0  0
  9 12  1  0  0  0  0
 10 11  1  0  0  0  0
 12 13  1  0  0  0  0
 13 14  4  0  0  0  0
 13 22  4  0  0  0  0
 14 15  4  0  0  0  0
 15 16  1  0  0  0  0
 15 20  4  0  0  0  0
 16 17  1  0  0  0  0
 17 18  1  0  0  0  0
 18 19  1  0  0  0  0
 20 21  4  0  0  0  0
 21 22  4  0  0  0  0
 23 24  4  0  0  0  0
M  END
>  <Name_Molregno>
436490

>  <DOPAMINE D2>
6.23

>  <DOPAMINE D3>
5.96

$$$$
436491
  Marvin  02231216192D 0   1.00000     0.00000     0

 28 30  0  0  0  0  0  0  0  0999 V2000
    5.9187    4.0417    0.0000 Cl  0  0  0  0  0  0  0  0  0
    5.9187    3.2167    0.0000 C   0  0  0  0  0  0  0  0  0
    6.6332    2.8042    0.0000 C   0  0  0  0  0  0  0  0  0
    6.6332    1.9792    0.0000 C   0  0  0  0  0  0  0  0  0
    5.9187    1.5667    0.0000 C   0  0  0  0  0  0  0  0  0
    5.9187    0.7417    0.0000 N   0  0  0  0  0  0  0  0  0
    6.6332    0.3292    0.0000 C   0  0  0  0  0  0  0  0  0
    6.6332   -0.4958    0.0000 C   0  0  0  0  0  0  0  0  0
    5.9187   -0.9083    0.0000 N   0  0  0  0  0  0  0  0  0
    5.2042   -0.4958    0.0000 C   0  0  0  0  0  0  0  0  0
    5.2042    0.3292    0.0000 C   0  0  0  0  0  0  0  0  0
    5.9187   -1.7333    0.0000 C   0  0  0  0  0  0  0  0  0
    5.2042   -2.1458    0.0000 C   0  0  0  0  0  0  0  0  0
    5.2042   -2.9708    0.0000 C   0  0  0  0  0  0  0  0  0
    4.4898   -3.3833    0.0000 C   0  0  0  0  0  0  0  0  0
    4.4898   -4.2083    0.0000 O   0  0  0  0  0  0  0  0  0
    3.7753   -4.6208    0.0000 C   0  0  0  0  0  0  0  0  0
    3.7753   -2.9708    0.0000 C   0  0  0  0  0  0  0  0  0
    3.0608   -3.3833    0.0000 O   0  0  0  0  0  0  0  0  0
    3.0608   -4.2083    0.0000 C   0  0  0  0  0  0  0  0  0
    3.7753   -2.1458    0.0000 C   0  0  0  0  0  0  0  0  0
    4.4898   -1.7333    0.0000 C   0  0  0  0  0  0  0  0  0
    4.4898   -0.9083    0.0000 O   0  0  0  0  0  0  0  0  0
    3.7753   -0.4958    0.0000 C   0  0  0  0  0  0  0  0  0
    3.0608   -0.9083    0.0000 C   0  0  0  0  0  0  0  0  0
    2.3463   -0.4958    0.0000 F   0  0  0  0  0  0  0  0  0
    5.2042    1.9792    0.0000 C   0  0  0  0  0  0  0  0  0
    5.2042    2.8042    0.0000 C   0  0  0  0  0  0  0  0  0
  1  2  1  0  0  0  0
  2  3  4  0  0  0  0
  2 28  4  0  0  0  0
  3  4  4  0  0  0  0
  4  5  4  0  0  0  0
  5  6  1  0  0  0  0
  5 27  4  0  0  0  0
  6  7  1  0  0  0  0
  6 11  1  0  0  0  0
  7  8  1  0  0  0  0
  8  9  1  0  0  0  0
  9 10  1  0  0  0  0
  9 12  1  0  0  0  0
 10 11  1  0  0  0  0
 12 13  1  0  0  0  0
 13 14  4  0  0  0  0
 13 22  4  0  0  0  0
 14 15  4  0  0  0  0
 15 16  1  0  0  0  0
 15 18  4  0  0  0  0
 16 17  1  0  0  0  0
 18 19  1  0  0  0  0
 18 21  4  0  0  0  0
 19 20  1  0  0  0  0
 21 22  4  0  0  0  0
 22 23  1  0  0  0  0
 23 24  1  0  0  0  0
 24 25  1  0  0  0  0
 25 26  1  0  0  0  0
 27 28  4  0  0  0  0
M  END
>  <Name_Molregno>
436491

>  <DOPAMINE D2>
6.12

>  <DOPAMINE D3>
5.41

$$$$
436529
  Marvin  02231216192D 0   1.00000     0.00000     0

 24 26  0  0  0  0  0  0  0  0999 V2000
    5.5107    3.8583    0.0000 Cl  0  0  0  0  0  0  0  0  0
    5.5107    3.0333    0.0000 C   0  0  0  0  0  0  0  0  0
    6.2252    2.6208    0.0000 C   0  0  0  0  0  0  0  0  0
    6.2252    1.7958    0.0000 C   0  0  0  0  0  0  0  0  0
    5.5107    1.3833    0.0000 C   0  0  0  0  0  0  0  0  0
    5.5107    0.5583    0.0000 N   0  0  0  0  0  0  0  0  0
    6.2252    0.1458    0.0000 C   0  0  0  0  0  0  0  0  0
    6.2252   -0.6792    0.0000 C   0  0  0  0  0  0  0  0  0
    5.5107   -1.0917    0.0000 N   0  0  0  0  0  0  0  0  0
    4.7963   -0.6792    0.0000 C   0  0  0  0  0  0  0  0  0
    4.7963    0.1458    0.0000 C   0  0  0  0  0  0  0  0  0
    5.5107   -1.9167    0.0000 C   0  0  0  0  0  0  0  0  0
    4.7963   -2.3292    0.0000 C   0  0  0  0  0  0  0  0  0
    4.7963   -3.1542    0.0000 C   0  0  0  0  0  0  0  0  0
    4.0818   -3.5667    0.0000 C   0  0  0  0  0  0  0  0  0
    3.3673   -3.1542    0.0000 C   0  0  0  0  0  0  0  0  0
    2.6528   -3.5667    0.0000 O   0  0  0  0  0  0  0  0  0
    2.6528   -4.3917    0.0000 C   0  0  0  0  0  0  0  0  0
    1.9384   -4.8042    0.0000 C   0  0  0  0  0  0  0  0  0
    1.9384   -5.6292    0.0000 F   0  0  0  0  0  0  0  0  0
    3.3673   -2.3292    0.0000 C   0  0  0  0  0  0  0  0  0
    4.0818   -1.9167    0.0000 C   0  0  0  0  0  0  0  0  0
    4.7963    1.7958    0.0000 C   0  0  0  0  0  0  0  0  0
    4.7963    2.6208    0.0000 C   0  0  0  0  0  0  0  0  0
  1  2  1  0  0  0  0
  2  3  4  0  0  0  0
  2 24  4  0  0  0  0
  3  4  4  0  0  0  0
  4  5  4  0  0  0  0
  5  6  1  0  0  0  0
  5 23  4  0  0  0  0
  6  7  1  0  0  0  0
  6 11  1  0  0  0  0
  7  8  1  0  0  0  0
  8  9  1  0  0  0  0
  9 10  1  0  0  0  0
  9 12  1  0  0  0  0
 10 11  1  0  0  0  0
 12 13  1  0  0  0  0
 13 14  4  0  0  0  0
 13 22  4  0  0  0  0
 14 15  4  0  0  0  0
 15 16  4  0  0  0  0
 16 17  1  0  0  0  0
 16 21  4  0  0  0  0
 17 18  1  0  0  0  0
 18 19  1  0  0  0  0
 19 20  1  0  0  0  0
 21 22  4  0  0  0  0
 23 24  4  0  0  0  0
M  END
>  <Name_Molregno>
436529

>  <DOPAMINE D2>
5.96

>  <DOPAMINE D3>
5.96

$$$$
436532
  Marvin  02231216192D 0   1.00000     0.00000     0

 29 31  0  0  0  0  0  0  0  0999 V2000
    6.2188    2.4969    0.0000 F   0  0  0  0  0  0  0  0  0
    5.5043    2.0844    0.0000 C   0  0  0  0  0  0  0  0  0
    5.5043    1.2594    0.0000 C   0  0  0  0  0  0  0  0  0
    4.7899    0.8469    0.0000 O   0  0  0  0  0  0  0  0  0
    4.7899    0.0219    0.0000 C   0  0  0  0  0  0  0  0  0
    5.5043   -0.3906    0.0000 C   0  0  0  0  0  0  0  0  0
    5.5043   -1.2156    0.0000 C   0  0  0  0  0  0  0  0  0
    6.2188   -1.6281    0.0000 O   0  0  0  0  0  0  0  0  0
    6.2188   -2.4531    0.0000 C   0  0  0  0  0  0  0  0  0
    4.7899   -1.6281    0.0000 C   0  0  0  0  0  0  0  0  0
    4.7899   -2.4531    0.0000 O   0  0  0  0  0  0  0  0  0
    4.0754   -2.8656    0.0000 C   0  0  0  0  0  0  0  0  0
    4.0754   -1.2156    0.0000 C   0  0  0  0  0  0  0  0  0
    4.0754   -0.3906    0.0000 C   0  0  0  0  0  0  0  0  0
    3.3609    0.0219    0.0000 C   0  0  0  0  0  0  0  0  0
    3.3609    0.8469    0.0000 N   0  0  0  0  0  0  0  0  0
    2.6464    1.2594    0.0000 C   0  0  0  0  0  0  0  0  0
    2.6464    2.0844    0.0000 C   0  0  0  0  0  0  0  0  0
    3.3609    2.4969    0.0000 N   0  0  0  0  0  0  0  0  0
    4.0754    2.0844    0.0000 C   0  0  0  0  0  0  0  0  0
    4.0754    1.2594    0.0000 C   0  0  0  0  0  0  0  0  0
    3.3609    3.3219    0.0000 C   0  0  0  0  0  0  0  0  0
    2.6464    3.7344    0.0000 C   0  0  0  0  0  0  0  0  0
    2.6464    4.5594    0.0000 C   0  0  0  0  0  0  0  0  0
    3.3609    4.9719    0.0000 C   0  0  0  0  0  0  0  0  0
    4.0754    4.5594    0.0000 C   0  0  0  0  0  0  0  0  0
    4.0754    3.7344    0.0000 C   0  0  0  0  0  0  0  0  0
    4.7899    3.3219    0.0000 O   0  0  0  0  0  0  0  0  0
    5.5043    3.7344    0.0000 C   0  0  0  0  0  0  0  0  0
  1  2  1  0  0  0  0
  2  3  1  0  0  0  0
  3  4  1  0  0  0  0
  4  5  1  0  0  0  0
  5  6  4  0  0  0  0
  5 14  4  0  0  0  0
  6  7  4  0  0  0  0
  7  8  1  0  0  0  0
  7 10  4  0  0  0  0
  8  9  1  0  0  0  0
 10 11  1  0  0  0  0
 10 13  4  0  0  0  0
 11 12  1  0  0  0  0
 13 14  4  0  0  0  0
 14 15  1  0  0  0  0
 15 16  1  0  0  0  0
 16 17  1  0  0  0  0
 16 21  1  0  0  0  0
 17 18  1  0  0  0  0
 18 19  1  0  0  0  0
 19 20  1  0  0  0  0
 19 22  1  0  0  0  0
 20 21  1  0  0  0  0
 22 23  4  0  0  0  0
 22 27  4  0  0  0  0
 23 24  4  0  0  0  0
 24 25  4  0  0  0  0
 25 26  4  0  0  0  0
 26 27  4  0  0  0  0
 27 28  1  0  0  0  0
 28 29  1  0  0  0  0
M  END
>  <Name_Molregno>
436532

>  <DOPAMINE D2>
7.03

>  <DOPAMINE D3>
6.48

$$$$
436533
  Marvin  02231216192D 0   1.00000     0.00000     0

 26 28  0  0  0  0  0  0  0  0999 V2000
    5.6667    4.0000    0.0000 Cl  0  0  0  0  0  0  0  0  0
    5.6667    3.1750    0.0000 C   0  0  0  0  0  0  0  0  0
    6.3812    2.7625    0.0000 C   0  0  0  0  0  0  0  0  0
    6.3812    1.9375    0.0000 C   0  0  0  0  0  0  0  0  0
    5.6667    1.5250    0.0000 C   0  0  0  0  0  0  0  0  0
    5.6667    0.7000    0.0000 N   0  0  0  0  0  0  0  0  0
    6.3812    0.2875    0.0000 C   0  0  0  0  0  0  0  0  0
    6.3812   -0.5375    0.0000 C   0  0  0  0  0  0  0  0  0
    5.6667   -0.9500    0.0000 N   0  0  0  0  0  0  0  0  0
    4.9522   -0.5375    0.0000 C   0  0  0  0  0  0  0  0  0
    4.9522    0.2875    0.0000 C   0  0  0  0  0  0  0  0  0
    5.6667   -1.7750    0.0000 C   0  0  0  0  0  0  0  0  0
    4.9522   -2.1875    0.0000 C   0  0  0  0  0  0  0  0  0
    4.9522   -3.0125    0.0000 C   0  0  0  0  0  0  0  0  0
    4.2378   -3.4250    0.0000 C   0  0  0  0  0  0  0  0  0
    4.2378   -4.2500    0.0000 O   0  0  0  0  0  0  0  0  0
    3.5233   -4.6625    0.0000 C   0  0  0  0  0  0  0  0  0
    3.5233   -3.0125    0.0000 C   0  0  0  0  0  0  0  0  0
    2.8088   -3.4250    0.0000 O   0  0  0  0  0  0  0  0  0
    2.8088   -4.2500    0.0000 C   0  0  0  0  0  0  0  0  0
    2.0944   -4.6625    0.0000 C   0  0  0  0  0  0  0  0  0
    2.0944   -5.4875    0.0000 F   0  0  0  0  0  0  0  0  0
    3.5233   -2.1875    0.0000 C   0  0  0  0  0  0  0  0  0
    4.2378   -1.7750    0.0000 C   0  0  0  0  0  0  0  0  0
    4.9522    1.9375    0.0000 C   0  0  0  0  0  0  0  0  0
    4.9522    2.7625    0.0000 C   0  0  0  0  0  0  0  0  0
  1  2  1  0  0  0  0
  2  3  4  0  0  0  0
  2 26  4  0  0  0  0
  3  4  4  0  0  0  0
  4  5  4  0  0  0  0
  5  6  1  0  0  0  0
  5 25  4  0  0  0  0
  6  7  1  0  0  0  0
  6 11  1  0  0  0  0
  7  8  1  0  0  0  0
  8  9  1  0  0  0  0
  9 10  1  0  0  0  0
  9 12  1  0  0  0  0
 10 11  1  0  0  0  0
 12 13  1  0  0  0  0
 13 14  4  0  0  0  0
 13 24  4  0  0  0  0
 14 15  4  0  0  0  0
 15 16  1  0  0  0  0
 15 18  4  0  0  0  0
 16 17  1  0  0  0  0
 18 19  1  0  0  0  0
 18 23  4  0  0  0  0
 19 20  1  0  0  0  0
 20 21  1  0  0  0  0
 21 22  1  0  0  0  0
 23 24  4  0  0  0  0
 25 26  4  0  0  0  0
M  END
>  <Name_Molregno>
436533

>  <DOPAMINE D2>
4.68

>  <DOPAMINE D3>
5.31

$$$$
436535
  Marvin  02231216192D 0   1.00000     0.00000     0

 25 27  0  0  0  0  0  0  0  0999 V2000
    2.9070    4.7966    0.0000 F   0  0  0  0  0  0  0  0  0
    3.6215    4.3841    0.0000 C   0  0  0  0  0  0  0  0  0
    3.6215    3.5591    0.0000 C   0  0  0  0  0  0  0  0  0
    4.3360    3.1466    0.0000 O   0  0  0  0  0  0  0  0  0
    4.3360    2.3216    0.0000 C   0  0  0  0  0  0  0  0  0
    5.0505    1.9091    0.0000 C   0  0  0  0  0  0  0  0  0
    5.0505    1.0841    0.0000 C   0  0  0  0  0  0  0  0  0
    4.3360    0.6716    0.0000 C   0  0  0  0  0  0  0  0  0
    3.6215    1.0841    0.0000 C   0  0  0  0  0  0  0  0  0
    3.6215    1.9091    0.0000 C   0  0  0  0  0  0  0  0  0
    5.7649    0.6716    0.0000 C   0  0  0  0  0  0  0  0  0
    5.7649   -0.1534    0.0000 N   0  0  0  0  0  0  0  0  0
    6.4794   -0.5659    0.0000 C   0  0  0  0  0  0  0  0  0
    6.4794   -1.3909    0.0000 C   0  0  0  0  0  0  0  0  0
    5.7649   -1.8034    0.0000 N   0  0  0  0  0  0  0  0  0
    5.0505   -1.3909    0.0000 C   0  0  0  0  0  0  0  0  0
    5.0505   -0.5659    0.0000 C   0  0  0  0  0  0  0  0  0
    5.7649   -2.6284    0.0000 C   0  0  0  0  0  0  0  0  0
    6.4794   -3.0409    0.0000 C   0  0  0  0  0  0  0  0  0
    6.4794   -3.8659    0.0000 C   0  0  0  0  0  0  0  0  0
    5.7649   -4.2784    0.0000 C   0  0  0  0  0  0  0  0  0
    5.0505   -3.8659    0.0000 C   0  0  0  0  0  0  0  0  0
    5.0505   -3.0409    0.0000 C   0  0  0  0  0  0  0  0  0
    4.3360   -2.6284    0.0000 O   0  0  0  0  0  0  0  0  0
    3.6215   -3.0409    0.0000 C   0  0  0  0  0  0  0  0  0
  1  2  1  0  0  0  0
  2  3  1  0  0  0  0
  3  4  1  0  0  0  0
  4  5  1  0  0  0  0
  5  6  4  0  0  0  0
  5 10  4  0  0  0  0
  6  7  4  0  0  0  0
  7  8  4  0  0  0  0
  7 11  1  0  0  0  0
  8  9  4  0  0  0  0
  9 10  4  0  0  0  0
 11 12  1  0  0  0  0
 12 13  1  0  0  0  0
 12 17  1  0  0  0  0
 13 14  1  0  0  0  0
 14 15  1  0  0  0  0
 15 16  1  0  0  0  0
 15 18  1  0  0  0  0
 16 17  1  0  0  0  0
 18 19  4  0  0  0  0
 18 23  4  0  0  0  0
 19 20  4  0  0  0  0
 20 21  4  0  0  0  0
 21 22  4  0  0  0  0
 22 23  4  0  0  0  0
 23 24  1  0  0  0  0
 24 25  1  0  0  0  0
M  END
>  <Name_Molregno>
436535

>  <DOPAMINE D2>
7.24

>  <DOPAMINE D3>
6.57

$$$$
436577
  Marvin  02231216192D 0   1.00000     0.00000     0

 25 27  0  0  0  0  0  0  0  0999 V2000
    5.5992    4.7467    0.0000 F   0  0  0  0  0  0  0  0  0
    6.3137    4.3342    0.0000 C   0  0  0  0  0  0  0  0  0
    6.3137    3.5092    0.0000 C   0  0  0  0  0  0  0  0  0
    7.0282    3.0967    0.0000 O   0  0  0  0  0  0  0  0  0
    7.0282    2.2717    0.0000 C   0  0  0  0  0  0  0  0  0
    7.7426    1.8592    0.0000 C   0  0  0  0  0  0  0  0  0
    7.7426    1.0342    0.0000 C   0  0  0  0  0  0  0  0  0
    7.0282    0.6217    0.0000 C   0  0  0  0  0  0  0  0  0
    6.3137    1.0342    0.0000 C   0  0  0  0  0  0  0  0  0
    6.3137    1.8592    0.0000 C   0  0  0  0  0  0  0  0  0
    7.0282   -0.2033    0.0000 C   0  0  0  0  0  0  0  0  0
    6.3137   -0.6158    0.0000 N   0  0  0  0  0  0  0  0  0
    6.3137   -1.4408    0.0000 C   0  0  0  0  0  0  0  0  0
    5.5992   -1.8533    0.0000 C   0  0  0  0  0  0  0  0  0
    4.8847   -1.4408    0.0000 N   0  0  0  0  0  0  0  0  0
    4.8847   -0.6158    0.0000 C   0  0  0  0  0  0  0  0  0
    5.5992   -0.2033    0.0000 C   0  0  0  0  0  0  0  0  0
    4.1703   -1.8533    0.0000 C   0  0  0  0  0  0  0  0  0
    4.1703   -2.6783    0.0000 C   0  0  0  0  0  0  0  0  0
    3.4558   -3.0908    0.0000 C   0  0  0  0  0  0  0  0  0
    2.7413   -2.6783    0.0000 C   0  0  0  0  0  0  0  0  0
    2.7413   -1.8533    0.0000 C   0  0  0  0  0  0  0  0  0
    3.4558   -1.4408    0.0000 C   0  0  0  0  0  0  0  0  0
    3.4558   -0.6158    0.0000 O   0  0  0  0  0  0  0  0  0
    2.7413   -0.2033    0.0000 C   0  0  0  0  0  0  0  0  0
  1  2  1  0  0  0  0
  2  3  1  0  0  0  0
  3  4  1  0  0  0  0
  4  5  1  0  0  0  0
  5  6  4  0  0  0  0
  5 10  4  0  0  0  0
  6  7  4  0  0  0  0
  7  8  4  0  0  0  0
  8  9  4  0  0  0  0
  8 11  1  0  0  0  0
  9 10  4  0  0  0  0
 11 12  1  0  0  0  0
 12 13  1  0  0  0  0
 12 17  1  0  0  0  0
 13 14  1  0  0  0  0
 14 15  1  0  0  0  0
 15 16  1  0  0  0  0
 15 18  1  0  0  0  0
 16 17  1  0  0  0  0
 18 19  4  0  0  0  0
 18 23  4  0  0  0  0
 19 20  4  0  0  0  0
 20 21  4  0  0  0  0
 21 22  4  0  0  0  0
 22 23  4  0  0  0  0
 23 24  1  0  0  0  0
 24 25  1  0  0  0  0
M  END
>  <Name_Molregno>
436577

>  <DOPAMINE D2>
6.92

>  <DOPAMINE D3>
7.11

$$$$
436580
  Marvin  02231216192D 0   1.00000     0.00000     0

 27 29  0  0  0  0  0  0  0  0999 V2000
   -3.6585    2.0269    0.0000 F   0  0  0  0  0  0  0  0  0
   -2.9440    1.6144    0.0000 C   0  0  0  0  0  0  0  0  0
   -2.9440    0.7894    0.0000 C   0  0  0  0  0  0  0  0  0
   -2.2295    0.3769    0.0000 O   0  0  0  0  0  0  0  0  0
   -2.2295   -0.4481    0.0000 C   0  0  0  0  0  0  0  0  0
   -1.5151   -0.8606    0.0000 C   0  0  0  0  0  0  0  0  0
   -1.5151   -1.6856    0.0000 C   0  0  0  0  0  0  0  0  0
   -2.2295   -2.0981    0.0000 C   0  0  0  0  0  0  0  0  0
   -2.9440   -1.6856    0.0000 C   0  0  0  0  0  0  0  0  0
   -2.9440   -0.8606    0.0000 C   0  0  0  0  0  0  0  0  0
   -3.6585   -0.4481    0.0000 O   0  0  0  0  0  0  0  0  0
   -4.3729   -0.8606    0.0000 C   0  0  0  0  0  0  0  0  0
   -2.2295   -2.9231    0.0000 C   0  0  0  0  0  0  0  0  0
   -2.9440   -3.3356    0.0000 N   0  0  0  0  0  0  0  0  0
   -2.9440   -4.1606    0.0000 C   0  0  0  0  0  0  0  0  0
   -3.6585   -4.5731    0.0000 C   0  0  0  0  0  0  0  0  0
   -4.3729   -4.1606    0.0000 N   0  0  0  0  0  0  0  0  0
   -4.3729   -3.3356    0.0000 C   0  0  0  0  0  0  0  0  0
   -3.6585   -2.9231    0.0000 C   0  0  0  0  0  0  0  0  0
   -5.0874   -4.5731    0.0000 C   0  0  0  0  0  0  0  0  0
   -5.0874   -5.3981    0.0000 C   0  0  0  0  0  0  0  0  0
   -5.8019   -5.8106    0.0000 C   0  0  0  0  0  0  0  0  0
   -6.5163   -5.3981    0.0000 C   0  0  0  0  0  0  0  0  0
   -6.5163   -4.5731    0.0000 C   0  0  0  0  0  0  0  0  0
   -5.8019   -4.1606    0.0000 C   0  0  0  0  0  0  0  0  0
   -5.8019   -3.3356    0.0000 O   0  0  0  0  0  0  0  0  0
   -6.5163   -2.9231    0.0000 C   0  0  0  0  0  0  0  0  0
  1  2  1  0  0  0  0
  2  3  1  0  0  0  0
  3  4  1  0  0  0  0
  4  5  1  0  0  0  0
  5  6  4  0  0  0  0
  5 10  4  0  0  0  0
  6  7  4  0  0  0  0
  7  8  4  0  0  0  0
  8  9  4  0  0  0  0
  8 13  1  0  0  0  0
  9 10  4  0  0  0  0
 10 11  1  0  0  0  0
 11 12  1  0  0  0  0
 13 14  1  0  0  0  0
 14 15  1  0  0  0  0
 14 19  1  0  0  0  0
 15 16  1  0  0  0  0
 16 17  1  0  0  0  0
 17 18  1  0  0  0  0
 17 20  1  0  0  0  0
 18 19  1  0  0  0  0
 20 21  4  0  0  0  0
 20 25  4  0  0  0  0
 21 22  4  0  0  0  0
 22 23  4  0  0  0  0
 23 24  4  0  0  0  0
 24 25  4  0  0  0  0
 25 26  1  0  0  0  0
 26 27  1  0  0  0  0
M  END
>  <Name_Molregno>
436580

>  <DOPAMINE D2>
6.51

>  <DOPAMINE D3>
5.96

$$$$
440886
  Marvin  02231216192D 0   1.00000     0.00000     0

 23 26  0  0  0  0  0  0  0  0999 V2000
   -4.5697   -2.6882    0.0000 O   0  0  0  0  0  0  0  0  0
   -5.1217   -2.0751    0.0000 C   0  0  0  0  0  0  0  0  0
   -5.9287   -2.2466    0.0000 C   0  0  0  0  0  0  0  0  0
   -6.4807   -1.6335    0.0000 C   0  0  0  0  0  0  0  0  0
   -6.2258   -0.8489    0.0000 C   0  0  0  0  0  0  0  0  0
   -5.4188   -0.6774    0.0000 C   0  0  0  0  0  0  0  0  0
   -4.8668   -1.2905    0.0000 C   0  0  0  0  0  0  0  0  0
   -4.0598   -1.1190    0.0000 N   0  0  0  0  0  0  0  0  0
   -3.8049   -0.3343    0.0000 C   0  0  0  0  0  0  0  0  0
   -2.9979   -0.1628    0.0000 C   0  0  0  0  0  0  0  0  0
   -2.4459   -0.7759    0.0000 N   0  0  0  0  0  0  0  0  0
   -2.7008   -1.5605    0.0000 C   0  0  0  0  0  0  0  0  0
   -3.5078   -1.7321    0.0000 C   0  0  0  0  0  0  0  0  0
   -1.6389   -0.6044    0.0000 C   0  0  0  0  0  0  0  0  0
   -1.3840    0.1802    0.0000 C   0  0  0  0  0  0  0  0  0
   -0.5994    0.4352    0.0000 C   0  0  0  0  0  0  0  0  0
   -0.5994    1.2602    0.0000 N   0  0  0  0  0  0  0  0  0
   -1.3840    1.5151    0.0000 N   0  0  0  0  0  0  0  0  0
   -1.8689    0.8477    0.0000 C   0  0  0  0  0  0  0  0  0
    0.1151    1.6727    0.0000 C   0  0  0  0  0  0  0  0  0
    0.8296    1.2602    0.0000 C   0  0  0  0  0  0  0  0  0
    0.8296    0.4352    0.0000 C   0  0  0  0  0  0  0  0  0
    0.1151    0.0227    0.0000 C   0  0  0  0  0  0  0  0  0
  1  2  1  0  0  0  0
  2  3  4  0  0  0  0
  2  7  4  0  0  0  0
  3  4  4  0  0  0  0
  4  5  4  0  0  0  0
  5  6  4  0  0  0  0
  6  7  4  0  0  0  0
  7  8  1  0  0  0  0
  8  9  1  0  0  0  0
  8 13  1  0  0  0  0
  9 10  1  0  0  0  0
 10 11  1  0  0  0  0
 11 12  1  0  0  0  0
 11 14  1  0  0  0  0
 12 13  1  0  0  0  0
 14 15  1  0  0  0  0
 15 16  4  0  0  0  0
 15 19  4  0  0  0  0
 16 17  4  0  0  0  0
 16 23  4  0  0  0  0
 17 18  4  0  0  0  0
 17 20  4  0  0  0  0
 18 19  4  0  0  0  0
 20 21  4  0  0  0  0
 21 22  4  0  0  0  0
 22 23  4  0  0  0  0
M  END
>  <Name_Molregno>
440886

>  <DOPAMINE D2>
5.34

>  <DOPAMINE D3>
5.66

$$$$
440887
  Marvin  02231216192D 0   1.00000     0.00000     0

 23 26  0  0  0  0  0  0  0  0999 V2000
    0.0748   -0.9429    0.0000 O   0  0  0  0  0  0  0  0  0
    0.8818   -0.7714    0.0000 C   0  0  0  0  0  0  0  0  0
    1.1368    0.0132    0.0000 C   0  0  0  0  0  0  0  0  0
    1.9437    0.1847    0.0000 C   0  0  0  0  0  0  0  0  0
    2.4958   -0.4284    0.0000 C   0  0  0  0  0  0  0  0  0
    3.3027   -0.2568    0.0000 N   0  0  0  0  0  0  0  0  0
    3.5577    0.5278    0.0000 C   0  0  0  0  0  0  0  0  0
    4.3646    0.6993    0.0000 C   0  0  0  0  0  0  0  0  0
    4.9167    0.0862    0.0000 N   0  0  0  0  0  0  0  0  0
    4.6617   -0.6984    0.0000 C   0  0  0  0  0  0  0  0  0
    3.8548   -0.8699    0.0000 C   0  0  0  0  0  0  0  0  0
    5.7237    0.2578    0.0000 C   0  0  0  0  0  0  0  0  0
    5.9786    1.0424    0.0000 C   0  0  0  0  0  0  0  0  0
    6.7632    1.2973    0.0000 C   0  0  0  0  0  0  0  0  0
    6.7632    2.1223    0.0000 N   0  0  0  0  0  0  0  0  0
    5.9786    2.3773    0.0000 N   0  0  0  0  0  0  0  0  0
    5.4937    1.7098    0.0000 C   0  0  0  0  0  0  0  0  0
    7.4777    2.5348    0.0000 C   0  0  0  0  0  0  0  0  0
    8.1922    2.1223    0.0000 C   0  0  0  0  0  0  0  0  0
    8.1922    1.2973    0.0000 C   0  0  0  0  0  0  0  0  0
    7.4777    0.8848    0.0000 C   0  0  0  0  0  0  0  0  0
    2.2408   -1.2130    0.0000 C   0  0  0  0  0  0  0  0  0
    1.4339   -1.3845    0.0000 C   0  0  0  0  0  0  0  0  0
  1  2  1  0  0  0  0
  2  3  4  0  0  0  0
  2 23  4  0  0  0  0
  3  4  4  0  0  0  0
  4  5  4  0  0  0  0
  5  6  1  0  0  0  0
  5 22  4  0  0  0  0
  6  7  1  0  0  0  0
  6 11  1  0  0  0  0
  7  8  1  0  0  0  0
  8  9  1  0  0  0  0
  9 10  1  0  0  0  0
  9 12  1  0  0  0  0
 10 11  1  0  0  0  0
 12 13  1  0  0  0  0
 13 14  4  0  0  0  0
 13 17  4  0  0  0  0
 14 15  4  0  0  0  0
 14 21  4  0  0  0  0
 15 16  4  0  0  0  0
 15 18  4  0  0  0  0
 16 17  4  0  0  0  0
 18 19  4  0  0  0  0
 19 20  4  0  0  0  0
 20 21  4  0  0  0  0
 22 23  4  0  0  0  0
M  END
>  <Name_Molregno>
440887

>  <DOPAMINE D2>
4.63

>  <DOPAMINE D3>
5.47

$$$$
440924
  Marvin  02231216192D 0   1.00000     0.00000     0

 26 29  0  0  0  0  0  0  0  0999 V2000
    4.8293   -5.3497    0.0000 F   0  0  0  0  0  0  0  0  0
    4.4168   -4.6352    0.0000 C   0  0  0  0  0  0  0  0  0
    3.5918   -4.6352    0.0000 C   0  0  0  0  0  0  0  0  0
    3.1793   -3.9207    0.0000 O   0  0  0  0  0  0  0  0  0
    2.3543   -3.9207    0.0000 C   0  0  0  0  0  0  0  0  0
    1.9418   -4.6352    0.0000 C   0  0  0  0  0  0  0  0  0
    1.1168   -4.6352    0.0000 C   0  0  0  0  0  0  0  0  0
    0.7043   -3.9207    0.0000 C   0  0  0  0  0  0  0  0  0
    1.1168   -3.2063    0.0000 C   0  0  0  0  0  0  0  0  0
    1.9418   -3.2063    0.0000 C   0  0  0  0  0  0  0  0  0
    2.3543   -2.4918    0.0000 N   0  0  0  0  0  0  0  0  0
    1.9418   -1.7773    0.0000 C   0  0  0  0  0  0  0  0  0
    2.3543   -1.0629    0.0000 C   0  0  0  0  0  0  0  0  0
    3.1793   -1.0629    0.0000 N   0  0  0  0  0  0  0  0  0
    3.5918   -1.7773    0.0000 C   0  0  0  0  0  0  0  0  0
    3.1793   -2.4918    0.0000 C   0  0  0  0  0  0  0  0  0
    3.5918   -0.3484    0.0000 C   0  0  0  0  0  0  0  0  0
    4.4168   -0.3484    0.0000 C   0  0  0  0  0  0  0  0  0
    4.9017   -1.0158    0.0000 N   0  0  0  0  0  0  0  0  0
    5.6863   -0.7609    0.0000 N   0  0  0  0  0  0  0  0  0
    5.6863    0.0641    0.0000 C   0  0  0  0  0  0  0  0  0
    4.9017    0.3191    0.0000 C   0  0  0  0  0  0  0  0  0
    6.4008    0.4766    0.0000 C   0  0  0  0  0  0  0  0  0
    7.1153    0.0641    0.0000 C   0  0  0  0  0  0  0  0  0
    7.1153   -0.7609    0.0000 C   0  0  0  0  0  0  0  0  0
    6.4008   -1.1734    0.0000 C   0  0  0  0  0  0  0  0  0
  1  2  1  0  0  0  0
  2  3  1  0  0  0  0
  3  4  1  0  0  0  0
  4  5  1  0  0  0  0
  5  6  4  0  0  0  0
  5 10  4  0  0  0  0
  6  7  4  0  0  0  0
  7  8  4  0  0  0  0
  8  9  4  0  0  0  0
  9 10  4  0  0  0  0
 10 11  1  0  0  0  0
 11 12  1  0  0  0  0
 11 16  1  0  0  0  0
 12 13  1  0  0  0  0
 13 14  1  0  0  0  0
 14 15  1  0  0  0  0
 14 17  1  0  0  0  0
 15 16  1  0  0  0  0
 17 18  1  0  0  0  0
 18 19  4  0  0  0  0
 18 22  4  0  0  0  0
 19 20  4  0  0  0  0
 20 21  4  0  0  0  0
 20 26  4  0  0  0  0
 21 22  4  0  0  0  0
 21 23  4  0  0  0  0
 23 24  4  0  0  0  0
 24 25  4  0  0  0  0
 25 26  4  0  0  0  0
M  END
>  <Name_Molregno>
440924

>  <DOPAMINE D2>
7.22

>  <DOPAMINE D3>
6.03

$$$$
440926
  Marvin  02231216192D 0   1.00000     0.00000     0

 26 29  0  0  0  0  0  0  0  0999 V2000
    3.4917   -5.1102    0.0000 F   0  0  0  0  0  0  0  0  0
    3.0792   -4.3957    0.0000 C   0  0  0  0  0  0  0  0  0
    3.4917   -3.6812    0.0000 C   0  0  0  0  0  0  0  0  0
    3.0792   -2.9668    0.0000 O   0  0  0  0  0  0  0  0  0
    3.4917   -2.2523    0.0000 C   0  0  0  0  0  0  0  0  0
    3.0792   -1.5378    0.0000 C   0  0  0  0  0  0  0  0  0
    3.4917   -0.8234    0.0000 C   0  0  0  0  0  0  0  0  0
    4.3167   -0.8234    0.0000 C   0  0  0  0  0  0  0  0  0
    4.7292   -0.1089    0.0000 N   0  0  0  0  0  0  0  0  0
    4.3167    0.6056    0.0000 C   0  0  0  0  0  0  0  0  0
    4.7292    1.3201    0.0000 C   0  0  0  0  0  0  0  0  0
    5.5542    1.3201    0.0000 N   0  0  0  0  0  0  0  0  0
    5.9667    0.6056    0.0000 C   0  0  0  0  0  0  0  0  0
    5.5542   -0.1089    0.0000 C   0  0  0  0  0  0  0  0  0
    5.9667    2.0345    0.0000 C   0  0  0  0  0  0  0  0  0
    6.7917    2.0345    0.0000 C   0  0  0  0  0  0  0  0  0
    7.2766    1.3671    0.0000 N   0  0  0  0  0  0  0  0  0
    8.0612    1.6220    0.0000 N   0  0  0  0  0  0  0  0  0
    8.0612    2.4470    0.0000 C   0  0  0  0  0  0  0  0  0
    7.2766    2.7020    0.0000 C   0  0  0  0  0  0  0  0  0
    8.7757    2.8595    0.0000 C   0  0  0  0  0  0  0  0  0
    9.4902    2.4470    0.0000 C   0  0  0  0  0  0  0  0  0
    9.4902    1.6220    0.0000 C   0  0  0  0  0  0  0  0  0
    8.7757    1.2095    0.0000 C   0  0  0  0  0  0  0  0  0
    4.7292   -1.5378    0.0000 C   0  0  0  0  0  0  0  0  0
    4.3167   -2.2523    0.0000 C   0  0  0  0  0  0  0  0  0
  1  2  1  0  0  0  0
  2  3  1  0  0  0  0
  3  4  1  0  0  0  0
  4  5  1  0  0  0  0
  5  6  4  0  0  0  0
  5 26  4  0  0  0  0
  6  7  4  0  0  0  0
  7  8  4  0  0  0  0
  8  9  1  0  0  0  0
  8 25  4  0  0  0  0
  9 10  1  0  0  0  0
  9 14  1  0  0  0  0
 10 11  1  0  0  0  0
 11 12  1  0  0  0  0
 12 13  1  0  0  0  0
 12 15  1  0  0  0  0
 13 14  1  0  0  0  0
 15 16  1  0  0  0  0
 16 17  4  0  0  0  0
 16 20  4  0  0  0  0
 17 18  4  0  0  0  0
 18 19  4  0  0  0  0
 18 24  4  0  0  0  0
 19 20  4  0  0  0  0
 19 21  4  0  0  0  0
 21 22  4  0  0  0  0
 22 23  4  0  0  0  0
 23 24  4  0  0  0  0
 25 26  4  0  0  0  0
M  END
>  <Name_Molregno>
440926

>  <DOPAMINE D2>
4.41

>  <DOPAMINE D3>
4.82

$$$$
440929
  Marvin  02231216192D 0   1.00000     0.00000     0

 26 29  0  0  0  0  0  0  0  0999 V2000
    0.5855   -2.6575    0.0000 F   0  0  0  0  0  0  0  0  0
    0.8404   -1.8728    0.0000 C   0  0  0  0  0  0  0  0  0
    1.6474   -1.7013    0.0000 C   0  0  0  0  0  0  0  0  0
    1.9023   -0.9167    0.0000 O   0  0  0  0  0  0  0  0  0
    2.7093   -0.7452    0.0000 C   0  0  0  0  0  0  0  0  0
    2.9642    0.0395    0.0000 C   0  0  0  0  0  0  0  0  0
    3.7712    0.2110    0.0000 C   0  0  0  0  0  0  0  0  0
    4.3232   -0.4021    0.0000 C   0  0  0  0  0  0  0  0  0
    5.1302   -0.2306    0.0000 N   0  0  0  0  0  0  0  0  0
    5.3851    0.5540    0.0000 C   0  0  0  0  0  0  0  0  0
    6.1921    0.7256    0.0000 C   0  0  0  0  0  0  0  0  0
    6.7441    0.1125    0.0000 N   0  0  0  0  0  0  0  0  0
    6.4892   -0.6722    0.0000 C   0  0  0  0  0  0  0  0  0
    5.6822   -0.8437    0.0000 C   0  0  0  0  0  0  0  0  0
    7.5511    0.2840    0.0000 C   0  0  0  0  0  0  0  0  0
    7.8061    1.0686    0.0000 C   0  0  0  0  0  0  0  0  0
    8.5907    1.3236    0.0000 C   0  0  0  0  0  0  0  0  0
    8.5907    2.1486    0.0000 N   0  0  0  0  0  0  0  0  0
    7.8061    2.4035    0.0000 N   0  0  0  0  0  0  0  0  0
    7.3211    1.7361    0.0000 C   0  0  0  0  0  0  0  0  0
    9.3051    2.5611    0.0000 C   0  0  0  0  0  0  0  0  0
   10.0196    2.1486    0.0000 C   0  0  0  0  0  0  0  0  0
   10.0196    1.3236    0.0000 C   0  0  0  0  0  0  0  0  0
    9.3051    0.9111    0.0000 C   0  0  0  0  0  0  0  0  0
    4.0683   -1.1867    0.0000 C   0  0  0  0  0  0  0  0  0
    3.2613   -1.3583    0.0000 C   0  0  0  0  0  0  0  0  0
  1  2  1  0  0  0  0
  2  3  1  0  0  0  0
  3  4  1  0  0  0  0
  4  5  1  0  0  0  0
  5  6  4  0  0  0  0
  5 26  4  0  0  0  0
  6  7  4  0  0  0  0
  7  8  4  0  0  0  0
  8  9  1  0  0  0  0
  8 25  4  0  0  0  0
  9 10  1  0  0  0  0
  9 14  1  0  0  0  0
 10 11  1  0  0  0  0
 11 12  1  0  0  0  0
 12 13  1  0  0  0  0
 12 15  1  0  0  0  0
 13 14  1  0  0  0  0
 15 16  1  0  0  0  0
 16 17  4  0  0  0  0
 16 20  4  0  0  0  0
 17 18  4  0  0  0  0
 17 24  4  0  0  0  0
 18 19  4  0  0  0  0
 18 21  4  0  0  0  0
 19 20  4  0  0  0  0
 21 22  4  0  0  0  0
 22 23  4  0  0  0  0
 23 24  4  0  0  0  0
 25 26  4  0  0  0  0
M  END
>  <Name_Molregno>
440929

>  <DOPAMINE D2>
4.14

>  <DOPAMINE D3>
5.06

$$$$
440966
  Marvin  02231216192D 0   1.00000     0.00000     0

 26 29  0  0  0  0  0  0  0  0999 V2000
    2.1859   -2.1290    0.0000 F   0  0  0  0  0  0  0  0  0
    2.4409   -1.3444    0.0000 C   0  0  0  0  0  0  0  0  0
    1.8888   -0.7313    0.0000 C   0  0  0  0  0  0  0  0  0
    2.1438    0.0534    0.0000 O   0  0  0  0  0  0  0  0  0
    1.5917    0.6665    0.0000 C   0  0  0  0  0  0  0  0  0
    0.7848    0.4949    0.0000 C   0  0  0  0  0  0  0  0  0
    0.2327    1.1080    0.0000 C   0  0  0  0  0  0  0  0  0
    0.4877    1.8926    0.0000 C   0  0  0  0  0  0  0  0  0
    1.2947    2.0642    0.0000 C   0  0  0  0  0  0  0  0  0
    1.8467    1.4511    0.0000 C   0  0  0  0  0  0  0  0  0
    2.6537    1.6226    0.0000 N   0  0  0  0  0  0  0  0  0
    2.9086    2.4072    0.0000 C   0  0  0  0  0  0  0  0  0
    3.7156    2.5788    0.0000 C   0  0  0  0  0  0  0  0  0
    4.2676    1.9657    0.0000 N   0  0  0  0  0  0  0  0  0
    4.0127    1.1810    0.0000 C   0  0  0  0  0  0  0  0  0
    3.2057    1.0095    0.0000 C   0  0  0  0  0  0  0  0  0
    5.0746    2.1372    0.0000 C   0  0  0  0  0  0  0  0  0
    5.3295    2.9218    0.0000 C   0  0  0  0  0  0  0  0  0
    6.1141    3.1767    0.0000 C   0  0  0  0  0  0  0  0  0
    6.1141    4.0017    0.0000 N   0  0  0  0  0  0  0  0  0
    5.3295    4.2567    0.0000 N   0  0  0  0  0  0  0  0  0
    4.8446    3.5892    0.0000 C   0  0  0  0  0  0  0  0  0
    6.8286    4.4142    0.0000 C   0  0  0  0  0  0  0  0  0
    7.5431    4.0017    0.0000 C   0  0  0  0  0  0  0  0  0
    7.5431    3.1767    0.0000 C   0  0  0  0  0  0  0  0  0
    6.8286    2.7642    0.0000 C   0  0  0  0  0  0  0  0  0
  1  2  1  0  0  0  0
  2  3  1  0  0  0  0
  3  4  1  0  0  0  0
  4  5  1  0  0  0  0
  5  6  4  0  0  0  0
  5 10  4  0  0  0  0
  6  7  4  0  0  0  0
  7  8  4  0  0  0  0
  8  9  4  0  0  0  0
  9 10  4  0  0  0  0
 10 11  1  0  0  0  0
 11 12  1  0  0  0  0
 11 16  1  0  0  0  0
 12 13  1  0  0  0  0
 13 14  1  0  0  0  0
 14 15  1  0  0  0  0
 14 17  1  0  0  0  0
 15 16  1  0  0  0  0
 17 18  1  0  0  0  0
 18 19  4  0  0  0  0
 18 22  4  0  0  0  0
 19 20  4  0  0  0  0
 19 26  4  0  0  0  0
 20 21  4  0  0  0  0
 20 23  4  0  0  0  0
 21 22  4  0  0  0  0
 23 24  4  0  0  0  0
 24 25  4  0  0  0  0
 25 26  4  0  0  0  0
M  END
>  <Name_Molregno>
440966

>  <DOPAMINE D2>
6.78

>  <DOPAMINE D3>
6.49

$$$$
440968
  Marvin  02231216192D 0   1.00000     0.00000     0

 23 26  0  0  0  0  0  0  0  0999 V2000
    0.1760   -0.3414    0.0000 Br  0  0  0  0  0  0  0  0  0
    0.7280   -0.9545    0.0000 C   0  0  0  0  0  0  0  0  0
    1.5350   -0.7830    0.0000 N   0  0  0  0  0  0  0  0  0
    2.0870   -1.3961    0.0000 C   0  0  0  0  0  0  0  0  0
    2.8940   -1.2245    0.0000 N   0  0  0  0  0  0  0  0  0
    3.1490   -0.4399    0.0000 C   0  0  0  0  0  0  0  0  0
    3.9559   -0.2684    0.0000 C   0  0  0  0  0  0  0  0  0
    4.5080   -0.8815    0.0000 N   0  0  0  0  0  0  0  0  0
    4.2530   -1.6661    0.0000 C   0  0  0  0  0  0  0  0  0
    3.4460   -1.8376    0.0000 C   0  0  0  0  0  0  0  0  0
    5.3149   -0.7100    0.0000 C   0  0  0  0  0  0  0  0  0
    5.5699    0.0747    0.0000 C   0  0  0  0  0  0  0  0  0
    6.3545    0.3296    0.0000 C   0  0  0  0  0  0  0  0  0
    6.3545    1.1546    0.0000 N   0  0  0  0  0  0  0  0  0
    5.5699    1.4095    0.0000 N   0  0  0  0  0  0  0  0  0
    5.0849    0.7421    0.0000 C   0  0  0  0  0  0  0  0  0
    7.0690    1.5671    0.0000 C   0  0  0  0  0  0  0  0  0
    7.7834    1.1546    0.0000 C   0  0  0  0  0  0  0  0  0
    7.7834    0.3296    0.0000 C   0  0  0  0  0  0  0  0  0
    7.0690   -0.0829    0.0000 C   0  0  0  0  0  0  0  0  0
    1.8321   -2.1807    0.0000 C   0  0  0  0  0  0  0  0  0
    1.0251   -2.3522    0.0000 C   0  0  0  0  0  0  0  0  0
    0.4731   -1.7391    0.0000 C   0  0  0  0  0  0  0  0  0
  1  2  1  0  0  0  0
  2  3  4  0  0  0  0
  2 23  4  0  0  0  0
  3  4  4  0  0  0  0
  4  5  1  0  0  0  0
  4 21  4  0  0  0  0
  5  6  1  0  0  0  0
  5 10  1  0  0  0  0
  6  7  1  0  0  0  0
  7  8  1  0  0  0  0
  8  9  1  0  0  0  0
  8 11  1  0  0  0  0
  9 10  1  0  0  0  0
 11 12  1  0  0  0  0
 12 13  4  0  0  0  0
 12 16  4  0  0  0  0
 13 14  4  0  0  0  0
 13 20  4  0  0  0  0
 14 15  4  0  0  0  0
 14 17  4  0  0  0  0
 15 16  4  0  0  0  0
 17 18  4  0  0  0  0
 18 19  4  0  0  0  0
 19 20  4  0  0  0  0
 21 22  4  0  0  0  0
 22 23  4  0  0  0  0
M  END
>  <Name_Molregno>
440968

>  <DOPAMINE D2>
6.75

>  <DOPAMINE D3>
6.39

$$$$
440969
  Marvin  02231216192D 0   1.00000     0.00000     0

 23 26  0  0  0  0  0  0  0  0999 V2000
    0.4528   -2.1037    0.0000 F   0  0  0  0  0  0  0  0  0
    1.2778   -2.1037    0.0000 C   0  0  0  0  0  0  0  0  0
    1.6903   -1.3892    0.0000 N   0  0  0  0  0  0  0  0  0
    2.5153   -1.3892    0.0000 C   0  0  0  0  0  0  0  0  0
    2.9278   -0.6748    0.0000 N   0  0  0  0  0  0  0  0  0
    2.5153    0.0397    0.0000 C   0  0  0  0  0  0  0  0  0
    2.9278    0.7542    0.0000 C   0  0  0  0  0  0  0  0  0
    3.7528    0.7542    0.0000 N   0  0  0  0  0  0  0  0  0
    4.1653    0.0397    0.0000 C   0  0  0  0  0  0  0  0  0
    3.7528   -0.6748    0.0000 C   0  0  0  0  0  0  0  0  0
    4.1653    1.4686    0.0000 C   0  0  0  0  0  0  0  0  0
    4.9903    1.4686    0.0000 C   0  0  0  0  0  0  0  0  0
    5.4753    0.8012    0.0000 N   0  0  0  0  0  0  0  0  0
    6.2599    1.0561    0.0000 N   0  0  0  0  0  0  0  0  0
    6.2599    1.8811    0.0000 C   0  0  0  0  0  0  0  0  0
    5.4753    2.1361    0.0000 C   0  0  0  0  0  0  0  0  0
    6.9743    2.2936    0.0000 C   0  0  0  0  0  0  0  0  0
    7.6888    1.8811    0.0000 C   0  0  0  0  0  0  0  0  0
    7.6888    1.0561    0.0000 C   0  0  0  0  0  0  0  0  0
    6.9743    0.6436    0.0000 C   0  0  0  0  0  0  0  0  0
    2.9278   -2.1037    0.0000 C   0  0  0  0  0  0  0  0  0
    2.5153   -2.8182    0.0000 C   0  0  0  0  0  0  0  0  0
    1.6903   -2.8182    0.0000 C   0  0  0  0  0  0  0  0  0
  1  2  1  0  0  0  0
  2  3  4  0  0  0  0
  2 23  4  0  0  0  0
  3  4  4  0  0  0  0
  4  5  1  0  0  0  0
  4 21  4  0  0  0  0
  5  6  1  0  0  0  0
  5 10  1  0  0  0  0
  6  7  1  0  0  0  0
  7  8  1  0  0  0  0
  8  9  1  0  0  0  0
  8 11  1  0  0  0  0
  9 10  1  0  0  0  0
 11 12  1  0  0  0  0
 12 13  4  0  0  0  0
 12 16  4  0  0  0  0
 13 14  4  0  0  0  0
 14 15  4  0  0  0  0
 14 20  4  0  0  0  0
 15 16  4  0  0  0  0
 15 17  4  0  0  0  0
 17 18  4  0  0  0  0
 18 19  4  0  0  0  0
 19 20  4  0  0  0  0
 21 22  4  0  0  0  0
 22 23  4  0  0  0  0
M  END
>  <Name_Molregno>
440969

>  <DOPAMINE D2>
5.62

>  <DOPAMINE D3>
5.47

$$$$
440970
  Marvin  02231216192D 0   1.00000     0.00000     0

 23 26  0  0  0  0  0  0  0  0999 V2000
    0.4528   -2.1037    0.0000 Br  0  0  0  0  0  0  0  0  0
    1.2778   -2.1037    0.0000 C   0  0  0  0  0  0  0  0  0
    1.6903   -1.3892    0.0000 N   0  0  0  0  0  0  0  0  0
    2.5153   -1.3892    0.0000 C   0  0  0  0  0  0  0  0  0
    2.9278   -0.6748    0.0000 N   0  0  0  0  0  0  0  0  0
    2.5153    0.0397    0.0000 C   0  0  0  0  0  0  0  0  0
    2.9278    0.7542    0.0000 C   0  0  0  0  0  0  0  0  0
    3.7528    0.7542    0.0000 N   0  0  0  0  0  0  0  0  0
    4.1653    0.0397    0.0000 C   0  0  0  0  0  0  0  0  0
    3.7528   -0.6748    0.0000 C   0  0  0  0  0  0  0  0  0
    4.1653    1.4686    0.0000 C   0  0  0  0  0  0  0  0  0
    4.9903    1.4686    0.0000 C   0  0  0  0  0  0  0  0  0
    5.4753    0.8012    0.0000 N   0  0  0  0  0  0  0  0  0
    6.2599    1.0561    0.0000 N   0  0  0  0  0  0  0  0  0
    6.2599    1.8811    0.0000 C   0  0  0  0  0  0  0  0  0
    5.4753    2.1361    0.0000 C   0  0  0  0  0  0  0  0  0
    6.9743    2.2936    0.0000 C   0  0  0  0  0  0  0  0  0
    7.6888    1.8811    0.0000 C   0  0  0  0  0  0  0  0  0
    7.6888    1.0561    0.0000 C   0  0  0  0  0  0  0  0  0
    6.9743    0.6436    0.0000 C   0  0  0  0  0  0  0  0  0
    2.9278   -2.1037    0.0000 C   0  0  0  0  0  0  0  0  0
    2.5153   -2.8182    0.0000 C   0  0  0  0  0  0  0  0  0
    1.6903   -2.8182    0.0000 C   0  0  0  0  0  0  0  0  0
  1  2  1  0  0  0  0
  2  3  4  0  0  0  0
  2 23  4  0  0  0  0
  3  4  4  0  0  0  0
  4  5  1  0  0  0  0
  4 21  4  0  0  0  0
  5  6  1  0  0  0  0
  5 10  1  0  0  0  0
  6  7  1  0  0  0  0
  7  8  1  0  0  0  0
  8  9  1  0  0  0  0
  8 11  1  0  0  0  0
  9 10  1  0  0  0  0
 11 12  1  0  0  0  0
 12 13  4  0  0  0  0
 12 16  4  0  0  0  0
 13 14  4  0  0  0  0
 14 15  4  0  0  0  0
 14 20  4  0  0  0  0
 15 16  4  0  0  0  0
 15 17  4  0  0  0  0
 17 18  4  0  0  0  0
 18 19  4  0  0  0  0
 19 20  4  0  0  0  0
 21 22  4  0  0  0  0
 22 23  4  0  0  0  0
M  END
>  <Name_Molregno>
440970

>  <DOPAMINE D2>
6.16

>  <DOPAMINE D3>
6.03

$$$$
441010
  Marvin  02231216192D 0   1.00000     0.00000     0

 23 26  0  0  0  0  0  0  0  0999 V2000
    0.1760   -0.3414    0.0000 F   0  0  0  0  0  0  0  0  0
    0.7280   -0.9545    0.0000 C   0  0  0  0  0  0  0  0  0
    1.5350   -0.7830    0.0000 N   0  0  0  0  0  0  0  0  0
    2.0870   -1.3961    0.0000 C   0  0  0  0  0  0  0  0  0
    2.8940   -1.2245    0.0000 N   0  0  0  0  0  0  0  0  0
    3.1490   -0.4399    0.0000 C   0  0  0  0  0  0  0  0  0
    3.9559   -0.2684    0.0000 C   0  0  0  0  0  0  0  0  0
    4.5080   -0.8815    0.0000 N   0  0  0  0  0  0  0  0  0
    4.2530   -1.6661    0.0000 C   0  0  0  0  0  0  0  0  0
    3.4460   -1.8376    0.0000 C   0  0  0  0  0  0  0  0  0
    5.3149   -0.7100    0.0000 C   0  0  0  0  0  0  0  0  0
    5.5699    0.0747    0.0000 C   0  0  0  0  0  0  0  0  0
    6.3545    0.3296    0.0000 C   0  0  0  0  0  0  0  0  0
    6.3545    1.1546    0.0000 N   0  0  0  0  0  0  0  0  0
    5.5699    1.4095    0.0000 N   0  0  0  0  0  0  0  0  0
    5.0849    0.7421    0.0000 C   0  0  0  0  0  0  0  0  0
    7.0690    1.5671    0.0000 C   0  0  0  0  0  0  0  0  0
    7.7834    1.1546    0.0000 C   0  0  0  0  0  0  0  0  0
    7.7834    0.3296    0.0000 C   0  0  0  0  0  0  0  0  0
    7.0690   -0.0829    0.0000 C   0  0  0  0  0  0  0  0  0
    1.8321   -2.1807    0.0000 C   0  0  0  0  0  0  0  0  0
    1.0251   -2.3522    0.0000 C   0  0  0  0  0  0  0  0  0
    0.4731   -1.7391    0.0000 C   0  0  0  0  0  0  0  0  0
  1  2  1  0  0  0  0
  2  3  4  0  0  0  0
  2 23  4  0  0  0  0
  3  4  4  0  0  0  0
  4  5  1  0  0  0  0
  4 21  4  0  0  0  0
  5  6  1  0  0  0  0
  5 10  1  0  0  0  0
  6  7  1  0  0  0  0
  7  8  1  0  0  0  0
  8  9  1  0  0  0  0
  8 11  1  0  0  0  0
  9 10  1  0  0  0  0
 11 12  1  0  0  0  0
 12 13  4  0  0  0  0
 12 16  4  0  0  0  0
 13 14  4  0  0  0  0
 13 20  4  0  0  0  0
 14 15  4  0  0  0  0
 14 17  4  0  0  0  0
 15 16  4  0  0  0  0
 17 18  4  0  0  0  0
 18 19  4  0  0  0  0
 19 20  4  0  0  0  0
 21 22  4  0  0  0  0
 22 23  4  0  0  0  0
M  END
>  <Name_Molregno>
441010

>  <DOPAMINE D2>
6.57

>  <DOPAMINE D3>
6.23

$$$$
441893
  Marvin  02231216192D 0   1.00000     0.00000     0

 29 32  0  0  0  0  0  0  0  0999 V2000
   -8.3619    0.0128    0.0000 O   0  0  0  0  0  0  0  0  0
   -9.0763   -0.3997    0.0000 C   0  0  0  0  0  0  0  0  0
   -8.3619    0.8378    0.0000 C   0  0  0  0  0  0  0  0  0
   -9.0763    1.2503    0.0000 C   0  0  0  0  0  0  0  0  0
   -9.0763    2.0753    0.0000 C   0  0  0  0  0  0  0  0  0
   -8.3619    2.4878    0.0000 C   0  0  0  0  0  0  0  0  0
   -7.6474    2.0753    0.0000 C   0  0  0  0  0  0  0  0  0
   -7.6474    1.2503    0.0000 C   0  0  0  0  0  0  0  0  0
   -6.9329    0.8378    0.0000 N   0  0  0  0  0  0  0  0  0
   -6.2185    1.2503    0.0000 C   0  0  0  0  0  0  0  0  0
   -5.5040    0.8378    0.0000 C   0  0  0  0  0  0  0  0  0
   -5.5040    0.0128    0.0000 N   0  0  0  0  0  0  0  0  0
   -6.2185   -0.3997    0.0000 C   0  0  0  0  0  0  0  0  0
   -6.9329    0.0128    0.0000 C   0  0  0  0  0  0  0  0  0
   -4.7895   -0.3997    0.0000 C   0  0  0  0  0  0  0  0  0
   -4.0750    0.0128    0.0000 C   0  0  0  0  0  0  0  0  0
   -3.3606   -0.3997    0.0000 C   0  0  0  0  0  0  0  0  0
   -2.6461    0.0128    0.0000 C   0  0  0  0  0  0  0  0  0
   -1.9316   -0.3997    0.0000 N   0  0  0  0  0  0  0  0  0
   -1.2172    0.0128    0.0000 C   0  0  0  0  0  0  0  0  0
   -0.5027   -0.3997    0.0000 N   0  0  0  0  0  0  0  0  0
    0.2118    0.0128    0.0000 C   0  0  0  0  0  0  0  0  0
    0.2118    0.8378    0.0000 C   0  0  0  0  0  0  0  0  0
   -0.5027    1.2503    0.0000 C   0  0  0  0  0  0  0  0  0
   -1.2172    0.8378    0.0000 C   0  0  0  0  0  0  0  0  0
    0.9263    1.2503    0.0000 C   0  0  0  0  0  0  0  0  0
    1.6407    0.8378    0.0000 C   0  0  0  0  0  0  0  0  0
    1.6407    0.0128    0.0000 C   0  0  0  0  0  0  0  0  0
    0.9263   -0.3997    0.0000 C   0  0  0  0  0  0  0  0  0
  1  2  1  0  0  0  0
  1  3  1  0  0  0  0
  3  4  4  0  0  0  0
  3  8  4  0  0  0  0
  4  5  4  0  0  0  0
  5  6  4  0  0  0  0
  6  7  4  0  0  0  0
  7  8  4  0  0  0  0
  8  9  1  0  0  0  0
  9 10  1  0  0  0  0
  9 14  1  0  0  0  0
 10 11  1  0  0  0  0
 11 12  1  0  0  0  0
 12 13  1  0  0  0  0
 12 15  1  0  0  0  0
 13 14  1  0  0  0  0
 15 16  1  0  0  0  0
 16 17  1  0  0  0  0
 17 18  1  0  0  0  0
 18 19  1  0  0  0  0
 19 20  1  0  0  0  0
 20 21  4  0  0  0  0
 20 25  4  0  0  0  0
 21 22  4  0  0  0  0
 22 23  4  0  0  0  0
 22 29  4  0  0  0  0
 23 24  4  0  0  0  0
 23 26  4  0  0  0  0
 24 25  4  0  0  0  0
 26 27  4  0  0  0  0
 27 28  4  0  0  0  0
 28 29  4  0  0  0  0
M  END
>  <Name_Molregno>
441893

>  <5-HT1A>
7.01

>  <Alpha-1A>
8.22

>  <DOPAMINE D2>
8.25

>  <DOPAMINE D3>
7.82

$$$$
470391
  Marvin  02231216192D 0   1.00000     0.00000     0

 26 30  0  0  1  0  0  0  0  0999 V2000
    6.5550   -4.7566    0.0000 Cl  0  0  0  0  0  0  0  0  0
    6.0895   -4.0754    0.0000 C   0  0  0  0  0  0  0  0  0
    5.2669   -4.1380    0.0000 C   0  0  0  0  0  0  0  0  0
    4.8014   -3.4568    0.0000 C   0  0  0  0  0  0  0  0  0
    5.1586   -2.7131    0.0000 C   0  0  0  0  0  0  0  0  0
    5.9812   -2.6506    0.0000 C   0  0  0  0  0  0  0  0  0
    6.4467   -3.3318    0.0000 C   0  0  0  0  0  0  0  0  0
    4.6931   -2.0320    0.0000 C   0  0  0  0  0  0  0  0  0
    3.9081   -2.2857    0.0000 O   0  0  0  0  0  0  0  0  0
    5.2172   -1.3897    0.0000 C   0  0  0  0  0  0  0  0  0
    4.5940   -0.7009    0.0000 C   0  0  0  0  0  0  0  0  0
    4.5559    0.0106    0.0000 N   0  0  0  0  0  0  0  0  0
    4.0359   -0.6299    0.0000 C   0  0  0  0  0  0  0  0  0
    4.6758   -1.3612    0.0000 C   0  0  0  0  0  0  0  0  0
    3.1575   -0.7077    0.0000 C   0  0  0  0  0  0  0  0  0
    3.8496   -0.9264    0.0000 C   0  0  0  0  0  0  0  0  0
    4.8108    0.7952    0.0000 C   0  0  0  0  0  0  0  0  0
    4.2588    1.4083    0.0000 C   0  0  0  0  0  0  0  0  0
    4.4303    2.2153    0.0000 C   0  0  0  0  0  0  0  0  0
    3.7158    2.6278    0.0000 C   0  0  0  0  0  0  0  0  0
    3.1027    2.0758    0.0000 N   0  0  0  0  0  0  0  0  0
    3.4383    1.3221    0.0000 C   0  0  0  0  0  0  0  0  0
    3.7158    3.4528    0.0000 C   0  0  0  0  0  0  0  0  0
    4.4303    3.8653    0.0000 C   0  0  0  0  0  0  0  0  0
    5.1448    3.4528    0.0000 C   0  0  0  0  0  0  0  0  0
    5.1448    2.6278    0.0000 C   0  0  0  0  0  0  0  0  0
  1  2  1  0  0  0  0
  2  3  4  0  0  0  0
  2  7  4  0  0  0  0
  3  4  4  0  0  0  0
  4  5  4  0  0  0  0
  5  6  4  0  0  0  0
  5  8  1  0  0  0  0
  6  7  4  0  0  0  0
  8  9  1  0  0  0  0
  8 10  1  0  0  0  0
  8 14  1  0  0  0  0
 10 11  1  0  0  0  0
 11 12  1  0  0  0  0
 11 16  1  0  0  0  0
 12 13  1  0  0  0  0
 12 17  1  0  0  0  0
 13 14  1  0  0  0  0
 13 15  1  0  0  0  0
 15 16  1  0  0  0  0
 17 18  1  0  0  0  0
 18 19  4  0  0  0  0
 18 22  4  0  0  0  0
 19 20  4  0  0  0  0
 19 26  4  0  0  0  0
 20 21  4  0  0  0  0
 20 23  4  0  0  0  0
 21 22  4  0  0  0  0
 23 24  4  0  0  0  0
 24 25  4  0  0  0  0
 25 26  4  0  0  0  0
M  STY  1   1 DAT
M  SAL   1  1  21
M  SDT   1 MRV_IMPLICIT_H                                        
M  SDD   1     0.0000    0.0000    DR    ALL  0       0  
M  SED   1 IMPL_H1
M  END
>  <Name_Molregno>
470391

>  <DOPAMINE D2>
7.03

>  <DOPAMINE D3>
7.67

>  <DOPAMINE D4>
5.52

$$$$
470392
  Marvin  02231216192D 0   1.00000     0.00000     0

 27 31  0  0  1  0  0  0  0  0999 V2000
   -3.4664   -5.1754    0.0000 Cl  0  0  0  0  0  0  0  0  0
   -3.1092   -4.4317    0.0000 C   0  0  0  0  0  0  0  0  0
   -3.5747   -3.7506    0.0000 C   0  0  0  0  0  0  0  0  0
   -3.2175   -3.0069    0.0000 C   0  0  0  0  0  0  0  0  0
   -2.3949   -2.9443    0.0000 C   0  0  0  0  0  0  0  0  0
   -1.9294   -3.6255    0.0000 C   0  0  0  0  0  0  0  0  0
   -2.2866   -4.3692    0.0000 C   0  0  0  0  0  0  0  0  0
   -1.8211   -5.0503    0.0000 Cl  0  0  0  0  0  0  0  0  0
   -3.6830   -2.3257    0.0000 C   0  0  0  0  0  0  0  0  0
   -4.4680   -2.5795    0.0000 O   0  0  0  0  0  0  0  0  0
   -3.1588   -1.6835    0.0000 C   0  0  0  0  0  0  0  0  0
   -3.7821   -0.9947    0.0000 C   0  0  0  0  0  0  0  0  0
   -3.8202   -0.2831    0.0000 N   0  0  0  0  0  0  0  0  0
   -4.3402   -0.9237    0.0000 C   0  0  0  0  0  0  0  0  0
   -3.7003   -1.6550    0.0000 C   0  0  0  0  0  0  0  0  0
   -5.2186   -1.0015    0.0000 C   0  0  0  0  0  0  0  0  0
   -4.5265   -1.2201    0.0000 C   0  0  0  0  0  0  0  0  0
   -3.5653    0.5015    0.0000 C   0  0  0  0  0  0  0  0  0
   -4.1173    1.1146    0.0000 C   0  0  0  0  0  0  0  0  0
   -3.9458    1.9216    0.0000 C   0  0  0  0  0  0  0  0  0
   -4.6603    2.3341    0.0000 C   0  0  0  0  0  0  0  0  0
   -5.2734    1.7820    0.0000 N   0  0  0  0  0  0  0  0  0
   -4.9378    1.0284    0.0000 C   0  0  0  0  0  0  0  0  0
   -4.6603    3.1591    0.0000 C   0  0  0  0  0  0  0  0  0
   -3.9458    3.5716    0.0000 C   0  0  0  0  0  0  0  0  0
   -3.2313    3.1591    0.0000 C   0  0  0  0  0  0  0  0  0
   -3.2313    2.3341    0.0000 C   0  0  0  0  0  0  0  0  0
  1  2  1  0  0  0  0
  2  3  4  0  0  0  0
  2  7  4  0  0  0  0
  3  4  4  0  0  0  0
  4  5  4  0  0  0  0
  4  9  1  0  0  0  0
  5  6  4  0  0  0  0
  6  7  4  0  0  0  0
  7  8  1  0  0  0  0
  9 10  1  0  0  0  0
  9 11  1  0  0  0  0
  9 15  1  0  0  0  0
 11 12  1  0  0  0  0
 12 13  1  0  0  0  0
 12 17  1  0  0  0  0
 13 14  1  0  0  0  0
 13 18  1  0  0  0  0
 14 15  1  0  0  0  0
 14 16  1  0  0  0  0
 16 17  1  0  0  0  0
 18 19  1  0  0  0  0
 19 20  4  0  0  0  0
 19 23  4  0  0  0  0
 20 21  4  0  0  0  0
 20 27  4  0  0  0  0
 21 22  4  0  0  0  0
 21 24  4  0  0  0  0
 22 23  4  0  0  0  0
 24 25  4  0  0  0  0
 25 26  4  0  0  0  0
 26 27  4  0  0  0  0
M  STY  1   1 DAT
M  SAL   1  1  22
M  SDT   1 MRV_IMPLICIT_H                                        
M  SDD   1     0.0000    0.0000    DR    ALL  0       0  
M  SED   1 IMPL_H1
M  END
>  <Name_Molregno>
470392

>  <DOPAMINE D2>
7.45

>  <DOPAMINE D3>
8.2

$$$$
470393
  Marvin  02231216192D 0   1.00000     0.00000     0

 27 31  0  0  1  0  0  0  0  0999 V2000
   -2.7885   -3.7898    0.0000 Cl  0  0  0  0  0  0  0  0  0
   -1.9658   -3.7273    0.0000 C   0  0  0  0  0  0  0  0  0
   -1.6087   -2.9836    0.0000 C   0  0  0  0  0  0  0  0  0
   -0.7860   -2.9211    0.0000 C   0  0  0  0  0  0  0  0  0
   -0.3206   -3.6022    0.0000 C   0  0  0  0  0  0  0  0  0
   -0.6777   -4.3459    0.0000 C   0  0  0  0  0  0  0  0  0
   -1.5004   -4.4085    0.0000 C   0  0  0  0  0  0  0  0  0
   -1.8575   -5.1521    0.0000 Cl  0  0  0  0  0  0  0  0  0
   -2.0741   -2.3025    0.0000 C   0  0  0  0  0  0  0  0  0
   -2.8592   -2.5562    0.0000 O   0  0  0  0  0  0  0  0  0
   -1.5500   -1.6602    0.0000 C   0  0  0  0  0  0  0  0  0
   -2.1733   -0.9714    0.0000 C   0  0  0  0  0  0  0  0  0
   -2.2114   -0.2598    0.0000 N   0  0  0  0  0  0  0  0  0
   -2.7313   -0.9004    0.0000 C   0  0  0  0  0  0  0  0  0
   -2.0914   -1.6317    0.0000 C   0  0  0  0  0  0  0  0  0
   -3.6097   -0.9782    0.0000 C   0  0  0  0  0  0  0  0  0
   -2.9176   -1.1968    0.0000 C   0  0  0  0  0  0  0  0  0
   -1.9564    0.5248    0.0000 C   0  0  0  0  0  0  0  0  0
   -2.5085    1.1379    0.0000 C   0  0  0  0  0  0  0  0  0
   -2.3370    1.9448    0.0000 C   0  0  0  0  0  0  0  0  0
   -3.0514    2.3573    0.0000 C   0  0  0  0  0  0  0  0  0
   -3.6645    1.8053    0.0000 N   0  0  0  0  0  0  0  0  0
   -3.3290    1.0516    0.0000 C   0  0  0  0  0  0  0  0  0
   -3.0514    3.1823    0.0000 C   0  0  0  0  0  0  0  0  0
   -2.3370    3.5948    0.0000 C   0  0  0  0  0  0  0  0  0
   -1.6225    3.1823    0.0000 C   0  0  0  0  0  0  0  0  0
   -1.6225    2.3573    0.0000 C   0  0  0  0  0  0  0  0  0
  1  2  1  0  0  0  0
  2  3  4  0  0  0  0
  2  7  4  0  0  0  0
  3  4  4  0  0  0  0
  3  9  1  0  0  0  0
  4  5  4  0  0  0  0
  5  6  4  0  0  0  0
  6  7  4  0  0  0  0
  7  8  1  0  0  0  0
  9 10  1  0  0  0  0
  9 11  1  0  0  0  0
  9 15  1  0  0  0  0
 11 12  1  0  0  0  0
 12 13  1  0  0  0  0
 12 17  1  0  0  0  0
 13 14  1  0  0  0  0
 13 18  1  0  0  0  0
 14 15  1  0  0  0  0
 14 16  1  0  0  0  0
 16 17  1  0  0  0  0
 18 19  1  0  0  0  0
 19 20  4  0  0  0  0
 19 23  4  0  0  0  0
 20 21  4  0  0  0  0
 20 27  4  0  0  0  0
 21 22  4  0  0  0  0
 21 24  4  0  0  0  0
 22 23  4  0  0  0  0
 24 25  4  0  0  0  0
 25 26  4  0  0  0  0
 26 27  4  0  0  0  0
M  STY  1   1 DAT
M  SAL   1  1  22
M  SDT   1 MRV_IMPLICIT_H                                        
M  SDD   1     0.0000    0.0000    DR    ALL  0       0  
M  SED   1 IMPL_H1
M  END
>  <Name_Molregno>
470393

>  <DOPAMINE D2>
6.26

>  <DOPAMINE D3>
6.32

$$$$
470394
  Marvin  02231216192D 0   1.00000     0.00000     0

 26 30  0  0  1  0  0  0  0  0999 V2000
    6.5550   -4.7566    0.0000 F   0  0  0  0  0  0  0  0  0
    6.0895   -4.0754    0.0000 C   0  0  0  0  0  0  0  0  0
    5.2669   -4.1380    0.0000 C   0  0  0  0  0  0  0  0  0
    4.8014   -3.4568    0.0000 C   0  0  0  0  0  0  0  0  0
    5.1586   -2.7131    0.0000 C   0  0  0  0  0  0  0  0  0
    5.9812   -2.6506    0.0000 C   0  0  0  0  0  0  0  0  0
    6.4467   -3.3318    0.0000 C   0  0  0  0  0  0  0  0  0
    4.6931   -2.0320    0.0000 C   0  0  0  0  0  0  0  0  0
    3.9081   -2.2857    0.0000 O   0  0  0  0  0  0  0  0  0
    5.2172   -1.3897    0.0000 C   0  0  0  0  0  0  0  0  0
    4.5940   -0.7009    0.0000 C   0  0  0  0  0  0  0  0  0
    4.5559    0.0106    0.0000 N   0  0  0  0  0  0  0  0  0
    4.0359   -0.6299    0.0000 C   0  0  0  0  0  0  0  0  0
    4.6758   -1.3612    0.0000 C   0  0  0  0  0  0  0  0  0
    3.1575   -0.7077    0.0000 C   0  0  0  0  0  0  0  0  0
    3.8496   -0.9264    0.0000 C   0  0  0  0  0  0  0  0  0
    4.8108    0.7952    0.0000 C   0  0  0  0  0  0  0  0  0
    4.2588    1.4083    0.0000 C   0  0  0  0  0  0  0  0  0
    4.4303    2.2153    0.0000 C   0  0  0  0  0  0  0  0  0
    3.7158    2.6278    0.0000 C   0  0  0  0  0  0  0  0  0
    3.1027    2.0758    0.0000 N   0  0  0  0  0  0  0  0  0
    3.4383    1.3221    0.0000 C   0  0  0  0  0  0  0  0  0
    3.7158    3.4528    0.0000 C   0  0  0  0  0  0  0  0  0
    4.4303    3.8653    0.0000 C   0  0  0  0  0  0  0  0  0
    5.1448    3.4528    0.0000 C   0  0  0  0  0  0  0  0  0
    5.1448    2.6278    0.0000 C   0  0  0  0  0  0  0  0  0
  1  2  1  0  0  0  0
  2  3  4  0  0  0  0
  2  7  4  0  0  0  0
  3  4  4  0  0  0  0
  4  5  4  0  0  0  0
  5  6  4  0  0  0  0
  5  8  1  0  0  0  0
  6  7  4  0  0  0  0
  8  9  1  0  0  0  0
  8 10  1  0  0  0  0
  8 14  1  0  0  0  0
 10 11  1  0  0  0  0
 11 12  1  0  0  0  0
 11 16  1  0  0  0  0
 12 13  1  0  0  0  0
 12 17  1  0  0  0  0
 13 14  1  0  0  0  0
 13 15  1  0  0  0  0
 15 16  1  0  0  0  0
 17 18  1  0  0  0  0
 18 19  4  0  0  0  0
 18 22  4  0  0  0  0
 19 20  4  0  0  0  0
 19 26  4  0  0  0  0
 20 21  4  0  0  0  0
 20 23  4  0  0  0  0
 21 22  4  0  0  0  0
 23 24  4  0  0  0  0
 24 25  4  0  0  0  0
 25 26  4  0  0  0  0
M  STY  1   1 DAT
M  SAL   1  1  21
M  SDT   1 MRV_IMPLICIT_H                                        
M  SDD   1     0.0000    0.0000    DR    ALL  0       0  
M  SED   1 IMPL_H1
M  END
>  <Name_Molregno>
470394

>  <DOPAMINE D2>
7.38

>  <DOPAMINE D3>
7.51

$$$$
470395
  Marvin  02231216192D 0   1.00000     0.00000     0

 29 34  0  0  1  0  0  0  0  0999 V2000
    2.8282   -0.1321    0.0000 O   0  0  0  0  0  0  0  0  0
    2.0369    0.1013    0.0000 C   0  0  0  0  0  0  0  0  0
    1.2417   -0.1332    0.0000 C   0  0  0  0  0  0  0  0  0
    1.3677   -1.0536    0.0000 C   0  0  0  0  0  0  0  0  0
    0.9977   -1.6626    0.0000 N   0  0  0  0  0  0  0  0  0
    1.7884   -1.4270    0.0000 C   0  0  0  0  0  0  0  0  0
    1.6727   -0.4622    0.0000 C   0  0  0  0  0  0  0  0  0
    2.5575   -1.8584    0.0000 C   0  0  0  0  0  0  0  0  0
    2.1095   -1.2874    0.0000 C   0  0  0  0  0  0  0  0  0
    0.3445   -2.1665    0.0000 C   0  0  0  0  0  0  0  0  0
    0.4544   -2.9842    0.0000 C   0  0  0  0  0  0  0  0  0
   -0.1425   -3.5537    0.0000 C   0  0  0  0  0  0  0  0  0
    0.2146   -4.2973    0.0000 C   0  0  0  0  0  0  0  0  0
    1.0323   -4.1875    0.0000 N   0  0  0  0  0  0  0  0  0
    1.1805   -3.3759    0.0000 C   0  0  0  0  0  0  0  0  0
   -0.2508   -4.9785    0.0000 C   0  0  0  0  0  0  0  0  0
   -1.0734   -4.9160    0.0000 C   0  0  0  0  0  0  0  0  0
   -1.4306   -4.1723    0.0000 C   0  0  0  0  0  0  0  0  0
   -0.9651   -3.4911    0.0000 C   0  0  0  0  0  0  0  0  0
    2.0369    0.9263    0.0000 C   0  0  0  0  0  0  0  0  0
    2.7513    1.3388    0.0000 C   0  0  0  0  0  0  0  0  0
    2.7513    2.1638    0.0000 C   0  0  0  0  0  0  0  0  0
    2.0369    2.5763    0.0000 C   0  0  0  0  0  0  0  0  0
    1.3224    2.1638    0.0000 C   0  0  0  0  0  0  0  0  0
    1.3224    1.3388    0.0000 C   0  0  0  0  0  0  0  0  0
    2.0369    3.4013    0.0000 C   0  0  0  0  0  0  0  0  0
    2.7513    3.8138    0.0000 C   0  0  0  0  0  0  0  0  0
    3.4658    3.4013    0.0000 C   0  0  0  0  0  0  0  0  0
    3.4658    2.5763    0.0000 C   0  0  0  0  0  0  0  0  0
  1  2  1  0  0  0  0
  2  3  1  0  0  0  0
  2  7  1  0  0  0  0
  2 20  1  0  0  0  0
  3  4  1  0  0  0  0
  4  5  1  0  0  0  0
  4  9  1  0  0  0  0
  5  6  1  0  0  0  0
  5 10  1  0  0  0  0
  6  7  1  0  0  0  0
  6  8  1  0  0  0  0
  8  9  1  0  0  0  0
 10 11  1  0  0  0  0
 11 12  4  0  0  0  0
 11 15  4  0  0  0  0
 12 13  4  0  0  0  0
 12 19  4  0  0  0  0
 13 14  4  0  0  0  0
 13 16  4  0  0  0  0
 14 15  4  0  0  0  0
 16 17  4  0  0  0  0
 17 18  4  0  0  0  0
 18 19  4  0  0  0  0
 20 21  4  0  0  0  0
 20 25  4  0  0  0  0
 21 22  4  0  0  0  0
 22 23  4  0  0  0  0
 22 29  4  0  0  0  0
 23 24  4  0  0  0  0
 23 26  4  0  0  0  0
 24 25  4  0  0  0  0
 26 27  4  0  0  0  0
 27 28  4  0  0  0  0
 28 29  4  0  0  0  0
M  STY  1   1 DAT
M  SAL   1  1  14
M  SDT   1 MRV_IMPLICIT_H                                        
M  SDD   1     0.0000    0.0000    DR    ALL  0       0  
M  SED   1 IMPL_H1
M  END
>  <Name_Molregno>
470395

>  <DOPAMINE D2>
6.71

>  <DOPAMINE D3>
6.65

$$$$
470457
  Marvin  02231216192D 0   1.00000     0.00000     0

 27 31  0  0  1  0  0  0  0  0999 V2000
   -1.2043   -1.9212    0.0000 O   0  0  0  0  0  0  0  0  0
   -0.3816   -1.8586    0.0000 C   0  0  0  0  0  0  0  0  0
   -1.5614   -2.6648    0.0000 C   0  0  0  0  0  0  0  0  0
   -1.0960   -3.3460    0.0000 C   0  0  0  0  0  0  0  0  0
   -1.4531   -4.0897    0.0000 C   0  0  0  0  0  0  0  0  0
   -2.2757   -4.1522    0.0000 C   0  0  0  0  0  0  0  0  0
   -2.7412   -3.4711    0.0000 C   0  0  0  0  0  0  0  0  0
   -2.3841   -2.7274    0.0000 C   0  0  0  0  0  0  0  0  0
   -2.8495   -2.0462    0.0000 C   0  0  0  0  0  0  0  0  0
   -3.6345   -2.3000    0.0000 O   0  0  0  0  0  0  0  0  0
   -2.3254   -1.4040    0.0000 C   0  0  0  0  0  0  0  0  0
   -2.9487   -0.7152    0.0000 C   0  0  0  0  0  0  0  0  0
   -2.9868   -0.0036    0.0000 N   0  0  0  0  0  0  0  0  0
   -3.5067   -0.6442    0.0000 C   0  0  0  0  0  0  0  0  0
   -2.8668   -1.3755    0.0000 C   0  0  0  0  0  0  0  0  0
   -4.3851   -0.7220    0.0000 C   0  0  0  0  0  0  0  0  0
   -3.6930   -0.9406    0.0000 C   0  0  0  0  0  0  0  0  0
   -2.7318    0.7810    0.0000 C   0  0  0  0  0  0  0  0  0
   -3.2839    1.3941    0.0000 C   0  0  0  0  0  0  0  0  0
   -3.1123    2.2011    0.0000 C   0  0  0  0  0  0  0  0  0
   -3.8268    2.6136    0.0000 C   0  0  0  0  0  0  0  0  0
   -4.4399    2.0615    0.0000 N   0  0  0  0  0  0  0  0  0
   -4.1043    1.3079    0.0000 C   0  0  0  0  0  0  0  0  0
   -3.8268    3.4386    0.0000 C   0  0  0  0  0  0  0  0  0
   -3.1123    3.8511    0.0000 C   0  0  0  0  0  0  0  0  0
   -2.3979    3.4386    0.0000 C   0  0  0  0  0  0  0  0  0
   -2.3979    2.6136    0.0000 C   0  0  0  0  0  0  0  0  0
  1  2  1  0  0  0  0
  1  3  1  0  0  0  0
  3  4  4  0  0  0  0
  3  8  4  0  0  0  0
  4  5  4  0  0  0  0
  5  6  4  0  0  0  0
  6  7  4  0  0  0  0
  7  8  4  0  0  0  0
  8  9  1  0  0  0  0
  9 10  1  0  0  0  0
  9 11  1  0  0  0  0
  9 15  1  0  0  0  0
 11 12  1  0  0  0  0
 12 13  1  0  0  0  0
 12 17  1  0  0  0  0
 13 14  1  0  0  0  0
 13 18  1  0  0  0  0
 14 15  1  0  0  0  0
 14 16  1  0  0  0  0
 16 17  1  0  0  0  0
 18 19  1  0  0  0  0
 19 20  4  0  0  0  0
 19 23  4  0  0  0  0
 20 21  4  0  0  0  0
 20 27  4  0  0  0  0
 21 22  4  0  0  0  0
 21 24  4  0  0  0  0
 22 23  4  0  0  0  0
 24 25  4  0  0  0  0
 25 26  4  0  0  0  0
 26 27  4  0  0  0  0
M  STY  1   1 DAT
M  SAL   1  1  22
M  SDT   1 MRV_IMPLICIT_H                                        
M  SDD   1     0.0000    0.0000    DR    ALL  0       0  
M  SED   1 IMPL_H1
M  END
>  <Name_Molregno>
470457

>  <DOPAMINE D2>
5.68

>  <DOPAMINE D3>
5.19

$$$$
470458
  Marvin  02231216192D 0   1.00000     0.00000     0

 27 31  0  0  1  0  0  0  0  0999 V2000
    6.2640   -3.7430    0.0000 S   0  0  0  0  0  0  0  0  0
    7.0867   -3.6805    0.0000 C   0  0  0  0  0  0  0  0  0
    5.7986   -3.0618    0.0000 C   0  0  0  0  0  0  0  0  0
    4.9759   -3.1244    0.0000 C   0  0  0  0  0  0  0  0  0
    4.5105   -2.4432    0.0000 C   0  0  0  0  0  0  0  0  0
    4.8676   -1.6995    0.0000 C   0  0  0  0  0  0  0  0  0
    5.6902   -1.6370    0.0000 C   0  0  0  0  0  0  0  0  0
    6.1557   -2.3182    0.0000 C   0  0  0  0  0  0  0  0  0
    4.4022   -1.0184    0.0000 C   0  0  0  0  0  0  0  0  0
    3.6171   -1.2721    0.0000 O   0  0  0  0  0  0  0  0  0
    4.9263   -0.3761    0.0000 C   0  0  0  0  0  0  0  0  0
    4.3030    0.3127    0.0000 C   0  0  0  0  0  0  0  0  0
    4.2649    1.0242    0.0000 N   0  0  0  0  0  0  0  0  0
    3.7450    0.3837    0.0000 C   0  0  0  0  0  0  0  0  0
    4.3849   -0.3476    0.0000 C   0  0  0  0  0  0  0  0  0
    2.8666    0.3059    0.0000 C   0  0  0  0  0  0  0  0  0
    3.5587    0.0872    0.0000 C   0  0  0  0  0  0  0  0  0
    4.5199    1.8088    0.0000 C   0  0  0  0  0  0  0  0  0
    3.9678    2.4219    0.0000 C   0  0  0  0  0  0  0  0  0
    4.1393    3.2289    0.0000 C   0  0  0  0  0  0  0  0  0
    3.4249    3.6414    0.0000 C   0  0  0  0  0  0  0  0  0
    2.8118    3.0894    0.0000 N   0  0  0  0  0  0  0  0  0
    3.1473    2.3357    0.0000 C   0  0  0  0  0  0  0  0  0
    3.4249    4.4664    0.0000 C   0  0  0  0  0  0  0  0  0
    4.1393    4.8789    0.0000 C   0  0  0  0  0  0  0  0  0
    4.8538    4.4664    0.0000 C   0  0  0  0  0  0  0  0  0
    4.8538    3.6414    0.0000 C   0  0  0  0  0  0  0  0  0
  1  2  1  0  0  0  0
  1  3  1  0  0  0  0
  3  4  4  0  0  0  0
  3  8  4  0  0  0  0
  4  5  4  0  0  0  0
  5  6  4  0  0  0  0
  6  7  4  0  0  0  0
  6  9  1  0  0  0  0
  7  8  4  0  0  0  0
  9 10  1  0  0  0  0
  9 11  1  0  0  0  0
  9 15  1  0  0  0  0
 11 12  1  0  0  0  0
 12 13  1  0  0  0  0
 12 17  1  0  0  0  0
 13 14  1  0  0  0  0
 13 18  1  0  0  0  0
 14 15  1  0  0  0  0
 14 16  1  0  0  0  0
 16 17  1  0  0  0  0
 18 19  1  0  0  0  0
 19 20  4  0  0  0  0
 19 23  4  0  0  0  0
 20 21  4  0  0  0  0
 20 27  4  0  0  0  0
 21 22  4  0  0  0  0
 21 24  4  0  0  0  0
 22 23  4  0  0  0  0
 24 25  4  0  0  0  0
 25 26  4  0  0  0  0
 26 27  4  0  0  0  0
M  STY  1   1 DAT
M  SAL   1  1  22
M  SDT   1 MRV_IMPLICIT_H                                        
M  SDD   1     0.0000    0.0000    DR    ALL  0       0  
M  SED   1 IMPL_H1
M  END
>  <Name_Molregno>
470458

>  <DOPAMINE D2>
6.25

>  <DOPAMINE D3>
6.27

$$$$
470459
  Marvin  02231216192D 0   1.00000     0.00000     0

 26 30  0  0  1  0  0  0  0  0999 V2000
    4.0310   -4.6111    0.0000 Cl  0  0  0  0  0  0  0  0  0
    3.8828   -3.7995    0.0000 C   0  0  0  0  0  0  0  0  0
    3.1059   -3.5220    0.0000 C   0  0  0  0  0  0  0  0  0
    2.9577   -2.7104    0.0000 C   0  0  0  0  0  0  0  0  0
    3.5865   -2.1763    0.0000 C   0  0  0  0  0  0  0  0  0
    4.3634   -2.4538    0.0000 C   0  0  0  0  0  0  0  0  0
    4.5116   -3.2654    0.0000 C   0  0  0  0  0  0  0  0  0
    3.4383   -1.3647    0.0000 C   0  0  0  0  0  0  0  0  0
    2.6179   -1.2772    0.0000 O   0  0  0  0  0  0  0  0  0
    4.1784   -0.9912    0.0000 C   0  0  0  0  0  0  0  0  0
    3.8891   -0.1084    0.0000 C   0  0  0  0  0  0  0  0  0
    4.1437    0.5571    0.0000 N   0  0  0  0  0  0  0  0  0
    3.4082    0.1834    0.0000 C   0  0  0  0  0  0  0  0  0
    3.6953   -0.7449    0.0000 C   0  0  0  0  0  0  0  0  0
    2.5741    0.4696    0.0000 C   0  0  0  0  0  0  0  0  0
    3.1174   -0.0116    0.0000 C   0  0  0  0  0  0  0  0  0
    4.6958    1.1702    0.0000 C   0  0  0  0  0  0  0  0  0
    5.5027    0.9987    0.0000 C   0  0  0  0  0  0  0  0  0
    5.8383    0.2450    0.0000 N   0  0  0  0  0  0  0  0  0
    6.6588    0.3312    0.0000 N   0  0  0  0  0  0  0  0  0
    6.8303    1.1382    0.0000 C   0  0  0  0  0  0  0  0  0
    6.1158    1.5507    0.0000 C   0  0  0  0  0  0  0  0  0
    6.1158    2.3757    0.0000 C   0  0  0  0  0  0  0  0  0
    6.8303    2.7882    0.0000 C   0  0  0  0  0  0  0  0  0
    7.5448    2.3757    0.0000 C   0  0  0  0  0  0  0  0  0
    7.5448    1.5507    0.0000 C   0  0  0  0  0  0  0  0  0
  1  2  1  0  0  0  0
  2  3  4  0  0  0  0
  2  7  4  0  0  0  0
  3  4  4  0  0  0  0
  4  5  4  0  0  0  0
  5  6  4  0  0  0  0
  5  8  1  0  0  0  0
  6  7  4  0  0  0  0
  8  9  1  0  0  0  0
  8 10  1  0  0  0  0
  8 14  1  0  0  0  0
 10 11  1  0  0  0  0
 11 12  1  0  0  0  0
 11 16  1  0  0  0  0
 12 13  1  0  0  0  0
 12 17  1  0  0  0  0
 13 14  1  0  0  0  0
 13 15  1  0  0  0  0
 15 16  1  0  0  0  0
 17 18  1  0  0  0  0
 18 19  4  0  0  0  0
 18 22  4  0  0  0  0
 19 20  4  0  0  0  0
 20 21  4  0  0  0  0
 21 22  4  0  0  0  0
 21 26  4  0  0  0  0
 22 23  4  0  0  0  0
 23 24  4  0  0  0  0
 24 25  4  0  0  0  0
 25 26  4  0  0  0  0
M  STY  1   1 DAT
M  SAL   1  1  20
M  SDT   1 MRV_IMPLICIT_H                                        
M  SDD   1     0.0000    0.0000    DR    ALL  0       0  
M  SED   1 IMPL_H1
M  END
>  <Name_Molregno>
470459

>  <DOPAMINE D2>
6.65

>  <DOPAMINE D3>
7.07

$$$$
470460
  Marvin  02231216192D 0   1.00000     0.00000     0

 28 32  0  0  1  0  0  0  0  0999 V2000
    8.4289   -2.2090    0.0000 Cl  0  0  0  0  0  0  0  0  0
    7.6519   -1.9316    0.0000 C   0  0  0  0  0  0  0  0  0
    7.0232   -2.4657    0.0000 C   0  0  0  0  0  0  0  0  0
    6.2462   -2.1882    0.0000 C   0  0  0  0  0  0  0  0  0
    6.0980   -1.3766    0.0000 C   0  0  0  0  0  0  0  0  0
    6.7268   -0.8425    0.0000 C   0  0  0  0  0  0  0  0  0
    7.5037   -1.1200    0.0000 C   0  0  0  0  0  0  0  0  0
    5.3211   -1.0992    0.0000 C   0  0  0  0  0  0  0  0  0
    4.8351   -1.7659    0.0000 O   0  0  0  0  0  0  0  0  0
    5.3676   -0.2715    0.0000 C   0  0  0  0  0  0  0  0  0
    4.4585   -0.0806    0.0000 C   0  0  0  0  0  0  0  0  0
    4.0094    0.4727    0.0000 N   0  0  0  0  0  0  0  0  0
    3.9653   -0.3512    0.0000 C   0  0  0  0  0  0  0  0  0
    4.9128   -0.5667    0.0000 C   0  0  0  0  0  0  0  0  0
    3.3004   -0.9304    0.0000 C   0  0  0  0  0  0  0  0  0
    3.9888   -0.7005    0.0000 C   0  0  0  0  0  0  0  0  0
    3.7545    1.2573    0.0000 C   0  0  0  0  0  0  0  0  0
    4.3065    1.8704    0.0000 C   0  0  0  0  0  0  0  0  0
    4.1350    2.6774    0.0000 C   0  0  0  0  0  0  0  0  0
    3.4205    3.0899    0.0000 C   0  0  0  0  0  0  0  0  0
    3.4205    3.9149    0.0000 C   0  0  0  0  0  0  0  0  0
    2.7061    4.3274    0.0000 O   0  0  0  0  0  0  0  0  0
    1.9916    3.9149    0.0000 C   0  0  0  0  0  0  0  0  0
    4.1350    4.3274    0.0000 C   0  0  0  0  0  0  0  0  0
    4.8495    3.9149    0.0000 C   0  0  0  0  0  0  0  0  0
    4.8495    3.0899    0.0000 C   0  0  0  0  0  0  0  0  0
    5.4626    2.5378    0.0000 N   0  0  0  0  0  0  0  0  0
    5.1270    1.7842    0.0000 C   0  0  0  0  0  0  0  0  0
  1  2  1  0  0  0  0
  2  3  4  0  0  0  0
  2  7  4  0  0  0  0
  3  4  4  0  0  0  0
  4  5  4  0  0  0  0
  5  6  4  0  0  0  0
  5  8  1  0  0  0  0
  6  7  4  0  0  0  0
  8  9  1  0  0  0  0
  8 10  1  0  0  0  0
  8 14  1  0  0  0  0
 10 11  1  0  0  0  0
 11 12  1  0  0  0  0
 11 16  1  0  0  0  0
 12 13  1  0  0  0  0
 12 17  1  0  0  0  0
 13 14  1  0  0  0  0
 13 15  1  0  0  0  0
 15 16  1  0  0  0  0
 17 18  1  0  0  0  0
 18 19  4  0  0  0  0
 18 28  4  0  0  0  0
 19 20  4  0  0  0  0
 19 26  4  0  0  0  0
 20 21  4  0  0  0  0
 21 22  1  0  0  0  0
 21 24  4  0  0  0  0
 22 23  1  0  0  0  0
 24 25  4  0  0  0  0
 25 26  4  0  0  0  0
 26 27  4  0  0  0  0
 27 28  4  0  0  0  0
M  STY  1   1 DAT
M  SAL   1  1  27
M  SDT   1 MRV_IMPLICIT_H                                        
M  SDD   1     0.0000    0.0000    DR    ALL  0       0  
M  SED   1 IMPL_H1
M  END
>  <Name_Molregno>
470460

>  <DOPAMINE D2>
7.4

>  <DOPAMINE D3>
7.67

$$$$
470461
  Marvin  02231216192D 0   1.00000     0.00000     0

 29 33  0  0  1  0  0  0  0  0999 V2000
   -1.3814   -3.4938    0.0000 S   0  0  0  0  0  0  0  0  0
   -0.7526   -2.9597    0.0000 C   0  0  0  0  0  0  0  0  0
   -2.1583   -3.2163    0.0000 C   0  0  0  0  0  0  0  0  0
   -2.7871   -3.7504    0.0000 C   0  0  0  0  0  0  0  0  0
   -3.5641   -3.4730    0.0000 C   0  0  0  0  0  0  0  0  0
   -3.7122   -2.6614    0.0000 C   0  0  0  0  0  0  0  0  0
   -3.0835   -2.1273    0.0000 C   0  0  0  0  0  0  0  0  0
   -2.3065   -2.4047    0.0000 C   0  0  0  0  0  0  0  0  0
   -4.4892   -2.3839    0.0000 C   0  0  0  0  0  0  0  0  0
   -4.9751   -3.0506    0.0000 O   0  0  0  0  0  0  0  0  0
   -4.4426   -1.5562    0.0000 C   0  0  0  0  0  0  0  0  0
   -5.3518   -1.3654    0.0000 C   0  0  0  0  0  0  0  0  0
   -5.8008   -0.8121    0.0000 N   0  0  0  0  0  0  0  0  0
   -5.8449   -1.6359    0.0000 C   0  0  0  0  0  0  0  0  0
   -4.8974   -1.8514    0.0000 C   0  0  0  0  0  0  0  0  0
   -6.5099   -2.2152    0.0000 C   0  0  0  0  0  0  0  0  0
   -5.8214   -1.9852    0.0000 C   0  0  0  0  0  0  0  0  0
   -6.0558   -0.0275    0.0000 C   0  0  0  0  0  0  0  0  0
   -5.5037    0.5856    0.0000 C   0  0  0  0  0  0  0  0  0
   -5.6753    1.3926    0.0000 C   0  0  0  0  0  0  0  0  0
   -6.3897    1.8051    0.0000 C   0  0  0  0  0  0  0  0  0
   -6.3897    2.6301    0.0000 C   0  0  0  0  0  0  0  0  0
   -7.1042    3.0426    0.0000 O   0  0  0  0  0  0  0  0  0
   -7.8187    2.6301    0.0000 C   0  0  0  0  0  0  0  0  0
   -5.6753    3.0426    0.0000 C   0  0  0  0  0  0  0  0  0
   -4.9608    2.6301    0.0000 C   0  0  0  0  0  0  0  0  0
   -4.9608    1.8051    0.0000 C   0  0  0  0  0  0  0  0  0
   -4.3477    1.2531    0.0000 N   0  0  0  0  0  0  0  0  0
   -4.6833    0.4994    0.0000 C   0  0  0  0  0  0  0  0  0
  1  2  1  0  0  0  0
  1  3  1  0  0  0  0
  3  4  4  0  0  0  0
  3  8  4  0  0  0  0
  4  5  4  0  0  0  0
  5  6  4  0  0  0  0
  6  7  4  0  0  0  0
  6  9  1  0  0  0  0
  7  8  4  0  0  0  0
  9 10  1  0  0  0  0
  9 11  1  0  0  0  0
  9 15  1  0  0  0  0
 11 12  1  0  0  0  0
 12 13  1  0  0  0  0
 12 17  1  0  0  0  0
 13 14  1  0  0  0  0
 13 18  1  0  0  0  0
 14 15  1  0  0  0  0
 14 16  1  0  0  0  0
 16 17  1  0  0  0  0
 18 19  1  0  0  0  0
 19 20  4  0  0  0  0
 19 29  4  0  0  0  0
 20 21  4  0  0  0  0
 20 27  4  0  0  0  0
 21 22  4  0  0  0  0
 22 23  1  0  0  0  0
 22 25  4  0  0  0  0
 23 24  1  0  0  0  0
 25 26  4  0  0  0  0
 26 27  4  0  0  0  0
 27 28  4  0  0  0  0
 28 29  4  0  0  0  0
M  STY  1   1 DAT
M  SAL   1  1  28
M  SDT   1 MRV_IMPLICIT_H                                        
M  SDD   1     0.0000    0.0000    DR    ALL  0       0  
M  SED   1 IMPL_H1
M  END
>  <Name_Molregno>
470461

>  <DOPAMINE D2>
6.26

>  <DOPAMINE D3>
5.92

$$$$
470529
  Marvin  02231216192D 0   1.00000     0.00000     0

 26 30  0  0  1  0  0  0  0  0999 V2000
    6.5550   -4.7566    0.0000 Cl  0  0  0  0  0  0  0  0  0
    6.0895   -4.0754    0.0000 C   0  0  0  0  0  0  0  0  0
    5.2669   -4.1380    0.0000 C   0  0  0  0  0  0  0  0  0
    4.8014   -3.4568    0.0000 C   0  0  0  0  0  0  0  0  0
    5.1586   -2.7131    0.0000 C   0  0  0  0  0  0  0  0  0
    5.9812   -2.6506    0.0000 C   0  0  0  0  0  0  0  0  0
    6.4467   -3.3318    0.0000 C   0  0  0  0  0  0  0  0  0
    4.6931   -2.0320    0.0000 C   0  0  0  0  0  0  0  0  0
    3.9081   -2.2857    0.0000 O   0  0  0  0  0  0  0  0  0
    5.2172   -1.3897    0.0000 C   0  0  0  0  0  0  0  0  0
    4.5940   -0.7009    0.0000 C   0  0  0  0  0  0  0  0  0
    4.5559    0.0106    0.0000 N   0  0  0  0  0  0  0  0  0
    4.0359   -0.6299    0.0000 C   0  0  0  0  0  0  0  0  0
    4.6758   -1.3612    0.0000 C   0  0  0  0  0  0  0  0  0
    3.1575   -0.7077    0.0000 C   0  0  0  0  0  0  0  0  0
    3.8496   -0.9264    0.0000 C   0  0  0  0  0  0  0  0  0
    4.8108    0.7952    0.0000 C   0  0  0  0  0  0  0  0  0
    4.2588    1.4083    0.0000 C   0  0  0  0  0  0  0  0  0
    4.4303    2.2153    0.0000 C   0  0  0  0  0  0  0  0  0
    3.7158    2.6278    0.0000 C   0  0  0  0  0  0  0  0  0
    3.1027    2.0758    0.0000 S   0  0  0  0  0  0  0  0  0
    3.4383    1.3221    0.0000 C   0  0  0  0  0  0  0  0  0
    3.7158    3.4528    0.0000 C   0  0  0  0  0  0  0  0  0
    4.4303    3.8653    0.0000 C   0  0  0  0  0  0  0  0  0
    5.1448    3.4528    0.0000 C   0  0  0  0  0  0  0  0  0
    5.1448    2.6278    0.0000 C   0  0  0  0  0  0  0  0  0
  1  2  1  0  0  0  0
  2  3  4  0  0  0  0
  2  7  4  0  0  0  0
  3  4  4  0  0  0  0
  4  5  4  0  0  0  0
  5  6  4  0  0  0  0
  5  8  1  0  0  0  0
  6  7  4  0  0  0  0
  8  9  1  0  0  0  0
  8 10  1  0  0  0  0
  8 14  1  0  0  0  0
 10 11  1  0  0  0  0
 11 12  1  0  0  0  0
 11 16  1  0  0  0  0
 12 13  1  0  0  0  0
 12 17  1  0  0  0  0
 13 14  1  0  0  0  0
 13 15  1  0  0  0  0
 15 16  1  0  0  0  0
 17 18  1  0  0  0  0
 18 19  4  0  0  0  0
 18 22  4  0  0  0  0
 19 20  4  0  0  0  0
 19 26  4  0  0  0  0
 20 21  4  0  0  0  0
 20 23  4  0  0  0  0
 21 22  4  0  0  0  0
 23 24  4  0  0  0  0
 24 25  4  0  0  0  0
 25 26  4  0  0  0  0
M  END
>  <Name_Molregno>
470529

>  <DOPAMINE D2>
7.89

>  <DOPAMINE D3>
8.44

$$$$
470530
  Marvin  02231216192D 0   1.00000     0.00000     0

 27 31  0  0  1  0  0  0  0  0999 V2000
   -3.4664   -5.1754    0.0000 Cl  0  0  0  0  0  0  0  0  0
   -3.1092   -4.4317    0.0000 C   0  0  0  0  0  0  0  0  0
   -3.5747   -3.7506    0.0000 C   0  0  0  0  0  0  0  0  0
   -3.2175   -3.0069    0.0000 C   0  0  0  0  0  0  0  0  0
   -2.3949   -2.9443    0.0000 C   0  0  0  0  0  0  0  0  0
   -1.9294   -3.6255    0.0000 C   0  0  0  0  0  0  0  0  0
   -2.2866   -4.3692    0.0000 C   0  0  0  0  0  0  0  0  0
   -1.8211   -5.0503    0.0000 Cl  0  0  0  0  0  0  0  0  0
   -3.6830   -2.3257    0.0000 C   0  0  0  0  0  0  0  0  0
   -4.4680   -2.5795    0.0000 O   0  0  0  0  0  0  0  0  0
   -3.1588   -1.6835    0.0000 C   0  0  0  0  0  0  0  0  0
   -3.7821   -0.9947    0.0000 C   0  0  0  0  0  0  0  0  0
   -3.8202   -0.2831    0.0000 N   0  0  0  0  0  0  0  0  0
   -4.3402   -0.9237    0.0000 C   0  0  0  0  0  0  0  0  0
   -3.7003   -1.6550    0.0000 C   0  0  0  0  0  0  0  0  0
   -5.2186   -1.0015    0.0000 C   0  0  0  0  0  0  0  0  0
   -4.5265   -1.2201    0.0000 C   0  0  0  0  0  0  0  0  0
   -3.5653    0.5015    0.0000 C   0  0  0  0  0  0  0  0  0
   -4.1173    1.1146    0.0000 C   0  0  0  0  0  0  0  0  0
   -3.9458    1.9216    0.0000 C   0  0  0  0  0  0  0  0  0
   -4.6603    2.3341    0.0000 C   0  0  0  0  0  0  0  0  0
   -5.2734    1.7820    0.0000 S   0  0  0  0  0  0  0  0  0
   -4.9378    1.0284    0.0000 C   0  0  0  0  0  0  0  0  0
   -4.6603    3.1591    0.0000 C   0  0  0  0  0  0  0  0  0
   -3.9458    3.5716    0.0000 C   0  0  0  0  0  0  0  0  0
   -3.2313    3.1591    0.0000 C   0  0  0  0  0  0  0  0  0
   -3.2313    2.3341    0.0000 C   0  0  0  0  0  0  0  0  0
  1  2  1  0  0  0  0
  2  3  4  0  0  0  0
  2  7  4  0  0  0  0
  3  4  4  0  0  0  0
  4  5  4  0  0  0  0
  4  9  1  0  0  0  0
  5  6  4  0  0  0  0
  6  7  4  0  0  0  0
  7  8  1  0  0  0  0
  9 10  1  0  0  0  0
  9 11  1  0  0  0  0
  9 15  1  0  0  0  0
 11 12  1  0  0  0  0
 12 13  1  0  0  0  0
 12 17  1  0  0  0  0
 13 14  1  0  0  0  0
 13 18  1  0  0  0  0
 14 15  1  0  0  0  0
 14 16  1  0  0  0  0
 16 17  1  0  0  0  0
 18 19  1  0  0  0  0
 19 20  4  0  0  0  0
 19 23  4  0  0  0  0
 20 21  4  0  0  0  0
 20 27  4  0  0  0  0
 21 22  4  0  0  0  0
 21 24  4  0  0  0  0
 22 23  4  0  0  0  0
 24 25  4  0  0  0  0
 25 26  4  0  0  0  0
 26 27  4  0  0  0  0
M  END
>  <Name_Molregno>
470530

>  <DOPAMINE D2>
7.53

>  <DOPAMINE D3>
7.75

$$$$
470531
  Marvin  02231216192D 0   1.00000     0.00000     0

 27 31  0  0  1  0  0  0  0  0999 V2000
   -2.7885   -3.7898    0.0000 Cl  0  0  0  0  0  0  0  0  0
   -1.9658   -3.7273    0.0000 C   0  0  0  0  0  0  0  0  0
   -1.6087   -2.9836    0.0000 C   0  0  0  0  0  0  0  0  0
   -0.7860   -2.9211    0.0000 C   0  0  0  0  0  0  0  0  0
   -0.3206   -3.6022    0.0000 C   0  0  0  0  0  0  0  0  0
   -0.6777   -4.3459    0.0000 C   0  0  0  0  0  0  0  0  0
   -1.5004   -4.4085    0.0000 C   0  0  0  0  0  0  0  0  0
   -1.8575   -5.1521    0.0000 Cl  0  0  0  0  0  0  0  0  0
   -2.0741   -2.3025    0.0000 C   0  0  0  0  0  0  0  0  0
   -2.8592   -2.5562    0.0000 O   0  0  0  0  0  0  0  0  0
   -1.5500   -1.6602    0.0000 C   0  0  0  0  0  0  0  0  0
   -2.1733   -0.9714    0.0000 C   0  0  0  0  0  0  0  0  0
   -2.2114   -0.2598    0.0000 N   0  0  0  0  0  0  0  0  0
   -2.7313   -0.9004    0.0000 C   0  0  0  0  0  0  0  0  0
   -2.0914   -1.6317    0.0000 C   0  0  0  0  0  0  0  0  0
   -3.6097   -0.9782    0.0000 C   0  0  0  0  0  0  0  0  0
   -2.9176   -1.1968    0.0000 C   0  0  0  0  0  0  0  0  0
   -1.9564    0.5248    0.0000 C   0  0  0  0  0  0  0  0  0
   -2.5085    1.1379    0.0000 C   0  0  0  0  0  0  0  0  0
   -2.3370    1.9448    0.0000 C   0  0  0  0  0  0  0  0  0
   -3.0514    2.3573    0.0000 C   0  0  0  0  0  0  0  0  0
   -3.6645    1.8053    0.0000 S   0  0  0  0  0  0  0  0  0
   -3.3290    1.0516    0.0000 C   0  0  0  0  0  0  0  0  0
   -3.0514    3.1823    0.0000 C   0  0  0  0  0  0  0  0  0
   -2.3370    3.5948    0.0000 C   0  0  0  0  0  0  0  0  0
   -1.6225    3.1823    0.0000 C   0  0  0  0  0  0  0  0  0
   -1.6225    2.3573    0.0000 C   0  0  0  0  0  0  0  0  0
  1  2  1  0  0  0  0
  2  3  4  0  0  0  0
  2  7  4  0  0  0  0
  3  4  4  0  0  0  0
  3  9  1  0  0  0  0
  4  5  4  0  0  0  0
  5  6  4  0  0  0  0
  6  7  4  0  0  0  0
  7  8  1  0  0  0  0
  9 10  1  0  0  0  0
  9 11  1  0  0  0  0
  9 15  1  0  0  0  0
 11 12  1  0  0  0  0
 12 13  1  0  0  0  0
 12 17  1  0  0  0  0
 13 14  1  0  0  0  0
 13 18  1  0  0  0  0
 14 15  1  0  0  0  0
 14 16  1  0  0  0  0
 16 17  1  0  0  0  0
 18 19  1  0  0  0  0
 19 20  4  0  0  0  0
 19 23  4  0  0  0  0
 20 21  4  0  0  0  0
 20 27  4  0  0  0  0
 21 22  4  0  0  0  0
 21 24  4  0  0  0  0
 22 23  4  0  0  0  0
 24 25  4  0  0  0  0
 25 26  4  0  0  0  0
 26 27  4  0  0  0  0
M  END
>  <Name_Molregno>
470531

>  <DOPAMINE D2>
6.55

>  <DOPAMINE D3>
6.37

$$$$
470532
  Marvin  02231216192D 0   1.00000     0.00000     0

 26 30  0  0  1  0  0  0  0  0999 V2000
    6.5550   -4.7566    0.0000 Cl  0  0  0  0  0  0  0  0  0
    6.0895   -4.0754    0.0000 C   0  0  0  0  0  0  0  0  0
    5.2669   -4.1380    0.0000 C   0  0  0  0  0  0  0  0  0
    4.8014   -3.4568    0.0000 C   0  0  0  0  0  0  0  0  0
    5.1586   -2.7131    0.0000 C   0  0  0  0  0  0  0  0  0
    5.9812   -2.6506    0.0000 C   0  0  0  0  0  0  0  0  0
    6.4467   -3.3318    0.0000 C   0  0  0  0  0  0  0  0  0
    4.6931   -2.0320    0.0000 C   0  0  0  0  0  0  0  0  0
    3.9081   -2.2857    0.0000 O   0  0  0  0  0  0  0  0  0
    5.2172   -1.3897    0.0000 C   0  0  0  0  0  0  0  0  0
    4.5940   -0.7009    0.0000 C   0  0  0  0  0  0  0  0  0
    4.5559    0.0106    0.0000 N   0  0  0  0  0  0  0  0  0
    4.0359   -0.6299    0.0000 C   0  0  0  0  0  0  0  0  0
    4.6758   -1.3612    0.0000 C   0  0  0  0  0  0  0  0  0
    3.1575   -0.7077    0.0000 C   0  0  0  0  0  0  0  0  0
    3.8496   -0.9264    0.0000 C   0  0  0  0  0  0  0  0  0
    4.8108    0.7952    0.0000 C   0  0  0  0  0  0  0  0  0
    4.2588    1.4083    0.0000 C   0  0  0  0  0  0  0  0  0
    4.4303    2.2153    0.0000 C   0  0  0  0  0  0  0  0  0
    3.7158    2.6278    0.0000 C   0  0  0  0  0  0  0  0  0
    3.1027    2.0758    0.0000 O   0  0  0  0  0  0  0  0  0
    3.4383    1.3221    0.0000 C   0  0  0  0  0  0  0  0  0
    3.7158    3.4528    0.0000 C   0  0  0  0  0  0  0  0  0
    4.4303    3.8653    0.0000 C   0  0  0  0  0  0  0  0  0
    5.1448    3.4528    0.0000 C   0  0  0  0  0  0  0  0  0
    5.1448    2.6278    0.0000 C   0  0  0  0  0  0  0  0  0
  1  2  1  0  0  0  0
  2  3  4  0  0  0  0
  2  7  4  0  0  0  0
  3  4  4  0  0  0  0
  4  5  4  0  0  0  0
  5  6  4  0  0  0  0
  5  8  1  0  0  0  0
  6  7  4  0  0  0  0
  8  9  1  0  0  0  0
  8 10  1  0  0  0  0
  8 14  1  0  0  0  0
 10 11  1  0  0  0  0
 11 12  1  0  0  0  0
 11 16  1  0  0  0  0
 12 13  1  0  0  0  0
 12 17  1  0  0  0  0
 13 14  1  0  0  0  0
 13 15  1  0  0  0  0
 15 16  1  0  0  0  0
 17 18  1  0  0  0  0
 18 19  4  0  0  0  0
 18 22  4  0  0  0  0
 19 20  4  0  0  0  0
 19 26  4  0  0  0  0
 20 21  4  0  0  0  0
 20 23  4  0  0  0  0
 21 22  4  0  0  0  0
 23 24  4  0  0  0  0
 24 25  4  0  0  0  0
 25 26  4  0  0  0  0
M  END
>  <Name_Molregno>
470532

>  <DOPAMINE D2>
8.97

>  <DOPAMINE D3>
9.15

$$$$
470533
  Marvin  02231216192D 0   1.00000     0.00000     0

 27 31  0  0  1  0  0  0  0  0999 V2000
   -3.4664   -5.1754    0.0000 Cl  0  0  0  0  0  0  0  0  0
   -3.1092   -4.4317    0.0000 C   0  0  0  0  0  0  0  0  0
   -3.5747   -3.7506    0.0000 C   0  0  0  0  0  0  0  0  0
   -3.2175   -3.0069    0.0000 C   0  0  0  0  0  0  0  0  0
   -2.3949   -2.9443    0.0000 C   0  0  0  0  0  0  0  0  0
   -1.9294   -3.6255    0.0000 C   0  0  0  0  0  0  0  0  0
   -2.2866   -4.3692    0.0000 C   0  0  0  0  0  0  0  0  0
   -1.8211   -5.0503    0.0000 Cl  0  0  0  0  0  0  0  0  0
   -3.6830   -2.3257    0.0000 C   0  0  0  0  0  0  0  0  0
   -4.4680   -2.5795    0.0000 O   0  0  0  0  0  0  0  0  0
   -3.1588   -1.6835    0.0000 C   0  0  0  0  0  0  0  0  0
   -3.7821   -0.9947    0.0000 C   0  0  0  0  0  0  0  0  0
   -3.8202   -0.2831    0.0000 N   0  0  0  0  0  0  0  0  0
   -4.3402   -0.9237    0.0000 C   0  0  0  0  0  0  0  0  0
   -3.7003   -1.6550    0.0000 C   0  0  0  0  0  0  0  0  0
   -5.2186   -1.0015    0.0000 C   0  0  0  0  0  0  0  0  0
   -4.5265   -1.2201    0.0000 C   0  0  0  0  0  0  0  0  0
   -3.5653    0.5015    0.0000 C   0  0  0  0  0  0  0  0  0
   -4.1173    1.1146    0.0000 C   0  0  0  0  0  0  0  0  0
   -3.9458    1.9216    0.0000 C   0  0  0  0  0  0  0  0  0
   -4.6603    2.3341    0.0000 C   0  0  0  0  0  0  0  0  0
   -5.2734    1.7820    0.0000 O   0  0  0  0  0  0  0  0  0
   -4.9378    1.0284    0.0000 C   0  0  0  0  0  0  0  0  0
   -4.6603    3.1591    0.0000 C   0  0  0  0  0  0  0  0  0
   -3.9458    3.5716    0.0000 C   0  0  0  0  0  0  0  0  0
   -3.2313    3.1591    0.0000 C   0  0  0  0  0  0  0  0  0
   -3.2313    2.3341    0.0000 C   0  0  0  0  0  0  0  0  0
  1  2  1  0  0  0  0
  2  3  4  0  0  0  0
  2  7  4  0  0  0  0
  3  4  4  0  0  0  0
  4  5  4  0  0  0  0
  4  9  1  0  0  0  0
  5  6  4  0  0  0  0
  6  7  4  0  0  0  0
  7  8  1  0  0  0  0
  9 10  1  0  0  0  0
  9 11  1  0  0  0  0
  9 15  1  0  0  0  0
 11 12  1  0  0  0  0
 12 13  1  0  0  0  0
 12 17  1  0  0  0  0
 13 14  1  0  0  0  0
 13 18  1  0  0  0  0
 14 15  1  0  0  0  0
 14 16  1  0  0  0  0
 16 17  1  0  0  0  0
 18 19  1  0  0  0  0
 19 20  4  0  0  0  0
 19 23  4  0  0  0  0
 20 21  4  0  0  0  0
 20 27  4  0  0  0  0
 21 22  4  0  0  0  0
 21 24  4  0  0  0  0
 22 23  4  0  0  0  0
 24 25  4  0  0  0  0
 25 26  4  0  0  0  0
 26 27  4  0  0  0  0
M  END
>  <Name_Molregno>
470533

>  <DOPAMINE D2>
8.77

>  <DOPAMINE D3>
9.47

$$$$
470590
  Marvin  02231216192D 0   1.00000     0.00000     0

 27 31  0  0  1  0  0  0  0  0999 V2000
   -2.7885   -3.7898    0.0000 Cl  0  0  0  0  0  0  0  0  0
   -1.9658   -3.7273    0.0000 C   0  0  0  0  0  0  0  0  0
   -1.6087   -2.9836    0.0000 C   0  0  0  0  0  0  0  0  0
   -0.7860   -2.9211    0.0000 C   0  0  0  0  0  0  0  0  0
   -0.3206   -3.6022    0.0000 C   0  0  0  0  0  0  0  0  0
   -0.6777   -4.3459    0.0000 C   0  0  0  0  0  0  0  0  0
   -1.5004   -4.4085    0.0000 C   0  0  0  0  0  0  0  0  0
   -1.8575   -5.1521    0.0000 Cl  0  0  0  0  0  0  0  0  0
   -2.0741   -2.3025    0.0000 C   0  0  0  0  0  0  0  0  0
   -2.8592   -2.5562    0.0000 O   0  0  0  0  0  0  0  0  0
   -1.5500   -1.6602    0.0000 C   0  0  0  0  0  0  0  0  0
   -2.1733   -0.9714    0.0000 C   0  0  0  0  0  0  0  0  0
   -2.2114   -0.2598    0.0000 N   0  0  0  0  0  0  0  0  0
   -2.7313   -0.9004    0.0000 C   0  0  0  0  0  0  0  0  0
   -2.0914   -1.6317    0.0000 C   0  0  0  0  0  0  0  0  0
   -3.6097   -0.9782    0.0000 C   0  0  0  0  0  0  0  0  0
   -2.9176   -1.1968    0.0000 C   0  0  0  0  0  0  0  0  0
   -1.9564    0.5248    0.0000 C   0  0  0  0  0  0  0  0  0
   -2.5085    1.1379    0.0000 C   0  0  0  0  0  0  0  0  0
   -2.3370    1.9448    0.0000 C   0  0  0  0  0  0  0  0  0
   -3.0514    2.3573    0.0000 C   0  0  0  0  0  0  0  0  0
   -3.6645    1.8053    0.0000 O   0  0  0  0  0  0  0  0  0
   -3.3290    1.0516    0.0000 C   0  0  0  0  0  0  0  0  0
   -3.0514    3.1823    0.0000 C   0  0  0  0  0  0  0  0  0
   -2.3370    3.5948    0.0000 C   0  0  0  0  0  0  0  0  0
   -1.6225    3.1823    0.0000 C   0  0  0  0  0  0  0  0  0
   -1.6225    2.3573    0.0000 C   0  0  0  0  0  0  0  0  0
  1  2  1  0  0  0  0
  2  3  4  0  0  0  0
  2  7  4  0  0  0  0
  3  4  4  0  0  0  0
  3  9  1  0  0  0  0
  4  5  4  0  0  0  0
  5  6  4  0  0  0  0
  6  7  4  0  0  0  0
  7  8  1  0  0  0  0
  9 10  1  0  0  0  0
  9 11  1  0  0  0  0
  9 15  1  0  0  0  0
 11 12  1  0  0  0  0
 12 13  1  0  0  0  0
 12 17  1  0  0  0  0
 13 14  1  0  0  0  0
 13 18  1  0  0  0  0
 14 15  1  0  0  0  0
 14 16  1  0  0  0  0
 16 17  1  0  0  0  0
 18 19  1  0  0  0  0
 19 20  4  0  0  0  0
 19 23  4  0  0  0  0
 20 21  4  0  0  0  0
 20 27  4  0  0  0  0
 21 22  4  0  0  0  0
 21 24  4  0  0  0  0
 22 23  4  0  0  0  0
 24 25  4  0  0  0  0
 25 26  4  0  0  0  0
 26 27  4  0  0  0  0
M  END
>  <Name_Molregno>
470590

>  <DOPAMINE D2>
7.4

>  <DOPAMINE D3>
7.49

$$$$
470591
  Marvin  02231216192D 0   1.00000     0.00000     0

 26 30  0  0  1  0  0  0  0  0999 V2000
    6.5550   -4.7566    0.0000 F   0  0  0  0  0  0  0  0  0
    6.0895   -4.0754    0.0000 C   0  0  0  0  0  0  0  0  0
    5.2669   -4.1380    0.0000 C   0  0  0  0  0  0  0  0  0
    4.8014   -3.4568    0.0000 C   0  0  0  0  0  0  0  0  0
    5.1586   -2.7131    0.0000 C   0  0  0  0  0  0  0  0  0
    5.9812   -2.6506    0.0000 C   0  0  0  0  0  0  0  0  0
    6.4467   -3.3318    0.0000 C   0  0  0  0  0  0  0  0  0
    4.6931   -2.0320    0.0000 C   0  0  0  0  0  0  0  0  0
    3.9081   -2.2857    0.0000 O   0  0  0  0  0  0  0  0  0
    5.2172   -1.3897    0.0000 C   0  0  0  0  0  0  0  0  0
    4.5940   -0.7009    0.0000 C   0  0  0  0  0  0  0  0  0
    4.5559    0.0106    0.0000 N   0  0  0  0  0  0  0  0  0
    4.0359   -0.6299    0.0000 C   0  0  0  0  0  0  0  0  0
    4.6758   -1.3612    0.0000 C   0  0  0  0  0  0  0  0  0
    3.1575   -0.7077    0.0000 C   0  0  0  0  0  0  0  0  0
    3.8496   -0.9264    0.0000 C   0  0  0  0  0  0  0  0  0
    4.8108    0.7952    0.0000 C   0  0  0  0  0  0  0  0  0
    4.2588    1.4083    0.0000 C   0  0  0  0  0  0  0  0  0
    4.4303    2.2153    0.0000 C   0  0  0  0  0  0  0  0  0
    3.7158    2.6278    0.0000 C   0  0  0  0  0  0  0  0  0
    3.1027    2.0758    0.0000 O   0  0  0  0  0  0  0  0  0
    3.4383    1.3221    0.0000 C   0  0  0  0  0  0  0  0  0
    3.7158    3.4528    0.0000 C   0  0  0  0  0  0  0  0  0
    4.4303    3.8653    0.0000 C   0  0  0  0  0  0  0  0  0
    5.1448    3.4528    0.0000 C   0  0  0  0  0  0  0  0  0
    5.1448    2.6278    0.0000 C   0  0  0  0  0  0  0  0  0
  1  2  1  0  0  0  0
  2  3  4  0  0  0  0
  2  7  4  0  0  0  0
  3  4  4  0  0  0  0
  4  5  4  0  0  0  0
  5  6  4  0  0  0  0
  5  8  1  0  0  0  0
  6  7  4  0  0  0  0
  8  9  1  0  0  0  0
  8 10  1  0  0  0  0
  8 14  1  0  0  0  0
 10 11  1  0  0  0  0
 11 12  1  0  0  0  0
 11 16  1  0  0  0  0
 12 13  1  0  0  0  0
 12 17  1  0  0  0  0
 13 14  1  0  0  0  0
 13 15  1  0  0  0  0
 15 16  1  0  0  0  0
 17 18  1  0  0  0  0
 18 19  4  0  0  0  0
 18 22  4  0  0  0  0
 19 20  4  0  0  0  0
 19 26  4  0  0  0  0
 20 21  4  0  0  0  0
 20 23  4  0  0  0  0
 21 22  4  0  0  0  0
 23 24  4  0  0  0  0
 24 25  4  0  0  0  0
 25 26  4  0  0  0  0
M  END
>  <Name_Molregno>
470591

>  <DOPAMINE D2>
8.31

>  <DOPAMINE D3>
8.92

$$$$
470592
  Marvin  02231216192D 0   1.00000     0.00000     0

 26 30  0  0  1  0  0  0  0  0999 V2000
    6.5550   -4.7566    0.0000 Br  0  0  0  0  0  0  0  0  0
    6.0895   -4.0754    0.0000 C   0  0  0  0  0  0  0  0  0
    5.2669   -4.1380    0.0000 C   0  0  0  0  0  0  0  0  0
    4.8014   -3.4568    0.0000 C   0  0  0  0  0  0  0  0  0
    5.1586   -2.7131    0.0000 C   0  0  0  0  0  0  0  0  0
    5.9812   -2.6506    0.0000 C   0  0  0  0  0  0  0  0  0
    6.4467   -3.3318    0.0000 C   0  0  0  0  0  0  0  0  0
    4.6931   -2.0320    0.0000 C   0  0  0  0  0  0  0  0  0
    3.9081   -2.2857    0.0000 O   0  0  0  0  0  0  0  0  0
    5.2172   -1.3897    0.0000 C   0  0  0  0  0  0  0  0  0
    4.5940   -0.7009    0.0000 C   0  0  0  0  0  0  0  0  0
    4.5559    0.0106    0.0000 N   0  0  0  0  0  0  0  0  0
    4.0359   -0.6299    0.0000 C   0  0  0  0  0  0  0  0  0
    4.6758   -1.3612    0.0000 C   0  0  0  0  0  0  0  0  0
    3.1575   -0.7077    0.0000 C   0  0  0  0  0  0  0  0  0
    3.8496   -0.9264    0.0000 C   0  0  0  0  0  0  0  0  0
    4.8108    0.7952    0.0000 C   0  0  0  0  0  0  0  0  0
    4.2588    1.4083    0.0000 C   0  0  0  0  0  0  0  0  0
    4.4303    2.2153    0.0000 C   0  0  0  0  0  0  0  0  0
    3.7158    2.6278    0.0000 C   0  0  0  0  0  0  0  0  0
    3.1027    2.0758    0.0000 O   0  0  0  0  0  0  0  0  0
    3.4383    1.3221    0.0000 C   0  0  0  0  0  0  0  0  0
    3.7158    3.4528    0.0000 C   0  0  0  0  0  0  0  0  0
    4.4303    3.8653    0.0000 C   0  0  0  0  0  0  0  0  0
    5.1448    3.4528    0.0000 C   0  0  0  0  0  0  0  0  0
    5.1448    2.6278    0.0000 C   0  0  0  0  0  0  0  0  0
  1  2  1  0  0  0  0
  2  3  4  0  0  0  0
  2  7  4  0  0  0  0
  3  4  4  0  0  0  0
  4  5  4  0  0  0  0
  5  6  4  0  0  0  0
  5  8  1  0  0  0  0
  6  7  4  0  0  0  0
  8  9  1  0  0  0  0
  8 10  1  0  0  0  0
  8 14  1  0  0  0  0
 10 11  1  0  0  0  0
 11 12  1  0  0  0  0
 11 16  1  0  0  0  0
 12 13  1  0  0  0  0
 12 17  1  0  0  0  0
 13 14  1  0  0  0  0
 13 15  1  0  0  0  0
 15 16  1  0  0  0  0
 17 18  1  0  0  0  0
 18 19  4  0  0  0  0
 18 22  4  0  0  0  0
 19 20  4  0  0  0  0
 19 26  4  0  0  0  0
 20 21  4  0  0  0  0
 20 23  4  0  0  0  0
 21 22  4  0  0  0  0
 23 24  4  0  0  0  0
 24 25  4  0  0  0  0
 25 26  4  0  0  0  0
M  END
>  <Name_Molregno>
470592

>  <DOPAMINE D2>
8.82

>  <DOPAMINE D3>
9.04

$$$$
470593
  Marvin  02231216192D 0   1.00000     0.00000     0

 28 32  0  0  1  0  0  0  0  0999 V2000
    8.4289   -2.2090    0.0000 Cl  0  0  0  0  0  0  0  0  0
    7.6519   -1.9316    0.0000 C   0  0  0  0  0  0  0  0  0
    7.0232   -2.4657    0.0000 C   0  0  0  0  0  0  0  0  0
    6.2462   -2.1882    0.0000 C   0  0  0  0  0  0  0  0  0
    6.0980   -1.3766    0.0000 C   0  0  0  0  0  0  0  0  0
    6.7268   -0.8425    0.0000 C   0  0  0  0  0  0  0  0  0
    7.5037   -1.1200    0.0000 C   0  0  0  0  0  0  0  0  0
    5.3211   -1.0992    0.0000 C   0  0  0  0  0  0  0  0  0
    4.8351   -1.7659    0.0000 O   0  0  0  0  0  0  0  0  0
    5.3676   -0.2715    0.0000 C   0  0  0  0  0  0  0  0  0
    4.4585   -0.0806    0.0000 C   0  0  0  0  0  0  0  0  0
    4.0094    0.4727    0.0000 N   0  0  0  0  0  0  0  0  0
    3.9653   -0.3512    0.0000 C   0  0  0  0  0  0  0  0  0
    4.9128   -0.5667    0.0000 C   0  0  0  0  0  0  0  0  0
    3.3004   -0.9304    0.0000 C   0  0  0  0  0  0  0  0  0
    3.9888   -0.7005    0.0000 C   0  0  0  0  0  0  0  0  0
    3.7545    1.2573    0.0000 C   0  0  0  0  0  0  0  0  0
    4.3065    1.8704    0.0000 C   0  0  0  0  0  0  0  0  0
    4.1350    2.6774    0.0000 C   0  0  0  0  0  0  0  0  0
    3.4205    3.0899    0.0000 C   0  0  0  0  0  0  0  0  0
    3.4205    3.9149    0.0000 C   0  0  0  0  0  0  0  0  0
    2.7061    4.3274    0.0000 O   0  0  0  0  0  0  0  0  0
    1.9916    3.9149    0.0000 C   0  0  0  0  0  0  0  0  0
    4.1350    4.3274    0.0000 C   0  0  0  0  0  0  0  0  0
    4.8495    3.9149    0.0000 C   0  0  0  0  0  0  0  0  0
    4.8495    3.0899    0.0000 C   0  0  0  0  0  0  0  0  0
    5.4626    2.5378    0.0000 O   0  0  0  0  0  0  0  0  0
    5.1270    1.7842    0.0000 C   0  0  0  0  0  0  0  0  0
  1  2  1  0  0  0  0
  2  3  4  0  0  0  0
  2  7  4  0  0  0  0
  3  4  4  0  0  0  0
  4  5  4  0  0  0  0
  5  6  4  0  0  0  0
  5  8  1  0  0  0  0
  6  7  4  0  0  0  0
  8  9  1  0  0  0  0
  8 10  1  0  0  0  0
  8 14  1  0  0  0  0
 10 11  1  0  0  0  0
 11 12  1  0  0  0  0
 11 16  1  0  0  0  0
 12 13  1  0  0  0  0
 12 17  1  0  0  0  0
 13 14  1  0  0  0  0
 13 15  1  0  0  0  0
 15 16  1  0  0  0  0
 17 18  1  0  0  0  0
 18 19  4  0  0  0  0
 18 28  4  0  0  0  0
 19 20  4  0  0  0  0
 19 26  4  0  0  0  0
 20 21  4  0  0  0  0
 21 22  1  0  0  0  0
 21 24  4  0  0  0  0
 22 23  1  0  0  0  0
 24 25  4  0  0  0  0
 25 26  4  0  0  0  0
 26 27  4  0  0  0  0
 27 28  4  0  0  0  0
M  END
>  <Name_Molregno>
470593

>  <DOPAMINE D2>
8.82

>  <DOPAMINE D3>
8.68

$$$$
470594
  Marvin  02231216192D 0   1.00000     0.00000     0

 27 31  0  0  1  0  0  0  0  0999 V2000
    8.1712   -2.1632    0.0000 Cl  0  0  0  0  0  0  0  0  0
    7.3943   -1.8857    0.0000 C   0  0  0  0  0  0  0  0  0
    6.7655   -2.4198    0.0000 C   0  0  0  0  0  0  0  0  0
    5.9886   -2.1424    0.0000 C   0  0  0  0  0  0  0  0  0
    5.8404   -1.3308    0.0000 C   0  0  0  0  0  0  0  0  0
    6.4692   -0.7967    0.0000 C   0  0  0  0  0  0  0  0  0
    7.2461   -1.0741    0.0000 C   0  0  0  0  0  0  0  0  0
    5.0635   -1.0533    0.0000 C   0  0  0  0  0  0  0  0  0
    4.5775   -1.7200    0.0000 O   0  0  0  0  0  0  0  0  0
    5.1100   -0.2256    0.0000 C   0  0  0  0  0  0  0  0  0
    4.2009   -0.0348    0.0000 C   0  0  0  0  0  0  0  0  0
    3.7518    0.5185    0.0000 N   0  0  0  0  0  0  0  0  0
    3.7077   -0.3053    0.0000 C   0  0  0  0  0  0  0  0  0
    4.6552   -0.5208    0.0000 C   0  0  0  0  0  0  0  0  0
    3.0428   -0.8846    0.0000 C   0  0  0  0  0  0  0  0  0
    3.7312   -0.6546    0.0000 C   0  0  0  0  0  0  0  0  0
    3.4969    1.3031    0.0000 C   0  0  0  0  0  0  0  0  0
    4.0489    1.9162    0.0000 C   0  0  0  0  0  0  0  0  0
    3.8774    2.7232    0.0000 C   0  0  0  0  0  0  0  0  0
    3.1629    3.1357    0.0000 C   0  0  0  0  0  0  0  0  0
    3.1629    3.9607    0.0000 C   0  0  0  0  0  0  0  0  0
    2.4484    4.3732    0.0000 F   0  0  0  0  0  0  0  0  0
    3.8774    4.3732    0.0000 C   0  0  0  0  0  0  0  0  0
    4.5919    3.9607    0.0000 C   0  0  0  0  0  0  0  0  0
    4.5919    3.1357    0.0000 C   0  0  0  0  0  0  0  0  0
    5.2049    2.5837    0.0000 O   0  0  0  0  0  0  0  0  0
    4.8694    1.8300    0.0000 C   0  0  0  0  0  0  0  0  0
  1  2  1  0  0  0  0
  2  3  4  0  0  0  0
  2  7  4  0  0  0  0
  3  4  4  0  0  0  0
  4  5  4  0  0  0  0
  5  6  4  0  0  0  0
  5  8  1  0  0  0  0
  6  7  4  0  0  0  0
  8  9  1  0  0  0  0
  8 10  1  0  0  0  0
  8 14  1  0  0  0  0
 10 11  1  0  0  0  0
 11 12  1  0  0  0  0
 11 16  1  0  0  0  0
 12 13  1  0  0  0  0
 12 17  1  0  0  0  0
 13 14  1  0  0  0  0
 13 15  1  0  0  0  0
 15 16  1  0  0  0  0
 17 18  1  0  0  0  0
 18 19  4  0  0  0  0
 18 27  4  0  0  0  0
 19 20  4  0  0  0  0
 19 25  4  0  0  0  0
 20 21  4  0  0  0  0
 21 22  1  0  0  0  0
 21 23  4  0  0  0  0
 23 24  4  0  0  0  0
 24 25  4  0  0  0  0
 25 26  4  0  0  0  0
 26 27  4  0  0  0  0
M  END
>  <Name_Molregno>
470594

>  <DOPAMINE D2>
8.92

>  <DOPAMINE D3>
9.43

$$$$
470655
  Marvin  02231216192D 0   1.00000     0.00000     0

 30 35  0  0  1  0  0  0  0  0999 V2000
   10.0553   -1.0811    0.0000 Cl  0  0  0  0  0  0  0  0  0
    9.2327   -1.1437    0.0000 C   0  0  0  0  0  0  0  0  0
    8.8755   -1.8874    0.0000 C   0  0  0  0  0  0  0  0  0
    8.0529   -1.9499    0.0000 C   0  0  0  0  0  0  0  0  0
    7.5875   -1.2687    0.0000 C   0  0  0  0  0  0  0  0  0
    7.9446   -0.5251    0.0000 C   0  0  0  0  0  0  0  0  0
    8.7672   -0.4625    0.0000 C   0  0  0  0  0  0  0  0  0
    6.7648   -1.3313    0.0000 C   0  0  0  0  0  0  0  0  0
    6.5921   -2.1380    0.0000 O   0  0  0  0  0  0  0  0  0
    6.4707   -0.5562    0.0000 C   0  0  0  0  0  0  0  0  0
    5.5625   -0.7516    0.0000 C   0  0  0  0  0  0  0  0  0
    4.9272   -0.4288    0.0000 N   0  0  0  0  0  0  0  0  0
    5.2220   -1.1994    0.0000 C   0  0  0  0  0  0  0  0  0
    6.1753   -1.0109    0.0000 C   0  0  0  0  0  0  0  0  0
    4.8502   -1.9990    0.0000 C   0  0  0  0  0  0  0  0  0
    5.3856   -1.5089    0.0000 C   0  0  0  0  0  0  0  0  0
    4.3752    0.1843    0.0000 C   0  0  0  0  0  0  0  0  0
    3.5682    0.0127    0.0000 C   0  0  0  0  0  0  0  0  0
    2.9551    0.5648    0.0000 C   0  0  0  0  0  0  0  0  0
    2.9551    1.3898    0.0000 C   0  0  0  0  0  0  0  0  0
    2.2407    1.8023    0.0000 C   0  0  0  0  0  0  0  0  0
    1.5262    1.3898    0.0000 C   0  0  0  0  0  0  0  0  0
    1.5262    0.5648    0.0000 C   0  0  0  0  0  0  0  0  0
    2.2407    0.1523    0.0000 C   0  0  0  0  0  0  0  0  0
    2.4122   -0.6547    0.0000 O   0  0  0  0  0  0  0  0  0
    3.2327   -0.7409    0.0000 C   0  0  0  0  0  0  0  0  0
    2.2407    2.6273    0.0000 C   0  0  0  0  0  0  0  0  0
    2.9551    3.0398    0.0000 C   0  0  0  0  0  0  0  0  0
    3.6696    2.6273    0.0000 C   0  0  0  0  0  0  0  0  0
    3.6696    1.8023    0.0000 C   0  0  0  0  0  0  0  0  0
  1  2  1  0  0  0  0
  2  3  4  0  0  0  0
  2  7  4  0  0  0  0
  3  4  4  0  0  0  0
  4  5  4  0  0  0  0
  5  6  4  0  0  0  0
  5  8  1  0  0  0  0
  6  7  4  0  0  0  0
  8  9  1  0  0  0  0
  8 10  1  0  0  0  0
  8 14  1  0  0  0  0
 10 11  1  0  0  0  0
 11 12  1  0  0  0  0
 11 16  1  0  0  0  0
 12 13  1  0  0  0  0
 12 17  1  0  0  0  0
 13 14  1  0  0  0  0
 13 15  1  0  0  0  0
 15 16  1  0  0  0  0
 17 18  1  0  0  0  0
 18 19  4  0  0  0  0
 18 26  4  0  0  0  0
 19 20  4  0  0  0  0
 19 24  4  0  0  0  0
 20 21  4  0  0  0  0
 20 30  4  0  0  0  0
 21 22  4  0  0  0  0
 21 27  4  0  0  0  0
 22 23  4  0  0  0  0
 23 24  4  0  0  0  0
 24 25  4  0  0  0  0
 25 26  4  0  0  0  0
 27 28  4  0  0  0  0
 28 29  4  0  0  0  0
 29 30  4  0  0  0  0
M  END
>  <Name_Molregno>
470655

>  <DOPAMINE D2>
7.93

>  <DOPAMINE D3>
8.08

$$$$
470656
  Marvin  02231216192D 0   1.00000     0.00000     0

 30 35  0  0  1  0  0  0  0  0999 V2000
    8.6291   -2.6047    0.0000 Cl  0  0  0  0  0  0  0  0  0
    7.8522   -2.3273    0.0000 C   0  0  0  0  0  0  0  0  0
    7.2234   -2.8614    0.0000 C   0  0  0  0  0  0  0  0  0
    6.4465   -2.5839    0.0000 C   0  0  0  0  0  0  0  0  0
    6.2983   -1.7723    0.0000 C   0  0  0  0  0  0  0  0  0
    6.9271   -1.2382    0.0000 C   0  0  0  0  0  0  0  0  0
    7.7040   -1.5157    0.0000 C   0  0  0  0  0  0  0  0  0
    5.5214   -1.4949    0.0000 C   0  0  0  0  0  0  0  0  0
    5.0354   -2.1616    0.0000 O   0  0  0  0  0  0  0  0  0
    5.5679   -0.6672    0.0000 C   0  0  0  0  0  0  0  0  0
    4.6588   -0.4763    0.0000 C   0  0  0  0  0  0  0  0  0
    4.2097    0.0770    0.0000 N   0  0  0  0  0  0  0  0  0
    4.1656   -0.7468    0.0000 C   0  0  0  0  0  0  0  0  0
    5.1131   -0.9624    0.0000 C   0  0  0  0  0  0  0  0  0
    3.5007   -1.3261    0.0000 C   0  0  0  0  0  0  0  0  0
    4.1891   -1.0962    0.0000 C   0  0  0  0  0  0  0  0  0
    3.9548    0.8616    0.0000 C   0  0  0  0  0  0  0  0  0
    4.5068    1.4747    0.0000 C   0  0  0  0  0  0  0  0  0
    4.3353    2.2817    0.0000 C   0  0  0  0  0  0  0  0  0
    5.0498    2.6942    0.0000 C   0  0  0  0  0  0  0  0  0
    5.6629    2.1421    0.0000 O   0  0  0  0  0  0  0  0  0
    5.3273    1.3885    0.0000 C   0  0  0  0  0  0  0  0  0
    5.0498    3.5192    0.0000 C   0  0  0  0  0  0  0  0  0
    4.3353    3.9317    0.0000 C   0  0  0  0  0  0  0  0  0
    3.6208    3.5192    0.0000 C   0  0  0  0  0  0  0  0  0
    3.6208    2.6942    0.0000 C   0  0  0  0  0  0  0  0  0
    4.3353    4.7567    0.0000 C   0  0  0  0  0  0  0  0  0
    5.0498    5.1692    0.0000 C   0  0  0  0  0  0  0  0  0
    5.7642    4.7567    0.0000 C   0  0  0  0  0  0  0  0  0
    5.7642    3.9317    0.0000 C   0  0  0  0  0  0  0  0  0
  1  2  1  0  0  0  0
  2  3  4  0  0  0  0
  2  7  4  0  0  0  0
  3  4  4  0  0  0  0
  4  5  4  0  0  0  0
  5  6  4  0  0  0  0
  5  8  1  0  0  0  0
  6  7  4  0  0  0  0
  8  9  1  0  0  0  0
  8 10  1  0  0  0  0
  8 14  1  0  0  0  0
 10 11  1  0  0  0  0
 11 12  1  0  0  0  0
 11 16  1  0  0  0  0
 12 13  1  0  0  0  0
 12 17  1  0  0  0  0
 13 14  1  0  0  0  0
 13 15  1  0  0  0  0
 15 16  1  0  0  0  0
 17 18  1  0  0  0  0
 18 19  4  0  0  0  0
 18 22  4  0  0  0  0
 19 20  4  0  0  0  0
 19 26  4  0  0  0  0
 20 21  4  0  0  0  0
 20 23  4  0  0  0  0
 21 22  4  0  0  0  0
 23 24  4  0  0  0  0
 23 30  4  0  0  0  0
 24 25  4  0  0  0  0
 24 27  4  0  0  0  0
 25 26  4  0  0  0  0
 27 28  4  0  0  0  0
 28 29  4  0  0  0  0
 29 30  4  0  0  0  0
M  END
>  <Name_Molregno>
470656

>  <DOPAMINE D2>
8.25

>  <DOPAMINE D3>
8.7

$$$$
470657
  Marvin  02231216192D 0   1.00000     0.00000     0

 28 32  0  0  1  0  0  0  0  0999 V2000
    6.3037   -3.1314    0.0000 Cl  0  0  0  0  0  0  0  0  0
    6.1555   -2.3198    0.0000 C   0  0  0  0  0  0  0  0  0
    5.3785   -2.0424    0.0000 C   0  0  0  0  0  0  0  0  0
    5.2304   -1.2308    0.0000 C   0  0  0  0  0  0  0  0  0
    5.8591   -0.6967    0.0000 C   0  0  0  0  0  0  0  0  0
    6.6361   -0.9741    0.0000 C   0  0  0  0  0  0  0  0  0
    6.7842   -1.7857    0.0000 C   0  0  0  0  0  0  0  0  0
    7.5612   -2.0632    0.0000 Cl  0  0  0  0  0  0  0  0  0
    4.4534   -0.9533    0.0000 C   0  0  0  0  0  0  0  0  0
    3.9675   -1.6200    0.0000 O   0  0  0  0  0  0  0  0  0
    4.4999   -0.1256    0.0000 C   0  0  0  0  0  0  0  0  0
    3.5908    0.0653    0.0000 C   0  0  0  0  0  0  0  0  0
    3.1418    0.6185    0.0000 N   0  0  0  0  0  0  0  0  0
    3.0976   -0.2053    0.0000 C   0  0  0  0  0  0  0  0  0
    4.0451   -0.4208    0.0000 C   0  0  0  0  0  0  0  0  0
    2.4327   -0.7846    0.0000 C   0  0  0  0  0  0  0  0  0
    3.1212   -0.5546    0.0000 C   0  0  0  0  0  0  0  0  0
    2.8868    1.4032    0.0000 C   0  0  0  0  0  0  0  0  0
    3.4389    2.0162    0.0000 C   0  0  0  0  0  0  0  0  0
    3.2673    2.8232    0.0000 C   0  0  0  0  0  0  0  0  0
    2.5529    3.2357    0.0000 C   0  0  0  0  0  0  0  0  0
    2.5529    4.0607    0.0000 C   0  0  0  0  0  0  0  0  0
    1.8384    4.4732    0.0000 F   0  0  0  0  0  0  0  0  0
    3.2673    4.4732    0.0000 C   0  0  0  0  0  0  0  0  0
    3.9818    4.0607    0.0000 C   0  0  0  0  0  0  0  0  0
    3.9818    3.2357    0.0000 C   0  0  0  0  0  0  0  0  0
    4.5949    2.6837    0.0000 O   0  0  0  0  0  0  0  0  0
    4.2593    1.9300    0.0000 C   0  0  0  0  0  0  0  0  0
  1  2  1  0  0  0  0
  2  3  4  0  0  0  0
  2  7  4  0  0  0  0
  3  4  4  0  0  0  0
  4  5  4  0  0  0  0
  4  9  1  0  0  0  0
  5  6  4  0  0  0  0
  6  7  4  0  0  0  0
  7  8  1  0  0  0  0
  9 10  1  0  0  0  0
  9 11  1  0  0  0  0
  9 15  1  0  0  0  0
 11 12  1  0  0  0  0
 12 13  1  0  0  0  0
 12 17  1  0  0  0  0
 13 14  1  0  0  0  0
 13 18  1  0  0  0  0
 14 15  1  0  0  0  0
 14 16  1  0  0  0  0
 16 17  1  0  0  0  0
 18 19  1  0  0  0  0
 19 20  4  0  0  0  0
 19 28  4  0  0  0  0
 20 21  4  0  0  0  0
 20 26  4  0  0  0  0
 21 22  4  0  0  0  0
 22 23  1  0  0  0  0
 22 24  4  0  0  0  0
 24 25  4  0  0  0  0
 25 26  4  0  0  0  0
 26 27  4  0  0  0  0
 27 28  4  0  0  0  0
M  END
>  <Name_Molregno>
470657

>  <DOPAMINE D2>
8.85

>  <DOPAMINE D3>
9.28

$$$$
489871
  Marvin  02231216192D 0   1.00000     0.00000     0

 26 29  0  0  1  0  0  0  0  0999 V2000
    9.1153   -3.6788    0.0000 F   0  0  0  0  0  0  0  0  0
    8.7035   -2.9640    0.0000 C   0  0  0  0  0  0  0  0  0
    7.8785   -2.9632    0.0000 C   0  0  0  0  0  0  0  0  0
    7.4667   -2.2483    0.0000 C   0  0  0  0  0  0  0  0  0
    7.8799   -1.5342    0.0000 C   0  0  0  0  0  0  0  0  0
    8.7049   -1.5350    0.0000 C   0  0  0  0  0  0  0  0  0
    9.1167   -2.2499    0.0000 C   0  0  0  0  0  0  0  0  0
    7.4681   -0.8193    0.0000 C   0  0  0  0  0  0  0  0  0
    7.8813   -0.1053    0.0000 O   0  0  0  0  0  0  0  0  0
    6.6431   -0.8185    0.0000 C   0  0  0  0  0  0  0  0  0
    6.2313   -0.1036    0.0000 C   0  0  0  0  0  0  0  0  0
    5.4063   -0.1028    0.0000 C   0  0  0  0  0  0  0  0  0
    4.9945    0.6120    0.0000 N   0  0  0  0  0  0  0  0  0
    4.4783    1.0407    0.0000 C   0  0  0  0  0  0  0  0  0
    3.5066    1.0407    0.0000 C   0  0  0  0  0  0  0  0  0
    3.3669    1.8538    0.0000 N   0  0  0  0  0  0  0  0  0
    3.9275    1.4139    0.0000 C   0  0  0  0  0  0  0  0  0
    3.6070    0.7053    0.0000 C   0  0  0  0  0  0  0  0  0
    2.9867    0.3284    0.0000 C   0  0  0  0  0  0  0  0  0
    4.8563    1.4294    0.0000 C   0  0  0  0  0  0  0  0  0
    2.9443    2.5624    0.0000 C   0  0  0  0  0  0  0  0  0
    2.1194    2.5507    0.0000 C   0  0  0  0  0  0  0  0  0
    1.6968    3.2592    0.0000 C   0  0  0  0  0  0  0  0  0
    2.0991    3.9795    0.0000 C   0  0  0  0  0  0  0  0  0
    2.9240    3.9912    0.0000 C   0  0  0  0  0  0  0  0  0
    3.3466    3.2826    0.0000 C   0  0  0  0  0  0  0  0  0
  1  2  1  0  0  0  0
  2  3  4  0  0  0  0
  2  7  4  0  0  0  0
  3  4  4  0  0  0  0
  4  5  4  0  0  0  0
  5  6  4  0  0  0  0
  5  8  1  0  0  0  0
  6  7  4  0  0  0  0
  8  9  2  0  0  0  0
  8 10  1  0  0  0  0
 10 11  1  0  0  0  0
 11 12  1  0  0  0  0
 12 13  1  0  0  0  0
 13 14  1  0  0  0  0
 13 20  1  0  0  0  0
 14 15  1  0  0  0  0
 15 16  1  0  0  0  0
 15 19  1  0  0  0  0
 16 17  1  0  0  0  0
 16 21  1  0  0  0  0
 17 18  1  0  0  0  0
 17 20  1  0  0  0  0
 18 19  1  0  0  0  0
 21 22  4  0  0  0  0
 21 26  4  0  0  0  0
 22 23  4  0  0  0  0
 23 24  4  0  0  0  0
 24 25  4  0  0  0  0
 25 26  4  0  0  0  0
M  END
>  <Name_Molregno>
489871

>  <DOPAMINE D2>
6.81

>  <DOPAMINE D3>
6.22

>  <DOPAMINE D4>
5.68

$$$$
489872
  Marvin  02231216192D 0   1.00000     0.00000     0

 26 29  0  0  1  0  0  0  0  0999 V2000
    0.9205   -3.5070    0.0000 Cl  0  0  0  0  0  0  0  0  0
    1.5152   -2.9351    0.0000 C   0  0  0  0  0  0  0  0  0
    1.3172   -2.1343    0.0000 C   0  0  0  0  0  0  0  0  0
    1.9118   -1.5623    0.0000 C   0  0  0  0  0  0  0  0  0
    2.7044   -1.7913    0.0000 C   0  0  0  0  0  0  0  0  0
    3.2990   -1.2194    0.0000 N   0  0  0  0  0  0  0  0  0
    4.0745   -0.8291    0.0000 C   0  0  0  0  0  0  0  0  0
    4.1446    0.7067    0.0000 C   0  0  0  0  0  0  0  0  0
    4.3046   -0.1087    0.0000 C   0  0  0  0  0  0  0  0  0
    5.1001   -0.5740    0.0000 N   0  0  0  0  0  0  0  0  0
    4.8050   -1.1994    0.0000 C   0  0  0  0  0  0  0  0  0
    5.8881   -0.3300    0.0000 C   0  0  0  0  0  0  0  0  0
    6.0708    0.4745    0.0000 C   0  0  0  0  0  0  0  0  0
    6.8589    0.7186    0.0000 C   0  0  0  0  0  0  0  0  0
    7.0415    1.5231    0.0000 C   0  0  0  0  0  0  0  0  0
    6.4361    2.0836    0.0000 O   0  0  0  0  0  0  0  0  0
    7.8296    1.7672    0.0000 C   0  0  0  0  0  0  0  0  0
    8.0123    2.5717    0.0000 C   0  0  0  0  0  0  0  0  0
    8.8004    2.8158    0.0000 C   0  0  0  0  0  0  0  0  0
    9.4058    2.2553    0.0000 C   0  0  0  0  0  0  0  0  0
   10.1938    2.4994    0.0000 F   0  0  0  0  0  0  0  0  0
    9.2231    1.4508    0.0000 C   0  0  0  0  0  0  0  0  0
    8.4350    1.2067    0.0000 C   0  0  0  0  0  0  0  0  0
    3.6643   -0.5589    0.0000 C   0  0  0  0  0  0  0  0  0
    2.9023   -2.5922    0.0000 C   0  0  0  0  0  0  0  0  0
    2.3077   -3.1641    0.0000 C   0  0  0  0  0  0  0  0  0
  1  2  1  0  0  0  0
  2  3  4  0  0  0  0
  2 26  4  0  0  0  0
  3  4  4  0  0  0  0
  4  5  4  0  0  0  0
  5  6  1  0  0  0  0
  5 25  4  0  0  0  0
  6  7  1  0  0  0  0
  6 24  1  0  0  0  0
  7  8  1  0  0  0  0
  7 11  1  0  0  0  0
  8  9  1  0  0  0  0
  9 10  1  0  0  0  0
  9 24  1  0  0  0  0
 10 11  1  0  0  0  0
 10 12  1  0  0  0  0
 12 13  1  0  0  0  0
 13 14  1  0  0  0  0
 14 15  1  0  0  0  0
 15 16  2  0  0  0  0
 15 17  1  0  0  0  0
 17 18  4  0  0  0  0
 17 23  4  0  0  0  0
 18 19  4  0  0  0  0
 19 20  4  0  0  0  0
 20 21  1  0  0  0  0
 20 22  4  0  0  0  0
 22 23  4  0  0  0  0
 25 26  4  0  0  0  0
M  END
>  <Name_Molregno>
489872

>  <DOPAMINE D2>
6.77

>  <DOPAMINE D3>
6.66

>  <DOPAMINE D4>
6.28

$$$$
490001
  Marvin  02231216192D 0   1.00000     0.00000     0

 26 28  0  0  0  0  0  0  0  0999 V2000
   -0.1047    1.0755    0.0000 Cl  0  0  0  0  0  0  0  0  0
    0.7180    1.0139    0.0000 C   0  0  0  0  0  0  0  0  0
    1.1827    1.6955    0.0000 C   0  0  0  0  0  0  0  0  0
    2.0054    1.6339    0.0000 C   0  0  0  0  0  0  0  0  0
    2.3634    0.8906    0.0000 C   0  0  0  0  0  0  0  0  0
    3.1860    0.8289    0.0000 N   0  0  0  0  0  0  0  0  0
    3.5985    1.5434    0.0000 C   0  0  0  0  0  0  0  0  0
    4.4143    1.6663    0.0000 C   0  0  0  0  0  0  0  0  0
    5.0191    1.1052    0.0000 C   0  0  0  0  0  0  0  0  0
    4.9574    0.2825    0.0000 N   0  0  0  0  0  0  0  0  0
    4.2758   -0.1822    0.0000 C   0  0  0  0  0  0  0  0  0
    3.4875    0.0609    0.0000 C   0  0  0  0  0  0  0  0  0
    5.6719   -0.1300    0.0000 C   0  0  0  0  0  0  0  0  0
    6.3864    0.2825    0.0000 C   0  0  0  0  0  0  0  0  0
    7.1009   -0.1300    0.0000 C   0  0  0  0  0  0  0  0  0
    7.8153    0.2825    0.0000 C   0  0  0  0  0  0  0  0  0
    7.8153    1.1075    0.0000 O   0  0  0  0  0  0  0  0  0
    8.5298   -0.1300    0.0000 C   0  0  0  0  0  0  0  0  0
    9.2443    0.2825    0.0000 C   0  0  0  0  0  0  0  0  0
    9.9587   -0.1300    0.0000 C   0  0  0  0  0  0  0  0  0
    9.9587   -0.9550    0.0000 C   0  0  0  0  0  0  0  0  0
   10.6732   -1.3675    0.0000 F   0  0  0  0  0  0  0  0  0
    9.2443   -1.3675    0.0000 C   0  0  0  0  0  0  0  0  0
    8.5298   -0.9550    0.0000 C   0  0  0  0  0  0  0  0  0
    1.8986    0.2089    0.0000 C   0  0  0  0  0  0  0  0  0
    1.0759    0.2706    0.0000 C   0  0  0  0  0  0  0  0  0
  1  2  1  0  0  0  0
  2  3  4  0  0  0  0
  2 26  4  0  0  0  0
  3  4  4  0  0  0  0
  4  5  4  0  0  0  0
  5  6  1  0  0  0  0
  5 25  4  0  0  0  0
  6  7  1  0  0  0  0
  6 12  1  0  0  0  0
  7  8  1  0  0  0  0
  8  9  1  0  0  0  0
  9 10  1  0  0  0  0
 10 11  1  0  0  0  0
 10 13  1  0  0  0  0
 11 12  1  0  0  0  0
 13 14  1  0  0  0  0
 14 15  1  0  0  0  0
 15 16  1  0  0  0  0
 16 17  2  0  0  0  0
 16 18  1  0  0  0  0
 18 19  4  0  0  0  0
 18 24  4  0  0  0  0
 19 20  4  0  0  0  0
 20 21  4  0  0  0  0
 21 22  1  0  0  0  0
 21 23  4  0  0  0  0
 23 24  4  0  0  0  0
 25 26  4  0  0  0  0
M  END
>  <Name_Molregno>
490001

>  <5-HT1A>
6.93

>  <5-HT2A>
7.63

>  <5-HT2C>
5.85

>  <5-HT6>
6.53

>  <DOPAMINE D1>
6.79

>  <DOPAMINE D2>
7.36

>  <DOPAMINE D3>
6.8

>  <DOPAMINE D4>
8.18

>  <Dopamine transporter>
5.94

>  <HISTAMINE H1>
6.72

>  <Muscarinic acetylcholine receptor M1>
6.06

>  <Serotonin transporter>
7.25

$$$$
490002
  Marvin  02231216192D 0   1.00000     0.00000     0

 28 31  0  0  1  0  0  0  0  0999 V2000
    2.5267   -4.2916    0.0000 Cl  0  0  0  0  0  0  0  0  0
    3.0577   -3.6602    0.0000 C   0  0  0  0  0  0  0  0  0
    2.7764   -2.8847    0.0000 C   0  0  0  0  0  0  0  0  0
    3.3075   -2.2533    0.0000 C   0  0  0  0  0  0  0  0  0
    4.1198   -2.3975    0.0000 C   0  0  0  0  0  0  0  0  0
    4.6508   -1.7661    0.0000 N   0  0  0  0  0  0  0  0  0
    5.4718   -1.9734    0.0000 C   0  0  0  0  0  0  0  0  0
    6.0885   -1.7178    0.0000 C   0  0  0  0  0  0  0  0  0
    6.0885   -0.4604    0.0000 N   0  0  0  0  0  0  0  0  0
    5.8763   -1.2409    0.0000 C   0  0  0  0  0  0  0  0  0
    6.7076   -1.6094    0.0000 C   0  0  0  0  0  0  0  0  0
    6.9098   -2.1415    0.0000 C   0  0  0  0  0  0  0  0  0
    5.0599   -1.0379    0.0000 C   0  0  0  0  0  0  0  0  0
    4.4405   -1.2946    0.0000 C   0  0  0  0  0  0  0  0  0
    6.1977    0.3573    0.0000 C   0  0  0  0  0  0  0  0  0
    5.5441    0.8607    0.0000 C   0  0  0  0  0  0  0  0  0
    5.6533    1.6785    0.0000 C   0  0  0  0  0  0  0  0  0
    4.9997    2.1819    0.0000 C   0  0  0  0  0  0  0  0  0
    4.2369    1.8676    0.0000 O   0  0  0  0  0  0  0  0  0
    5.1089    2.9996    0.0000 C   0  0  0  0  0  0  0  0  0
    4.4553    3.5031    0.0000 C   0  0  0  0  0  0  0  0  0
    4.5644    4.3208    0.0000 C   0  0  0  0  0  0  0  0  0
    5.3272    4.6351    0.0000 C   0  0  0  0  0  0  0  0  0
    5.4364    5.4529    0.0000 F   0  0  0  0  0  0  0  0  0
    5.9808    4.1317    0.0000 C   0  0  0  0  0  0  0  0  0
    5.8716    3.3140    0.0000 C   0  0  0  0  0  0  0  0  0
    4.4010   -3.1731    0.0000 C   0  0  0  0  0  0  0  0  0
    3.8700   -3.8044    0.0000 C   0  0  0  0  0  0  0  0  0
  1  2  1  0  0  0  0
  2  3  4  0  0  0  0
  2 28  4  0  0  0  0
  3  4  4  0  0  0  0
  4  5  4  0  0  0  0
  5  6  1  0  0  0  0
  5 27  4  0  0  0  0
  6  7  1  0  0  0  0
  6 14  1  0  0  0  0
  7  8  1  0  0  0  0
  8  9  1  0  0  0  0
  8 12  1  0  0  0  0
  9 10  1  0  0  0  0
  9 15  1  0  0  0  0
 10 11  1  0  0  0  0
 10 13  1  0  0  0  0
 11 12  1  0  0  0  0
 13 14  1  0  0  0  0
 15 16  1  0  0  0  0
 16 17  1  0  0  0  0
 17 18  1  0  0  0  0
 18 19  2  0  0  0  0
 18 20  1  0  0  0  0
 20 21  4  0  0  0  0
 20 26  4  0  0  0  0
 21 22  4  0  0  0  0
 22 23  4  0  0  0  0
 23 24  1  0  0  0  0
 23 25  4  0  0  0  0
 25 26  4  0  0  0  0
 27 28  4  0  0  0  0
M  END
>  <Name_Molregno>
490002

>  <5-HT1A>
5.63

>  <5-HT2A>
6.71

>  <5-HT2C>
5.45

>  <DOPAMINE D2>
6.75

>  <DOPAMINE D3>
6.26

>  <DOPAMINE D4>
7.38

>  <HISTAMINE H1>
5.99

$$$$
497390
  Marvin  02231216192D 0   1.00000     0.00000     0

 29 32  0  0  0  0  0  0  0  0999 V2000
    0.8656    4.0414    0.0000 O   0  0  0  0  0  0  0  0  0
    0.1512    3.6289    0.0000 C   0  0  0  0  0  0  0  0  0
    1.5801    3.6289    0.0000 C   0  0  0  0  0  0  0  0  0
    2.2946    4.0414    0.0000 C   0  0  0  0  0  0  0  0  0
    3.0091    3.6289    0.0000 C   0  0  0  0  0  0  0  0  0
    3.0091    2.8039    0.0000 C   0  0  0  0  0  0  0  0  0
    3.7235    2.3914    0.0000 N   0  0  0  0  0  0  0  0  0
    4.4380    2.8039    0.0000 C   0  0  0  0  0  0  0  0  0
    5.1525    2.3914    0.0000 C   0  0  0  0  0  0  0  0  0
    5.1525    1.5664    0.0000 N   0  0  0  0  0  0  0  0  0
    4.4380    1.1539    0.0000 C   0  0  0  0  0  0  0  0  0
    3.7235    1.5664    0.0000 C   0  0  0  0  0  0  0  0  0
    5.8669    1.1539    0.0000 C   0  0  0  0  0  0  0  0  0
    5.8669    0.3289    0.0000 C   0  0  0  0  0  0  0  0  0
    6.5814   -0.0836    0.0000 C   0  0  0  0  0  0  0  0  0
    6.5814   -0.9086    0.0000 C   0  0  0  0  0  0  0  0  0
    7.2959   -1.3211    0.0000 N   0  0  0  0  0  0  0  0  0
    7.2959   -2.1461    0.0000 C   0  0  0  0  0  0  0  0  0
    8.0104   -2.5586    0.0000 C   0  0  0  0  0  0  0  0  0
    8.7248   -2.1461    0.0000 C   0  0  0  0  0  0  0  0  0
    8.7248   -1.3211    0.0000 C   0  0  0  0  0  0  0  0  0
    9.4393   -0.9086    0.0000 C   0  0  0  0  0  0  0  0  0
   10.1538   -1.3211    0.0000 C   0  0  0  0  0  0  0  0  0
   10.1538   -2.1461    0.0000 C   0  0  0  0  0  0  0  0  0
    9.4393   -2.5586    0.0000 C   0  0  0  0  0  0  0  0  0
    8.0104   -0.9086    0.0000 C   0  0  0  0  0  0  0  0  0
    8.0104   -0.0836    0.0000 O   0  0  0  0  0  0  0  0  0
    2.2946    2.3914    0.0000 C   0  0  0  0  0  0  0  0  0
    1.5801    2.8039    0.0000 C   0  0  0  0  0  0  0  0  0
  1  2  1  0  0  0  0
  1  3  1  0  0  0  0
  3  4  4  0  0  0  0
  3 29  4  0  0  0  0
  4  5  4  0  0  0  0
  5  6  4  0  0  0  0
  6  7  1  0  0  0  0
  6 28  4  0  0  0  0
  7  8  1  0  0  0  0
  7 12  1  0  0  0  0
  8  9  1  0  0  0  0
  9 10  1  0  0  0  0
 10 11  1  0  0  0  0
 10 13  1  0  0  0  0
 11 12  1  0  0  0  0
 13 14  1  0  0  0  0
 14 15  1  0  0  0  0
 15 16  1  0  0  0  0
 16 17  1  0  0  0  0
 17 18  1  0  0  0  0
 17 26  1  0  0  0  0
 18 19  1  0  0  0  0
 19 20  1  0  0  0  0
 20 21  4  0  0  0  0
 20 25  4  0  0  0  0
 21 22  4  0  0  0  0
 21 26  1  0  0  0  0
 22 23  4  0  0  0  0
 23 24  4  0  0  0  0
 24 25  4  0  0  0  0
 26 27  2  0  0  0  0
 28 29  4  0  0  0  0
M  END
>  <Name_Molregno>
497390

>  <DOPAMINE D3>
6.31

$$$$
497391
  Marvin  02231216192D 0   1.00000     0.00000     0

 27 30  0  0  0  0  0  0  0  0999 V2000
    0.7687   -1.2635    0.0000 O   0  0  0  0  0  0  0  0  0
    0.7687   -2.0885    0.0000 C   0  0  0  0  0  0  0  0  0
    0.0543   -2.5010    0.0000 N   0  0  0  0  0  0  0  0  0
    0.0543   -3.3260    0.0000 C   0  0  0  0  0  0  0  0  0
    0.7687   -3.7385    0.0000 C   0  0  0  0  0  0  0  0  0
    1.4832   -3.3260    0.0000 C   0  0  0  0  0  0  0  0  0
    1.4832   -2.5010    0.0000 C   0  0  0  0  0  0  0  0  0
    2.1977   -2.0885    0.0000 C   0  0  0  0  0  0  0  0  0
    2.9122   -2.5010    0.0000 C   0  0  0  0  0  0  0  0  0
    2.9122   -3.3260    0.0000 C   0  0  0  0  0  0  0  0  0
    2.1977   -3.7385    0.0000 C   0  0  0  0  0  0  0  0  0
   -0.6602   -2.0885    0.0000 C   0  0  0  0  0  0  0  0  0
   -1.3747   -2.5010    0.0000 C   0  0  0  0  0  0  0  0  0
   -2.0891   -2.0885    0.0000 C   0  0  0  0  0  0  0  0  0
   -2.8036   -2.5010    0.0000 C   0  0  0  0  0  0  0  0  0
   -3.5181   -2.0885    0.0000 N   0  0  0  0  0  0  0  0  0
   -4.2325   -2.5010    0.0000 C   0  0  0  0  0  0  0  0  0
   -4.9470   -2.0885    0.0000 C   0  0  0  0  0  0  0  0  0
   -4.9470   -1.2635    0.0000 N   0  0  0  0  0  0  0  0  0
   -4.2325   -0.8510    0.0000 C   0  0  0  0  0  0  0  0  0
   -3.5181   -1.2635    0.0000 C   0  0  0  0  0  0  0  0  0
   -5.6615   -0.8510    0.0000 C   0  0  0  0  0  0  0  0  0
   -6.3760   -1.2635    0.0000 N   0  0  0  0  0  0  0  0  0
   -7.0904   -0.8510    0.0000 C   0  0  0  0  0  0  0  0  0
   -7.0904   -0.0260    0.0000 C   0  0  0  0  0  0  0  0  0
   -6.3760    0.3865    0.0000 C   0  0  0  0  0  0  0  0  0
   -5.6615   -0.0260    0.0000 C   0  0  0  0  0  0  0  0  0
  1  2  2  0  0  0  0
  2  3  1  0  0  0  0
  2  7  1  0  0  0  0
  3  4  1  0  0  0  0
  3 12  1  0  0  0  0
  4  5  1  0  0  0  0
  5  6  1  0  0  0  0
  6  7  4  0  0  0  0
  6 11  4  0  0  0  0
  7  8  4  0  0  0  0
  8  9  4  0  0  0  0
  9 10  4  0  0  0  0
 10 11  4  0  0  0  0
 12 13  1  0  0  0  0
 13 14  1  0  0  0  0
 14 15  1  0  0  0  0
 15 16  1  0  0  0  0
 16 17  1  0  0  0  0
 16 21  1  0  0  0  0
 17 18  1  0  0  0  0
 18 19  1  0  0  0  0
 19 20  1  0  0  0  0
 19 22  1  0  0  0  0
 20 21  1  0  0  0  0
 22 23  4  0  0  0  0
 22 27  4  0  0  0  0
 23 24  4  0  0  0  0
 24 25  4  0  0  0  0
 25 26  4  0  0  0  0
 26 27  4  0  0  0  0
M  END
>  <Name_Molregno>
497391

>  <DOPAMINE D1>
5.69

>  <DOPAMINE D3>
7.92

$$$$
497392
  Marvin  02231216192D 0   1.00000     0.00000     0

 27 30  0  0  0  0  0  0  0  0999 V2000
    0.7687   -1.2635    0.0000 O   0  0  0  0  0  0  0  0  0
    0.7687   -2.0885    0.0000 C   0  0  0  0  0  0  0  0  0
    0.0543   -2.5010    0.0000 N   0  0  0  0  0  0  0  0  0
    0.0543   -3.3260    0.0000 C   0  0  0  0  0  0  0  0  0
    0.7687   -3.7385    0.0000 C   0  0  0  0  0  0  0  0  0
    1.4832   -3.3260    0.0000 C   0  0  0  0  0  0  0  0  0
    1.4832   -2.5010    0.0000 C   0  0  0  0  0  0  0  0  0
    2.1977   -2.0885    0.0000 C   0  0  0  0  0  0  0  0  0
    2.9122   -2.5010    0.0000 C   0  0  0  0  0  0  0  0  0
    2.9122   -3.3260    0.0000 C   0  0  0  0  0  0  0  0  0
    2.1977   -3.7385    0.0000 C   0  0  0  0  0  0  0  0  0
   -0.6602   -2.0885    0.0000 C   0  0  0  0  0  0  0  0  0
   -1.3747   -2.5010    0.0000 C   0  0  0  0  0  0  0  0  0
   -2.0891   -2.0885    0.0000 C   0  0  0  0  0  0  0  0  0
   -2.8036   -2.5010    0.0000 C   0  0  0  0  0  0  0  0  0
   -3.5181   -2.0885    0.0000 N   0  0  0  0  0  0  0  0  0
   -4.2325   -2.5010    0.0000 C   0  0  0  0  0  0  0  0  0
   -4.9470   -2.0885    0.0000 C   0  0  0  0  0  0  0  0  0
   -4.9470   -1.2635    0.0000 N   0  0  0  0  0  0  0  0  0
   -4.2325   -0.8510    0.0000 C   0  0  0  0  0  0  0  0  0
   -3.5181   -1.2635    0.0000 C   0  0  0  0  0  0  0  0  0
   -5.6615   -0.8510    0.0000 C   0  0  0  0  0  0  0  0  0
   -6.3760   -1.2635    0.0000 N   0  0  0  0  0  0  0  0  0
   -7.0904   -0.8510    0.0000 C   0  0  0  0  0  0  0  0  0
   -7.0904   -0.0260    0.0000 C   0  0  0  0  0  0  0  0  0
   -6.3760    0.3865    0.0000 C   0  0  0  0  0  0  0  0  0
   -5.6615   -0.0260    0.0000 N   0  0  0  0  0  0  0  0  0
  1  2  2  0  0  0  0
  2  3  1  0  0  0  0
  2  7  1  0  0  0  0
  3  4  1  0  0  0  0
  3 12  1  0  0  0  0
  4  5  1  0  0  0  0
  5  6  1  0  0  0  0
  6  7  4  0  0  0  0
  6 11  4  0  0  0  0
  7  8  4  0  0  0  0
  8  9  4  0  0  0  0
  9 10  4  0  0  0  0
 10 11  4  0  0  0  0
 12 13  1  0  0  0  0
 13 14  1  0  0  0  0
 14 15  1  0  0  0  0
 15 16  1  0  0  0  0
 16 17  1  0  0  0  0
 16 21  1  0  0  0  0
 17 18  1  0  0  0  0
 18 19  1  0  0  0  0
 19 20  1  0  0  0  0
 19 22  1  0  0  0  0
 20 21  1  0  0  0  0
 22 23  4  0  0  0  0
 22 27  4  0  0  0  0
 23 24  4  0  0  0  0
 24 25  4  0  0  0  0
 25 26  4  0  0  0  0
 26 27  4  0  0  0  0
M  END
>  <Name_Molregno>
497392

>  <DOPAMINE D3>
5.82

$$$$
497393
  Marvin  02231216192D 0   1.00000     0.00000     0

 29 32  0  0  0  0  0  0  0  0999 V2000
   -5.9061    3.0430    0.0000 Cl  0  0  0  0  0  0  0  0  0
   -6.6205    2.6305    0.0000 C   0  0  0  0  0  0  0  0  0
   -6.6205    1.8055    0.0000 C   0  0  0  0  0  0  0  0  0
   -5.9061    1.3930    0.0000 N   0  0  0  0  0  0  0  0  0
   -5.1916    1.8055    0.0000 C   0  0  0  0  0  0  0  0  0
   -4.4771    1.3930    0.0000 C   0  0  0  0  0  0  0  0  0
   -4.4771    0.5680    0.0000 N   0  0  0  0  0  0  0  0  0
   -5.1916    0.1555    0.0000 C   0  0  0  0  0  0  0  0  0
   -5.9061    0.5680    0.0000 C   0  0  0  0  0  0  0  0  0
   -3.7626    0.1555    0.0000 C   0  0  0  0  0  0  0  0  0
   -3.7626   -0.6695    0.0000 C   0  0  0  0  0  0  0  0  0
   -3.0482   -1.0820    0.0000 C   0  0  0  0  0  0  0  0  0
   -3.0482   -1.9070    0.0000 C   0  0  0  0  0  0  0  0  0
   -2.3337   -2.3195    0.0000 N   0  0  0  0  0  0  0  0  0
   -2.3337   -3.1445    0.0000 C   0  0  0  0  0  0  0  0  0
   -1.6192   -3.5570    0.0000 C   0  0  0  0  0  0  0  0  0
   -0.9048   -3.1445    0.0000 C   0  0  0  0  0  0  0  0  0
   -0.9048   -2.3195    0.0000 C   0  0  0  0  0  0  0  0  0
   -0.1903   -1.9070    0.0000 C   0  0  0  0  0  0  0  0  0
    0.5242   -2.3195    0.0000 C   0  0  0  0  0  0  0  0  0
    0.5242   -3.1445    0.0000 C   0  0  0  0  0  0  0  0  0
   -0.1903   -3.5570    0.0000 C   0  0  0  0  0  0  0  0  0
   -1.6192   -1.9070    0.0000 C   0  0  0  0  0  0  0  0  0
   -1.6192   -1.0820    0.0000 O   0  0  0  0  0  0  0  0  0
   -7.3350    1.3930    0.0000 C   0  0  0  0  0  0  0  0  0
   -8.0495    1.8055    0.0000 C   0  0  0  0  0  0  0  0  0
   -8.0495    2.6305    0.0000 C   0  0  0  0  0  0  0  0  0
   -7.3350    3.0430    0.0000 C   0  0  0  0  0  0  0  0  0
   -7.3350    3.8680    0.0000 Cl  0  0  0  0  0  0  0  0  0
  1  2  1  0  0  0  0
  2  3  4  0  0  0  0
  2 28  4  0  0  0  0
  3  4  1  0  0  0  0
  3 25  4  0  0  0  0
  4  5  1  0  0  0  0
  4  9  1  0  0  0  0
  5  6  1  0  0  0  0
  6  7  1  0  0  0  0
  7  8  1  0  0  0  0
  7 10  1  0  0  0  0
  8  9  1  0  0  0  0
 10 11  1  0  0  0  0
 11 12  1  0  0  0  0
 12 13  1  0  0  0  0
 13 14  1  0  0  0  0
 14 15  1  0  0  0  0
 14 23  1  0  0  0  0
 15 16  1  0  0  0  0
 16 17  1  0  0  0  0
 17 18  4  0  0  0  0
 17 22  4  0  0  0  0
 18 19  4  0  0  0  0
 18 23  1  0  0  0  0
 19 20  4  0  0  0  0
 20 21  4  0  0  0  0
 21 22  4  0  0  0  0
 23 24  2  0  0  0  0
 25 26  4  0  0  0  0
 26 27  4  0  0  0  0
 27 28  4  0  0  0  0
 28 29  1  0  0  0  0
M  END
>  <Name_Molregno>
497393

>  <DOPAMINE D1>
5.75

>  <DOPAMINE D2>
7.94

>  <DOPAMINE D3>
6.79

$$$$
497394
  Marvin  02231216192D 0   1.00000     0.00000     0

 28 31  0  0  0  0  0  0  0  0999 V2000
   -7.5970    0.8482    0.0000 Cl  0  0  0  0  0  0  0  0  0
   -7.5970    1.6732    0.0000 C   0  0  0  0  0  0  0  0  0
   -8.3114    2.0857    0.0000 C   0  0  0  0  0  0  0  0  0
   -8.3114    2.9107    0.0000 C   0  0  0  0  0  0  0  0  0
   -7.5970    3.3232    0.0000 C   0  0  0  0  0  0  0  0  0
   -6.8825    2.9107    0.0000 C   0  0  0  0  0  0  0  0  0
   -6.8825    2.0857    0.0000 C   0  0  0  0  0  0  0  0  0
   -6.1680    1.6732    0.0000 N   0  0  0  0  0  0  0  0  0
   -5.4535    2.0857    0.0000 C   0  0  0  0  0  0  0  0  0
   -4.7391    1.6732    0.0000 C   0  0  0  0  0  0  0  0  0
   -4.7391    0.8482    0.0000 N   0  0  0  0  0  0  0  0  0
   -5.4535    0.4357    0.0000 C   0  0  0  0  0  0  0  0  0
   -6.1680    0.8482    0.0000 C   0  0  0  0  0  0  0  0  0
   -4.0246    0.4357    0.0000 C   0  0  0  0  0  0  0  0  0
   -4.0246   -0.3893    0.0000 C   0  0  0  0  0  0  0  0  0
   -3.3101   -0.8018    0.0000 C   0  0  0  0  0  0  0  0  0
   -3.3101   -1.6268    0.0000 C   0  0  0  0  0  0  0  0  0
   -2.5957   -2.0393    0.0000 N   0  0  0  0  0  0  0  0  0
   -2.5957   -2.8643    0.0000 C   0  0  0  0  0  0  0  0  0
   -1.8812   -3.2768    0.0000 C   0  0  0  0  0  0  0  0  0
   -1.1667   -2.8643    0.0000 C   0  0  0  0  0  0  0  0  0
   -1.1667   -2.0393    0.0000 C   0  0  0  0  0  0  0  0  0
   -0.4522   -1.6268    0.0000 C   0  0  0  0  0  0  0  0  0
    0.2622   -2.0393    0.0000 C   0  0  0  0  0  0  0  0  0
    0.2622   -2.8643    0.0000 C   0  0  0  0  0  0  0  0  0
   -0.4522   -3.2768    0.0000 C   0  0  0  0  0  0  0  0  0
   -1.8812   -1.6268    0.0000 C   0  0  0  0  0  0  0  0  0
   -1.8812   -0.8018    0.0000 O   0  0  0  0  0  0  0  0  0
  1  2  1  0  0  0  0
  2  3  4  0  0  0  0
  2  7  4  0  0  0  0
  3  4  4  0  0  0  0
  4  5  4  0  0  0  0
  5  6  4  0  0  0  0
  6  7  4  0  0  0  0
  7  8  1  0  0  0  0
  8  9  1  0  0  0  0
  8 13  1  0  0  0  0
  9 10  1  0  0  0  0
 10 11  1  0  0  0  0
 11 12  1  0  0  0  0
 11 14  1  0  0  0  0
 12 13  1  0  0  0  0
 14 15  1  0  0  0  0
 15 16  1  0  0  0  0
 16 17  1  0  0  0  0
 17 18  1  0  0  0  0
 18 19  1  0  0  0  0
 18 27  1  0  0  0  0
 19 20  1  0  0  0  0
 20 21  1  0  0  0  0
 21 22  4  0  0  0  0
 21 26  4  0  0  0  0
 22 23  4  0  0  0  0
 22 27  1  0  0  0  0
 23 24  4  0  0  0  0
 24 25  4  0  0  0  0
 25 26  4  0  0  0  0
 27 28  2  0  0  0  0
M  END
>  <Name_Molregno>
497394

>  <DOPAMINE D1>
6.46

>  <DOPAMINE D2>
7.45

>  <DOPAMINE D3>
8.17

$$$$
497475
  Marvin  02231216192D 0   1.00000     0.00000     0

 29 32  0  0  0  0  0  0  0  0999 V2000
   -8.5801    3.4082    0.0000 O   0  0  0  0  0  0  0  0  0
   -9.2945    3.8207    0.0000 C   0  0  0  0  0  0  0  0  0
   -8.5801    2.5832    0.0000 C   0  0  0  0  0  0  0  0  0
   -7.8656    2.1707    0.0000 C   0  0  0  0  0  0  0  0  0
   -7.8656    1.3457    0.0000 C   0  0  0  0  0  0  0  0  0
   -7.1511    0.9332    0.0000 N   0  0  0  0  0  0  0  0  0
   -6.4367    1.3457    0.0000 C   0  0  0  0  0  0  0  0  0
   -5.7222    0.9332    0.0000 C   0  0  0  0  0  0  0  0  0
   -5.7222    0.1082    0.0000 N   0  0  0  0  0  0  0  0  0
   -6.4367   -0.3043    0.0000 C   0  0  0  0  0  0  0  0  0
   -7.1511    0.1082    0.0000 C   0  0  0  0  0  0  0  0  0
   -5.0077   -0.3043    0.0000 C   0  0  0  0  0  0  0  0  0
   -5.0077   -1.1293    0.0000 C   0  0  0  0  0  0  0  0  0
   -4.2932   -1.5418    0.0000 C   0  0  0  0  0  0  0  0  0
   -4.2932   -2.3668    0.0000 C   0  0  0  0  0  0  0  0  0
   -3.5788   -2.7793    0.0000 N   0  0  0  0  0  0  0  0  0
   -3.5788   -3.6043    0.0000 C   0  0  0  0  0  0  0  0  0
   -2.8643   -4.0168    0.0000 C   0  0  0  0  0  0  0  0  0
   -2.1498   -3.6043    0.0000 C   0  0  0  0  0  0  0  0  0
   -2.1498   -2.7793    0.0000 C   0  0  0  0  0  0  0  0  0
   -1.4354   -2.3668    0.0000 C   0  0  0  0  0  0  0  0  0
   -0.7209   -2.7793    0.0000 C   0  0  0  0  0  0  0  0  0
   -0.7209   -3.6043    0.0000 C   0  0  0  0  0  0  0  0  0
   -1.4354   -4.0168    0.0000 C   0  0  0  0  0  0  0  0  0
   -2.8643   -2.3668    0.0000 C   0  0  0  0  0  0  0  0  0
   -2.8643   -1.5418    0.0000 O   0  0  0  0  0  0  0  0  0
   -8.5801    0.9332    0.0000 C   0  0  0  0  0  0  0  0  0
   -9.2945    1.3457    0.0000 C   0  0  0  0  0  0  0  0  0
   -9.2945    2.1707    0.0000 C   0  0  0  0  0  0  0  0  0
  1  2  1  0  0  0  0
  1  3  1  0  0  0  0
  3  4  4  0  0  0  0
  3 29  4  0  0  0  0
  4  5  4  0  0  0  0
  5  6  1  0  0  0  0
  5 27  4  0  0  0  0
  6  7  1  0  0  0  0
  6 11  1  0  0  0  0
  7  8  1  0  0  0  0
  8  9  1  0  0  0  0
  9 10  1  0  0  0  0
  9 12  1  0  0  0  0
 10 11  1  0  0  0  0
 12 13  1  0  0  0  0
 13 14  1  0  0  0  0
 14 15  1  0  0  0  0
 15 16  1  0  0  0  0
 16 17  1  0  0  0  0
 16 25  1  0  0  0  0
 17 18  1  0  0  0  0
 18 19  1  0  0  0  0
 19 20  4  0  0  0  0
 19 24  4  0  0  0  0
 20 21  4  0  0  0  0
 20 25  1  0  0  0  0
 21 22  4  0  0  0  0
 22 23  4  0  0  0  0
 23 24  4  0  0  0  0
 25 26  2  0  0  0  0
 27 28  4  0  0  0  0
 28 29  4  0  0  0  0
M  END
>  <Name_Molregno>
497475

>  <DOPAMINE D1>
6.37

>  <DOPAMINE D2>
6.8

>  <DOPAMINE D3>
7.39

$$$$
497600
  Marvin  02231216192D 0   1.00000     0.00000     0

 30 33  0  0  0  0  0  0  0  0999 V2000
   -2.1655    3.1653    0.0000 O   0  0  0  0  0  0  0  0  0
   -2.4669    3.9332    0.0000 C   0  0  0  0  0  0  0  0  0
   -1.3497    3.0423    0.0000 C   0  0  0  0  0  0  0  0  0
   -0.8354    3.6873    0.0000 C   0  0  0  0  0  0  0  0  0
   -0.0196    3.5643    0.0000 C   0  0  0  0  0  0  0  0  0
    0.2818    2.7964    0.0000 C   0  0  0  0  0  0  0  0  0
   -0.2325    2.1514    0.0000 C   0  0  0  0  0  0  0  0  0
   -1.0483    2.2743    0.0000 C   0  0  0  0  0  0  0  0  0
   -1.5627    1.6293    0.0000 N   0  0  0  0  0  0  0  0  0
   -1.2613    0.8613    0.0000 C   0  0  0  0  0  0  0  0  0
   -1.7757    0.2163    0.0000 C   0  0  0  0  0  0  0  0  0
   -2.5915    0.3393    0.0000 N   0  0  0  0  0  0  0  0  0
   -2.8929    1.1073    0.0000 C   0  0  0  0  0  0  0  0  0
   -2.3785    1.7523    0.0000 C   0  0  0  0  0  0  0  0  0
   -3.1058   -0.3057    0.0000 C   0  0  0  0  0  0  0  0  0
   -3.9216   -0.1828    0.0000 C   0  0  0  0  0  0  0  0  0
   -4.4360   -0.8278    0.0000 C   0  0  0  0  0  0  0  0  0
   -5.2518   -0.7048    0.0000 C   0  0  0  0  0  0  0  0  0
   -5.7662   -1.3498    0.0000 N   0  0  0  0  0  0  0  0  0
   -5.4082   -2.0931    0.0000 C   0  0  0  0  0  0  0  0  0
   -5.7662   -2.8364    0.0000 C   0  0  0  0  0  0  0  0  0
   -6.5705   -3.0200    0.0000 C   0  0  0  0  0  0  0  0  0
   -7.2155   -2.5056    0.0000 C   0  0  0  0  0  0  0  0  0
   -7.2155   -1.6806    0.0000 C   0  0  0  0  0  0  0  0  0
   -7.9300   -1.2681    0.0000 C   0  0  0  0  0  0  0  0  0
   -8.6444   -1.6806    0.0000 C   0  0  0  0  0  0  0  0  0
   -8.6444   -2.5056    0.0000 C   0  0  0  0  0  0  0  0  0
   -7.9300   -2.9181    0.0000 C   0  0  0  0  0  0  0  0  0
   -6.5705   -1.1662    0.0000 C   0  0  0  0  0  0  0  0  0
   -6.7541   -0.3619    0.0000 O   0  0  0  0  0  0  0  0  0
  1  2  1  0  0  0  0
  1  3  1  0  0  0  0
  3  4  4  0  0  0  0
  3  8  4  0  0  0  0
  4  5  4  0  0  0  0
  5  6  4  0  0  0  0
  6  7  4  0  0  0  0
  7  8  4  0  0  0  0
  8  9  1  0  0  0  0
  9 10  1  0  0  0  0
  9 14  1  0  0  0  0
 10 11  1  0  0  0  0
 11 12  1  0  0  0  0
 12 13  1  0  0  0  0
 12 15  1  0  0  0  0
 13 14  1  0  0  0  0
 15 16  1  0  0  0  0
 16 17  1  0  0  0  0
 17 18  1  0  0  0  0
 18 19  1  0  0  0  0
 19 20  1  0  0  0  0
 19 29  1  0  0  0  0
 20 21  1  0  0  0  0
 21 22  1  0  0  0  0
 22 23  1  0  0  0  0
 23 24  4  0  0  0  0
 23 28  4  0  0  0  0
 24 25  4  0  0  0  0
 24 29  1  0  0  0  0
 25 26  4  0  0  0  0
 26 27  4  0  0  0  0
 27 28  4  0  0  0  0
 29 30  2  0  0  0  0
M  END
>  <Name_Molregno>
497600

>  <DOPAMINE D1>
5.57

>  <DOPAMINE D2>
8.44

>  <DOPAMINE D3>
8.8

$$$$
497601
  Marvin  02231216192D 0   1.00000     0.00000     0

 30 33  0  0  0  0  0  0  0  0999 V2000
   -1.3040    4.8656    0.0000 O   0  0  0  0  0  0  0  0  0
   -1.6054    5.6336    0.0000 C   0  0  0  0  0  0  0  0  0
   -1.8184    4.2206    0.0000 C   0  0  0  0  0  0  0  0  0
   -1.5170    3.4527    0.0000 C   0  0  0  0  0  0  0  0  0
   -2.0314    2.8076    0.0000 C   0  0  0  0  0  0  0  0  0
   -2.8472    2.9306    0.0000 C   0  0  0  0  0  0  0  0  0
   -3.3616    2.2856    0.0000 N   0  0  0  0  0  0  0  0  0
   -3.0602    1.5176    0.0000 C   0  0  0  0  0  0  0  0  0
   -3.5745    0.8726    0.0000 C   0  0  0  0  0  0  0  0  0
   -4.3903    0.9956    0.0000 N   0  0  0  0  0  0  0  0  0
   -4.6917    1.7635    0.0000 C   0  0  0  0  0  0  0  0  0
   -4.1773    2.4086    0.0000 C   0  0  0  0  0  0  0  0  0
   -4.9047    0.3506    0.0000 C   0  0  0  0  0  0  0  0  0
   -5.7205    0.4735    0.0000 C   0  0  0  0  0  0  0  0  0
   -6.2349   -0.1715    0.0000 C   0  0  0  0  0  0  0  0  0
   -7.0506   -0.0485    0.0000 C   0  0  0  0  0  0  0  0  0
   -7.5650   -0.6935    0.0000 N   0  0  0  0  0  0  0  0  0
   -7.2071   -1.4368    0.0000 C   0  0  0  0  0  0  0  0  0
   -7.5650   -2.1801    0.0000 C   0  0  0  0  0  0  0  0  0
   -8.3693   -2.3637    0.0000 C   0  0  0  0  0  0  0  0  0
   -9.0144   -1.8493    0.0000 C   0  0  0  0  0  0  0  0  0
   -9.0144   -1.0243    0.0000 C   0  0  0  0  0  0  0  0  0
   -9.7288   -0.6118    0.0000 C   0  0  0  0  0  0  0  0  0
  -10.4433   -1.0243    0.0000 C   0  0  0  0  0  0  0  0  0
  -10.4433   -1.8493    0.0000 C   0  0  0  0  0  0  0  0  0
   -9.7288   -2.2618    0.0000 C   0  0  0  0  0  0  0  0  0
   -8.3693   -0.5100    0.0000 C   0  0  0  0  0  0  0  0  0
   -8.5529    0.2944    0.0000 O   0  0  0  0  0  0  0  0  0
   -3.1486    3.6986    0.0000 C   0  0  0  0  0  0  0  0  0
   -2.6342    4.3436    0.0000 C   0  0  0  0  0  0  0  0  0
  1  2  1  0  0  0  0
  1  3  1  0  0  0  0
  3  4  4  0  0  0  0
  3 30  4  0  0  0  0
  4  5  4  0  0  0  0
  5  6  4  0  0  0  0
  6  7  1  0  0  0  0
  6 29  4  0  0  0  0
  7  8  1  0  0  0  0
  7 12  1  0  0  0  0
  8  9  1  0  0  0  0
  9 10  1  0  0  0  0
 10 11  1  0  0  0  0
 10 13  1  0  0  0  0
 11 12  1  0  0  0  0
 13 14  1  0  0  0  0
 14 15  1  0  0  0  0
 15 16  1  0  0  0  0
 16 17  1  0  0  0  0
 17 18  1  0  0  0  0
 17 27  1  0  0  0  0
 18 19  1  0  0  0  0
 19 20  1  0  0  0  0
 20 21  1  0  0  0  0
 21 22  4  0  0  0  0
 21 26  4  0  0  0  0
 22 23  4  0  0  0  0
 22 27  1  0  0  0  0
 23 24  4  0  0  0  0
 24 25  4  0  0  0  0
 25 26  4  0  0  0  0
 27 28  2  0  0  0  0
 29 30  4  0  0  0  0
M  END
>  <Name_Molregno>
497601

>  <DOPAMINE D3>
7.4

$$$$
497602
  Marvin  02231216192D 0   1.00000     0.00000     0

 28 31  0  0  0  0  0  0  0  0999 V2000
    0.7643   -2.3815    0.0000 O   0  0  0  0  0  0  0  0  0
    0.9479   -3.1859    0.0000 C   0  0  0  0  0  0  0  0  0
    1.7522   -3.3694    0.0000 N   0  0  0  0  0  0  0  0  0
    2.1101   -4.1127    0.0000 C   0  0  0  0  0  0  0  0  0
    1.7522   -4.8560    0.0000 C   0  0  0  0  0  0  0  0  0
    0.9479   -5.0396    0.0000 C   0  0  0  0  0  0  0  0  0
    0.3028   -4.5252    0.0000 C   0  0  0  0  0  0  0  0  0
    0.3028   -3.7002    0.0000 C   0  0  0  0  0  0  0  0  0
   -0.4116   -3.2877    0.0000 C   0  0  0  0  0  0  0  0  0
   -1.1261   -3.7002    0.0000 C   0  0  0  0  0  0  0  0  0
   -1.1261   -4.5252    0.0000 C   0  0  0  0  0  0  0  0  0
   -0.4116   -4.9377    0.0000 C   0  0  0  0  0  0  0  0  0
    2.2666   -2.7244    0.0000 C   0  0  0  0  0  0  0  0  0
    1.9651   -1.9565    0.0000 C   0  0  0  0  0  0  0  0  0
    2.4795   -1.3114    0.0000 C   0  0  0  0  0  0  0  0  0
    2.1781   -0.5435    0.0000 C   0  0  0  0  0  0  0  0  0
    2.6925    0.1015    0.0000 N   0  0  0  0  0  0  0  0  0
    2.3911    0.8695    0.0000 C   0  0  0  0  0  0  0  0  0
    2.9055    1.5145    0.0000 C   0  0  0  0  0  0  0  0  0
    3.7213    1.3916    0.0000 N   0  0  0  0  0  0  0  0  0
    4.0227    0.6236    0.0000 C   0  0  0  0  0  0  0  0  0
    3.5083   -0.0214    0.0000 C   0  0  0  0  0  0  0  0  0
    4.2356    2.0366    0.0000 C   0  0  0  0  0  0  0  0  0
    3.9342    2.8045    0.0000 N   0  0  0  0  0  0  0  0  0
    4.4486    3.4495    0.0000 C   0  0  0  0  0  0  0  0  0
    5.2644    3.3266    0.0000 C   0  0  0  0  0  0  0  0  0
    5.5658    2.5586    0.0000 C   0  0  0  0  0  0  0  0  0
    5.0514    1.9136    0.0000 C   0  0  0  0  0  0  0  0  0
  1  2  2  0  0  0  0
  2  3  1  0  0  0  0
  2  8  1  0  0  0  0
  3  4  1  0  0  0  0
  3 13  1  0  0  0  0
  4  5  1  0  0  0  0
  5  6  1  0  0  0  0
  6  7  1  0  0  0  0
  7  8  4  0  0  0  0
  7 12  4  0  0  0  0
  8  9  4  0  0  0  0
  9 10  4  0  0  0  0
 10 11  4  0  0  0  0
 11 12  4  0  0  0  0
 13 14  1  0  0  0  0
 14 15  1  0  0  0  0
 15 16  1  0  0  0  0
 16 17  1  0  0  0  0
 17 18  1  0  0  0  0
 17 22  1  0  0  0  0
 18 19  1  0  0  0  0
 19 20  1  0  0  0  0
 20 21  1  0  0  0  0
 20 23  1  0  0  0  0
 21 22  1  0  0  0  0
 23 24  4  0  0  0  0
 23 28  4  0  0  0  0
 24 25  4  0  0  0  0
 25 26  4  0  0  0  0
 26 27  4  0  0  0  0
 27 28  4  0  0  0  0
M  END
>  <Name_Molregno>
497602

>  <DOPAMINE D1>
6.55

>  <DOPAMINE D2>
6.64

>  <DOPAMINE D3>
6.4

$$$$
497603
  Marvin  02231216192D 0   1.00000     0.00000     0

 28 31  0  0  0  0  0  0  0  0999 V2000
    0.7643   -2.3815    0.0000 O   0  0  0  0  0  0  0  0  0
    0.9479   -3.1859    0.0000 C   0  0  0  0  0  0  0  0  0
    1.7522   -3.3694    0.0000 N   0  0  0  0  0  0  0  0  0
    2.1101   -4.1127    0.0000 C   0  0  0  0  0  0  0  0  0
    1.7522   -4.8560    0.0000 C   0  0  0  0  0  0  0  0  0
    0.9479   -5.0396    0.0000 C   0  0  0  0  0  0  0  0  0
    0.3028   -4.5252    0.0000 C   0  0  0  0  0  0  0  0  0
    0.3028   -3.7002    0.0000 C   0  0  0  0  0  0  0  0  0
   -0.4116   -3.2877    0.0000 C   0  0  0  0  0  0  0  0  0
   -1.1261   -3.7002    0.0000 C   0  0  0  0  0  0  0  0  0
   -1.1261   -4.5252    0.0000 C   0  0  0  0  0  0  0  0  0
   -0.4116   -4.9377    0.0000 C   0  0  0  0  0  0  0  0  0
    2.2666   -2.7244    0.0000 C   0  0  0  0  0  0  0  0  0
    1.9651   -1.9565    0.0000 C   0  0  0  0  0  0  0  0  0
    2.4795   -1.3114    0.0000 C   0  0  0  0  0  0  0  0  0
    2.1781   -0.5435    0.0000 C   0  0  0  0  0  0  0  0  0
    2.6925    0.1015    0.0000 N   0  0  0  0  0  0  0  0  0
    2.3911    0.8695    0.0000 C   0  0  0  0  0  0  0  0  0
    2.9055    1.5145    0.0000 C   0  0  0  0  0  0  0  0  0
    3.7213    1.3916    0.0000 N   0  0  0  0  0  0  0  0  0
    4.0227    0.6236    0.0000 C   0  0  0  0  0  0  0  0  0
    3.5083   -0.0214    0.0000 C   0  0  0  0  0  0  0  0  0
    4.2356    2.0366    0.0000 C   0  0  0  0  0  0  0  0  0
    3.9342    2.8045    0.0000 N   0  0  0  0  0  0  0  0  0
    4.4486    3.4495    0.0000 C   0  0  0  0  0  0  0  0  0
    5.2644    3.3266    0.0000 C   0  0  0  0  0  0  0  0  0
    5.5658    2.5586    0.0000 C   0  0  0  0  0  0  0  0  0
    5.0514    1.9136    0.0000 N   0  0  0  0  0  0  0  0  0
  1  2  2  0  0  0  0
  2  3  1  0  0  0  0
  2  8  1  0  0  0  0
  3  4  1  0  0  0  0
  3 13  1  0  0  0  0
  4  5  1  0  0  0  0
  5  6  1  0  0  0  0
  6  7  1  0  0  0  0
  7  8  4  0  0  0  0
  7 12  4  0  0  0  0
  8  9  4  0  0  0  0
  9 10  4  0  0  0  0
 10 11  4  0  0  0  0
 11 12  4  0  0  0  0
 13 14  1  0  0  0  0
 14 15  1  0  0  0  0
 15 16  1  0  0  0  0
 16 17  1  0  0  0  0
 17 18  1  0  0  0  0
 17 22  1  0  0  0  0
 18 19  1  0  0  0  0
 19 20  1  0  0  0  0
 20 21  1  0  0  0  0
 20 23  1  0  0  0  0
 21 22  1  0  0  0  0
 23 24  4  0  0  0  0
 23 28  4  0  0  0  0
 24 25  4  0  0  0  0
 25 26  4  0  0  0  0
 26 27  4  0  0  0  0
 27 28  4  0  0  0  0
M  END
>  <Name_Molregno>
497603

>  <DOPAMINE D1>
5.06

>  <DOPAMINE D2>
6.82

>  <DOPAMINE D3>
6.2

$$$$
497604
  Marvin  02231216192D 0   1.00000     0.00000     0

 30 33  0  0  0  0  0  0  0  0999 V2000
    7.9486    1.1222    0.0000 Cl  0  0  0  0  0  0  0  0  0
    7.6471    1.8902    0.0000 C   0  0  0  0  0  0  0  0  0
    6.8314    2.0131    0.0000 C   0  0  0  0  0  0  0  0  0
    6.3170    1.3681    0.0000 N   0  0  0  0  0  0  0  0  0
    6.6184    0.6001    0.0000 C   0  0  0  0  0  0  0  0  0
    6.1040   -0.0449    0.0000 C   0  0  0  0  0  0  0  0  0
    5.2882    0.0781    0.0000 N   0  0  0  0  0  0  0  0  0
    4.9868    0.8461    0.0000 C   0  0  0  0  0  0  0  0  0
    5.5012    1.4911    0.0000 C   0  0  0  0  0  0  0  0  0
    4.7738   -0.5669    0.0000 C   0  0  0  0  0  0  0  0  0
    3.9581   -0.4440    0.0000 C   0  0  0  0  0  0  0  0  0
    3.4437   -1.0890    0.0000 C   0  0  0  0  0  0  0  0  0
    2.6279   -0.9660    0.0000 C   0  0  0  0  0  0  0  0  0
    2.1135   -1.6110    0.0000 N   0  0  0  0  0  0  0  0  0
    2.4715   -2.3543    0.0000 C   0  0  0  0  0  0  0  0  0
    2.1135   -3.0976    0.0000 C   0  0  0  0  0  0  0  0  0
    1.3092   -3.2812    0.0000 C   0  0  0  0  0  0  0  0  0
    0.6642   -2.7668    0.0000 C   0  0  0  0  0  0  0  0  0
    0.6642   -1.9418    0.0000 C   0  0  0  0  0  0  0  0  0
   -0.0503   -1.5293    0.0000 C   0  0  0  0  0  0  0  0  0
   -0.7648   -1.9418    0.0000 C   0  0  0  0  0  0  0  0  0
   -0.7648   -2.7668    0.0000 C   0  0  0  0  0  0  0  0  0
   -0.0503   -3.1793    0.0000 C   0  0  0  0  0  0  0  0  0
    1.3092   -1.4274    0.0000 C   0  0  0  0  0  0  0  0  0
    1.1256   -0.6231    0.0000 O   0  0  0  0  0  0  0  0  0
    6.5300    2.7811    0.0000 C   0  0  0  0  0  0  0  0  0
    7.0443    3.4261    0.0000 C   0  0  0  0  0  0  0  0  0
    7.8601    3.3031    0.0000 C   0  0  0  0  0  0  0  0  0
    8.1615    2.5352    0.0000 C   0  0  0  0  0  0  0  0  0
    8.9773    2.4122    0.0000 Cl  0  0  0  0  0  0  0  0  0
  1  2  1  0  0  0  0
  2  3  4  0  0  0  0
  2 29  4  0  0  0  0
  3  4  1  0  0  0  0
  3 26  4  0  0  0  0
  4  5  1  0  0  0  0
  4  9  1  0  0  0  0
  5  6  1  0  0  0  0
  6  7  1  0  0  0  0
  7  8  1  0  0  0  0
  7 10  1  0  0  0  0
  8  9  1  0  0  0  0
 10 11  1  0  0  0  0
 11 12  1  0  0  0  0
 12 13  1  0  0  0  0
 13 14  1  0  0  0  0
 14 15  1  0  0  0  0
 14 24  1  0  0  0  0
 15 16  1  0  0  0  0
 16 17  1  0  0  0  0
 17 18  1  0  0  0  0
 18 19  4  0  0  0  0
 18 23  4  0  0  0  0
 19 20  4  0  0  0  0
 19 24  1  0  0  0  0
 20 21  4  0  0  0  0
 21 22  4  0  0  0  0
 22 23  4  0  0  0  0
 24 25  2  0  0  0  0
 26 27  4  0  0  0  0
 27 28  4  0  0  0  0
 28 29  4  0  0  0  0
 29 30  1  0  0  0  0
M  END
>  <Name_Molregno>
497604

>  <DOPAMINE D1>
5.76

>  <DOPAMINE D2>
7.44

>  <DOPAMINE D3>
7.84

$$$$
497669
  Marvin  02231216192D 0   1.00000     0.00000     0

 30 33  0  0  0  0  0  0  0  0999 V2000
   -0.7362   -0.7018    0.0000 O   0  0  0  0  0  0  0  0  0
   -1.4506   -1.1143    0.0000 C   0  0  0  0  0  0  0  0  0
   -0.7362    0.1232    0.0000 C   0  0  0  0  0  0  0  0  0
   -1.4506    0.5357    0.0000 C   0  0  0  0  0  0  0  0  0
   -1.4506    1.3607    0.0000 C   0  0  0  0  0  0  0  0  0
   -0.7362    1.7732    0.0000 C   0  0  0  0  0  0  0  0  0
   -0.0217    1.3607    0.0000 C   0  0  0  0  0  0  0  0  0
   -0.0217    0.5357    0.0000 C   0  0  0  0  0  0  0  0  0
    0.6928    0.1232    0.0000 N   0  0  0  0  0  0  0  0  0
    1.4072    0.5357    0.0000 C   0  0  0  0  0  0  0  0  0
    2.1217    0.1232    0.0000 C   0  0  0  0  0  0  0  0  0
    2.1217   -0.7018    0.0000 N   0  0  0  0  0  0  0  0  0
    1.4072   -1.1143    0.0000 C   0  0  0  0  0  0  0  0  0
    0.6928   -0.7018    0.0000 C   0  0  0  0  0  0  0  0  0
    2.8362   -1.1143    0.0000 C   0  0  0  0  0  0  0  0  0
    3.5507   -0.7018    0.0000 C   0  0  0  0  0  0  0  0  0
    4.2651   -1.1143    0.0000 C   0  0  0  0  0  0  0  0  0
    4.9796   -0.7018    0.0000 C   0  0  0  0  0  0  0  0  0
    5.6941   -1.1143    0.0000 C   0  0  0  0  0  0  0  0  0
    6.4085   -0.7018    0.0000 N   0  0  0  0  0  0  0  0  0
    7.1230   -1.1143    0.0000 C   0  0  0  0  0  0  0  0  0
    7.8375   -0.7018    0.0000 C   0  0  0  0  0  0  0  0  0
    7.8375    0.1232    0.0000 C   0  0  0  0  0  0  0  0  0
    7.1230    0.5357    0.0000 C   0  0  0  0  0  0  0  0  0
    7.1230    1.3607    0.0000 C   0  0  0  0  0  0  0  0  0
    7.8375    1.7732    0.0000 C   0  0  0  0  0  0  0  0  0
    8.5520    1.3607    0.0000 C   0  0  0  0  0  0  0  0  0
    8.5520    0.5357    0.0000 C   0  0  0  0  0  0  0  0  0
    6.4085    0.1232    0.0000 C   0  0  0  0  0  0  0  0  0
    5.6941    0.5357    0.0000 O   0  0  0  0  0  0  0  0  0
  1  2  1  0  0  0  0
  1  3  1  0  0  0  0
  3  4  4  0  0  0  0
  3  8  4  0  0  0  0
  4  5  4  0  0  0  0
  5  6  4  0  0  0  0
  6  7  4  0  0  0  0
  7  8  4  0  0  0  0
  8  9  1  0  0  0  0
  9 10  1  0  0  0  0
  9 14  1  0  0  0  0
 10 11  1  0  0  0  0
 11 12  1  0  0  0  0
 12 13  1  0  0  0  0
 12 15  1  0  0  0  0
 13 14  1  0  0  0  0
 15 16  1  0  0  0  0
 16 17  1  0  0  0  0
 17 18  1  0  0  0  0
 18 19  1  0  0  0  0
 19 20  1  0  0  0  0
 20 21  1  0  0  0  0
 20 29  1  0  0  0  0
 21 22  1  0  0  0  0
 22 23  1  0  0  0  0
 23 24  4  0  0  0  0
 23 28  4  0  0  0  0
 24 25  4  0  0  0  0
 24 29  1  0  0  0  0
 25 26  4  0  0  0  0
 26 27  4  0  0  0  0
 27 28  4  0  0  0  0
 29 30  2  0  0  0  0
M  END
>  <Name_Molregno>
497669

>  <DOPAMINE D1>
6.01

>  <DOPAMINE D2>
7.69

>  <DOPAMINE D3>
7.49

$$$$
498399
  Marvin  02231216192D 0   1.00000     0.00000     0

 28 31  0  0  0  0  0  0  0  0999 V2000
   -6.0260    2.1161    0.0000 O   0  0  0  0  0  0  0  0  0
   -6.7405    2.5286    0.0000 C   0  0  0  0  0  0  0  0  0
   -5.3116    2.5286    0.0000 C   0  0  0  0  0  0  0  0  0
   -5.3116    3.3536    0.0000 C   0  0  0  0  0  0  0  0  0
   -4.5971    3.7661    0.0000 C   0  0  0  0  0  0  0  0  0
   -3.8826    3.3536    0.0000 C   0  0  0  0  0  0  0  0  0
   -3.8826    2.5286    0.0000 C   0  0  0  0  0  0  0  0  0
   -4.5971    2.1161    0.0000 C   0  0  0  0  0  0  0  0  0
   -4.5971    1.2911    0.0000 N   0  0  0  0  0  0  0  0  0
   -3.8826    0.8786    0.0000 C   0  0  0  0  0  0  0  0  0
   -3.8826    0.0536    0.0000 C   0  0  0  0  0  0  0  0  0
   -4.5971   -0.3589    0.0000 N   0  0  0  0  0  0  0  0  0
   -5.3116    0.0536    0.0000 C   0  0  0  0  0  0  0  0  0
   -5.3116    0.8786    0.0000 C   0  0  0  0  0  0  0  0  0
   -4.5971   -1.1839    0.0000 C   0  0  0  0  0  0  0  0  0
   -3.8826   -1.5964    0.0000 C   0  0  0  0  0  0  0  0  0
   -3.8826   -2.4214    0.0000 C   0  0  0  0  0  0  0  0  0
   -3.1682   -2.8339    0.0000 N   0  0  0  0  0  0  0  0  0
   -3.1682   -3.6589    0.0000 C   0  0  0  0  0  0  0  0  0
   -2.4537   -4.0714    0.0000 C   0  0  0  0  0  0  0  0  0
   -1.7392   -3.6589    0.0000 C   0  0  0  0  0  0  0  0  0
   -1.7392   -2.8339    0.0000 C   0  0  0  0  0  0  0  0  0
   -1.0247   -2.4214    0.0000 C   0  0  0  0  0  0  0  0  0
   -0.3103   -2.8339    0.0000 C   0  0  0  0  0  0  0  0  0
   -0.3103   -3.6589    0.0000 C   0  0  0  0  0  0  0  0  0
   -1.0247   -4.0714    0.0000 C   0  0  0  0  0  0  0  0  0
   -2.4537   -2.4214    0.0000 C   0  0  0  0  0  0  0  0  0
   -2.4537   -1.5964    0.0000 O   0  0  0  0  0  0  0  0  0
  1  2  1  0  0  0  0
  1  3  1  0  0  0  0
  3  4  4  0  0  0  0
  3  8  4  0  0  0  0
  4  5  4  0  0  0  0
  5  6  4  0  0  0  0
  6  7  4  0  0  0  0
  7  8  4  0  0  0  0
  8  9  1  0  0  0  0
  9 10  1  0  0  0  0
  9 14  1  0  0  0  0
 10 11  1  0  0  0  0
 11 12  1  0  0  0  0
 12 13  1  0  0  0  0
 12 15  1  0  0  0  0
 13 14  1  0  0  0  0
 15 16  1  0  0  0  0
 16 17  1  0  0  0  0
 17 18  1  0  0  0  0
 18 19  1  0  0  0  0
 18 27  1  0  0  0  0
 19 20  1  0  0  0  0
 20 21  1  0  0  0  0
 21 22  4  0  0  0  0
 21 26  4  0  0  0  0
 22 23  4  0  0  0  0
 22 27  1  0  0  0  0
 23 24  4  0  0  0  0
 24 25  4  0  0  0  0
 25 26  4  0  0  0  0
 27 28  2  0  0  0  0
M  END
>  <Name_Molregno>
498399

>  <DOPAMINE D3>
5.8

$$$$
498400
  Marvin  02231216192D 0   1.00000     0.00000     0

 28 31  0  0  0  0  0  0  0  0999 V2000
   -6.2244    5.7970    0.0000 O   0  0  0  0  0  0  0  0  0
   -6.9389    6.2095    0.0000 C   0  0  0  0  0  0  0  0  0
   -6.2244    4.9720    0.0000 C   0  0  0  0  0  0  0  0  0
   -5.5099    4.5595    0.0000 C   0  0  0  0  0  0  0  0  0
   -5.5099    3.7345    0.0000 C   0  0  0  0  0  0  0  0  0
   -6.2244    3.3220    0.0000 C   0  0  0  0  0  0  0  0  0
   -6.2244    2.4970    0.0000 N   0  0  0  0  0  0  0  0  0
   -5.5099    2.0845    0.0000 C   0  0  0  0  0  0  0  0  0
   -5.5099    1.2595    0.0000 C   0  0  0  0  0  0  0  0  0
   -6.2244    0.8470    0.0000 N   0  0  0  0  0  0  0  0  0
   -6.9389    1.2595    0.0000 C   0  0  0  0  0  0  0  0  0
   -6.9389    2.0845    0.0000 C   0  0  0  0  0  0  0  0  0
   -6.2244    0.0220    0.0000 C   0  0  0  0  0  0  0  0  0
   -5.5099   -0.3905    0.0000 C   0  0  0  0  0  0  0  0  0
   -5.5099   -1.2155    0.0000 C   0  0  0  0  0  0  0  0  0
   -4.7954   -1.6280    0.0000 N   0  0  0  0  0  0  0  0  0
   -4.7954   -2.4530    0.0000 C   0  0  0  0  0  0  0  0  0
   -4.0810   -2.8655    0.0000 C   0  0  0  0  0  0  0  0  0
   -3.3665   -2.4530    0.0000 C   0  0  0  0  0  0  0  0  0
   -3.3665   -1.6280    0.0000 C   0  0  0  0  0  0  0  0  0
   -2.6520   -1.2155    0.0000 C   0  0  0  0  0  0  0  0  0
   -1.9376   -1.6280    0.0000 C   0  0  0  0  0  0  0  0  0
   -1.9376   -2.4530    0.0000 C   0  0  0  0  0  0  0  0  0
   -2.6520   -2.8655    0.0000 C   0  0  0  0  0  0  0  0  0
   -4.0810   -1.2155    0.0000 C   0  0  0  0  0  0  0  0  0
   -4.0810   -0.3905    0.0000 O   0  0  0  0  0  0  0  0  0
   -6.9389    3.7345    0.0000 C   0  0  0  0  0  0  0  0  0
   -6.9389    4.5595    0.0000 C   0  0  0  0  0  0  0  0  0
  1  2  1  0  0  0  0
  1  3  1  0  0  0  0
  3  4  4  0  0  0  0
  3 28  4  0  0  0  0
  4  5  4  0  0  0  0
  5  6  4  0  0  0  0
  6  7  1  0  0  0  0
  6 27  4  0  0  0  0
  7  8  1  0  0  0  0
  7 12  1  0  0  0  0
  8  9  1  0  0  0  0
  9 10  1  0  0  0  0
 10 11  1  0  0  0  0
 10 13  1  0  0  0  0
 11 12  1  0  0  0  0
 13 14  1  0  0  0  0
 14 15  1  0  0  0  0
 15 16  1  0  0  0  0
 16 17  1  0  0  0  0
 16 25  1  0  0  0  0
 17 18  1  0  0  0  0
 18 19  1  0  0  0  0
 19 20  4  0  0  0  0
 19 24  4  0  0  0  0
 20 21  4  0  0  0  0
 20 25  1  0  0  0  0
 21 22  4  0  0  0  0
 22 23  4  0  0  0  0
 23 24  4  0  0  0  0
 25 26  2  0  0  0  0
 27 28  4  0  0  0  0
M  END
>  <Name_Molregno>
498400

>  <DOPAMINE D3>
5

$$$$
498401
  Marvin  02231216192D 0   1.00000     0.00000     0

 26 29  0  0  0  0  0  0  0  0999 V2000
   -2.0281   -1.2048    0.0000 O   0  0  0  0  0  0  0  0  0
   -2.0281   -2.0298    0.0000 C   0  0  0  0  0  0  0  0  0
   -2.7426   -2.4423    0.0000 N   0  0  0  0  0  0  0  0  0
   -2.7426   -3.2673    0.0000 C   0  0  0  0  0  0  0  0  0
   -2.0281   -3.6798    0.0000 C   0  0  0  0  0  0  0  0  0
   -1.3136   -3.2673    0.0000 C   0  0  0  0  0  0  0  0  0
   -1.3136   -2.4423    0.0000 C   0  0  0  0  0  0  0  0  0
   -0.5992   -2.0298    0.0000 C   0  0  0  0  0  0  0  0  0
    0.1153   -2.4423    0.0000 C   0  0  0  0  0  0  0  0  0
    0.1153   -3.2673    0.0000 C   0  0  0  0  0  0  0  0  0
   -0.5992   -3.6798    0.0000 C   0  0  0  0  0  0  0  0  0
   -3.4570   -2.0298    0.0000 C   0  0  0  0  0  0  0  0  0
   -3.4570   -1.2048    0.0000 C   0  0  0  0  0  0  0  0  0
   -4.1715   -0.7923    0.0000 C   0  0  0  0  0  0  0  0  0
   -4.1715    0.0327    0.0000 N   0  0  0  0  0  0  0  0  0
   -4.8860    0.4452    0.0000 C   0  0  0  0  0  0  0  0  0
   -4.8860    1.2702    0.0000 C   0  0  0  0  0  0  0  0  0
   -4.1715    1.6827    0.0000 N   0  0  0  0  0  0  0  0  0
   -3.4570    1.2702    0.0000 C   0  0  0  0  0  0  0  0  0
   -3.4570    0.4452    0.0000 C   0  0  0  0  0  0  0  0  0
   -4.1715    2.5077    0.0000 C   0  0  0  0  0  0  0  0  0
   -4.8860    2.9202    0.0000 N   0  0  0  0  0  0  0  0  0
   -4.8860    3.7452    0.0000 C   0  0  0  0  0  0  0  0  0
   -4.1715    4.1577    0.0000 C   0  0  0  0  0  0  0  0  0
   -3.4570    3.7452    0.0000 C   0  0  0  0  0  0  0  0  0
   -3.4570    2.9202    0.0000 C   0  0  0  0  0  0  0  0  0
  1  2  2  0  0  0  0
  2  3  1  0  0  0  0
  2  7  1  0  0  0  0
  3  4  1  0  0  0  0
  3 12  1  0  0  0  0
  4  5  1  0  0  0  0
  5  6  1  0  0  0  0
  6  7  4  0  0  0  0
  6 11  4  0  0  0  0
  7  8  4  0  0  0  0
  8  9  4  0  0  0  0
  9 10  4  0  0  0  0
 10 11  4  0  0  0  0
 12 13  1  0  0  0  0
 13 14  1  0  0  0  0
 14 15  1  0  0  0  0
 15 16  1  0  0  0  0
 15 20  1  0  0  0  0
 16 17  1  0  0  0  0
 17 18  1  0  0  0  0
 18 19  1  0  0  0  0
 18 21  1  0  0  0  0
 19 20  1  0  0  0  0
 21 22  4  0  0  0  0
 21 26  4  0  0  0  0
 22 23  4  0  0  0  0
 23 24  4  0  0  0  0
 24 25  4  0  0  0  0
 25 26  4  0  0  0  0
M  END
>  <Name_Molregno>
498401

>  <DOPAMINE D1>
5.77

>  <DOPAMINE D3>
5.08

$$$$
498402
  Marvin  02231216192D 0   1.00000     0.00000     0

 26 29  0  0  0  0  0  0  0  0999 V2000
   -2.0281   -1.2048    0.0000 O   0  0  0  0  0  0  0  0  0
   -2.0281   -2.0298    0.0000 C   0  0  0  0  0  0  0  0  0
   -2.7426   -2.4423    0.0000 N   0  0  0  0  0  0  0  0  0
   -2.7426   -3.2673    0.0000 C   0  0  0  0  0  0  0  0  0
   -2.0281   -3.6798    0.0000 C   0  0  0  0  0  0  0  0  0
   -1.3136   -3.2673    0.0000 C   0  0  0  0  0  0  0  0  0
   -1.3136   -2.4423    0.0000 C   0  0  0  0  0  0  0  0  0
   -0.5992   -2.0298    0.0000 C   0  0  0  0  0  0  0  0  0
    0.1153   -2.4423    0.0000 C   0  0  0  0  0  0  0  0  0
    0.1153   -3.2673    0.0000 C   0  0  0  0  0  0  0  0  0
   -0.5992   -3.6798    0.0000 C   0  0  0  0  0  0  0  0  0
   -3.4570   -2.0298    0.0000 C   0  0  0  0  0  0  0  0  0
   -3.4570   -1.2048    0.0000 C   0  0  0  0  0  0  0  0  0
   -4.1715   -0.7923    0.0000 C   0  0  0  0  0  0  0  0  0
   -4.1715    0.0327    0.0000 N   0  0  0  0  0  0  0  0  0
   -4.8860    0.4452    0.0000 C   0  0  0  0  0  0  0  0  0
   -4.8860    1.2702    0.0000 C   0  0  0  0  0  0  0  0  0
   -4.1715    1.6827    0.0000 N   0  0  0  0  0  0  0  0  0
   -3.4570    1.2702    0.0000 C   0  0  0  0  0  0  0  0  0
   -3.4570    0.4452    0.0000 C   0  0  0  0  0  0  0  0  0
   -4.1715    2.5077    0.0000 C   0  0  0  0  0  0  0  0  0
   -4.8860    2.9202    0.0000 N   0  0  0  0  0  0  0  0  0
   -4.8860    3.7452    0.0000 C   0  0  0  0  0  0  0  0  0
   -4.1715    4.1577    0.0000 C   0  0  0  0  0  0  0  0  0
   -3.4570    3.7452    0.0000 C   0  0  0  0  0  0  0  0  0
   -3.4570    2.9202    0.0000 N   0  0  0  0  0  0  0  0  0
  1  2  2  0  0  0  0
  2  3  1  0  0  0  0
  2  7  1  0  0  0  0
  3  4  1  0  0  0  0
  3 12  1  0  0  0  0
  4  5  1  0  0  0  0
  5  6  1  0  0  0  0
  6  7  4  0  0  0  0
  6 11  4  0  0  0  0
  7  8  4  0  0  0  0
  8  9  4  0  0  0  0
  9 10  4  0  0  0  0
 10 11  4  0  0  0  0
 12 13  1  0  0  0  0
 13 14  1  0  0  0  0
 14 15  1  0  0  0  0
 15 16  1  0  0  0  0
 15 20  1  0  0  0  0
 16 17  1  0  0  0  0
 17 18  1  0  0  0  0
 18 19  1  0  0  0  0
 18 21  1  0  0  0  0
 19 20  1  0  0  0  0
 21 22  4  0  0  0  0
 21 26  4  0  0  0  0
 22 23  4  0  0  0  0
 23 24  4  0  0  0  0
 24 25  4  0  0  0  0
 25 26  4  0  0  0  0
M  END
>  <Name_Molregno>
498402

>  <DOPAMINE D3>
4.61

$$$$
498475
  Marvin  02231216192D 0   1.00000     0.00000     0

 30 33  0  0  0  0  0  0  0  0999 V2000
    4.9975    3.7939    0.0000 F   0  0  0  0  0  0  0  0  0
    4.2830    3.3814    0.0000 C   0  0  0  0  0  0  0  0  0
    3.8705    4.0959    0.0000 F   0  0  0  0  0  0  0  0  0
    4.6955    2.6669    0.0000 F   0  0  0  0  0  0  0  0  0
    3.5686    2.9689    0.0000 C   0  0  0  0  0  0  0  0  0
    3.5686    2.1439    0.0000 C   0  0  0  0  0  0  0  0  0
    2.8541    1.7314    0.0000 C   0  0  0  0  0  0  0  0  0
    2.8541    0.9064    0.0000 N   0  0  0  0  0  0  0  0  0
    3.5686    0.4939    0.0000 C   0  0  0  0  0  0  0  0  0
    3.5686   -0.3311    0.0000 C   0  0  0  0  0  0  0  0  0
    2.8541   -0.7436    0.0000 N   0  0  0  0  0  0  0  0  0
    2.1396   -0.3311    0.0000 C   0  0  0  0  0  0  0  0  0
    2.1396    0.4939    0.0000 C   0  0  0  0  0  0  0  0  0
    2.8541   -1.5686    0.0000 C   0  0  0  0  0  0  0  0  0
    3.5686   -1.9811    0.0000 C   0  0  0  0  0  0  0  0  0
    3.5686   -2.8061    0.0000 C   0  0  0  0  0  0  0  0  0
    4.2830   -3.2186    0.0000 N   0  0  0  0  0  0  0  0  0
    4.2830   -4.0436    0.0000 C   0  0  0  0  0  0  0  0  0
    4.9975   -4.4561    0.0000 C   0  0  0  0  0  0  0  0  0
    5.7120   -4.0436    0.0000 C   0  0  0  0  0  0  0  0  0
    5.7120   -3.2186    0.0000 C   0  0  0  0  0  0  0  0  0
    6.4264   -2.8061    0.0000 C   0  0  0  0  0  0  0  0  0
    7.1409   -3.2186    0.0000 C   0  0  0  0  0  0  0  0  0
    7.1409   -4.0436    0.0000 C   0  0  0  0  0  0  0  0  0
    6.4264   -4.4561    0.0000 C   0  0  0  0  0  0  0  0  0
    4.9975   -2.8061    0.0000 C   0  0  0  0  0  0  0  0  0
    4.9975   -1.9811    0.0000 O   0  0  0  0  0  0  0  0  0
    2.1396    2.1439    0.0000 C   0  0  0  0  0  0  0  0  0
    2.1396    2.9689    0.0000 C   0  0  0  0  0  0  0  0  0
    2.8541    3.3814    0.0000 C   0  0  0  0  0  0  0  0  0
  1  2  1  0  0  0  0
  2  3  1  0  0  0  0
  2  4  1  0  0  0  0
  2  5  1  0  0  0  0
  5  6  4  0  0  0  0
  5 30  4  0  0  0  0
  6  7  4  0  0  0  0
  7  8  1  0  0  0  0
  7 28  4  0  0  0  0
  8  9  1  0  0  0  0
  8 13  1  0  0  0  0
  9 10  1  0  0  0  0
 10 11  1  0  0  0  0
 11 12  1  0  0  0  0
 11 14  1  0  0  0  0
 12 13  1  0  0  0  0
 14 15  1  0  0  0  0
 15 16  1  0  0  0  0
 16 17  1  0  0  0  0
 17 18  1  0  0  0  0
 17 26  1  0  0  0  0
 18 19  1  0  0  0  0
 19 20  1  0  0  0  0
 20 21  4  0  0  0  0
 20 25  4  0  0  0  0
 21 22  4  0  0  0  0
 21 26  1  0  0  0  0
 22 23  4  0  0  0  0
 23 24  4  0  0  0  0
 24 25  4  0  0  0  0
 26 27  2  0  0  0  0
 28 29  4  0  0  0  0
 29 30  4  0  0  0  0
M  END
>  <Name_Molregno>
498475

>  <DOPAMINE D1>
5.76

>  <DOPAMINE D3>
5.62

$$$$
498476
  Marvin  02231216192D 0   1.00000     0.00000     0

 28 31  0  0  0  0  0  0  0  0999 V2000
   -0.0977   -0.0043    0.0000 Cl  0  0  0  0  0  0  0  0  0
   -0.0977   -0.8293    0.0000 C   0  0  0  0  0  0  0  0  0
    0.6168   -1.2418    0.0000 C   0  0  0  0  0  0  0  0  0
    1.3313   -0.8293    0.0000 N   0  0  0  0  0  0  0  0  0
    1.3313   -0.0043    0.0000 C   0  0  0  0  0  0  0  0  0
    2.0457    0.4082    0.0000 C   0  0  0  0  0  0  0  0  0
    2.7602   -0.0043    0.0000 N   0  0  0  0  0  0  0  0  0
    2.7602   -0.8293    0.0000 C   0  0  0  0  0  0  0  0  0
    2.0457   -1.2418    0.0000 C   0  0  0  0  0  0  0  0  0
    3.4747    0.4082    0.0000 C   0  0  0  0  0  0  0  0  0
    4.1892   -0.0043    0.0000 C   0  0  0  0  0  0  0  0  0
    4.9036    0.4082    0.0000 C   0  0  0  0  0  0  0  0  0
    5.6181   -0.0043    0.0000 N   0  0  0  0  0  0  0  0  0
    5.6181   -0.8293    0.0000 C   0  0  0  0  0  0  0  0  0
    6.3326   -1.2418    0.0000 C   0  0  0  0  0  0  0  0  0
    7.0470   -0.8293    0.0000 C   0  0  0  0  0  0  0  0  0
    7.0470   -0.0043    0.0000 C   0  0  0  0  0  0  0  0  0
    7.7615    0.4082    0.0000 C   0  0  0  0  0  0  0  0  0
    8.4760   -0.0043    0.0000 C   0  0  0  0  0  0  0  0  0
    8.4760   -0.8293    0.0000 C   0  0  0  0  0  0  0  0  0
    7.7615   -1.2418    0.0000 C   0  0  0  0  0  0  0  0  0
    6.3326    0.4082    0.0000 C   0  0  0  0  0  0  0  0  0
    6.3326    1.2332    0.0000 O   0  0  0  0  0  0  0  0  0
    0.6168   -2.0668    0.0000 C   0  0  0  0  0  0  0  0  0
   -0.0977   -2.4793    0.0000 C   0  0  0  0  0  0  0  0  0
   -0.8121   -2.0668    0.0000 C   0  0  0  0  0  0  0  0  0
   -0.8121   -1.2418    0.0000 C   0  0  0  0  0  0  0  0  0
   -1.5266   -0.8293    0.0000 Cl  0  0  0  0  0  0  0  0  0
  1  2  1  0  0  0  0
  2  3  4  0  0  0  0
  2 27  4  0  0  0  0
  3  4  1  0  0  0  0
  3 24  4  0  0  0  0
  4  5  1  0  0  0  0
  4  9  1  0  0  0  0
  5  6  1  0  0  0  0
  6  7  1  0  0  0  0
  7  8  1  0  0  0  0
  7 10  1  0  0  0  0
  8  9  1  0  0  0  0
 10 11  1  0  0  0  0
 11 12  1  0  0  0  0
 12 13  1  0  0  0  0
 13 14  1  0  0  0  0
 13 22  1  0  0  0  0
 14 15  1  0  0  0  0
 15 16  1  0  0  0  0
 16 17  4  0  0  0  0
 16 21  4  0  0  0  0
 17 18  4  0  0  0  0
 17 22  1  0  0  0  0
 18 19  4  0  0  0  0
 19 20  4  0  0  0  0
 20 21  4  0  0  0  0
 22 23  2  0  0  0  0
 24 25  4  0  0  0  0
 25 26  4  0  0  0  0
 26 27  4  0  0  0  0
 27 28  1  0  0  0  0
M  END
>  <Name_Molregno>
498476

>  <DOPAMINE D1>
5.84

>  <DOPAMINE D3>
6.68

$$$$
498477
  Marvin  02231216192D 0   1.00000     0.00000     0

 29 32  0  0  0  0  0  0  0  0999 V2000
   -0.3182    2.2011    0.0000 O   0  0  0  0  0  0  0  0  0
    0.1962    2.8461    0.0000 C   0  0  0  0  0  0  0  0  0
   -0.0168    1.4331    0.0000 C   0  0  0  0  0  0  0  0  0
    0.7990    1.3101    0.0000 C   0  0  0  0  0  0  0  0  0
    1.1004    0.5422    0.0000 C   0  0  0  0  0  0  0  0  0
    0.5860   -0.1028    0.0000 C   0  0  0  0  0  0  0  0  0
   -0.2298    0.0201    0.0000 C   0  0  0  0  0  0  0  0  0
   -0.5312    0.7881    0.0000 C   0  0  0  0  0  0  0  0  0
   -1.3470    0.9111    0.0000 N   0  0  0  0  0  0  0  0  0
   -1.8614    0.2660    0.0000 C   0  0  0  0  0  0  0  0  0
   -2.6771    0.3890    0.0000 C   0  0  0  0  0  0  0  0  0
   -2.9786    1.1570    0.0000 N   0  0  0  0  0  0  0  0  0
   -2.4642    1.8020    0.0000 C   0  0  0  0  0  0  0  0  0
   -1.6484    1.6790    0.0000 C   0  0  0  0  0  0  0  0  0
   -3.7943    1.2799    0.0000 C   0  0  0  0  0  0  0  0  0
   -4.3087    0.6349    0.0000 C   0  0  0  0  0  0  0  0  0
   -5.1245    0.7579    0.0000 C   0  0  0  0  0  0  0  0  0
   -5.6389    0.1129    0.0000 N   0  0  0  0  0  0  0  0  0
   -5.2809   -0.6304    0.0000 C   0  0  0  0  0  0  0  0  0
   -5.6389   -1.3737    0.0000 C   0  0  0  0  0  0  0  0  0
   -6.4432   -1.5573    0.0000 C   0  0  0  0  0  0  0  0  0
   -7.0882   -1.0429    0.0000 C   0  0  0  0  0  0  0  0  0
   -7.0882   -0.2179    0.0000 C   0  0  0  0  0  0  0  0  0
   -7.8027    0.1946    0.0000 C   0  0  0  0  0  0  0  0  0
   -8.5171   -0.2179    0.0000 C   0  0  0  0  0  0  0  0  0
   -8.5171   -1.0429    0.0000 C   0  0  0  0  0  0  0  0  0
   -7.8027   -1.4554    0.0000 C   0  0  0  0  0  0  0  0  0
   -6.4432    0.2965    0.0000 C   0  0  0  0  0  0  0  0  0
   -6.6268    1.1008    0.0000 O   0  0  0  0  0  0  0  0  0
  1  2  1  0  0  0  0
  1  3  1  0  0  0  0
  3  4  4  0  0  0  0
  3  8  4  0  0  0  0
  4  5  4  0  0  0  0
  5  6  4  0  0  0  0
  6  7  4  0  0  0  0
  7  8  4  0  0  0  0
  8  9  1  0  0  0  0
  9 10  1  0  0  0  0
  9 14  1  0  0  0  0
 10 11  1  0  0  0  0
 11 12  1  0  0  0  0
 12 13  1  0  0  0  0
 12 15  1  0  0  0  0
 13 14  1  0  0  0  0
 15 16  1  0  0  0  0
 16 17  1  0  0  0  0
 17 18  1  0  0  0  0
 18 19  1  0  0  0  0
 18 28  1  0  0  0  0
 19 20  1  0  0  0  0
 20 21  1  0  0  0  0
 21 22  1  0  0  0  0
 22 23  4  0  0  0  0
 22 27  4  0  0  0  0
 23 24  4  0  0  0  0
 23 28  1  0  0  0  0
 24 25  4  0  0  0  0
 25 26  4  0  0  0  0
 26 27  4  0  0  0  0
 28 29  2  0  0  0  0
M  END
>  <Name_Molregno>
498477

>  <DOPAMINE D1>
5.6

>  <DOPAMINE D2>
6.1

>  <DOPAMINE D3>
6.68

$$$$
498478
  Marvin  02231216192D 0   1.00000     0.00000     0

 29 32  0  0  0  0  0  0  0  0999 V2000
    0.2196   -0.7872    0.0000 O   0  0  0  0  0  0  0  0  0
    0.7340   -0.1422    0.0000 C   0  0  0  0  0  0  0  0  0
   -0.5962   -0.6642    0.0000 C   0  0  0  0  0  0  0  0  0
   -1.1106   -1.3092    0.0000 C   0  0  0  0  0  0  0  0  0
   -1.9264   -1.1863    0.0000 C   0  0  0  0  0  0  0  0  0
   -2.2278   -0.4183    0.0000 C   0  0  0  0  0  0  0  0  0
   -3.0435   -0.2953    0.0000 N   0  0  0  0  0  0  0  0  0
   -3.5579   -0.9403    0.0000 C   0  0  0  0  0  0  0  0  0
   -4.3737   -0.8174    0.0000 C   0  0  0  0  0  0  0  0  0
   -4.6751   -0.0494    0.0000 N   0  0  0  0  0  0  0  0  0
   -4.1607    0.5956    0.0000 C   0  0  0  0  0  0  0  0  0
   -3.3450    0.4726    0.0000 C   0  0  0  0  0  0  0  0  0
   -5.4909    0.0735    0.0000 C   0  0  0  0  0  0  0  0  0
   -6.0053   -0.5715    0.0000 C   0  0  0  0  0  0  0  0  0
   -6.8211   -0.4485    0.0000 C   0  0  0  0  0  0  0  0  0
   -7.3354   -1.0935    0.0000 N   0  0  0  0  0  0  0  0  0
   -6.9775   -1.8368    0.0000 C   0  0  0  0  0  0  0  0  0
   -7.3354   -2.5801    0.0000 C   0  0  0  0  0  0  0  0  0
   -8.1398   -2.7637    0.0000 C   0  0  0  0  0  0  0  0  0
   -8.7848   -2.2493    0.0000 C   0  0  0  0  0  0  0  0  0
   -8.7848   -1.4243    0.0000 C   0  0  0  0  0  0  0  0  0
   -9.4992   -1.0118    0.0000 C   0  0  0  0  0  0  0  0  0
  -10.2137   -1.4243    0.0000 C   0  0  0  0  0  0  0  0  0
  -10.2137   -2.2493    0.0000 C   0  0  0  0  0  0  0  0  0
   -9.4992   -2.6618    0.0000 C   0  0  0  0  0  0  0  0  0
   -8.1398   -0.9099    0.0000 C   0  0  0  0  0  0  0  0  0
   -8.3233   -0.1056    0.0000 O   0  0  0  0  0  0  0  0  0
   -1.7134    0.2267    0.0000 C   0  0  0  0  0  0  0  0  0
   -0.8976    0.1038    0.0000 C   0  0  0  0  0  0  0  0  0
  1  2  1  0  0  0  0
  1  3  1  0  0  0  0
  3  4  4  0  0  0  0
  3 29  4  0  0  0  0
  4  5  4  0  0  0  0
  5  6  4  0  0  0  0
  6  7  1  0  0  0  0
  6 28  4  0  0  0  0
  7  8  1  0  0  0  0
  7 12  1  0  0  0  0
  8  9  1  0  0  0  0
  9 10  1  0  0  0  0
 10 11  1  0  0  0  0
 10 13  1  0  0  0  0
 11 12  1  0  0  0  0
 13 14  1  0  0  0  0
 14 15  1  0  0  0  0
 15 16  1  0  0  0  0
 16 17  1  0  0  0  0
 16 26  1  0  0  0  0
 17 18  1  0  0  0  0
 18 19  1  0  0  0  0
 19 20  1  0  0  0  0
 20 21  4  0  0  0  0
 20 25  4  0  0  0  0
 21 22  4  0  0  0  0
 21 26  1  0  0  0  0
 22 23  4  0  0  0  0
 23 24  4  0  0  0  0
 24 25  4  0  0  0  0
 26 27  2  0  0  0  0
 28 29  4  0  0  0  0
M  END
>  <Name_Molregno>
498478

>  <DOPAMINE D2>
4

>  <DOPAMINE D3>
5.96

$$$$
498479
  Marvin  02231216192D 0   1.00000     0.00000     0

 27 30  0  0  0  0  0  0  0  0999 V2000
   -0.2688   -0.4500    0.0000 O   0  0  0  0  0  0  0  0  0
   -0.0852   -1.2543    0.0000 C   0  0  0  0  0  0  0  0  0
    0.7191   -1.4379    0.0000 N   0  0  0  0  0  0  0  0  0
    1.0771   -2.1812    0.0000 C   0  0  0  0  0  0  0  0  0
    0.7191   -2.9245    0.0000 C   0  0  0  0  0  0  0  0  0
   -0.0852   -3.1081    0.0000 C   0  0  0  0  0  0  0  0  0
   -0.7302   -2.5937    0.0000 C   0  0  0  0  0  0  0  0  0
   -0.7302   -1.7687    0.0000 C   0  0  0  0  0  0  0  0  0
   -1.4447   -1.3562    0.0000 C   0  0  0  0  0  0  0  0  0
   -2.1592   -1.7687    0.0000 C   0  0  0  0  0  0  0  0  0
   -2.1592   -2.5937    0.0000 C   0  0  0  0  0  0  0  0  0
   -1.4447   -3.0062    0.0000 C   0  0  0  0  0  0  0  0  0
    1.2335   -0.7929    0.0000 C   0  0  0  0  0  0  0  0  0
    2.0493   -0.9158    0.0000 C   0  0  0  0  0  0  0  0  0
    2.5637   -0.2708    0.0000 C   0  0  0  0  0  0  0  0  0
    3.3794   -0.3938    0.0000 N   0  0  0  0  0  0  0  0  0
    3.8938    0.2512    0.0000 C   0  0  0  0  0  0  0  0  0
    4.7096    0.1283    0.0000 C   0  0  0  0  0  0  0  0  0
    5.0110   -0.6397    0.0000 N   0  0  0  0  0  0  0  0  0
    4.4966   -1.2847    0.0000 C   0  0  0  0  0  0  0  0  0
    3.6809   -1.1618    0.0000 C   0  0  0  0  0  0  0  0  0
    5.8268   -0.7627    0.0000 C   0  0  0  0  0  0  0  0  0
    6.3412   -0.1177    0.0000 N   0  0  0  0  0  0  0  0  0
    7.1570   -0.2406    0.0000 C   0  0  0  0  0  0  0  0  0
    7.4584   -1.0086    0.0000 C   0  0  0  0  0  0  0  0  0
    6.9440   -1.6536    0.0000 C   0  0  0  0  0  0  0  0  0
    6.1282   -1.5306    0.0000 C   0  0  0  0  0  0  0  0  0
  1  2  2  0  0  0  0
  2  3  1  0  0  0  0
  2  8  1  0  0  0  0
  3  4  1  0  0  0  0
  3 13  1  0  0  0  0
  4  5  1  0  0  0  0
  5  6  1  0  0  0  0
  6  7  1  0  0  0  0
  7  8  4  0  0  0  0
  7 12  4  0  0  0  0
  8  9  4  0  0  0  0
  9 10  4  0  0  0  0
 10 11  4  0  0  0  0
 11 12  4  0  0  0  0
 13 14  1  0  0  0  0
 14 15  1  0  0  0  0
 15 16  1  0  0  0  0
 16 17  1  0  0  0  0
 16 21  1  0  0  0  0
 17 18  1  0  0  0  0
 18 19  1  0  0  0  0
 19 20  1  0  0  0  0
 19 22  1  0  0  0  0
 20 21  1  0  0  0  0
 22 23  4  0  0  0  0
 22 27  4  0  0  0  0
 23 24  4  0  0  0  0
 24 25  4  0  0  0  0
 25 26  4  0  0  0  0
 26 27  4  0  0  0  0
M  END
>  <Name_Molregno>
498479

>  <DOPAMINE D3>
5.38

$$$$
498539
  Marvin  02231216192D 0   1.00000     0.00000     0

 27 30  0  0  0  0  0  0  0  0999 V2000
   -0.2688   -0.4500    0.0000 O   0  0  0  0  0  0  0  0  0
   -0.0852   -1.2543    0.0000 C   0  0  0  0  0  0  0  0  0
    0.7191   -1.4379    0.0000 N   0  0  0  0  0  0  0  0  0
    1.0771   -2.1812    0.0000 C   0  0  0  0  0  0  0  0  0
    0.7191   -2.9245    0.0000 C   0  0  0  0  0  0  0  0  0
   -0.0852   -3.1081    0.0000 C   0  0  0  0  0  0  0  0  0
   -0.7302   -2.5937    0.0000 C   0  0  0  0  0  0  0  0  0
   -0.7302   -1.7687    0.0000 C   0  0  0  0  0  0  0  0  0
   -1.4447   -1.3562    0.0000 C   0  0  0  0  0  0  0  0  0
   -2.1592   -1.7687    0.0000 C   0  0  0  0  0  0  0  0  0
   -2.1592   -2.5937    0.0000 C   0  0  0  0  0  0  0  0  0
   -1.4447   -3.0062    0.0000 C   0  0  0  0  0  0  0  0  0
    1.2335   -0.7929    0.0000 C   0  0  0  0  0  0  0  0  0
    2.0493   -0.9158    0.0000 C   0  0  0  0  0  0  0  0  0
    2.5637   -0.2708    0.0000 C   0  0  0  0  0  0  0  0  0
    3.3794   -0.3938    0.0000 N   0  0  0  0  0  0  0  0  0
    3.8938    0.2512    0.0000 C   0  0  0  0  0  0  0  0  0
    4.7096    0.1283    0.0000 C   0  0  0  0  0  0  0  0  0
    5.0110   -0.6397    0.0000 N   0  0  0  0  0  0  0  0  0
    4.4966   -1.2847    0.0000 C   0  0  0  0  0  0  0  0  0
    3.6809   -1.1618    0.0000 C   0  0  0  0  0  0  0  0  0
    5.8268   -0.7627    0.0000 C   0  0  0  0  0  0  0  0  0
    6.3412   -0.1177    0.0000 N   0  0  0  0  0  0  0  0  0
    7.1570   -0.2406    0.0000 C   0  0  0  0  0  0  0  0  0
    7.4584   -1.0086    0.0000 C   0  0  0  0  0  0  0  0  0
    6.9440   -1.6536    0.0000 C   0  0  0  0  0  0  0  0  0
    6.1282   -1.5306    0.0000 N   0  0  0  0  0  0  0  0  0
  1  2  2  0  0  0  0
  2  3  1  0  0  0  0
  2  8  1  0  0  0  0
  3  4  1  0  0  0  0
  3 13  1  0  0  0  0
  4  5  1  0  0  0  0
  5  6  1  0  0  0  0
  6  7  1  0  0  0  0
  7  8  4  0  0  0  0
  7 12  4  0  0  0  0
  8  9  4  0  0  0  0
  9 10  4  0  0  0  0
 10 11  4  0  0  0  0
 11 12  4  0  0  0  0
 13 14  1  0  0  0  0
 14 15  1  0  0  0  0
 15 16  1  0  0  0  0
 16 17  1  0  0  0  0
 16 21  1  0  0  0  0
 17 18  1  0  0  0  0
 18 19  1  0  0  0  0
 19 20  1  0  0  0  0
 19 22  1  0  0  0  0
 20 21  1  0  0  0  0
 22 23  4  0  0  0  0
 22 27  4  0  0  0  0
 23 24  4  0  0  0  0
 24 25  4  0  0  0  0
 25 26  4  0  0  0  0
 26 27  4  0  0  0  0
M  END
>  <Name_Molregno>
498539

>  <DOPAMINE D3>
5.08

$$$$
498540
  Marvin  02231216192D 0   1.00000     0.00000     0

 31 34  0  0  0  0  0  0  0  0999 V2000
    8.8070   -2.1158    0.0000 F   0  0  0  0  0  0  0  0  0
    8.5055   -1.3478    0.0000 C   0  0  0  0  0  0  0  0  0
    9.2735   -1.0464    0.0000 F   0  0  0  0  0  0  0  0  0
    7.7376   -1.6492    0.0000 F   0  0  0  0  0  0  0  0  0
    8.2041   -0.5798    0.0000 C   0  0  0  0  0  0  0  0  0
    7.3884   -0.4569    0.0000 C   0  0  0  0  0  0  0  0  0
    7.0869    0.3111    0.0000 C   0  0  0  0  0  0  0  0  0
    6.2712    0.4341    0.0000 N   0  0  0  0  0  0  0  0  0
    5.7568   -0.2109    0.0000 C   0  0  0  0  0  0  0  0  0
    4.9410   -0.0880    0.0000 C   0  0  0  0  0  0  0  0  0
    4.6396    0.6800    0.0000 N   0  0  0  0  0  0  0  0  0
    5.1540    1.3250    0.0000 C   0  0  0  0  0  0  0  0  0
    5.9698    1.2020    0.0000 C   0  0  0  0  0  0  0  0  0
    3.8238    0.8030    0.0000 C   0  0  0  0  0  0  0  0  0
    3.3094    0.1579    0.0000 C   0  0  0  0  0  0  0  0  0
    2.4936    0.2809    0.0000 C   0  0  0  0  0  0  0  0  0
    1.9793   -0.3641    0.0000 N   0  0  0  0  0  0  0  0  0
    2.3372   -1.1074    0.0000 C   0  0  0  0  0  0  0  0  0
    1.9793   -1.8507    0.0000 C   0  0  0  0  0  0  0  0  0
    1.1749   -2.0343    0.0000 C   0  0  0  0  0  0  0  0  0
    0.5299   -1.5199    0.0000 C   0  0  0  0  0  0  0  0  0
    0.5299   -0.6949    0.0000 C   0  0  0  0  0  0  0  0  0
   -0.1845   -0.2824    0.0000 C   0  0  0  0  0  0  0  0  0
   -0.8990   -0.6949    0.0000 C   0  0  0  0  0  0  0  0  0
   -0.8990   -1.5199    0.0000 C   0  0  0  0  0  0  0  0  0
   -0.1845   -1.9324    0.0000 C   0  0  0  0  0  0  0  0  0
    1.1749   -0.1805    0.0000 C   0  0  0  0  0  0  0  0  0
    0.9914    0.6238    0.0000 O   0  0  0  0  0  0  0  0  0
    7.6013    0.9561    0.0000 C   0  0  0  0  0  0  0  0  0
    8.4171    0.8332    0.0000 C   0  0  0  0  0  0  0  0  0
    8.7185    0.0652    0.0000 C   0  0  0  0  0  0  0  0  0
  1  2  1  0  0  0  0
  2  3  1  0  0  0  0
  2  4  1  0  0  0  0
  2  5  1  0  0  0  0
  5  6  4  0  0  0  0
  5 31  4  0  0  0  0
  6  7  4  0  0  0  0
  7  8  1  0  0  0  0
  7 29  4  0  0  0  0
  8  9  1  0  0  0  0
  8 13  1  0  0  0  0
  9 10  1  0  0  0  0
 10 11  1  0  0  0  0
 11 12  1  0  0  0  0
 11 14  1  0  0  0  0
 12 13  1  0  0  0  0
 14 15  1  0  0  0  0
 15 16  1  0  0  0  0
 16 17  1  0  0  0  0
 17 18  1  0  0  0  0
 17 27  1  0  0  0  0
 18 19  1  0  0  0  0
 19 20  1  0  0  0  0
 20 21  1  0  0  0  0
 21 22  4  0  0  0  0
 21 26  4  0  0  0  0
 22 23  4  0  0  0  0
 22 27  1  0  0  0  0
 23 24  4  0  0  0  0
 24 25  4  0  0  0  0
 25 26  4  0  0  0  0
 27 28  2  0  0  0  0
 29 30  4  0  0  0  0
 30 31  4  0  0  0  0
M  END
>  <Name_Molregno>
498540

>  <DOPAMINE D1>
5.31

>  <DOPAMINE D3>
5.98

$$$$
498541
  Marvin  02231216192D 0   1.00000     0.00000     0

 29 32  0  0  0  0  0  0  0  0999 V2000
    5.1079    2.8983    0.0000 Cl  0  0  0  0  0  0  0  0  0
    4.2921    3.0213    0.0000 C   0  0  0  0  0  0  0  0  0
    3.7777    2.3763    0.0000 C   0  0  0  0  0  0  0  0  0
    4.0791    1.6083    0.0000 N   0  0  0  0  0  0  0  0  0
    4.8949    1.4854    0.0000 C   0  0  0  0  0  0  0  0  0
    5.1963    0.7174    0.0000 C   0  0  0  0  0  0  0  0  0
    4.6820    0.0724    0.0000 N   0  0  0  0  0  0  0  0  0
    3.8662    0.1953    0.0000 C   0  0  0  0  0  0  0  0  0
    3.5648    0.9633    0.0000 C   0  0  0  0  0  0  0  0  0
    4.9834   -0.6956    0.0000 C   0  0  0  0  0  0  0  0  0
    4.4690   -1.3406    0.0000 C   0  0  0  0  0  0  0  0  0
    4.7704   -2.1086    0.0000 C   0  0  0  0  0  0  0  0  0
    4.2560   -2.7536    0.0000 N   0  0  0  0  0  0  0  0  0
    4.6140   -3.4969    0.0000 C   0  0  0  0  0  0  0  0  0
    4.2560   -4.2402    0.0000 C   0  0  0  0  0  0  0  0  0
    3.4517   -4.4238    0.0000 C   0  0  0  0  0  0  0  0  0
    2.8067   -3.9094    0.0000 C   0  0  0  0  0  0  0  0  0
    2.8067   -3.0844    0.0000 C   0  0  0  0  0  0  0  0  0
    2.0922   -2.6719    0.0000 C   0  0  0  0  0  0  0  0  0
    1.3777   -3.0844    0.0000 C   0  0  0  0  0  0  0  0  0
    1.3777   -3.9094    0.0000 C   0  0  0  0  0  0  0  0  0
    2.0922   -4.3219    0.0000 C   0  0  0  0  0  0  0  0  0
    3.4517   -2.5700    0.0000 C   0  0  0  0  0  0  0  0  0
    3.2681   -1.7657    0.0000 O   0  0  0  0  0  0  0  0  0
    2.9620    2.4993    0.0000 C   0  0  0  0  0  0  0  0  0
    2.6605    3.2672    0.0000 C   0  0  0  0  0  0  0  0  0
    3.1749    3.9122    0.0000 C   0  0  0  0  0  0  0  0  0
    3.9907    3.7893    0.0000 C   0  0  0  0  0  0  0  0  0
    4.5051    4.4343    0.0000 Cl  0  0  0  0  0  0  0  0  0
  1  2  1  0  0  0  0
  2  3  4  0  0  0  0
  2 28  4  0  0  0  0
  3  4  1  0  0  0  0
  3 25  4  0  0  0  0
  4  5  1  0  0  0  0
  4  9  1  0  0  0  0
  5  6  1  0  0  0  0
  6  7  1  0  0  0  0
  7  8  1  0  0  0  0
  7 10  1  0  0  0  0
  8  9  1  0  0  0  0
 10 11  1  0  0  0  0
 11 12  1  0  0  0  0
 12 13  1  0  0  0  0
 13 14  1  0  0  0  0
 13 23  1  0  0  0  0
 14 15  1  0  0  0  0
 15 16  1  0  0  0  0
 16 17  1  0  0  0  0
 17 18  4  0  0  0  0
 17 22  4  0  0  0  0
 18 19  4  0  0  0  0
 18 23  1  0  0  0  0
 19 20  4  0  0  0  0
 20 21  4  0  0  0  0
 21 22  4  0  0  0  0
 23 24  2  0  0  0  0
 25 26  4  0  0  0  0
 26 27  4  0  0  0  0
 27 28  4  0  0  0  0
 28 29  1  0  0  0  0
M  END
>  <Name_Molregno>
498541

>  <DOPAMINE D1>
5.62

>  <DOPAMINE D2>
6.66

>  <DOPAMINE D3>
6.41

$$$$
498542
  Marvin  02231216192D 0   1.00000     0.00000     0

 30 33  0  0  0  0  0  0  0  0999 V2000
   -0.0295    0.7457    0.0000 O   0  0  0  0  0  0  0  0  0
    0.2862    1.5079    0.0000 C   0  0  0  0  0  0  0  0  0
   -0.8475    0.6380    0.0000 C   0  0  0  0  0  0  0  0  0
   -1.1632   -0.1242    0.0000 C   0  0  0  0  0  0  0  0  0
   -1.9811   -0.2319    0.0000 C   0  0  0  0  0  0  0  0  0
   -2.4834    0.4226    0.0000 C   0  0  0  0  0  0  0  0  0
   -3.3013    0.3149    0.0000 N   0  0  0  0  0  0  0  0  0
   -3.6170   -0.4473    0.0000 C   0  0  0  0  0  0  0  0  0
   -4.4350   -0.5549    0.0000 C   0  0  0  0  0  0  0  0  0
   -4.9372    0.0996    0.0000 N   0  0  0  0  0  0  0  0  0
   -4.6215    0.8618    0.0000 C   0  0  0  0  0  0  0  0  0
   -3.8035    0.9695    0.0000 C   0  0  0  0  0  0  0  0  0
   -5.7551   -0.0081    0.0000 C   0  0  0  0  0  0  0  0  0
   -6.0708   -0.7703    0.0000 C   0  0  0  0  0  0  0  0  0
   -6.8888   -0.8780    0.0000 C   0  0  0  0  0  0  0  0  0
   -7.2045   -1.6402    0.0000 N   0  0  0  0  0  0  0  0  0
   -6.6211   -2.2236    0.0000 C   0  0  0  0  0  0  0  0  0
   -6.6211   -3.0486    0.0000 C   0  0  0  0  0  0  0  0  0
   -7.2045   -3.6319    0.0000 C   0  0  0  0  0  0  0  0  0
   -8.0295   -3.6319    0.0000 C   0  0  0  0  0  0  0  0  0
   -8.6129   -3.0486    0.0000 C   0  0  0  0  0  0  0  0  0
   -8.6129   -2.2236    0.0000 C   0  0  0  0  0  0  0  0  0
   -9.3273   -1.8111    0.0000 C   0  0  0  0  0  0  0  0  0
  -10.0418   -2.2236    0.0000 C   0  0  0  0  0  0  0  0  0
  -10.0418   -3.0486    0.0000 C   0  0  0  0  0  0  0  0  0
   -9.3273   -3.4611    0.0000 C   0  0  0  0  0  0  0  0  0
   -8.0295   -1.6402    0.0000 C   0  0  0  0  0  0  0  0  0
   -8.3452   -0.8780    0.0000 O   0  0  0  0  0  0  0  0  0
   -2.1677    1.1848    0.0000 C   0  0  0  0  0  0  0  0  0
   -1.3497    1.2925    0.0000 C   0  0  0  0  0  0  0  0  0
  1  2  1  0  0  0  0
  1  3  1  0  0  0  0
  3  4  4  0  0  0  0
  3 30  4  0  0  0  0
  4  5  4  0  0  0  0
  5  6  4  0  0  0  0
  6  7  1  0  0  0  0
  6 29  4  0  0  0  0
  7  8  1  0  0  0  0
  7 12  1  0  0  0  0
  8  9  1  0  0  0  0
  9 10  1  0  0  0  0
 10 11  1  0  0  0  0
 10 13  1  0  0  0  0
 11 12  1  0  0  0  0
 13 14  1  0  0  0  0
 14 15  1  0  0  0  0
 15 16  1  0  0  0  0
 16 17  1  0  0  0  0
 16 27  1  0  0  0  0
 17 18  1  0  0  0  0
 18 19  1  0  0  0  0
 19 20  1  0  0  0  0
 20 21  1  0  0  0  0
 21 22  4  0  0  0  0
 21 26  4  0  0  0  0
 22 23  4  0  0  0  0
 22 27  1  0  0  0  0
 23 24  4  0  0  0  0
 24 25  4  0  0  0  0
 25 26  4  0  0  0  0
 27 28  2  0  0  0  0
 29 30  4  0  0  0  0
M  END
>  <Name_Molregno>
498542

>  <DOPAMINE D3>
5.05

$$$$
498543
  Marvin  02231216192D 0   1.00000     0.00000     0

 29 32  0  0  0  0  0  0  0  0999 V2000
   -7.2872    1.0929    0.0000 O   0  0  0  0  0  0  0  0  0
   -8.0017    0.6804    0.0000 C   0  0  0  0  0  0  0  0  0
   -7.2872    1.9179    0.0000 C   0  0  0  0  0  0  0  0  0
   -8.0017    2.3304    0.0000 C   0  0  0  0  0  0  0  0  0
   -8.0017    3.1554    0.0000 C   0  0  0  0  0  0  0  0  0
   -7.2872    3.5679    0.0000 C   0  0  0  0  0  0  0  0  0
   -6.5727    3.1554    0.0000 C   0  0  0  0  0  0  0  0  0
   -6.5727    2.3304    0.0000 C   0  0  0  0  0  0  0  0  0
   -5.8583    1.9179    0.0000 N   0  0  0  0  0  0  0  0  0
   -5.1438    2.3304    0.0000 C   0  0  0  0  0  0  0  0  0
   -4.4293    1.9179    0.0000 C   0  0  0  0  0  0  0  0  0
   -4.4293    1.0929    0.0000 N   0  0  0  0  0  0  0  0  0
   -5.1438    0.6804    0.0000 C   0  0  0  0  0  0  0  0  0
   -5.8583    1.0929    0.0000 C   0  0  0  0  0  0  0  0  0
   -3.7148    0.6804    0.0000 C   0  0  0  0  0  0  0  0  0
   -3.7148   -0.1446    0.0000 C   0  0  0  0  0  0  0  0  0
   -3.0004   -0.5571    0.0000 C   0  0  0  0  0  0  0  0  0
   -3.0004   -1.3821    0.0000 C   0  0  0  0  0  0  0  0  0
   -2.2859   -1.7946    0.0000 N   0  0  0  0  0  0  0  0  0
   -2.2859   -2.6196    0.0000 C   0  0  0  0  0  0  0  0  0
   -1.5714   -3.0321    0.0000 C   0  0  0  0  0  0  0  0  0
   -0.8570   -2.6196    0.0000 C   0  0  0  0  0  0  0  0  0
   -0.8570   -1.7946    0.0000 C   0  0  0  0  0  0  0  0  0
   -0.1425   -1.3821    0.0000 C   0  0  0  0  0  0  0  0  0
    0.5720   -1.7946    0.0000 C   0  0  0  0  0  0  0  0  0
    0.5720   -2.6196    0.0000 C   0  0  0  0  0  0  0  0  0
   -0.1425   -3.0321    0.0000 C   0  0  0  0  0  0  0  0  0
   -1.5714   -1.3821    0.0000 C   0  0  0  0  0  0  0  0  0
   -1.5714   -0.5571    0.0000 O   0  0  0  0  0  0  0  0  0
  1  2  1  0  0  0  0
  1  3  1  0  0  0  0
  3  4  4  0  0  0  0
  3  8  4  0  0  0  0
  4  5  4  0  0  0  0
  5  6  4  0  0  0  0
  6  7  4  0  0  0  0
  7  8  4  0  0  0  0
  8  9  1  0  0  0  0
  9 10  1  0  0  0  0
  9 14  1  0  0  0  0
 10 11  1  0  0  0  0
 11 12  1  0  0  0  0
 12 13  1  0  0  0  0
 12 15  1  0  0  0  0
 13 14  1  0  0  0  0
 15 16  1  0  0  0  0
 16 17  1  0  0  0  0
 17 18  1  0  0  0  0
 18 19  1  0  0  0  0
 19 20  1  0  0  0  0
 19 28  1  0  0  0  0
 20 21  1  0  0  0  0
 21 22  1  0  0  0  0
 22 23  4  0  0  0  0
 22 27  4  0  0  0  0
 23 24  4  0  0  0  0
 23 28  1  0  0  0  0
 24 25  4  0  0  0  0
 25 26  4  0  0  0  0
 26 27  4  0  0  0  0
 28 29  2  0  0  0  0
M  END
>  <Name_Molregno>
498543

>  <DOPAMINE D2>
7.91

>  <DOPAMINE D3>
8.58

$$$$
498641
  Marvin  02231216192D 0   1.00000     0.00000     0

 28 31  0  0  0  0  0  0  0  0999 V2000
   -6.8294    1.8775    0.0000 Cl  0  0  0  0  0  0  0  0  0
   -7.2419    1.1630    0.0000 C   0  0  0  0  0  0  0  0  0
   -6.8294    0.4485    0.0000 C   0  0  0  0  0  0  0  0  0
   -6.0044    0.4485    0.0000 N   0  0  0  0  0  0  0  0  0
   -5.5919    1.1630    0.0000 C   0  0  0  0  0  0  0  0  0
   -4.7669    1.1630    0.0000 C   0  0  0  0  0  0  0  0  0
   -4.3544    0.4485    0.0000 N   0  0  0  0  0  0  0  0  0
   -4.7669   -0.2660    0.0000 C   0  0  0  0  0  0  0  0  0
   -5.5919   -0.2660    0.0000 C   0  0  0  0  0  0  0  0  0
   -3.5294    0.4485    0.0000 C   0  0  0  0  0  0  0  0  0
   -3.1169   -0.2660    0.0000 C   0  0  0  0  0  0  0  0  0
   -2.2919   -0.2660    0.0000 N   0  0  0  0  0  0  0  0  0
   -1.8794   -0.9804    0.0000 C   0  0  0  0  0  0  0  0  0
   -2.2919   -1.6949    0.0000 O   0  0  0  0  0  0  0  0  0
   -1.0544   -0.9804    0.0000 C   0  0  0  0  0  0  0  0  0
   -0.5695   -1.6479    0.0000 S   0  0  0  0  0  0  0  0  0
    0.2151   -1.3929    0.0000 C   0  0  0  0  0  0  0  0  0
    0.2151   -0.5679    0.0000 C   0  0  0  0  0  0  0  0  0
   -0.5695   -0.3130    0.0000 C   0  0  0  0  0  0  0  0  0
    0.9296   -0.1554    0.0000 C   0  0  0  0  0  0  0  0  0
    1.6440   -0.5679    0.0000 C   0  0  0  0  0  0  0  0  0
    1.6440   -1.3929    0.0000 C   0  0  0  0  0  0  0  0  0
    0.9296   -1.8054    0.0000 C   0  0  0  0  0  0  0  0  0
   -7.2419   -0.2660    0.0000 C   0  0  0  0  0  0  0  0  0
   -8.0669   -0.2660    0.0000 C   0  0  0  0  0  0  0  0  0
   -8.4794    0.4485    0.0000 C   0  0  0  0  0  0  0  0  0
   -8.0669    1.1630    0.0000 C   0  0  0  0  0  0  0  0  0
   -8.4794    1.8775    0.0000 Cl  0  0  0  0  0  0  0  0  0
  1  2  1  0  0  0  0
  2  3  4  0  0  0  0
  2 27  4  0  0  0  0
  3  4  1  0  0  0  0
  3 24  4  0  0  0  0
  4  5  1  0  0  0  0
  4  9  1  0  0  0  0
  5  6  1  0  0  0  0
  6  7  1  0  0  0  0
  7  8  1  0  0  0  0
  7 10  1  0  0  0  0
  8  9  1  0  0  0  0
 10 11  2  0  0  0  0
 11 12  1  0  0  0  0
 12 13  1  0  0  0  0
 13 14  2  0  0  0  0
 13 15  1  0  0  0  0
 15 16  4  0  0  0  0
 15 19  4  0  0  0  0
 16 17  4  0  0  0  0
 17 18  4  0  0  0  0
 17 23  4  0  0  0  0
 18 19  4  0  0  0  0
 18 20  4  0  0  0  0
 20 21  4  0  0  0  0
 21 22  4  0  0  0  0
 22 23  4  0  0  0  0
 24 25  4  0  0  0  0
 25 26  4  0  0  0  0
 26 27  4  0  0  0  0
 27 28  1  0  0  0  0
M  END
>  <Name_Molregno>
498641

>  <DOPAMINE D3>
8.95

>  <DOPAMINE D4>
5.75

$$$$
498642
  Marvin  02231216192D 0   1.00000     0.00000     0

 28 31  0  0  0  0  0  0  0  0999 V2000
    0.0753   -0.2016    0.0000 S   0  0  0  0  0  0  0  0  0
    0.8599    0.0533    0.0000 C   0  0  0  0  0  0  0  0  0
    0.8599    0.8783    0.0000 C   0  0  0  0  0  0  0  0  0
    0.0753    1.1333    0.0000 C   0  0  0  0  0  0  0  0  0
   -0.4097    0.4658    0.0000 C   0  0  0  0  0  0  0  0  0
   -1.2347    0.4658    0.0000 C   0  0  0  0  0  0  0  0  0
   -1.6472    1.1803    0.0000 O   0  0  0  0  0  0  0  0  0
   -1.6472   -0.2487    0.0000 N   0  0  0  0  0  0  0  0  0
   -2.4722   -0.2487    0.0000 C   0  0  0  0  0  0  0  0  0
   -2.8847   -0.9631    0.0000 C   0  0  0  0  0  0  0  0  0
   -3.7097   -0.9631    0.0000 N   0  0  0  0  0  0  0  0  0
   -4.1222   -1.6776    0.0000 C   0  0  0  0  0  0  0  0  0
   -4.9472   -1.6776    0.0000 C   0  0  0  0  0  0  0  0  0
   -5.3597   -0.9631    0.0000 N   0  0  0  0  0  0  0  0  0
   -4.9472   -0.2487    0.0000 C   0  0  0  0  0  0  0  0  0
   -4.1222   -0.2487    0.0000 C   0  0  0  0  0  0  0  0  0
   -6.1847   -0.9631    0.0000 C   0  0  0  0  0  0  0  0  0
   -6.5972   -1.6776    0.0000 C   0  0  0  0  0  0  0  0  0
   -7.4222   -1.6776    0.0000 C   0  0  0  0  0  0  0  0  0
   -7.8347   -0.9631    0.0000 C   0  0  0  0  0  0  0  0  0
   -7.4222   -0.2487    0.0000 C   0  0  0  0  0  0  0  0  0
   -6.5972   -0.2487    0.0000 C   0  0  0  0  0  0  0  0  0
   -6.1847    0.4658    0.0000 O   0  0  0  0  0  0  0  0  0
   -6.5972    1.1803    0.0000 C   0  0  0  0  0  0  0  0  0
    1.5744    1.2908    0.0000 C   0  0  0  0  0  0  0  0  0
    2.2888    0.8783    0.0000 C   0  0  0  0  0  0  0  0  0
    2.2888    0.0533    0.0000 C   0  0  0  0  0  0  0  0  0
    1.5744   -0.3592    0.0000 C   0  0  0  0  0  0  0  0  0
  1  2  4  0  0  0  0
  1  5  4  0  0  0  0
  2  3  4  0  0  0  0
  2 28  4  0  0  0  0
  3  4  4  0  0  0  0
  3 25  4  0  0  0  0
  4  5  4  0  0  0  0
  5  6  1  0  0  0  0
  6  7  2  0  0  0  0
  6  8  1  0  0  0  0
  8  9  1  0  0  0  0
  9 10  2  0  0  0  0
 10 11  1  0  0  0  0
 11 12  1  0  0  0  0
 11 16  1  0  0  0  0
 12 13  1  0  0  0  0
 13 14  1  0  0  0  0
 14 15  1  0  0  0  0
 14 17  1  0  0  0  0
 15 16  1  0  0  0  0
 17 18  4  0  0  0  0
 17 22  4  0  0  0  0
 18 19  4  0  0  0  0
 19 20  4  0  0  0  0
 20 21  4  0  0  0  0
 21 22  4  0  0  0  0
 22 23  1  0  0  0  0
 23 24  1  0  0  0  0
 25 26  4  0  0  0  0
 26 27  4  0  0  0  0
 27 28  4  0  0  0  0
M  END
>  <Name_Molregno>
498642

>  <DOPAMINE D3>
8.58

$$$$
498643
  Marvin  02231216192D 0   1.00000     0.00000     0

 29 32  0  0  1  0  0  0  0  0999 V2000
   -6.8417    1.8761    0.0000 Cl  0  0  0  0  0  0  0  0  0
   -7.2542    1.1617    0.0000 C   0  0  0  0  0  0  0  0  0
   -6.8417    0.4472    0.0000 C   0  0  0  0  0  0  0  0  0
   -6.0167    0.4472    0.0000 N   0  0  0  0  0  0  0  0  0
   -5.6042    1.1617    0.0000 C   0  0  0  0  0  0  0  0  0
   -4.7792    1.1617    0.0000 C   0  0  0  0  0  0  0  0  0
   -4.3667    0.4472    0.0000 N   0  0  0  0  0  0  0  0  0
   -4.7792   -0.2673    0.0000 C   0  0  0  0  0  0  0  0  0
   -5.6042   -0.2673    0.0000 C   0  0  0  0  0  0  0  0  0
   -3.5417    0.4472    0.0000 C   0  0  0  0  0  0  0  0  0
   -3.1292    1.1617    0.0000 O   0  0  0  0  0  0  0  0  0
   -3.1292   -0.2673    0.0000 C   0  0  0  0  0  0  0  0  0
   -2.3042   -0.2673    0.0000 N   0  0  0  0  0  0  0  0  0
   -1.8917   -0.9818    0.0000 C   0  0  0  0  0  0  0  0  0
   -2.3042   -1.6962    0.0000 O   0  0  0  0  0  0  0  0  0
   -1.0667   -0.9818    0.0000 C   0  0  0  0  0  0  0  0  0
   -0.5818   -1.6492    0.0000 N   0  0  0  0  0  0  0  0  0
    0.2029   -1.3943    0.0000 C   0  0  0  0  0  0  0  0  0
    0.2029   -0.5693    0.0000 C   0  0  0  0  0  0  0  0  0
   -0.5818   -0.3143    0.0000 C   0  0  0  0  0  0  0  0  0
    0.9173   -0.1568    0.0000 C   0  0  0  0  0  0  0  0  0
    1.6318   -0.5693    0.0000 C   0  0  0  0  0  0  0  0  0
    1.6318   -1.3943    0.0000 C   0  0  0  0  0  0  0  0  0
    0.9173   -1.8068    0.0000 C   0  0  0  0  0  0  0  0  0
   -7.2542   -0.2673    0.0000 C   0  0  0  0  0  0  0  0  0
   -8.0792   -0.2673    0.0000 C   0  0  0  0  0  0  0  0  0
   -8.4917    0.4472    0.0000 C   0  0  0  0  0  0  0  0  0
   -8.0792    1.1617    0.0000 C   0  0  0  0  0  0  0  0  0
   -8.4917    1.8761    0.0000 Cl  0  0  0  0  0  0  0  0  0
  1  2  1  0  0  0  0
  2  3  4  0  0  0  0
  2 28  4  0  0  0  0
  3  4  1  0  0  0  0
  3 25  4  0  0  0  0
  4  5  1  0  0  0  0
  4  9  1  0  0  0  0
  5  6  1  0  0  0  0
  6  7  1  0  0  0  0
  7  8  1  0  0  0  0
  7 10  1  0  0  0  0
  8  9  1  0  0  0  0
 10 11  1  0  0  0  0
 10 12  1  0  0  0  0
 12 13  1  0  0  0  0
 13 14  1  0  0  0  0
 14 15  2  0  0  0  0
 14 16  1  0  0  0  0
 16 17  4  0  0  0  0
 16 20  4  0  0  0  0
 17 18  4  0  0  0  0
 18 19  4  0  0  0  0
 18 24  4  0  0  0  0
 19 20  4  0  0  0  0
 19 21  4  0  0  0  0
 21 22  4  0  0  0  0
 22 23  4  0  0  0  0
 23 24  4  0  0  0  0
 25 26  4  0  0  0  0
 26 27  4  0  0  0  0
 27 28  4  0  0  0  0
 28 29  1  0  0  0  0
M  STY  1   1 DAT
M  SAL   1  1  17
M  SDT   1 MRV_IMPLICIT_H                                        
M  SDD   1     0.0000    0.0000    DR    ALL  0       0  
M  SED   1 IMPL_H1
M  END
>  <Name_Molregno>
498643

>  <DOPAMINE D3>
8.53

>  <DOPAMINE D4>
5.36

$$$$
498713
  Marvin  02231216192D 0   1.00000     0.00000     0

 29 32  0  0  1  0  0  0  0  0999 V2000
   -6.9081   -1.8695    0.0000 O   0  0  0  0  0  0  0  0  0
   -7.3206   -2.5840    0.0000 C   0  0  0  0  0  0  0  0  0
   -7.3206   -1.1550    0.0000 C   0  0  0  0  0  0  0  0  0
   -8.1456   -1.1550    0.0000 C   0  0  0  0  0  0  0  0  0
   -8.5581   -0.4406    0.0000 C   0  0  0  0  0  0  0  0  0
   -8.1456    0.2739    0.0000 C   0  0  0  0  0  0  0  0  0
   -7.3206    0.2739    0.0000 C   0  0  0  0  0  0  0  0  0
   -6.9081   -0.4406    0.0000 C   0  0  0  0  0  0  0  0  0
   -6.0831   -0.4406    0.0000 N   0  0  0  0  0  0  0  0  0
   -5.6706    0.2739    0.0000 C   0  0  0  0  0  0  0  0  0
   -4.8456    0.2739    0.0000 C   0  0  0  0  0  0  0  0  0
   -4.4331   -0.4406    0.0000 N   0  0  0  0  0  0  0  0  0
   -4.8456   -1.1550    0.0000 C   0  0  0  0  0  0  0  0  0
   -5.6706   -1.1550    0.0000 C   0  0  0  0  0  0  0  0  0
   -3.6081   -0.4406    0.0000 C   0  0  0  0  0  0  0  0  0
   -3.1956   -1.1550    0.0000 O   0  0  0  0  0  0  0  0  0
   -3.1956    0.2739    0.0000 C   0  0  0  0  0  0  0  0  0
   -2.3706    0.2739    0.0000 N   0  0  0  0  0  0  0  0  0
   -1.9581    0.9884    0.0000 C   0  0  0  0  0  0  0  0  0
   -2.3706    1.7029    0.0000 O   0  0  0  0  0  0  0  0  0
   -1.1331    0.9884    0.0000 C   0  0  0  0  0  0  0  0  0
   -0.6482    0.3209    0.0000 N   0  0  0  0  0  0  0  0  0
    0.1364    0.5759    0.0000 C   0  0  0  0  0  0  0  0  0
    0.1364    1.4009    0.0000 C   0  0  0  0  0  0  0  0  0
   -0.6482    1.6558    0.0000 C   0  0  0  0  0  0  0  0  0
    0.8509    1.8134    0.0000 C   0  0  0  0  0  0  0  0  0
    1.5654    1.4009    0.0000 C   0  0  0  0  0  0  0  0  0
    1.5654    0.5759    0.0000 C   0  0  0  0  0  0  0  0  0
    0.8509    0.1634    0.0000 C   0  0  0  0  0  0  0  0  0
  1  2  1  0  0  0  0
  1  3  1  0  0  0  0
  3  4  4  0  0  0  0
  3  8  4  0  0  0  0
  4  5  4  0  0  0  0
  5  6  4  0  0  0  0
  6  7  4  0  0  0  0
  7  8  4  0  0  0  0
  8  9  1  0  0  0  0
  9 10  1  0  0  0  0
  9 14  1  0  0  0  0
 10 11  1  0  0  0  0
 11 12  1  0  0  0  0
 12 13  1  0  0  0  0
 12 15  1  0  0  0  0
 13 14  1  0  0  0  0
 15 16  1  0  0  0  0
 15 17  1  0  0  0  0
 17 18  1  0  0  0  0
 18 19  1  0  0  0  0
 19 20  2  0  0  0  0
 19 21  1  0  0  0  0
 21 22  4  0  0  0  0
 21 25  4  0  0  0  0
 22 23  4  0  0  0  0
 23 24  4  0  0  0  0
 23 29  4  0  0  0  0
 24 25  4  0  0  0  0
 24 26  4  0  0  0  0
 26 27  4  0  0  0  0
 27 28  4  0  0  0  0
 28 29  4  0  0  0  0
M  STY  1   1 DAT
M  SAL   1  1  22
M  SDT   1 MRV_IMPLICIT_H                                        
M  SDD   1     0.0000    0.0000    DR    ALL  0       0  
M  SED   1 IMPL_H1
M  END
>  <Name_Molregno>
498713

>  <DOPAMINE D3>
8.85

>  <DOPAMINE D4>
5.72

$$$$
498868
  Marvin  02231216192D 0   1.00000     0.00000     0

 31 34  0  0  1  0  0  0  0  0999 V2000
   -6.3821   -1.7203    0.0000 O   0  0  0  0  0  0  0  0  0
   -6.7946   -2.4348    0.0000 C   0  0  0  0  0  0  0  0  0
   -6.3821   -3.1492    0.0000 C   0  0  0  0  0  0  0  0  0
   -6.7946   -3.8637    0.0000 C   0  0  0  0  0  0  0  0  0
   -6.7946   -1.0058    0.0000 C   0  0  0  0  0  0  0  0  0
   -7.6196   -1.0058    0.0000 C   0  0  0  0  0  0  0  0  0
   -8.0321   -0.2913    0.0000 C   0  0  0  0  0  0  0  0  0
   -7.6196    0.4231    0.0000 C   0  0  0  0  0  0  0  0  0
   -6.7946    0.4231    0.0000 C   0  0  0  0  0  0  0  0  0
   -6.3821   -0.2913    0.0000 C   0  0  0  0  0  0  0  0  0
   -5.5571   -0.2913    0.0000 N   0  0  0  0  0  0  0  0  0
   -5.1446    0.4231    0.0000 C   0  0  0  0  0  0  0  0  0
   -4.3196    0.4231    0.0000 C   0  0  0  0  0  0  0  0  0
   -3.9071   -0.2913    0.0000 N   0  0  0  0  0  0  0  0  0
   -4.3196   -1.0058    0.0000 C   0  0  0  0  0  0  0  0  0
   -5.1446   -1.0058    0.0000 C   0  0  0  0  0  0  0  0  0
   -3.0821   -0.2913    0.0000 C   0  0  0  0  0  0  0  0  0
   -2.6696   -1.0058    0.0000 O   0  0  0  0  0  0  0  0  0
   -2.6696    0.4231    0.0000 C   0  0  0  0  0  0  0  0  0
   -1.8446    0.4231    0.0000 N   0  0  0  0  0  0  0  0  0
   -1.4321    1.1376    0.0000 C   0  0  0  0  0  0  0  0  0
   -1.8446    1.8521    0.0000 O   0  0  0  0  0  0  0  0  0
   -0.6071    1.1376    0.0000 C   0  0  0  0  0  0  0  0  0
   -0.1221    0.4702    0.0000 N   0  0  0  0  0  0  0  0  0
    0.6625    0.7251    0.0000 C   0  0  0  0  0  0  0  0  0
    0.6625    1.5501    0.0000 C   0  0  0  0  0  0  0  0  0
   -0.1221    1.8050    0.0000 C   0  0  0  0  0  0  0  0  0
    1.3770    1.9626    0.0000 C   0  0  0  0  0  0  0  0  0
    2.0914    1.5501    0.0000 C   0  0  0  0  0  0  0  0  0
    2.0914    0.7251    0.0000 C   0  0  0  0  0  0  0  0  0
    1.3770    0.3126    0.0000 C   0  0  0  0  0  0  0  0  0
  1  2  1  0  0  0  0
  1  5  1  0  0  0  0
  2  3  1  0  0  0  0
  3  4  1  0  0  0  0
  5  6  4  0  0  0  0
  5 10  4  0  0  0  0
  6  7  4  0  0  0  0
  7  8  4  0  0  0  0
  8  9  4  0  0  0  0
  9 10  4  0  0  0  0
 10 11  1  0  0  0  0
 11 12  1  0  0  0  0
 11 16  1  0  0  0  0
 12 13  1  0  0  0  0
 13 14  1  0  0  0  0
 14 15  1  0  0  0  0
 14 17  1  0  0  0  0
 15 16  1  0  0  0  0
 17 18  1  0  0  0  0
 17 19  1  0  0  0  0
 19 20  1  0  0  0  0
 20 21  1  0  0  0  0
 21 22  2  0  0  0  0
 21 23  1  0  0  0  0
 23 24  4  0  0  0  0
 23 27  4  0  0  0  0
 24 25  4  0  0  0  0
 25 26  4  0  0  0  0
 25 31  4  0  0  0  0
 26 27  4  0  0  0  0
 26 28  4  0  0  0  0
 28 29  4  0  0  0  0
 29 30  4  0  0  0  0
 30 31  4  0  0  0  0
M  STY  1   1 DAT
M  SAL   1  1  24
M  SDT   1 MRV_IMPLICIT_H                                        
M  SDD   1     0.0000    0.0000    DR    ALL  0       0  
M  SED   1 IMPL_H1
M  END
>  <Name_Molregno>
498868

>  <DOPAMINE D3>
7.21

$$$$
498869
  Marvin  02231216192D 0   1.00000     0.00000     0

 30 33  0  0  1  0  0  0  0  0999 V2000
   -7.2376    1.8842    0.0000 Cl  0  0  0  0  0  0  0  0  0
   -7.6501    1.1698    0.0000 C   0  0  0  0  0  0  0  0  0
   -7.2376    0.4553    0.0000 C   0  0  0  0  0  0  0  0  0
   -6.4126    0.4553    0.0000 N   0  0  0  0  0  0  0  0  0
   -6.0001    1.1698    0.0000 C   0  0  0  0  0  0  0  0  0
   -5.1751    1.1698    0.0000 C   0  0  0  0  0  0  0  0  0
   -4.7626    0.4553    0.0000 N   0  0  0  0  0  0  0  0  0
   -5.1751   -0.2592    0.0000 C   0  0  0  0  0  0  0  0  0
   -6.0001   -0.2592    0.0000 C   0  0  0  0  0  0  0  0  0
   -3.9376    0.4553    0.0000 C   0  0  0  0  0  0  0  0  0
   -3.5251    1.1698    0.0000 O   0  0  0  0  0  0  0  0  0
   -3.5251   -0.2592    0.0000 C   0  0  0  0  0  0  0  0  0
   -2.7001   -0.2592    0.0000 N   0  0  0  0  0  0  0  0  0
   -2.2876   -0.9737    0.0000 C   0  0  0  0  0  0  0  0  0
   -2.7001   -1.6881    0.0000 O   0  0  0  0  0  0  0  0  0
   -1.4626   -0.9737    0.0000 C   0  0  0  0  0  0  0  0  0
   -0.9777   -1.6411    0.0000 N   0  0  0  0  0  0  0  0  0
   -0.1931   -1.3862    0.0000 C   0  0  0  0  0  0  0  0  0
   -0.1931   -0.5612    0.0000 C   0  0  0  0  0  0  0  0  0
   -0.9777   -0.3062    0.0000 C   0  0  0  0  0  0  0  0  0
    0.5214   -0.1487    0.0000 C   0  0  0  0  0  0  0  0  0
    1.2359   -0.5612    0.0000 C   0  0  0  0  0  0  0  0  0
    1.9503   -0.1487    0.0000 F   0  0  0  0  0  0  0  0  0
    1.2359   -1.3862    0.0000 C   0  0  0  0  0  0  0  0  0
    0.5214   -1.7987    0.0000 C   0  0  0  0  0  0  0  0  0
   -7.6501   -0.2592    0.0000 C   0  0  0  0  0  0  0  0  0
   -8.4751   -0.2592    0.0000 C   0  0  0  0  0  0  0  0  0
   -8.8876    0.4553    0.0000 C   0  0  0  0  0  0  0  0  0
   -8.4751    1.1698    0.0000 C   0  0  0  0  0  0  0  0  0
   -8.8876    1.8842    0.0000 Cl  0  0  0  0  0  0  0  0  0
  1  2  1  0  0  0  0
  2  3  4  0  0  0  0
  2 29  4  0  0  0  0
  3  4  1  0  0  0  0
  3 26  4  0  0  0  0
  4  5  1  0  0  0  0
  4  9  1  0  0  0  0
  5  6  1  0  0  0  0
  6  7  1  0  0  0  0
  7  8  1  0  0  0  0
  7 10  1  0  0  0  0
  8  9  1  0  0  0  0
 10 11  1  0  0  0  0
 10 12  1  0  0  0  0
 12 13  1  0  0  0  0
 13 14  1  0  0  0  0
 14 15  2  0  0  0  0
 14 16  1  0  0  0  0
 16 17  4  0  0  0  0
 16 20  4  0  0  0  0
 17 18  4  0  0  0  0
 18 19  4  0  0  0  0
 18 25  4  0  0  0  0
 19 20  4  0  0  0  0
 19 21  4  0  0  0  0
 21 22  4  0  0  0  0
 22 23  1  0  0  0  0
 22 24  4  0  0  0  0
 24 25  4  0  0  0  0
 26 27  4  0  0  0  0
 27 28  4  0  0  0  0
 28 29  4  0  0  0  0
 29 30  1  0  0  0  0
M  STY  1   1 DAT
M  SAL   1  1  17
M  SDT   1 MRV_IMPLICIT_H                                        
M  SDD   1     0.0000    0.0000    DR    ALL  0       0  
M  SED   1 IMPL_H1
M  END
>  <Name_Molregno>
498869

>  <DOPAMINE D3>
8.79

>  <DOPAMINE D4>
5.3

$$$$
498870
  Marvin  02231216192D 0   1.00000     0.00000     0

 30 33  0  0  1  0  0  0  0  0999 V2000
   11.5584    0.4572    0.0000 F   0  0  0  0  0  0  0  0  0
   10.8439    0.8697    0.0000 C   0  0  0  0  0  0  0  0  0
   10.1294    0.4572    0.0000 C   0  0  0  0  0  0  0  0  0
    9.4150    0.8697    0.0000 C   0  0  0  0  0  0  0  0  0
    8.6303    0.6148    0.0000 C   0  0  0  0  0  0  0  0  0
    8.1454    1.2822    0.0000 C   0  0  0  0  0  0  0  0  0
    8.6303    1.9496    0.0000 N   0  0  0  0  0  0  0  0  0
    9.4150    1.6947    0.0000 C   0  0  0  0  0  0  0  0  0
   10.1294    2.1072    0.0000 C   0  0  0  0  0  0  0  0  0
   10.8439    1.6947    0.0000 C   0  0  0  0  0  0  0  0  0
    7.3204    1.2822    0.0000 C   0  0  0  0  0  0  0  0  0
    6.9079    1.9967    0.0000 O   0  0  0  0  0  0  0  0  0
    6.9079    0.5677    0.0000 N   0  0  0  0  0  0  0  0  0
    6.0829    0.5677    0.0000 C   0  0  0  0  0  0  0  0  0
    5.6704   -0.1467    0.0000 C   0  0  0  0  0  0  0  0  0
    6.0829   -0.8612    0.0000 O   0  0  0  0  0  0  0  0  0
    4.8454   -0.1467    0.0000 N   0  0  0  0  0  0  0  0  0
    4.4329   -0.8612    0.0000 C   0  0  0  0  0  0  0  0  0
    3.6079   -0.8612    0.0000 C   0  0  0  0  0  0  0  0  0
    3.1954   -0.1467    0.0000 N   0  0  0  0  0  0  0  0  0
    3.6079    0.5677    0.0000 C   0  0  0  0  0  0  0  0  0
    4.4329    0.5677    0.0000 C   0  0  0  0  0  0  0  0  0
    2.3704   -0.1467    0.0000 C   0  0  0  0  0  0  0  0  0
    1.9579   -0.8612    0.0000 C   0  0  0  0  0  0  0  0  0
    1.1329   -0.8612    0.0000 C   0  0  0  0  0  0  0  0  0
    0.7204   -0.1467    0.0000 C   0  0  0  0  0  0  0  0  0
    1.1329    0.5677    0.0000 C   0  0  0  0  0  0  0  0  0
    1.9579    0.5677    0.0000 C   0  0  0  0  0  0  0  0  0
    2.3704    1.2822    0.0000 O   0  0  0  0  0  0  0  0  0
    1.9579    1.9967    0.0000 C   0  0  0  0  0  0  0  0  0
  1  2  1  0  0  0  0
  2  3  4  0  0  0  0
  2 10  4  0  0  0  0
  3  4  4  0  0  0  0
  4  5  4  0  0  0  0
  4  8  4  0  0  0  0
  5  6  4  0  0  0  0
  6  7  4  0  0  0  0
  6 11  1  0  0  0  0
  7  8  4  0  0  0  0
  8  9  4  0  0  0  0
  9 10  4  0  0  0  0
 11 12  2  0  0  0  0
 11 13  1  0  0  0  0
 13 14  1  0  0  0  0
 14 15  1  0  0  0  0
 15 16  1  0  0  0  0
 15 17  1  0  0  0  0
 17 18  1  0  0  0  0
 17 22  1  0  0  0  0
 18 19  1  0  0  0  0
 19 20  1  0  0  0  0
 20 21  1  0  0  0  0
 20 23  1  0  0  0  0
 21 22  1  0  0  0  0
 23 24  4  0  0  0  0
 23 28  4  0  0  0  0
 24 25  4  0  0  0  0
 25 26  4  0  0  0  0
 26 27  4  0  0  0  0
 27 28  4  0  0  0  0
 28 29  1  0  0  0  0
 29 30  1  0  0  0  0
M  STY  1   1 DAT
M  SAL   1  1   7
M  SDT   1 MRV_IMPLICIT_H                                        
M  SDD   1     0.0000    0.0000    DR    ALL  0       0  
M  SED   1 IMPL_H1
M  END
>  <Name_Molregno>
498870

>  <DOPAMINE D3>
8.62

>  <DOPAMINE D4>
6.01

$$$$
498871
  Marvin  02231216192D 0   1.00000     0.00000     0

 30 33  0  0  1  0  0  0  0  0999 V2000
   11.6517    0.2056    0.0000 I   0  0  0  0  0  0  0  0  0
   10.9373    0.6181    0.0000 C   0  0  0  0  0  0  0  0  0
   10.2228    0.2056    0.0000 C   0  0  0  0  0  0  0  0  0
    9.5083    0.6181    0.0000 C   0  0  0  0  0  0  0  0  0
    8.7237    0.3632    0.0000 C   0  0  0  0  0  0  0  0  0
    8.2388    1.0306    0.0000 C   0  0  0  0  0  0  0  0  0
    8.7237    1.6980    0.0000 N   0  0  0  0  0  0  0  0  0
    9.5083    1.4431    0.0000 C   0  0  0  0  0  0  0  0  0
   10.2228    1.8556    0.0000 C   0  0  0  0  0  0  0  0  0
   10.9373    1.4431    0.0000 C   0  0  0  0  0  0  0  0  0
    7.4138    1.0306    0.0000 C   0  0  0  0  0  0  0  0  0
    7.0013    1.7451    0.0000 O   0  0  0  0  0  0  0  0  0
    7.0013    0.3161    0.0000 N   0  0  0  0  0  0  0  0  0
    6.1763    0.3161    0.0000 C   0  0  0  0  0  0  0  0  0
    5.7638   -0.3983    0.0000 C   0  0  0  0  0  0  0  0  0
    6.1763   -1.1128    0.0000 O   0  0  0  0  0  0  0  0  0
    4.9388   -0.3983    0.0000 N   0  0  0  0  0  0  0  0  0
    4.5263   -1.1128    0.0000 C   0  0  0  0  0  0  0  0  0
    3.7013   -1.1128    0.0000 C   0  0  0  0  0  0  0  0  0
    3.2888   -0.3983    0.0000 N   0  0  0  0  0  0  0  0  0
    3.7013    0.3161    0.0000 C   0  0  0  0  0  0  0  0  0
    4.5263    0.3161    0.0000 C   0  0  0  0  0  0  0  0  0
    2.4638   -0.3983    0.0000 C   0  0  0  0  0  0  0  0  0
    2.0513   -1.1128    0.0000 C   0  0  0  0  0  0  0  0  0
    1.2263   -1.1128    0.0000 C   0  0  0  0  0  0  0  0  0
    0.8138   -0.3983    0.0000 C   0  0  0  0  0  0  0  0  0
    1.2263    0.3161    0.0000 C   0  0  0  0  0  0  0  0  0
    0.8138    1.0306    0.0000 Cl  0  0  0  0  0  0  0  0  0
    2.0513    0.3161    0.0000 C   0  0  0  0  0  0  0  0  0
    2.4638    1.0306    0.0000 Cl  0  0  0  0  0  0  0  0  0
  1  2  1  0  0  0  0
  2  3  4  0  0  0  0
  2 10  4  0  0  0  0
  3  4  4  0  0  0  0
  4  5  4  0  0  0  0
  4  8  4  0  0  0  0
  5  6  4  0  0  0  0
  6  7  4  0  0  0  0
  6 11  1  0  0  0  0
  7  8  4  0  0  0  0
  8  9  4  0  0  0  0
  9 10  4  0  0  0  0
 11 12  2  0  0  0  0
 11 13  1  0  0  0  0
 13 14  1  0  0  0  0
 14 15  1  0  0  0  0
 15 16  1  0  0  0  0
 15 17  1  0  0  0  0
 17 18  1  0  0  0  0
 17 22  1  0  0  0  0
 18 19  1  0  0  0  0
 19 20  1  0  0  0  0
 20 21  1  0  0  0  0
 20 23  1  0  0  0  0
 21 22  1  0  0  0  0
 23 24  4  0  0  0  0
 23 29  4  0  0  0  0
 24 25  4  0  0  0  0
 25 26  4  0  0  0  0
 26 27  4  0  0  0  0
 27 28  1  0  0  0  0
 27 29  4  0  0  0  0
 29 30  1  0  0  0  0
M  STY  1   1 DAT
M  SAL   1  1   7
M  SDT   1 MRV_IMPLICIT_H                                        
M  SDD   1     0.0000    0.0000    DR    ALL  0       0  
M  SED   1 IMPL_H1
M  END
>  <Name_Molregno>
498871

>  <DOPAMINE D3>
8.28

>  <DOPAMINE D4>
5

$$$$
498965
  Marvin  02231216192D 0   1.00000     0.00000     0

 30 33  0  0  1  0  0  0  0  0999 V2000
   11.5584    0.4572    0.0000 I   0  0  0  0  0  0  0  0  0
   10.8439    0.8697    0.0000 C   0  0  0  0  0  0  0  0  0
   10.1294    0.4572    0.0000 C   0  0  0  0  0  0  0  0  0
    9.4150    0.8697    0.0000 C   0  0  0  0  0  0  0  0  0
    8.6303    0.6148    0.0000 C   0  0  0  0  0  0  0  0  0
    8.1454    1.2822    0.0000 C   0  0  0  0  0  0  0  0  0
    8.6303    1.9496    0.0000 N   0  0  0  0  0  0  0  0  0
    9.4150    1.6947    0.0000 C   0  0  0  0  0  0  0  0  0
   10.1294    2.1072    0.0000 C   0  0  0  0  0  0  0  0  0
   10.8439    1.6947    0.0000 C   0  0  0  0  0  0  0  0  0
    7.3204    1.2822    0.0000 C   0  0  0  0  0  0  0  0  0
    6.9079    1.9967    0.0000 O   0  0  0  0  0  0  0  0  0
    6.9079    0.5677    0.0000 N   0  0  0  0  0  0  0  0  0
    6.0829    0.5677    0.0000 C   0  0  0  0  0  0  0  0  0
    5.6704   -0.1467    0.0000 C   0  0  0  0  0  0  0  0  0
    6.0829   -0.8612    0.0000 O   0  0  0  0  0  0  0  0  0
    4.8454   -0.1467    0.0000 N   0  0  0  0  0  0  0  0  0
    4.4329   -0.8612    0.0000 C   0  0  0  0  0  0  0  0  0
    3.6079   -0.8612    0.0000 C   0  0  0  0  0  0  0  0  0
    3.1954   -0.1467    0.0000 N   0  0  0  0  0  0  0  0  0
    3.6079    0.5677    0.0000 C   0  0  0  0  0  0  0  0  0
    4.4329    0.5677    0.0000 C   0  0  0  0  0  0  0  0  0
    2.3704   -0.1467    0.0000 C   0  0  0  0  0  0  0  0  0
    1.9579   -0.8612    0.0000 C   0  0  0  0  0  0  0  0  0
    1.1329   -0.8612    0.0000 C   0  0  0  0  0  0  0  0  0
    0.7204   -0.1467    0.0000 C   0  0  0  0  0  0  0  0  0
    1.1329    0.5677    0.0000 C   0  0  0  0  0  0  0  0  0
    1.9579    0.5677    0.0000 C   0  0  0  0  0  0  0  0  0
    2.3704    1.2822    0.0000 O   0  0  0  0  0  0  0  0  0
    1.9579    1.9967    0.0000 C   0  0  0  0  0  0  0  0  0
  1  2  1  0  0  0  0
  2  3  4  0  0  0  0
  2 10  4  0  0  0  0
  3  4  4  0  0  0  0
  4  5  4  0  0  0  0
  4  8  4  0  0  0  0
  5  6  4  0  0  0  0
  6  7  4  0  0  0  0
  6 11  1  0  0  0  0
  7  8  4  0  0  0  0
  8  9  4  0  0  0  0
  9 10  4  0  0  0  0
 11 12  2  0  0  0  0
 11 13  1  0  0  0  0
 13 14  1  0  0  0  0
 14 15  1  0  0  0  0
 15 16  1  0  0  0  0
 15 17  1  0  0  0  0
 17 18  1  0  0  0  0
 17 22  1  0  0  0  0
 18 19  1  0  0  0  0
 19 20  1  0  0  0  0
 20 21  1  0  0  0  0
 20 23  1  0  0  0  0
 21 22  1  0  0  0  0
 23 24  4  0  0  0  0
 23 28  4  0  0  0  0
 24 25  4  0  0  0  0
 25 26  4  0  0  0  0
 26 27  4  0  0  0  0
 27 28  4  0  0  0  0
 28 29  1  0  0  0  0
 29 30  1  0  0  0  0
M  STY  1   1 DAT
M  SAL   1  1   7
M  SDT   1 MRV_IMPLICIT_H                                        
M  SDD   1     0.0000    0.0000    DR    ALL  0       0  
M  SED   1 IMPL_H1
M  END
>  <Name_Molregno>
498965

>  <DOPAMINE D3>
8.44

>  <DOPAMINE D4>
6.34

$$$$
498966
  Marvin  02231216192D 0   1.00000     0.00000     0

 31 34  0  0  1  0  0  0  0  0999 V2000
   -7.6443    2.0188    0.0000 Cl  0  0  0  0  0  0  0  0  0
   -8.0568    1.3044    0.0000 C   0  0  0  0  0  0  0  0  0
   -7.6443    0.5899    0.0000 C   0  0  0  0  0  0  0  0  0
   -6.8193    0.5899    0.0000 N   0  0  0  0  0  0  0  0  0
   -6.4068    1.3044    0.0000 C   0  0  0  0  0  0  0  0  0
   -5.5818    1.3044    0.0000 C   0  0  0  0  0  0  0  0  0
   -5.1693    0.5899    0.0000 N   0  0  0  0  0  0  0  0  0
   -5.5818   -0.1246    0.0000 C   0  0  0  0  0  0  0  0  0
   -6.4068   -0.1246    0.0000 C   0  0  0  0  0  0  0  0  0
   -4.3443    0.5899    0.0000 C   0  0  0  0  0  0  0  0  0
   -3.9318    1.3044    0.0000 O   0  0  0  0  0  0  0  0  0
   -3.9318   -0.1246    0.0000 C   0  0  0  0  0  0  0  0  0
   -3.1068   -0.1246    0.0000 N   0  0  0  0  0  0  0  0  0
   -2.6943   -0.8390    0.0000 C   0  0  0  0  0  0  0  0  0
   -3.1068   -1.5535    0.0000 O   0  0  0  0  0  0  0  0  0
   -1.8693   -0.8390    0.0000 C   0  0  0  0  0  0  0  0  0
   -1.3844   -1.5065    0.0000 N   0  0  0  0  0  0  0  0  0
   -0.5997   -1.2515    0.0000 C   0  0  0  0  0  0  0  0  0
   -0.5997   -0.4265    0.0000 C   0  0  0  0  0  0  0  0  0
   -1.3844   -0.1716    0.0000 C   0  0  0  0  0  0  0  0  0
    0.1147   -0.0140    0.0000 C   0  0  0  0  0  0  0  0  0
    0.8292   -0.4265    0.0000 C   0  0  0  0  0  0  0  0  0
    1.5437   -0.0140    0.0000 O   0  0  0  0  0  0  0  0  0
    2.2581   -0.4265    0.0000 C   0  0  0  0  0  0  0  0  0
    0.8292   -1.2515    0.0000 C   0  0  0  0  0  0  0  0  0
    0.1147   -1.6640    0.0000 C   0  0  0  0  0  0  0  0  0
   -8.0568   -0.1246    0.0000 C   0  0  0  0  0  0  0  0  0
   -8.8818   -0.1246    0.0000 C   0  0  0  0  0  0  0  0  0
   -9.2943    0.5899    0.0000 C   0  0  0  0  0  0  0  0  0
   -8.8818    1.3044    0.0000 C   0  0  0  0  0  0  0  0  0
   -9.2943    2.0188    0.0000 Cl  0  0  0  0  0  0  0  0  0
  1  2  1  0  0  0  0
  2  3  4  0  0  0  0
  2 30  4  0  0  0  0
  3  4  1  0  0  0  0
  3 27  4  0  0  0  0
  4  5  1  0  0  0  0
  4  9  1  0  0  0  0
  5  6  1  0  0  0  0
  6  7  1  0  0  0  0
  7  8  1  0  0  0  0
  7 10  1  0  0  0  0
  8  9  1  0  0  0  0
 10 11  1  0  0  0  0
 10 12  1  0  0  0  0
 12 13  1  0  0  0  0
 13 14  1  0  0  0  0
 14 15  2  0  0  0  0
 14 16  1  0  0  0  0
 16 17  4  0  0  0  0
 16 20  4  0  0  0  0
 17 18  4  0  0  0  0
 18 19  4  0  0  0  0
 18 26  4  0  0  0  0
 19 20  4  0  0  0  0
 19 21  4  0  0  0  0
 21 22  4  0  0  0  0
 22 23  1  0  0  0  0
 22 25  4  0  0  0  0
 23 24  1  0  0  0  0
 25 26  4  0  0  0  0
 27 28  4  0  0  0  0
 28 29  4  0  0  0  0
 29 30  4  0  0  0  0
 30 31  1  0  0  0  0
M  STY  1   1 DAT
M  SAL   1  1  17
M  SDT   1 MRV_IMPLICIT_H                                        
M  SDD   1     0.0000    0.0000    DR    ALL  0       0  
M  SED   1 IMPL_H1
M  END
>  <Name_Molregno>
498966

>  <DOPAMINE D3>
8.92

>  <DOPAMINE D4>
5

$$$$
498967
  Marvin  02231216192D 0   1.00000     0.00000     0

 31 34  0  0  1  0  0  0  0  0999 V2000
   -7.7072   -2.0837    0.0000 O   0  0  0  0  0  0  0  0  0
   -8.1197   -2.7982    0.0000 C   0  0  0  0  0  0  0  0  0
   -8.1197   -1.3692    0.0000 C   0  0  0  0  0  0  0  0  0
   -8.9447   -1.3692    0.0000 C   0  0  0  0  0  0  0  0  0
   -9.3572   -0.6547    0.0000 C   0  0  0  0  0  0  0  0  0
   -8.9447    0.0597    0.0000 C   0  0  0  0  0  0  0  0  0
   -8.1197    0.0597    0.0000 C   0  0  0  0  0  0  0  0  0
   -7.7072   -0.6547    0.0000 C   0  0  0  0  0  0  0  0  0
   -6.8822   -0.6547    0.0000 N   0  0  0  0  0  0  0  0  0
   -6.4697    0.0597    0.0000 C   0  0  0  0  0  0  0  0  0
   -5.6447    0.0597    0.0000 C   0  0  0  0  0  0  0  0  0
   -5.2322   -0.6547    0.0000 N   0  0  0  0  0  0  0  0  0
   -5.6447   -1.3692    0.0000 C   0  0  0  0  0  0  0  0  0
   -6.4697   -1.3692    0.0000 C   0  0  0  0  0  0  0  0  0
   -4.4072   -0.6547    0.0000 C   0  0  0  0  0  0  0  0  0
   -3.9947   -1.3692    0.0000 O   0  0  0  0  0  0  0  0  0
   -3.9947    0.0597    0.0000 C   0  0  0  0  0  0  0  0  0
   -3.1697    0.0597    0.0000 N   0  0  0  0  0  0  0  0  0
   -2.7572    0.7742    0.0000 C   0  0  0  0  0  0  0  0  0
   -3.1697    1.4887    0.0000 O   0  0  0  0  0  0  0  0  0
   -1.9322    0.7742    0.0000 C   0  0  0  0  0  0  0  0  0
   -1.4472    0.1068    0.0000 N   0  0  0  0  0  0  0  0  0
   -0.6626    0.3617    0.0000 C   0  0  0  0  0  0  0  0  0
   -0.6626    1.1867    0.0000 C   0  0  0  0  0  0  0  0  0
   -1.4472    1.4416    0.0000 C   0  0  0  0  0  0  0  0  0
    0.0519    1.5992    0.0000 C   0  0  0  0  0  0  0  0  0
    0.7663    1.1867    0.0000 C   0  0  0  0  0  0  0  0  0
    1.4808    1.5992    0.0000 O   0  0  0  0  0  0  0  0  0
    2.1953    1.1867    0.0000 C   0  0  0  0  0  0  0  0  0
    0.7663    0.3617    0.0000 C   0  0  0  0  0  0  0  0  0
    0.0519   -0.0508    0.0000 C   0  0  0  0  0  0  0  0  0
  1  2  1  0  0  0  0
  1  3  1  0  0  0  0
  3  4  4  0  0  0  0
  3  8  4  0  0  0  0
  4  5  4  0  0  0  0
  5  6  4  0  0  0  0
  6  7  4  0  0  0  0
  7  8  4  0  0  0  0
  8  9  1  0  0  0  0
  9 10  1  0  0  0  0
  9 14  1  0  0  0  0
 10 11  1  0  0  0  0
 11 12  1  0  0  0  0
 12 13  1  0  0  0  0
 12 15  1  0  0  0  0
 13 14  1  0  0  0  0
 15 16  1  0  0  0  0
 15 17  1  0  0  0  0
 17 18  1  0  0  0  0
 18 19  1  0  0  0  0
 19 20  2  0  0  0  0
 19 21  1  0  0  0  0
 21 22  4  0  0  0  0
 21 25  4  0  0  0  0
 22 23  4  0  0  0  0
 23 24  4  0  0  0  0
 23 31  4  0  0  0  0
 24 25  4  0  0  0  0
 24 26  4  0  0  0  0
 26 27  4  0  0  0  0
 27 28  1  0  0  0  0
 27 30  4  0  0  0  0
 28 29  1  0  0  0  0
 30 31  4  0  0  0  0
M  STY  1   1 DAT
M  SAL   1  1  22
M  SDT   1 MRV_IMPLICIT_H                                        
M  SDD   1     0.0000    0.0000    DR    ALL  0       0  
M  SED   1 IMPL_H1
M  END
>  <Name_Molregno>
498967

>  <DOPAMINE D3>
8.63

>  <DOPAMINE D4>
5.82

$$$$
498968
  Marvin  02231216192D 0   1.00000     0.00000     0

 29 32  0  0  1  0  0  0  0  0999 V2000
   -6.8417    1.8761    0.0000 Cl  0  0  0  0  0  0  0  0  0
   -7.2542    1.1617    0.0000 C   0  0  0  0  0  0  0  0  0
   -6.8417    0.4472    0.0000 C   0  0  0  0  0  0  0  0  0
   -6.0167    0.4472    0.0000 N   0  0  0  0  0  0  0  0  0
   -5.6042    1.1617    0.0000 C   0  0  0  0  0  0  0  0  0
   -4.7792    1.1617    0.0000 C   0  0  0  0  0  0  0  0  0
   -4.3667    0.4472    0.0000 N   0  0  0  0  0  0  0  0  0
   -4.7792   -0.2673    0.0000 C   0  0  0  0  0  0  0  0  0
   -5.6042   -0.2673    0.0000 C   0  0  0  0  0  0  0  0  0
   -3.5417    0.4472    0.0000 C   0  0  0  0  0  0  0  0  0
   -3.1292    1.1617    0.0000 O   0  0  0  0  0  0  0  0  0
   -3.1292   -0.2673    0.0000 C   0  0  0  0  0  0  0  0  0
   -2.3042   -0.2673    0.0000 N   0  0  0  0  0  0  0  0  0
   -1.8917   -0.9818    0.0000 C   0  0  0  0  0  0  0  0  0
   -2.3042   -1.6962    0.0000 O   0  0  0  0  0  0  0  0  0
   -1.0667   -0.9818    0.0000 C   0  0  0  0  0  0  0  0  0
   -0.5818   -1.6492    0.0000 O   0  0  0  0  0  0  0  0  0
    0.2029   -1.3943    0.0000 C   0  0  0  0  0  0  0  0  0
    0.2029   -0.5693    0.0000 C   0  0  0  0  0  0  0  0  0
   -0.5818   -0.3143    0.0000 C   0  0  0  0  0  0  0  0  0
    0.9173   -0.1568    0.0000 C   0  0  0  0  0  0  0  0  0
    1.6318   -0.5693    0.0000 C   0  0  0  0  0  0  0  0  0
    1.6318   -1.3943    0.0000 C   0  0  0  0  0  0  0  0  0
    0.9173   -1.8068    0.0000 C   0  0  0  0  0  0  0  0  0
   -7.2542   -0.2673    0.0000 C   0  0  0  0  0  0  0  0  0
   -8.0792   -0.2673    0.0000 C   0  0  0  0  0  0  0  0  0
   -8.4917    0.4472    0.0000 C   0  0  0  0  0  0  0  0  0
   -8.0792    1.1617    0.0000 C   0  0  0  0  0  0  0  0  0
   -8.4917    1.8761    0.0000 Cl  0  0  0  0  0  0  0  0  0
  1  2  1  0  0  0  0
  2  3  4  0  0  0  0
  2 28  4  0  0  0  0
  3  4  1  0  0  0  0
  3 25  4  0  0  0  0
  4  5  1  0  0  0  0
  4  9  1  0  0  0  0
  5  6  1  0  0  0  0
  6  7  1  0  0  0  0
  7  8  1  0  0  0  0
  7 10  1  0  0  0  0
  8  9  1  0  0  0  0
 10 11  1  0  0  0  0
 10 12  1  0  0  0  0
 12 13  1  0  0  0  0
 13 14  1  0  0  0  0
 14 15  2  0  0  0  0
 14 16  1  0  0  0  0
 16 17  4  0  0  0  0
 16 20  4  0  0  0  0
 17 18  4  0  0  0  0
 18 19  4  0  0  0  0
 18 24  4  0  0  0  0
 19 20  4  0  0  0  0
 19 21  4  0  0  0  0
 21 22  4  0  0  0  0
 22 23  4  0  0  0  0
 23 24  4  0  0  0  0
 25 26  4  0  0  0  0
 26 27  4  0  0  0  0
 27 28  4  0  0  0  0
 28 29  1  0  0  0  0
M  END
>  <Name_Molregno>
498968

>  <DOPAMINE D3>
8.21

>  <DOPAMINE D4>
5

$$$$
499032
  Marvin  02231216192D 0   1.00000     0.00000     0

 29 32  0  0  1  0  0  0  0  0999 V2000
    5.9534   -0.1941    0.0000 O   0  0  0  0  0  0  0  0  0
    6.7380    0.0609    0.0000 C   0  0  0  0  0  0  0  0  0
    6.7380    0.8859    0.0000 C   0  0  0  0  0  0  0  0  0
    5.9534    1.1408    0.0000 C   0  0  0  0  0  0  0  0  0
    5.4685    0.4734    0.0000 C   0  0  0  0  0  0  0  0  0
    4.6435    0.4734    0.0000 C   0  0  0  0  0  0  0  0  0
    4.2310    1.1879    0.0000 O   0  0  0  0  0  0  0  0  0
    4.2310   -0.2411    0.0000 N   0  0  0  0  0  0  0  0  0
    3.4060   -0.2411    0.0000 C   0  0  0  0  0  0  0  0  0
    2.9935   -0.9556    0.0000 C   0  0  0  0  0  0  0  0  0
    3.4060   -1.6700    0.0000 O   0  0  0  0  0  0  0  0  0
    2.1685   -0.9556    0.0000 N   0  0  0  0  0  0  0  0  0
    1.7560   -1.6700    0.0000 C   0  0  0  0  0  0  0  0  0
    0.9310   -1.6700    0.0000 C   0  0  0  0  0  0  0  0  0
    0.5185   -0.9556    0.0000 N   0  0  0  0  0  0  0  0  0
    0.9310   -0.2411    0.0000 C   0  0  0  0  0  0  0  0  0
    1.7560   -0.2411    0.0000 C   0  0  0  0  0  0  0  0  0
   -0.3065   -0.9556    0.0000 C   0  0  0  0  0  0  0  0  0
   -0.7190   -1.6700    0.0000 C   0  0  0  0  0  0  0  0  0
   -1.5440   -1.6700    0.0000 C   0  0  0  0  0  0  0  0  0
   -1.9565   -0.9556    0.0000 C   0  0  0  0  0  0  0  0  0
   -1.5440   -0.2411    0.0000 C   0  0  0  0  0  0  0  0  0
   -0.7190   -0.2411    0.0000 C   0  0  0  0  0  0  0  0  0
   -0.3065    0.4734    0.0000 O   0  0  0  0  0  0  0  0  0
   -0.7190    1.1879    0.0000 C   0  0  0  0  0  0  0  0  0
    7.4525    1.2984    0.0000 C   0  0  0  0  0  0  0  0  0
    8.1670    0.8859    0.0000 C   0  0  0  0  0  0  0  0  0
    8.1670    0.0609    0.0000 C   0  0  0  0  0  0  0  0  0
    7.4525   -0.3516    0.0000 C   0  0  0  0  0  0  0  0  0
  1  2  4  0  0  0  0
  1  5  4  0  0  0  0
  2  3  4  0  0  0  0
  2 29  4  0  0  0  0
  3  4  4  0  0  0  0
  3 26  4  0  0  0  0
  4  5  4  0  0  0  0
  5  6  1  0  0  0  0
  6  7  2  0  0  0  0
  6  8  1  0  0  0  0
  8  9  1  0  0  0  0
  9 10  1  0  0  0  0
 10 11  1  0  0  0  0
 10 12  1  0  0  0  0
 12 13  1  0  0  0  0
 12 17  1  0  0  0  0
 13 14  1  0  0  0  0
 14 15  1  0  0  0  0
 15 16  1  0  0  0  0
 15 18  1  0  0  0  0
 16 17  1  0  0  0  0
 18 19  4  0  0  0  0
 18 23  4  0  0  0  0
 19 20  4  0  0  0  0
 20 21  4  0  0  0  0
 21 22  4  0  0  0  0
 22 23  4  0  0  0  0
 23 24  1  0  0  0  0
 24 25  1  0  0  0  0
 26 27  4  0  0  0  0
 27 28  4  0  0  0  0
 28 29  4  0  0  0  0
M  END
>  <Name_Molregno>
499032

>  <DOPAMINE D3>
8.12

>  <DOPAMINE D4>
5.67

$$$$
499033
  Marvin  02231216192D 0   1.00000     0.00000     0

 30 33  0  0  1  0  0  0  0  0999 V2000
   11.6517    0.2056    0.0000 I   0  0  0  0  0  0  0  0  0
   10.9373    0.6181    0.0000 C   0  0  0  0  0  0  0  0  0
   10.2228    0.2056    0.0000 C   0  0  0  0  0  0  0  0  0
    9.5083    0.6181    0.0000 C   0  0  0  0  0  0  0  0  0
    8.7237    0.3632    0.0000 C   0  0  0  0  0  0  0  0  0
    8.2388    1.0306    0.0000 C   0  0  0  0  0  0  0  0  0
    8.7237    1.6980    0.0000 O   0  0  0  0  0  0  0  0  0
    9.5083    1.4431    0.0000 C   0  0  0  0  0  0  0  0  0
   10.2228    1.8556    0.0000 C   0  0  0  0  0  0  0  0  0
   10.9373    1.4431    0.0000 C   0  0  0  0  0  0  0  0  0
    7.4138    1.0306    0.0000 C   0  0  0  0  0  0  0  0  0
    7.0013    1.7451    0.0000 O   0  0  0  0  0  0  0  0  0
    7.0013    0.3161    0.0000 N   0  0  0  0  0  0  0  0  0
    6.1763    0.3161    0.0000 C   0  0  0  0  0  0  0  0  0
    5.7638   -0.3983    0.0000 C   0  0  0  0  0  0  0  0  0
    6.1763   -1.1128    0.0000 O   0  0  0  0  0  0  0  0  0
    4.9388   -0.3983    0.0000 N   0  0  0  0  0  0  0  0  0
    4.5263   -1.1128    0.0000 C   0  0  0  0  0  0  0  0  0
    3.7013   -1.1128    0.0000 C   0  0  0  0  0  0  0  0  0
    3.2888   -0.3983    0.0000 N   0  0  0  0  0  0  0  0  0
    3.7013    0.3161    0.0000 C   0  0  0  0  0  0  0  0  0
    4.5263    0.3161    0.0000 C   0  0  0  0  0  0  0  0  0
    2.4638   -0.3983    0.0000 C   0  0  0  0  0  0  0  0  0
    2.0513   -1.1128    0.0000 C   0  0  0  0  0  0  0  0  0
    1.2263   -1.1128    0.0000 C   0  0  0  0  0  0  0  0  0
    0.8138   -0.3983    0.0000 C   0  0  0  0  0  0  0  0  0
    1.2263    0.3161    0.0000 C   0  0  0  0  0  0  0  0  0
    0.8138    1.0306    0.0000 Cl  0  0  0  0  0  0  0  0  0
    2.0513    0.3161    0.0000 C   0  0  0  0  0  0  0  0  0
    2.4638    1.0306    0.0000 Cl  0  0  0  0  0  0  0  0  0
  1  2  1  0  0  0  0
  2  3  4  0  0  0  0
  2 10  4  0  0  0  0
  3  4  4  0  0  0  0
  4  5  4  0  0  0  0
  4  8  4  0  0  0  0
  5  6  4  0  0  0  0
  6  7  4  0  0  0  0
  6 11  1  0  0  0  0
  7  8  4  0  0  0  0
  8  9  4  0  0  0  0
  9 10  4  0  0  0  0
 11 12  2  0  0  0  0
 11 13  1  0  0  0  0
 13 14  1  0  0  0  0
 14 15  1  0  0  0  0
 15 16  1  0  0  0  0
 15 17  1  0  0  0  0
 17 18  1  0  0  0  0
 17 22  1  0  0  0  0
 18 19  1  0  0  0  0
 19 20  1  0  0  0  0
 20 21  1  0  0  0  0
 20 23  1  0  0  0  0
 21 22  1  0  0  0  0
 23 24  4  0  0  0  0
 23 29  4  0  0  0  0
 24 25  4  0  0  0  0
 25 26  4  0  0  0  0
 26 27  4  0  0  0  0
 27 28  1  0  0  0  0
 27 29  4  0  0  0  0
 29 30  1  0  0  0  0
M  END
>  <Name_Molregno>
499033

>  <DOPAMINE D3>
8.11

>  <DOPAMINE D4>
5

$$$$
499034
  Marvin  02231216192D 0   1.00000     0.00000     0

 30 33  0  0  1  0  0  0  0  0999 V2000
   11.5584    0.4572    0.0000 I   0  0  0  0  0  0  0  0  0
   10.8439    0.8697    0.0000 C   0  0  0  0  0  0  0  0  0
   10.1294    0.4572    0.0000 C   0  0  0  0  0  0  0  0  0
    9.4150    0.8697    0.0000 C   0  0  0  0  0  0  0  0  0
    8.6303    0.6148    0.0000 C   0  0  0  0  0  0  0  0  0
    8.1454    1.2822    0.0000 C   0  0  0  0  0  0  0  0  0
    8.6303    1.9496    0.0000 O   0  0  0  0  0  0  0  0  0
    9.4150    1.6947    0.0000 C   0  0  0  0  0  0  0  0  0
   10.1294    2.1072    0.0000 C   0  0  0  0  0  0  0  0  0
   10.8439    1.6947    0.0000 C   0  0  0  0  0  0  0  0  0
    7.3204    1.2822    0.0000 C   0  0  0  0  0  0  0  0  0
    6.9079    1.9967    0.0000 O   0  0  0  0  0  0  0  0  0
    6.9079    0.5677    0.0000 N   0  0  0  0  0  0  0  0  0
    6.0829    0.5677    0.0000 C   0  0  0  0  0  0  0  0  0
    5.6704   -0.1467    0.0000 C   0  0  0  0  0  0  0  0  0
    6.0829   -0.8612    0.0000 O   0  0  0  0  0  0  0  0  0
    4.8454   -0.1467    0.0000 N   0  0  0  0  0  0  0  0  0
    4.4329   -0.8612    0.0000 C   0  0  0  0  0  0  0  0  0
    3.6079   -0.8612    0.0000 C   0  0  0  0  0  0  0  0  0
    3.1954   -0.1467    0.0000 N   0  0  0  0  0  0  0  0  0
    3.6079    0.5677    0.0000 C   0  0  0  0  0  0  0  0  0
    4.4329    0.5677    0.0000 C   0  0  0  0  0  0  0  0  0
    2.3704   -0.1467    0.0000 C   0  0  0  0  0  0  0  0  0
    1.9579   -0.8612    0.0000 C   0  0  0  0  0  0  0  0  0
    1.1329   -0.8612    0.0000 C   0  0  0  0  0  0  0  0  0
    0.7204   -0.1467    0.0000 C   0  0  0  0  0  0  0  0  0
    1.1329    0.5677    0.0000 C   0  0  0  0  0  0  0  0  0
    1.9579    0.5677    0.0000 C   0  0  0  0  0  0  0  0  0
    2.3704    1.2822    0.0000 O   0  0  0  0  0  0  0  0  0
    1.9579    1.9967    0.0000 C   0  0  0  0  0  0  0  0  0
  1  2  1  0  0  0  0
  2  3  4  0  0  0  0
  2 10  4  0  0  0  0
  3  4  4  0  0  0  0
  4  5  4  0  0  0  0
  4  8  4  0  0  0  0
  5  6  4  0  0  0  0
  6  7  4  0  0  0  0
  6 11  1  0  0  0  0
  7  8  4  0  0  0  0
  8  9  4  0  0  0  0
  9 10  4  0  0  0  0
 11 12  2  0  0  0  0
 11 13  1  0  0  0  0
 13 14  1  0  0  0  0
 14 15  1  0  0  0  0
 15 16  1  0  0  0  0
 15 17  1  0  0  0  0
 17 18  1  0  0  0  0
 17 22  1  0  0  0  0
 18 19  1  0  0  0  0
 19 20  1  0  0  0  0
 20 21  1  0  0  0  0
 20 23  1  0  0  0  0
 21 22  1  0  0  0  0
 23 24  4  0  0  0  0
 23 28  4  0  0  0  0
 24 25  4  0  0  0  0
 25 26  4  0  0  0  0
 26 27  4  0  0  0  0
 27 28  4  0  0  0  0
 28 29  1  0  0  0  0
 29 30  1  0  0  0  0
M  END
>  <Name_Molregno>
499034

>  <DOPAMINE D3>
8.12

>  <DOPAMINE D4>
5.89

$$$$
499035
  Marvin  02231216192D 0   1.00000     0.00000     0

 29 32  0  0  1  0  0  0  0  0999 V2000
    5.9534   -0.1941    0.0000 S   0  0  0  0  0  0  0  0  0
    6.7380    0.0609    0.0000 C   0  0  0  0  0  0  0  0  0
    6.7380    0.8859    0.0000 C   0  0  0  0  0  0  0  0  0
    5.9534    1.1408    0.0000 C   0  0  0  0  0  0  0  0  0
    5.4685    0.4734    0.0000 C   0  0  0  0  0  0  0  0  0
    4.6435    0.4734    0.0000 C   0  0  0  0  0  0  0  0  0
    4.2310    1.1879    0.0000 O   0  0  0  0  0  0  0  0  0
    4.2310   -0.2411    0.0000 N   0  0  0  0  0  0  0  0  0
    3.4060   -0.2411    0.0000 C   0  0  0  0  0  0  0  0  0
    2.9935   -0.9556    0.0000 C   0  0  0  0  0  0  0  0  0
    3.4060   -1.6700    0.0000 O   0  0  0  0  0  0  0  0  0
    2.1685   -0.9556    0.0000 N   0  0  0  0  0  0  0  0  0
    1.7560   -1.6700    0.0000 C   0  0  0  0  0  0  0  0  0
    0.9310   -1.6700    0.0000 C   0  0  0  0  0  0  0  0  0
    0.5185   -0.9556    0.0000 N   0  0  0  0  0  0  0  0  0
    0.9310   -0.2411    0.0000 C   0  0  0  0  0  0  0  0  0
    1.7560   -0.2411    0.0000 C   0  0  0  0  0  0  0  0  0
   -0.3065   -0.9556    0.0000 C   0  0  0  0  0  0  0  0  0
   -0.7190   -1.6700    0.0000 C   0  0  0  0  0  0  0  0  0
   -1.5440   -1.6700    0.0000 C   0  0  0  0  0  0  0  0  0
   -1.9565   -0.9556    0.0000 C   0  0  0  0  0  0  0  0  0
   -1.5440   -0.2411    0.0000 C   0  0  0  0  0  0  0  0  0
   -0.7190   -0.2411    0.0000 C   0  0  0  0  0  0  0  0  0
   -0.3065    0.4734    0.0000 O   0  0  0  0  0  0  0  0  0
   -0.7190    1.1879    0.0000 C   0  0  0  0  0  0  0  0  0
    7.4525    1.2984    0.0000 C   0  0  0  0  0  0  0  0  0
    8.1670    0.8859    0.0000 C   0  0  0  0  0  0  0  0  0
    8.1670    0.0609    0.0000 C   0  0  0  0  0  0  0  0  0
    7.4525   -0.3516    0.0000 C   0  0  0  0  0  0  0  0  0
  1  2  4  0  0  0  0
  1  5  4  0  0  0  0
  2  3  4  0  0  0  0
  2 29  4  0  0  0  0
  3  4  4  0  0  0  0
  3 26  4  0  0  0  0
  4  5  4  0  0  0  0
  5  6  1  0  0  0  0
  6  7  2  0  0  0  0
  6  8  1  0  0  0  0
  8  9  1  0  0  0  0
  9 10  1  0  0  0  0
 10 11  1  0  0  0  0
 10 12  1  0  0  0  0
 12 13  1  0  0  0  0
 12 17  1  0  0  0  0
 13 14  1  0  0  0  0
 14 15  1  0  0  0  0
 15 16  1  0  0  0  0
 15 18  1  0  0  0  0
 16 17  1  0  0  0  0
 18 19  4  0  0  0  0
 18 23  4  0  0  0  0
 19 20  4  0  0  0  0
 20 21  4  0  0  0  0
 21 22  4  0  0  0  0
 22 23  4  0  0  0  0
 23 24  1  0  0  0  0
 24 25  1  0  0  0  0
 26 27  4  0  0  0  0
 27 28  4  0  0  0  0
 28 29  4  0  0  0  0
M  END
>  <Name_Molregno>
499035

>  <DOPAMINE D3>
8.34

$$$$
499097
  Marvin  02231216192D 0   1.00000     0.00000     0

 29 32  0  0  1  0  0  0  0  0999 V2000
   -6.8520    1.8873    0.0000 Cl  0  0  0  0  0  0  0  0  0
   -7.2645    1.1729    0.0000 C   0  0  0  0  0  0  0  0  0
   -6.8520    0.4584    0.0000 C   0  0  0  0  0  0  0  0  0
   -6.0270    0.4584    0.0000 N   0  0  0  0  0  0  0  0  0
   -5.6145    1.1729    0.0000 C   0  0  0  0  0  0  0  0  0
   -4.7895    1.1729    0.0000 C   0  0  0  0  0  0  0  0  0
   -4.3770    0.4584    0.0000 N   0  0  0  0  0  0  0  0  0
   -4.7895   -0.2561    0.0000 C   0  0  0  0  0  0  0  0  0
   -5.6145   -0.2561    0.0000 C   0  0  0  0  0  0  0  0  0
   -3.5520    0.4584    0.0000 C   0  0  0  0  0  0  0  0  0
   -3.1395   -0.2561    0.0000 C   0  0  0  0  0  0  0  0  0
   -3.5520   -0.9705    0.0000 O   0  0  0  0  0  0  0  0  0
   -2.3145   -0.2561    0.0000 N   0  0  0  0  0  0  0  0  0
   -1.9020   -0.9705    0.0000 C   0  0  0  0  0  0  0  0  0
   -2.3145   -1.6850    0.0000 O   0  0  0  0  0  0  0  0  0
   -1.0770   -0.9705    0.0000 C   0  0  0  0  0  0  0  0  0
   -0.5921   -1.6380    0.0000 N   0  0  0  0  0  0  0  0  0
    0.1925   -1.3830    0.0000 C   0  0  0  0  0  0  0  0  0
    0.1925   -0.5580    0.0000 C   0  0  0  0  0  0  0  0  0
   -0.5921   -0.3031    0.0000 C   0  0  0  0  0  0  0  0  0
    0.9070   -0.1455    0.0000 C   0  0  0  0  0  0  0  0  0
    1.6215   -0.5580    0.0000 C   0  0  0  0  0  0  0  0  0
    1.6215   -1.3830    0.0000 C   0  0  0  0  0  0  0  0  0
    0.9070   -1.7955    0.0000 C   0  0  0  0  0  0  0  0  0
   -7.2645   -0.2561    0.0000 C   0  0  0  0  0  0  0  0  0
   -8.0895   -0.2561    0.0000 C   0  0  0  0  0  0  0  0  0
   -8.5020    0.4584    0.0000 C   0  0  0  0  0  0  0  0  0
   -8.0895    1.1729    0.0000 C   0  0  0  0  0  0  0  0  0
   -8.5020    1.8873    0.0000 Cl  0  0  0  0  0  0  0  0  0
  1  2  1  0  0  0  0
  2  3  4  0  0  0  0
  2 28  4  0  0  0  0
  3  4  1  0  0  0  0
  3 25  4  0  0  0  0
  4  5  1  0  0  0  0
  4  9  1  0  0  0  0
  5  6  1  0  0  0  0
  6  7  1  0  0  0  0
  7  8  1  0  0  0  0
  7 10  1  0  0  0  0
  8  9  1  0  0  0  0
 10 11  1  0  0  0  0
 11 12  1  0  0  0  0
 11 13  1  0  0  0  0
 13 14  1  0  0  0  0
 14 15  2  0  0  0  0
 14 16  1  0  0  0  0
 16 17  4  0  0  0  0
 16 20  4  0  0  0  0
 17 18  4  0  0  0  0
 18 19  4  0  0  0  0
 18 24  4  0  0  0  0
 19 20  4  0  0  0  0
 19 21  4  0  0  0  0
 21 22  4  0  0  0  0
 22 23  4  0  0  0  0
 23 24  4  0  0  0  0
 25 26  4  0  0  0  0
 26 27  4  0  0  0  0
 27 28  4  0  0  0  0
 28 29  1  0  0  0  0
M  STY  1   1 DAT
M  SAL   1  1  17
M  SDT   1 MRV_IMPLICIT_H                                        
M  SDD   1     0.0000    0.0000    DR    ALL  0       0  
M  SED   1 IMPL_H1
M  END
>  <Name_Molregno>
499097

>  <DOPAMINE D3>
9.59

>  <DOPAMINE D4>
5.98

$$$$
499098
  Marvin  02231216192D 0   1.00000     0.00000     0

 29 32  0  0  1  0  0  0  0  0999 V2000
    0.4541   -1.8798    0.0000 O   0  0  0  0  0  0  0  0  0
    0.0416   -2.5943    0.0000 C   0  0  0  0  0  0  0  0  0
    0.0416   -1.1653    0.0000 C   0  0  0  0  0  0  0  0  0
   -0.7834   -1.1653    0.0000 C   0  0  0  0  0  0  0  0  0
   -1.1959   -0.4508    0.0000 C   0  0  0  0  0  0  0  0  0
   -0.7834    0.2636    0.0000 C   0  0  0  0  0  0  0  0  0
    0.0416    0.2636    0.0000 C   0  0  0  0  0  0  0  0  0
    0.4541   -0.4508    0.0000 C   0  0  0  0  0  0  0  0  0
    1.2791   -0.4508    0.0000 N   0  0  0  0  0  0  0  0  0
    1.6916    0.2636    0.0000 C   0  0  0  0  0  0  0  0  0
    2.5166    0.2636    0.0000 C   0  0  0  0  0  0  0  0  0
    2.9291   -0.4508    0.0000 N   0  0  0  0  0  0  0  0  0
    2.5166   -1.1653    0.0000 C   0  0  0  0  0  0  0  0  0
    1.6916   -1.1653    0.0000 C   0  0  0  0  0  0  0  0  0
    3.7541   -0.4508    0.0000 C   0  0  0  0  0  0  0  0  0
    4.1666    0.2636    0.0000 C   0  0  0  0  0  0  0  0  0
    3.7541    0.9781    0.0000 O   0  0  0  0  0  0  0  0  0
    4.9916    0.2636    0.0000 N   0  0  0  0  0  0  0  0  0
    5.4041    0.9781    0.0000 C   0  0  0  0  0  0  0  0  0
    4.9916    1.6926    0.0000 O   0  0  0  0  0  0  0  0  0
    6.2291    0.9781    0.0000 C   0  0  0  0  0  0  0  0  0
    6.7140    0.3107    0.0000 N   0  0  0  0  0  0  0  0  0
    7.4986    0.5656    0.0000 C   0  0  0  0  0  0  0  0  0
    7.4986    1.3906    0.0000 C   0  0  0  0  0  0  0  0  0
    6.7140    1.6455    0.0000 C   0  0  0  0  0  0  0  0  0
    8.2131    1.8031    0.0000 C   0  0  0  0  0  0  0  0  0
    8.9276    1.3906    0.0000 C   0  0  0  0  0  0  0  0  0
    8.9276    0.5656    0.0000 C   0  0  0  0  0  0  0  0  0
    8.2131    0.1531    0.0000 C   0  0  0  0  0  0  0  0  0
  1  2  1  0  0  0  0
  1  3  1  0  0  0  0
  3  4  4  0  0  0  0
  3  8  4  0  0  0  0
  4  5  4  0  0  0  0
  5  6  4  0  0  0  0
  6  7  4  0  0  0  0
  7  8  4  0  0  0  0
  8  9  1  0  0  0  0
  9 10  1  0  0  0  0
  9 14  1  0  0  0  0
 10 11  1  0  0  0  0
 11 12  1  0  0  0  0
 12 13  1  0  0  0  0
 12 15  1  0  0  0  0
 13 14  1  0  0  0  0
 15 16  1  0  0  0  0
 16 17  1  0  0  0  0
 16 18  1  0  0  0  0
 18 19  1  0  0  0  0
 19 20  2  0  0  0  0
 19 21  1  0  0  0  0
 21 22  4  0  0  0  0
 21 25  4  0  0  0  0
 22 23  4  0  0  0  0
 23 24  4  0  0  0  0
 23 29  4  0  0  0  0
 24 25  4  0  0  0  0
 24 26  4  0  0  0  0
 26 27  4  0  0  0  0
 27 28  4  0  0  0  0
 28 29  4  0  0  0  0
M  STY  1   1 DAT
M  SAL   1  1  22
M  SDT   1 MRV_IMPLICIT_H                                        
M  SDD   1     0.0000    0.0000    DR    ALL  0       0  
M  SED   1 IMPL_H1
M  END
>  <Name_Molregno>
499098

>  <DOPAMINE D3>
9.29

>  <DOPAMINE D4>
6.75

$$$$
499671
  Marvin  02231216192D 0   1.00000     0.00000     0

 28 31  0  0  0  0  0  0  0  0999 V2000
   -6.8294    1.8775    0.0000 Cl  0  0  0  0  0  0  0  0  0
   -7.2419    1.1630    0.0000 C   0  0  0  0  0  0  0  0  0
   -6.8294    0.4485    0.0000 C   0  0  0  0  0  0  0  0  0
   -6.0044    0.4485    0.0000 N   0  0  0  0  0  0  0  0  0
   -5.5919    1.1630    0.0000 C   0  0  0  0  0  0  0  0  0
   -4.7669    1.1630    0.0000 C   0  0  0  0  0  0  0  0  0
   -4.3544    0.4485    0.0000 N   0  0  0  0  0  0  0  0  0
   -4.7669   -0.2660    0.0000 C   0  0  0  0  0  0  0  0  0
   -5.5919   -0.2660    0.0000 C   0  0  0  0  0  0  0  0  0
   -3.5294    0.4485    0.0000 C   0  0  0  0  0  0  0  0  0
   -3.1169   -0.2660    0.0000 C   0  0  0  0  0  0  0  0  0
   -2.2919   -0.2660    0.0000 N   0  0  0  0  0  0  0  0  0
   -1.8794   -0.9804    0.0000 C   0  0  0  0  0  0  0  0  0
   -2.2919   -1.6949    0.0000 O   0  0  0  0  0  0  0  0  0
   -1.0544   -0.9804    0.0000 C   0  0  0  0  0  0  0  0  0
   -0.5695   -1.6479    0.0000 N   0  0  0  0  0  0  0  0  0
    0.2151   -1.3929    0.0000 C   0  0  0  0  0  0  0  0  0
    0.2151   -0.5679    0.0000 C   0  0  0  0  0  0  0  0  0
   -0.5695   -0.3130    0.0000 C   0  0  0  0  0  0  0  0  0
    0.9296   -0.1554    0.0000 C   0  0  0  0  0  0  0  0  0
    1.6440   -0.5679    0.0000 C   0  0  0  0  0  0  0  0  0
    1.6440   -1.3929    0.0000 C   0  0  0  0  0  0  0  0  0
    0.9296   -1.8054    0.0000 C   0  0  0  0  0  0  0  0  0
   -7.2419   -0.2660    0.0000 C   0  0  0  0  0  0  0  0  0
   -8.0669   -0.2660    0.0000 C   0  0  0  0  0  0  0  0  0
   -8.4794    0.4485    0.0000 C   0  0  0  0  0  0  0  0  0
   -8.0669    1.1630    0.0000 C   0  0  0  0  0  0  0  0  0
   -8.4794    1.8775    0.0000 Cl  0  0  0  0  0  0  0  0  0
  1  2  1  0  0  0  0
  2  3  4  0  0  0  0
  2 27  4  0  0  0  0
  3  4  1  0  0  0  0
  3 24  4  0  0  0  0
  4  5  1  0  0  0  0
  4  9  1  0  0  0  0
  5  6  1  0  0  0  0
  6  7  1  0  0  0  0
  7  8  1  0  0  0  0
  7 10  1  0  0  0  0
  8  9  1  0  0  0  0
 10 11  2  0  0  0  0
 11 12  1  0  0  0  0
 12 13  1  0  0  0  0
 13 14  2  0  0  0  0
 13 15  1  0  0  0  0
 15 16  4  0  0  0  0
 15 19  4  0  0  0  0
 16 17  4  0  0  0  0
 17 18  4  0  0  0  0
 17 23  4  0  0  0  0
 18 19  4  0  0  0  0
 18 20  4  0  0  0  0
 20 21  4  0  0  0  0
 21 22  4  0  0  0  0
 22 23  4  0  0  0  0
 24 25  4  0  0  0  0
 25 26  4  0  0  0  0
 26 27  4  0  0  0  0
 27 28  1  0  0  0  0
M  STY  1   1 DAT
M  SAL   1  1  16
M  SDT   1 MRV_IMPLICIT_H                                        
M  SDD   1     0.0000    0.0000    DR    ALL  0       0  
M  SED   1 IMPL_H1
M  END
>  <Name_Molregno>
499671

>  <DOPAMINE D3>
9.36

>  <DOPAMINE D4>
6.19

$$$$
499672
  Marvin  02231216192D 0   1.00000     0.00000     0

 28 31  0  0  0  0  0  0  0  0999 V2000
   -6.8294    1.8775    0.0000 Cl  0  0  0  0  0  0  0  0  0
   -7.2419    1.1630    0.0000 C   0  0  0  0  0  0  0  0  0
   -6.8294    0.4485    0.0000 C   0  0  0  0  0  0  0  0  0
   -6.0044    0.4485    0.0000 N   0  0  0  0  0  0  0  0  0
   -5.5919    1.1630    0.0000 C   0  0  0  0  0  0  0  0  0
   -4.7669    1.1630    0.0000 C   0  0  0  0  0  0  0  0  0
   -4.3544    0.4485    0.0000 N   0  0  0  0  0  0  0  0  0
   -4.7669   -0.2660    0.0000 C   0  0  0  0  0  0  0  0  0
   -5.5919   -0.2660    0.0000 C   0  0  0  0  0  0  0  0  0
   -3.5294    0.4485    0.0000 C   0  0  0  0  0  0  0  0  0
   -3.1169   -0.2660    0.0000 C   0  0  0  0  0  0  0  0  0
   -2.2919   -0.2660    0.0000 N   0  0  0  0  0  0  0  0  0
   -1.8794   -0.9804    0.0000 C   0  0  0  0  0  0  0  0  0
   -2.2919   -1.6949    0.0000 O   0  0  0  0  0  0  0  0  0
   -1.0544   -0.9804    0.0000 C   0  0  0  0  0  0  0  0  0
   -0.5695   -1.6479    0.0000 O   0  0  0  0  0  0  0  0  0
    0.2151   -1.3929    0.0000 C   0  0  0  0  0  0  0  0  0
    0.2151   -0.5679    0.0000 C   0  0  0  0  0  0  0  0  0
   -0.5695   -0.3130    0.0000 C   0  0  0  0  0  0  0  0  0
    0.9296   -0.1554    0.0000 C   0  0  0  0  0  0  0  0  0
    1.6440   -0.5679    0.0000 C   0  0  0  0  0  0  0  0  0
    1.6440   -1.3929    0.0000 C   0  0  0  0  0  0  0  0  0
    0.9296   -1.8054    0.0000 C   0  0  0  0  0  0  0  0  0
   -7.2419   -0.2660    0.0000 C   0  0  0  0  0  0  0  0  0
   -8.0669   -0.2660    0.0000 C   0  0  0  0  0  0  0  0  0
   -8.4794    0.4485    0.0000 C   0  0  0  0  0  0  0  0  0
   -8.0669    1.1630    0.0000 C   0  0  0  0  0  0  0  0  0
   -8.4794    1.8775    0.0000 Cl  0  0  0  0  0  0  0  0  0
  1  2  1  0  0  0  0
  2  3  4  0  0  0  0
  2 27  4  0  0  0  0
  3  4  1  0  0  0  0
  3 24  4  0  0  0  0
  4  5  1  0  0  0  0
  4  9  1  0  0  0  0
  5  6  1  0  0  0  0
  6  7  1  0  0  0  0
  7  8  1  0  0  0  0
  7 10  1  0  0  0  0
  8  9  1  0  0  0  0
 10 11  2  0  0  0  0
 11 12  1  0  0  0  0
 12 13  1  0  0  0  0
 13 14  2  0  0  0  0
 13 15  1  0  0  0  0
 15 16  4  0  0  0  0
 15 19  4  0  0  0  0
 16 17  4  0  0  0  0
 17 18  4  0  0  0  0
 17 23  4  0  0  0  0
 18 19  4  0  0  0  0
 18 20  4  0  0  0  0
 20 21  4  0  0  0  0
 21 22  4  0  0  0  0
 22 23  4  0  0  0  0
 24 25  4  0  0  0  0
 25 26  4  0  0  0  0
 26 27  4  0  0  0  0
 27 28  1  0  0  0  0
M  END
>  <Name_Molregno>
499672

>  <DOPAMINE D3>
8.68

>  <DOPAMINE D4>
5.97

$$$$
499673
  Marvin  02231216192D 0   1.00000     0.00000     0

 28 31  0  0  0  0  0  0  0  0999 V2000
    6.3612   -0.0788    0.0000 O   0  0  0  0  0  0  0  0  0
    7.1459    0.1761    0.0000 C   0  0  0  0  0  0  0  0  0
    7.1459    1.0011    0.0000 C   0  0  0  0  0  0  0  0  0
    6.3612    1.2560    0.0000 C   0  0  0  0  0  0  0  0  0
    5.8763    0.5886    0.0000 C   0  0  0  0  0  0  0  0  0
    5.0513    0.5886    0.0000 C   0  0  0  0  0  0  0  0  0
    4.6388    1.3031    0.0000 O   0  0  0  0  0  0  0  0  0
    4.6388   -0.1259    0.0000 N   0  0  0  0  0  0  0  0  0
    3.8138   -0.1259    0.0000 C   0  0  0  0  0  0  0  0  0
    3.4013   -0.8403    0.0000 C   0  0  0  0  0  0  0  0  0
    2.5763   -0.8403    0.0000 N   0  0  0  0  0  0  0  0  0
    2.1638   -1.5548    0.0000 C   0  0  0  0  0  0  0  0  0
    1.3388   -1.5548    0.0000 C   0  0  0  0  0  0  0  0  0
    0.9263   -0.8403    0.0000 N   0  0  0  0  0  0  0  0  0
    1.3388   -0.1259    0.0000 C   0  0  0  0  0  0  0  0  0
    2.1638   -0.1259    0.0000 C   0  0  0  0  0  0  0  0  0
    0.1013   -0.8403    0.0000 C   0  0  0  0  0  0  0  0  0
   -0.3112   -1.5548    0.0000 C   0  0  0  0  0  0  0  0  0
   -1.1362   -1.5548    0.0000 C   0  0  0  0  0  0  0  0  0
   -1.5487   -0.8403    0.0000 C   0  0  0  0  0  0  0  0  0
   -1.1362   -0.1259    0.0000 C   0  0  0  0  0  0  0  0  0
   -0.3112   -0.1259    0.0000 C   0  0  0  0  0  0  0  0  0
    0.1013    0.5886    0.0000 O   0  0  0  0  0  0  0  0  0
   -0.3112    1.3031    0.0000 C   0  0  0  0  0  0  0  0  0
    7.8603    1.4136    0.0000 C   0  0  0  0  0  0  0  0  0
    8.5748    1.0011    0.0000 C   0  0  0  0  0  0  0  0  0
    8.5748    0.1761    0.0000 C   0  0  0  0  0  0  0  0  0
    7.8603   -0.2364    0.0000 C   0  0  0  0  0  0  0  0  0
  1  2  4  0  0  0  0
  1  5  4  0  0  0  0
  2  3  4  0  0  0  0
  2 28  4  0  0  0  0
  3  4  4  0  0  0  0
  3 25  4  0  0  0  0
  4  5  4  0  0  0  0
  5  6  1  0  0  0  0
  6  7  2  0  0  0  0
  6  8  1  0  0  0  0
  8  9  1  0  0  0  0
  9 10  2  0  0  0  0
 10 11  1  0  0  0  0
 11 12  1  0  0  0  0
 11 16  1  0  0  0  0
 12 13  1  0  0  0  0
 13 14  1  0  0  0  0
 14 15  1  0  0  0  0
 14 17  1  0  0  0  0
 15 16  1  0  0  0  0
 17 18  4  0  0  0  0
 17 22  4  0  0  0  0
 18 19  4  0  0  0  0
 19 20  4  0  0  0  0
 20 21  4  0  0  0  0
 21 22  4  0  0  0  0
 22 23  1  0  0  0  0
 23 24  1  0  0  0  0
 25 26  4  0  0  0  0
 26 27  4  0  0  0  0
 27 28  4  0  0  0  0
M  END
>  <Name_Molregno>
499673

>  <DOPAMINE D3>
7.95

$$$$
513723
  Marvin  02231216192D 0   1.00000     0.00000     0

 34 38  0  0  1  0  0  0  0  0999 V2000
   -0.0447    1.5854    0.0000 S   0  0  0  0  0  0  0  0  0
    0.7399    1.3305    0.0000 C   0  0  0  0  0  0  0  0  0
    1.4544    1.7430    0.0000 C   0  0  0  0  0  0  0  0  0
    2.1689    1.3305    0.0000 C   0  0  0  0  0  0  0  0  0
    2.8833    1.7430    0.0000 N   0  0  0  0  0  0  0  0  0
    2.8833    2.5680    0.0000 C   0  0  0  0  0  0  0  0  0
    2.1689    2.9805    0.0000 C   0  0  0  0  0  0  0  0  0
    2.1689    3.8055    0.0000 C   0  0  0  0  0  0  0  0  0
    3.5978    1.3305    0.0000 C   0  0  0  0  0  0  0  0  0
    4.3123    1.7430    0.0000 C   0  0  0  0  0  0  0  0  0
    5.0267    1.3305    0.0000 N   0  0  0  0  0  0  0  0  0
    5.7412    1.7430    0.0000 C   0  0  0  0  0  0  0  0  0
    6.4557    1.3305    0.0000 C   0  0  0  0  0  0  0  0  0
    6.4557    0.5055    0.0000 N   0  0  0  0  0  0  0  0  0
    5.7412    0.0930    0.0000 C   0  0  0  0  0  0  0  0  0
    5.0267    0.5055    0.0000 C   0  0  0  0  0  0  0  0  0
    7.1701    0.0930    0.0000 C   0  0  0  0  0  0  0  0  0
    7.8846    0.5055    0.0000 C   0  0  0  0  0  0  0  0  0
    8.5991    0.0930    0.0000 C   0  0  0  0  0  0  0  0  0
    8.5991   -0.7320    0.0000 C   0  0  0  0  0  0  0  0  0
    7.8846   -1.1445    0.0000 C   0  0  0  0  0  0  0  0  0
    7.1701   -0.7320    0.0000 C   0  0  0  0  0  0  0  0  0
    9.3136   -1.1445    0.0000 C   0  0  0  0  0  0  0  0  0
   10.0280   -0.7320    0.0000 C   0  0  0  0  0  0  0  0  0
   10.7425   -1.1445    0.0000 C   0  0  0  0  0  0  0  0  0
   10.7425   -1.9695    0.0000 C   0  0  0  0  0  0  0  0  0
   10.0280   -2.3820    0.0000 C   0  0  0  0  0  0  0  0  0
    9.3136   -1.9695    0.0000 C   0  0  0  0  0  0  0  0  0
    2.1689    0.5055    0.0000 C   0  0  0  0  0  0  0  0  0
    1.4544    0.0930    0.0000 C   0  0  0  0  0  0  0  0  0
    0.7399    0.5055    0.0000 C   0  0  0  0  0  0  0  0  0
   -0.0447    0.2506    0.0000 N   0  0  0  0  0  0  0  0  0
   -0.5296    0.9180    0.0000 C   0  0  0  0  0  0  0  0  0
   -1.3546    0.9180    0.0000 N   0  0  0  0  0  0  0  0  0
  1  2  4  0  0  0  0
  1 33  4  0  0  0  0
  2  3  1  0  0  0  0
  2 31  4  0  0  0  0
  3  4  1  0  0  0  0
  4  5  1  0  0  0  0
  4 29  1  0  0  0  0
  5  6  1  0  0  0  0
  5  9  1  0  0  0  0
  6  7  1  0  0  0  0
  7  8  1  0  0  0  0
  9 10  1  0  0  0  0
 10 11  1  0  0  0  0
 11 12  1  0  0  0  0
 11 16  1  0  0  0  0
 12 13  1  0  0  0  0
 13 14  1  0  0  0  0
 14 15  1  0  0  0  0
 14 17  1  0  0  0  0
 15 16  1  0  0  0  0
 17 18  4  0  0  0  0
 17 22  4  0  0  0  0
 18 19  4  0  0  0  0
 19 20  4  0  0  0  0
 20 21  4  0  0  0  0
 20 23  1  0  0  0  0
 21 22  4  0  0  0  0
 23 24  4  0  0  0  0
 23 28  4  0  0  0  0
 24 25  4  0  0  0  0
 25 26  4  0  0  0  0
 26 27  4  0  0  0  0
 27 28  4  0  0  0  0
 29 30  1  0  0  0  0
 30 31  1  0  0  0  0
 31 32  4  0  0  0  0
 32 33  4  0  0  0  0
 33 34  1  0  0  0  0
M  END
>  <Name_Molregno>
513723

>  <DOPAMINE D2>
6.58

>  <DOPAMINE D3>
9.04

$$$$
514265
  Marvin  02231216192D 0   1.00000     0.00000     0

 37 40  0  0  1  0  0  0  0  0999 V2000
   -5.5831   -2.7371    0.0000 O   0  0  0  0  0  0  0  0  0
   -5.7812   -1.9363    0.0000 C   0  0  0  0  0  0  0  0  0
   -5.1867   -1.3642    0.0000 N   0  0  0  0  0  0  0  0  0
   -4.3941   -1.5930    0.0000 C   0  0  0  0  0  0  0  0  0
   -3.7996   -1.0210    0.0000 C   0  0  0  0  0  0  0  0  0
   -3.0070   -1.2498    0.0000 C   0  0  0  0  0  0  0  0  0
   -2.4125   -0.6778    0.0000 C   0  0  0  0  0  0  0  0  0
   -1.6199   -0.9066    0.0000 N   0  0  0  0  0  0  0  0  0
   -1.4217   -1.7074    0.0000 C   0  0  0  0  0  0  0  0  0
   -0.6291   -1.9363    0.0000 C   0  0  0  0  0  0  0  0  0
   -0.4309   -2.7371    0.0000 C   0  0  0  0  0  0  0  0  0
   -1.0254   -0.3346    0.0000 C   0  0  0  0  0  0  0  0  0
   -1.2236    0.4663    0.0000 C   0  0  0  0  0  0  0  0  0
   -0.6291    1.0383    0.0000 C   0  0  0  0  0  0  0  0  0
    0.1635    0.8095    0.0000 C   0  0  0  0  0  0  0  0  0
    0.3617    0.0087    0.0000 C   0  0  0  0  0  0  0  0  0
   -0.2328   -0.5634    0.0000 C   0  0  0  0  0  0  0  0  0
    0.7580    1.3815    0.0000 C   0  0  0  0  0  0  0  0  0
    1.3525    1.9536    0.0000 C   0  0  0  0  0  0  0  0  0
    1.9470    2.5256    0.0000 C   0  0  0  0  0  0  0  0  0
    1.7488    3.3265    0.0000 C   0  0  0  0  0  0  0  0  0
    2.3433    3.8985    0.0000 C   0  0  0  0  0  0  0  0  0
    3.1359    3.6697    0.0000 C   0  0  0  0  0  0  0  0  0
    3.3341    2.8688    0.0000 C   0  0  0  0  0  0  0  0  0
    2.7396    2.2968    0.0000 C   0  0  0  0  0  0  0  0  0
   -6.5738   -1.7074    0.0000 C   0  0  0  0  0  0  0  0  0
   -7.1683   -2.2795    0.0000 C   0  0  0  0  0  0  0  0  0
   -7.9610   -2.0507    0.0000 C   0  0  0  0  0  0  0  0  0
   -8.1591   -1.2498    0.0000 C   0  0  0  0  0  0  0  0  0
   -7.5646   -0.6778    0.0000 C   0  0  0  0  0  0  0  0  0
   -6.7720   -0.9066    0.0000 C   0  0  0  0  0  0  0  0  0
   -8.9517   -1.0210    0.0000 C   0  0  0  0  0  0  0  0  0
   -9.5462   -1.5930    0.0000 C   0  0  0  0  0  0  0  0  0
  -10.3389   -1.3642    0.0000 C   0  0  0  0  0  0  0  0  0
  -10.5370   -0.5634    0.0000 C   0  0  0  0  0  0  0  0  0
   -9.9425    0.0087    0.0000 C   0  0  0  0  0  0  0  0  0
   -9.1499   -0.2201    0.0000 C   0  0  0  0  0  0  0  0  0
  1  2  2  0  0  0  0
  2  3  1  0  0  0  0
  2 26  1  0  0  0  0
  3  4  1  0  0  0  0
  4  5  1  0  0  0  0
  5  6  1  0  0  0  0
  6  7  1  0  0  0  0
  7  8  1  0  0  0  0
  8  9  1  0  0  0  0
  8 12  1  0  0  0  0
  9 10  1  0  0  0  0
 10 11  1  0  0  0  0
 12 13  1  0  0  0  0
 12 17  1  0  0  0  0
 13 14  1  0  0  0  0
 14 15  1  0  0  0  0
 15 16  2  0  0  0  0
 15 18  1  0  0  0  0
 16 17  1  0  0  0  0
 18 19  3  0  0  0  0
 19 20  1  0  0  0  0
 20 21  4  0  0  0  0
 20 25  4  0  0  0  0
 21 22  4  0  0  0  0
 22 23  4  0  0  0  0
 23 24  4  0  0  0  0
 24 25  4  0  0  0  0
 26 27  4  0  0  0  0
 26 31  4  0  0  0  0
 27 28  4  0  0  0  0
 28 29  4  0  0  0  0
 29 30  4  0  0  0  0
 29 32  1  0  0  0  0
 30 31  4  0  0  0  0
 32 33  4  0  0  0  0
 32 37  4  0  0  0  0
 33 34  4  0  0  0  0
 34 35  4  0  0  0  0
 35 36  4  0  0  0  0
 36 37  4  0  0  0  0
M  END
>  <Name_Molregno>
514265

>  <DOPAMINE D2>
5.3

>  <DOPAMINE D3>
6.52

>  <DOPAMINE D4>
5.51

$$$$
514266
  Marvin  02231216192D 0   1.00000     0.00000     0

 31 33  0  0  1  0  0  0  0  0999 V2000
   -0.5655   -3.9359    0.0000 O   0  0  0  0  0  0  0  0  0
   -0.7636   -3.1351    0.0000 C   0  0  0  0  0  0  0  0  0
   -0.1691   -2.5630    0.0000 N   0  0  0  0  0  0  0  0  0
    0.6235   -2.7919    0.0000 C   0  0  0  0  0  0  0  0  0
    1.2180   -2.2198    0.0000 C   0  0  0  0  0  0  0  0  0
    2.0106   -2.4486    0.0000 C   0  0  0  0  0  0  0  0  0
    2.6051   -1.8766    0.0000 C   0  0  0  0  0  0  0  0  0
    3.3977   -2.1054    0.0000 N   0  0  0  0  0  0  0  0  0
    3.5959   -2.9063    0.0000 C   0  0  0  0  0  0  0  0  0
    4.3885   -3.1351    0.0000 C   0  0  0  0  0  0  0  0  0
    4.5867   -3.9359    0.0000 C   0  0  0  0  0  0  0  0  0
    3.9922   -1.5334    0.0000 C   0  0  0  0  0  0  0  0  0
    3.7940   -0.7325    0.0000 C   0  0  0  0  0  0  0  0  0
    4.3885   -0.1605    0.0000 C   0  0  0  0  0  0  0  0  0
    5.1811   -0.3893    0.0000 C   0  0  0  0  0  0  0  0  0
    5.3793   -1.1902    0.0000 C   0  0  0  0  0  0  0  0  0
    4.7848   -1.7622    0.0000 C   0  0  0  0  0  0  0  0  0
    5.7756    0.1827    0.0000 C   0  0  0  0  0  0  0  0  0
    6.3701    0.7548    0.0000 C   0  0  0  0  0  0  0  0  0
   -1.5563   -2.9063    0.0000 C   0  0  0  0  0  0  0  0  0
   -2.1507   -3.4783    0.0000 C   0  0  0  0  0  0  0  0  0
   -2.9434   -3.2495    0.0000 C   0  0  0  0  0  0  0  0  0
   -3.1415   -2.4486    0.0000 C   0  0  0  0  0  0  0  0  0
   -2.5470   -1.8766    0.0000 C   0  0  0  0  0  0  0  0  0
   -1.7544   -2.1054    0.0000 C   0  0  0  0  0  0  0  0  0
   -3.9342   -2.2198    0.0000 C   0  0  0  0  0  0  0  0  0
   -4.5286   -2.7919    0.0000 C   0  0  0  0  0  0  0  0  0
   -5.3213   -2.5630    0.0000 C   0  0  0  0  0  0  0  0  0
   -5.5194   -1.7622    0.0000 C   0  0  0  0  0  0  0  0  0
   -4.9249   -1.1902    0.0000 C   0  0  0  0  0  0  0  0  0
   -4.1323   -1.4190    0.0000 C   0  0  0  0  0  0  0  0  0
  1  2  2  0  0  0  0
  2  3  1  0  0  0  0
  2 20  1  0  0  0  0
  3  4  1  0  0  0  0
  4  5  1  0  0  0  0
  5  6  1  0  0  0  0
  6  7  1  0  0  0  0
  7  8  1  0  0  0  0
  8  9  1  0  0  0  0
  8 12  1  0  0  0  0
  9 10  1  0  0  0  0
 10 11  1  0  0  0  0
 12 13  1  0  0  0  0
 12 17  1  0  0  0  0
 13 14  1  0  0  0  0
 14 15  1  0  0  0  0
 15 16  2  0  0  0  0
 15 18  1  0  0  0  0
 16 17  1  0  0  0  0
 18 19  3  0  0  0  0
 20 21  4  0  0  0  0
 20 25  4  0  0  0  0
 21 22  4  0  0  0  0
 22 23  4  0  0  0  0
 23 24  4  0  0  0  0
 23 26  1  0  0  0  0
 24 25  4  0  0  0  0
 26 27  4  0  0  0  0
 26 31  4  0  0  0  0
 27 28  4  0  0  0  0
 28 29  4  0  0  0  0
 29 30  4  0  0  0  0
 30 31  4  0  0  0  0
M  END
>  <Name_Molregno>
514266

>  <DOPAMINE D2>
7.39

>  <DOPAMINE D3>
9.4

>  <DOPAMINE D4>
8.37

$$$$
514268
  Marvin  02231216192D 0   1.00000     0.00000     0

 39 43  0  0  1  0  0  0  0  0999 V2000
   -4.8826    2.0561    0.0000 N   0  0  0  0  0  0  0  0  0
   -4.0979    2.3110    0.0000 N   0  0  0  0  0  0  0  0  0
   -3.6130    1.6436    0.0000 N   0  0  0  0  0  0  0  0  0
   -4.0979    0.9762    0.0000 C   0  0  0  0  0  0  0  0  0
   -4.8826    1.2311    0.0000 C   0  0  0  0  0  0  0  0  0
   -5.5500    0.7462    0.0000 C   0  0  0  0  0  0  0  0  0
   -5.4638   -0.0743    0.0000 C   0  0  0  0  0  0  0  0  0
   -6.1312   -0.5592    0.0000 C   0  0  0  0  0  0  0  0  0
   -6.8849   -0.2237    0.0000 C   0  0  0  0  0  0  0  0  0
   -6.9711    0.5968    0.0000 C   0  0  0  0  0  0  0  0  0
   -6.3037    1.0817    0.0000 C   0  0  0  0  0  0  0  0  0
   -7.5523   -0.7086    0.0000 C   0  0  0  0  0  0  0  0  0
   -7.4661   -1.5291    0.0000 C   0  0  0  0  0  0  0  0  0
   -8.1335   -2.0140    0.0000 C   0  0  0  0  0  0  0  0  0
   -8.8872   -1.6784    0.0000 C   0  0  0  0  0  0  0  0  0
   -8.9734   -0.8579    0.0000 C   0  0  0  0  0  0  0  0  0
   -8.3060   -0.3730    0.0000 C   0  0  0  0  0  0  0  0  0
   -2.7880    1.6436    0.0000 C   0  0  0  0  0  0  0  0  0
   -2.3755    0.9291    0.0000 C   0  0  0  0  0  0  0  0  0
   -1.5505    0.9291    0.0000 C   0  0  0  0  0  0  0  0  0
   -1.1380    0.2147    0.0000 C   0  0  0  0  0  0  0  0  0
   -0.3130    0.2147    0.0000 N   0  0  0  0  0  0  0  0  0
    0.0995    0.9291    0.0000 C   0  0  0  0  0  0  0  0  0
   -0.3130    1.6436    0.0000 C   0  0  0  0  0  0  0  0  0
    0.0995    2.3581    0.0000 C   0  0  0  0  0  0  0  0  0
    0.0995   -0.4998    0.0000 C   0  0  0  0  0  0  0  0  0
    0.9245   -0.4998    0.0000 C   0  0  0  0  0  0  0  0  0
    1.3370   -1.2143    0.0000 C   0  0  0  0  0  0  0  0  0
    0.9245   -1.9287    0.0000 C   0  0  0  0  0  0  0  0  0
    0.0995   -1.9287    0.0000 C   0  0  0  0  0  0  0  0  0
   -0.3130   -1.2143    0.0000 C   0  0  0  0  0  0  0  0  0
    1.3370   -2.6432    0.0000 C   0  0  0  0  0  0  0  0  0
    1.7495   -3.3577    0.0000 C   0  0  0  0  0  0  0  0  0
    2.1620   -4.0722    0.0000 C   0  0  0  0  0  0  0  0  0
    2.9870   -4.0722    0.0000 C   0  0  0  0  0  0  0  0  0
    3.3995   -4.7866    0.0000 C   0  0  0  0  0  0  0  0  0
    2.9870   -5.5011    0.0000 C   0  0  0  0  0  0  0  0  0
    2.1620   -5.5011    0.0000 C   0  0  0  0  0  0  0  0  0
    1.7495   -4.7866    0.0000 C   0  0  0  0  0  0  0  0  0
  1  2  4  0  0  0  0
  1  5  4  0  0  0  0
  2  3  4  0  0  0  0
  3  4  4  0  0  0  0
  3 18  1  0  0  0  0
  4  5  4  0  0  0  0
  5  6  1  0  0  0  0
  6  7  4  0  0  0  0
  6 11  4  0  0  0  0
  7  8  4  0  0  0  0
  8  9  4  0  0  0  0
  9 10  4  0  0  0  0
  9 12  1  0  0  0  0
 10 11  4  0  0  0  0
 12 13  4  0  0  0  0
 12 17  4  0  0  0  0
 13 14  4  0  0  0  0
 14 15  4  0  0  0  0
 15 16  4  0  0  0  0
 16 17  4  0  0  0  0
 18 19  1  0  0  0  0
 19 20  1  0  0  0  0
 20 21  1  0  0  0  0
 21 22  1  0  0  0  0
 22 23  1  0  0  0  0
 22 26  1  0  0  0  0
 23 24  1  0  0  0  0
 24 25  1  0  0  0  0
 26 27  1  0  0  0  0
 26 31  1  0  0  0  0
 27 28  1  0  0  0  0
 28 29  1  0  0  0  0
 29 30  2  0  0  0  0
 29 32  1  0  0  0  0
 30 31  1  0  0  0  0
 32 33  3  0  0  0  0
 33 34  1  0  0  0  0
 34 35  4  0  0  0  0
 34 39  4  0  0  0  0
 35 36  4  0  0  0  0
 36 37  4  0  0  0  0
 37 38  4  0  0  0  0
 38 39  4  0  0  0  0
M  END
>  <Name_Molregno>
514268

>  <DOPAMINE D2>
6.71

>  <DOPAMINE D3>
6.82

>  <DOPAMINE D4>
5.96

$$$$
514330
  Marvin  02231216192D 0   1.00000     0.00000     0

 33 36  0  0  1  0  0  0  0  0999 V2000
   -2.7128    1.0444    0.0000 N   0  0  0  0  0  0  0  0  0
   -1.9282    1.2993    0.0000 N   0  0  0  0  0  0  0  0  0
   -1.4433    0.6319    0.0000 N   0  0  0  0  0  0  0  0  0
   -1.9282   -0.0355    0.0000 C   0  0  0  0  0  0  0  0  0
   -2.7128    0.2194    0.0000 C   0  0  0  0  0  0  0  0  0
   -3.3803   -0.2655    0.0000 C   0  0  0  0  0  0  0  0  0
   -3.2940   -1.0860    0.0000 C   0  0  0  0  0  0  0  0  0
   -3.9615   -1.5709    0.0000 C   0  0  0  0  0  0  0  0  0
   -4.7151   -1.2354    0.0000 C   0  0  0  0  0  0  0  0  0
   -4.8014   -0.4149    0.0000 C   0  0  0  0  0  0  0  0  0
   -4.1339    0.0700    0.0000 C   0  0  0  0  0  0  0  0  0
   -5.3826   -1.7203    0.0000 C   0  0  0  0  0  0  0  0  0
   -5.2963   -2.5408    0.0000 C   0  0  0  0  0  0  0  0  0
   -5.9638   -3.0257    0.0000 C   0  0  0  0  0  0  0  0  0
   -6.7175   -2.6901    0.0000 C   0  0  0  0  0  0  0  0  0
   -6.8037   -1.8697    0.0000 C   0  0  0  0  0  0  0  0  0
   -6.1363   -1.3847    0.0000 C   0  0  0  0  0  0  0  0  0
   -0.6183    0.6319    0.0000 C   0  0  0  0  0  0  0  0  0
   -0.2058   -0.0826    0.0000 C   0  0  0  0  0  0  0  0  0
    0.6192   -0.0826    0.0000 C   0  0  0  0  0  0  0  0  0
    1.0317   -0.7970    0.0000 C   0  0  0  0  0  0  0  0  0
    1.8567   -0.7970    0.0000 N   0  0  0  0  0  0  0  0  0
    2.2692   -0.0826    0.0000 C   0  0  0  0  0  0  0  0  0
    1.8567    0.6319    0.0000 C   0  0  0  0  0  0  0  0  0
    2.2692    1.3464    0.0000 C   0  0  0  0  0  0  0  0  0
    2.2692   -1.5115    0.0000 C   0  0  0  0  0  0  0  0  0
    3.0942   -1.5115    0.0000 C   0  0  0  0  0  0  0  0  0
    3.5067   -2.2260    0.0000 C   0  0  0  0  0  0  0  0  0
    3.0942   -2.9405    0.0000 C   0  0  0  0  0  0  0  0  0
    2.2692   -2.9405    0.0000 C   0  0  0  0  0  0  0  0  0
    1.8567   -2.2260    0.0000 C   0  0  0  0  0  0  0  0  0
    3.5067   -3.6549    0.0000 C   0  0  0  0  0  0  0  0  0
    3.9192   -4.3694    0.0000 C   0  0  0  0  0  0  0  0  0
  1  2  4  0  0  0  0
  1  5  4  0  0  0  0
  2  3  4  0  0  0  0
  3  4  4  0  0  0  0
  3 18  1  0  0  0  0
  4  5  4  0  0  0  0
  5  6  1  0  0  0  0
  6  7  4  0  0  0  0
  6 11  4  0  0  0  0
  7  8  4  0  0  0  0
  8  9  4  0  0  0  0
  9 10  4  0  0  0  0
  9 12  1  0  0  0  0
 10 11  4  0  0  0  0
 12 13  4  0  0  0  0
 12 17  4  0  0  0  0
 13 14  4  0  0  0  0
 14 15  4  0  0  0  0
 15 16  4  0  0  0  0
 16 17  4  0  0  0  0
 18 19  1  0  0  0  0
 19 20  1  0  0  0  0
 20 21  1  0  0  0  0
 21 22  1  0  0  0  0
 22 23  1  0  0  0  0
 22 26  1  0  0  0  0
 23 24  1  0  0  0  0
 24 25  1  0  0  0  0
 26 27  1  0  0  0  0
 26 31  1  0  0  0  0
 27 28  1  0  0  0  0
 28 29  1  0  0  0  0
 29 30  2  0  0  0  0
 29 32  1  0  0  0  0
 30 31  1  0  0  0  0
 32 33  3  0  0  0  0
M  END
>  <Name_Molregno>
514330

>  <DOPAMINE D2>
6.49

>  <DOPAMINE D3>
8.75

>  <DOPAMINE D4>
6.72

$$$$
514331
  Marvin  02231216192D 0   1.00000     0.00000     0

 23 24  0  0  1  0  0  0  0  0999 V2000
   -7.4168    0.8658    0.0000 N   0  0  0  0  0  0  0  0  0
   -6.6321    1.1207    0.0000 N   0  0  0  0  0  0  0  0  0
   -6.1472    0.4533    0.0000 N   0  0  0  0  0  0  0  0  0
   -6.6321   -0.2141    0.0000 C   0  0  0  0  0  0  0  0  0
   -7.4168    0.0408    0.0000 C   0  0  0  0  0  0  0  0  0
   -8.0842   -0.4441    0.0000 C   0  0  0  0  0  0  0  0  0
   -5.3222    0.4533    0.0000 C   0  0  0  0  0  0  0  0  0
   -4.9097   -0.2612    0.0000 C   0  0  0  0  0  0  0  0  0
   -4.0847   -0.2612    0.0000 C   0  0  0  0  0  0  0  0  0
   -3.6722   -0.9756    0.0000 C   0  0  0  0  0  0  0  0  0
   -2.8472   -0.9756    0.0000 N   0  0  0  0  0  0  0  0  0
   -2.4347   -0.2612    0.0000 C   0  0  0  0  0  0  0  0  0
   -2.8472    0.4533    0.0000 C   0  0  0  0  0  0  0  0  0
   -2.4347    1.1678    0.0000 C   0  0  0  0  0  0  0  0  0
   -2.4347   -1.6901    0.0000 C   0  0  0  0  0  0  0  0  0
   -1.6097   -1.6901    0.0000 C   0  0  0  0  0  0  0  0  0
   -1.1972   -2.4046    0.0000 C   0  0  0  0  0  0  0  0  0
   -1.6097   -3.1191    0.0000 C   0  0  0  0  0  0  0  0  0
   -2.4347   -3.1191    0.0000 C   0  0  0  0  0  0  0  0  0
   -2.8472   -2.4046    0.0000 C   0  0  0  0  0  0  0  0  0
   -1.1972   -3.8335    0.0000 C   0  0  0  0  0  0  0  0  0
   -0.7847   -4.5480    0.0000 C   0  0  0  0  0  0  0  0  0
   -0.3722   -5.2625    0.0000 C   0  0  0  0  0  0  0  0  0
  1  2  4  0  0  0  0
  1  5  4  0  0  0  0
  2  3  4  0  0  0  0
  3  4  4  0  0  0  0
  3  7  1  0  0  0  0
  4  5  4  0  0  0  0
  5  6  1  0  0  0  0
  7  8  1  0  0  0  0
  8  9  1  0  0  0  0
  9 10  1  0  0  0  0
 10 11  1  0  0  0  0
 11 12  1  0  0  0  0
 11 15  1  0  0  0  0
 12 13  1  0  0  0  0
 13 14  1  0  0  0  0
 15 16  1  0  0  0  0
 15 20  1  0  0  0  0
 16 17  1  0  0  0  0
 17 18  1  0  0  0  0
 18 19  2  0  0  0  0
 18 21  1  0  0  0  0
 19 20  1  0  0  0  0
 21 22  3  0  0  0  0
 22 23  1  0  0  0  0
M  END
>  <Name_Molregno>
514331

>  <DOPAMINE D2>
5.53

>  <DOPAMINE D3>
6.55

>  <DOPAMINE D4>
7

$$$$
514332
  Marvin  02231216192D 0   1.00000     0.00000     0

 23 24  0  0  0  0  0  0  0  0999 V2000
    0.6320   -3.0496    0.0000 O   0  0  0  0  0  0  0  0  0
    0.6320   -2.2246    0.0000 C   0  0  0  0  0  0  0  0  0
    1.3464   -1.8121    0.0000 N   0  0  0  0  0  0  0  0  0
    2.0609   -2.2246    0.0000 C   0  0  0  0  0  0  0  0  0
    2.7754   -1.8121    0.0000 C   0  0  0  0  0  0  0  0  0
    3.4899   -2.2246    0.0000 C   0  0  0  0  0  0  0  0  0
    4.2043   -1.8121    0.0000 C   0  0  0  0  0  0  0  0  0
    4.9188   -2.2246    0.0000 N   0  0  0  0  0  0  0  0  0
    5.6333   -1.8121    0.0000 C   0  0  0  0  0  0  0  0  0
    6.3477   -2.2246    0.0000 C   0  0  0  0  0  0  0  0  0
    7.0622   -1.8121    0.0000 C   0  0  0  0  0  0  0  0  0
   -0.0825   -1.8121    0.0000 C   0  0  0  0  0  0  0  0  0
   -0.7970   -2.2246    0.0000 C   0  0  0  0  0  0  0  0  0
   -1.5114   -1.8121    0.0000 C   0  0  0  0  0  0  0  0  0
   -1.5114   -0.9871    0.0000 C   0  0  0  0  0  0  0  0  0
   -0.7970   -0.5746    0.0000 C   0  0  0  0  0  0  0  0  0
   -0.0825   -0.9871    0.0000 C   0  0  0  0  0  0  0  0  0
   -2.2259   -0.5746    0.0000 C   0  0  0  0  0  0  0  0  0
   -2.9404   -0.9871    0.0000 C   0  0  0  0  0  0  0  0  0
   -3.6548   -0.5746    0.0000 C   0  0  0  0  0  0  0  0  0
   -3.6548    0.2504    0.0000 C   0  0  0  0  0  0  0  0  0
   -2.9404    0.6629    0.0000 C   0  0  0  0  0  0  0  0  0
   -2.2259    0.2504    0.0000 C   0  0  0  0  0  0  0  0  0
  1  2  2  0  0  0  0
  2  3  1  0  0  0  0
  2 12  1  0  0  0  0
  3  4  1  0  0  0  0
  4  5  1  0  0  0  0
  5  6  1  0  0  0  0
  6  7  1  0  0  0  0
  7  8  1  0  0  0  0
  8  9  1  0  0  0  0
  9 10  1  0  0  0  0
 10 11  1  0  0  0  0
 12 13  4  0  0  0  0
 12 17  4  0  0  0  0
 13 14  4  0  0  0  0
 14 15  4  0  0  0  0
 15 16  4  0  0  0  0
 15 18  1  0  0  0  0
 16 17  4  0  0  0  0
 18 19  4  0  0  0  0
 18 23  4  0  0  0  0
 19 20  4  0  0  0  0
 20 21  4  0  0  0  0
 21 22  4  0  0  0  0
 22 23  4  0  0  0  0
M  END
>  <Name_Molregno>
514332

>  <DOPAMINE D2>
4.67

>  <DOPAMINE D3>
4.98

>  <DOPAMINE D4>
5.21

$$$$
514333
  Marvin  02231216192D 0   1.00000     0.00000     0

 26 27  0  0  0  0  0  0  0  0999 V2000
   -0.5162   -3.0170    0.0000 O   0  0  0  0  0  0  0  0  0
   -0.7144   -2.2161    0.0000 C   0  0  0  0  0  0  0  0  0
   -0.1199   -1.6441    0.0000 N   0  0  0  0  0  0  0  0  0
    0.6727   -1.8729    0.0000 C   0  0  0  0  0  0  0  0  0
    1.2672   -1.3009    0.0000 C   0  0  0  0  0  0  0  0  0
    2.0598   -1.5297    0.0000 C   0  0  0  0  0  0  0  0  0
    2.6543   -0.9576    0.0000 C   0  0  0  0  0  0  0  0  0
    3.4469   -1.1865    0.0000 N   0  0  0  0  0  0  0  0  0
    4.0414   -0.6144    0.0000 C   0  0  0  0  0  0  0  0  0
    4.8340   -0.8432    0.0000 C   0  0  0  0  0  0  0  0  0
    5.4285   -0.2712    0.0000 C   0  0  0  0  0  0  0  0  0
    3.6451   -1.9873    0.0000 C   0  0  0  0  0  0  0  0  0
    4.4377   -2.2161    0.0000 C   0  0  0  0  0  0  0  0  0
    4.6359   -3.0170    0.0000 C   0  0  0  0  0  0  0  0  0
   -1.5070   -1.9873    0.0000 C   0  0  0  0  0  0  0  0  0
   -2.1015   -2.5593    0.0000 C   0  0  0  0  0  0  0  0  0
   -2.8941   -2.3305    0.0000 C   0  0  0  0  0  0  0  0  0
   -3.0923   -1.5297    0.0000 C   0  0  0  0  0  0  0  0  0
   -2.4978   -0.9576    0.0000 C   0  0  0  0  0  0  0  0  0
   -1.7052   -1.1865    0.0000 C   0  0  0  0  0  0  0  0  0
   -3.8849   -1.3009    0.0000 C   0  0  0  0  0  0  0  0  0
   -4.4794   -1.8729    0.0000 C   0  0  0  0  0  0  0  0  0
   -5.2721   -1.6441    0.0000 C   0  0  0  0  0  0  0  0  0
   -5.4702   -0.8432    0.0000 C   0  0  0  0  0  0  0  0  0
   -4.8757   -0.2712    0.0000 C   0  0  0  0  0  0  0  0  0
   -4.0831   -0.5000    0.0000 C   0  0  0  0  0  0  0  0  0
  1  2  2  0  0  0  0
  2  3  1  0  0  0  0
  2 15  1  0  0  0  0
  3  4  1  0  0  0  0
  4  5  1  0  0  0  0
  5  6  1  0  0  0  0
  6  7  1  0  0  0  0
  7  8  1  0  0  0  0
  8  9  1  0  0  0  0
  8 12  1  0  0  0  0
  9 10  1  0  0  0  0
 10 11  1  0  0  0  0
 12 13  1  0  0  0  0
 13 14  1  0  0  0  0
 15 16  4  0  0  0  0
 15 20  4  0  0  0  0
 16 17  4  0  0  0  0
 17 18  4  0  0  0  0
 18 19  4  0  0  0  0
 18 21  1  0  0  0  0
 19 20  4  0  0  0  0
 21 22  4  0  0  0  0
 21 26  4  0  0  0  0
 22 23  4  0  0  0  0
 23 24  4  0  0  0  0
 24 25  4  0  0  0  0
 25 26  4  0  0  0  0
M  END
>  <Name_Molregno>
514333

>  <DOPAMINE D2>
5.04

>  <DOPAMINE D3>
6.02

>  <DOPAMINE D4>
5.85

$$$$
514334
  Marvin  02231216192D 0   1.00000     0.00000     0

 29 31  0  0  0  0  0  0  0  0999 V2000
   -1.0279   -3.5012    0.0000 O   0  0  0  0  0  0  0  0  0
   -1.2260   -2.7003    0.0000 C   0  0  0  0  0  0  0  0  0
   -0.6316   -2.1283    0.0000 N   0  0  0  0  0  0  0  0  0
    0.1611   -2.3571    0.0000 C   0  0  0  0  0  0  0  0  0
    0.7556   -1.7851    0.0000 C   0  0  0  0  0  0  0  0  0
    1.5482   -2.0139    0.0000 C   0  0  0  0  0  0  0  0  0
    2.1427   -1.4419    0.0000 C   0  0  0  0  0  0  0  0  0
    2.9353   -1.6707    0.0000 N   0  0  0  0  0  0  0  0  0
    3.1335   -2.4715    0.0000 C   0  0  0  0  0  0  0  0  0
    3.9261   -2.7003    0.0000 C   0  0  0  0  0  0  0  0  0
    4.1242   -3.5012    0.0000 C   0  0  0  0  0  0  0  0  0
    3.5298   -1.0986    0.0000 C   0  0  0  0  0  0  0  0  0
    3.3316   -0.2978    0.0000 C   0  0  0  0  0  0  0  0  0
    3.9261    0.2742    0.0000 C   0  0  0  0  0  0  0  0  0
    4.7187    0.0454    0.0000 C   0  0  0  0  0  0  0  0  0
    4.9169   -0.7554    0.0000 C   0  0  0  0  0  0  0  0  0
    4.3224   -1.3275    0.0000 C   0  0  0  0  0  0  0  0  0
   -2.0187   -2.4715    0.0000 C   0  0  0  0  0  0  0  0  0
   -2.6131   -3.0436    0.0000 C   0  0  0  0  0  0  0  0  0
   -3.4058   -2.8148    0.0000 C   0  0  0  0  0  0  0  0  0
   -3.6039   -2.0139    0.0000 C   0  0  0  0  0  0  0  0  0
   -3.0095   -1.4419    0.0000 C   0  0  0  0  0  0  0  0  0
   -2.2168   -1.6707    0.0000 C   0  0  0  0  0  0  0  0  0
   -4.3966   -1.7851    0.0000 C   0  0  0  0  0  0  0  0  0
   -4.9910   -2.3571    0.0000 C   0  0  0  0  0  0  0  0  0
   -5.7837   -2.1283    0.0000 C   0  0  0  0  0  0  0  0  0
   -5.9818   -1.3275    0.0000 C   0  0  0  0  0  0  0  0  0
   -5.3874   -0.7554    0.0000 C   0  0  0  0  0  0  0  0  0
   -4.5947   -0.9842    0.0000 C   0  0  0  0  0  0  0  0  0
  1  2  2  0  0  0  0
  2  3  1  0  0  0  0
  2 18  1  0  0  0  0
  3  4  1  0  0  0  0
  4  5  1  0  0  0  0
  5  6  1  0  0  0  0
  6  7  1  0  0  0  0
  7  8  1  0  0  0  0
  8  9  1  0  0  0  0
  8 12  1  0  0  0  0
  9 10  1  0  0  0  0
 10 11  1  0  0  0  0
 12 13  1  0  0  0  0
 12 17  1  0  0  0  0
 13 14  1  0  0  0  0
 14 15  1  0  0  0  0
 15 16  1  0  0  0  0
 16 17  1  0  0  0  0
 18 19  4  0  0  0  0
 18 23  4  0  0  0  0
 19 20  4  0  0  0  0
 20 21  4  0  0  0  0
 21 22  4  0  0  0  0
 21 24  1  0  0  0  0
 22 23  4  0  0  0  0
 24 25  4  0  0  0  0
 24 29  4  0  0  0  0
 25 26  4  0  0  0  0
 26 27  4  0  0  0  0
 27 28  4  0  0  0  0
 28 29  4  0  0  0  0
M  END
>  <Name_Molregno>
514334

>  <DOPAMINE D2>
5.26

>  <DOPAMINE D3>
6.85

>  <DOPAMINE D4>
6.17

$$$$
514509
  Marvin  02231216192D 0   1.00000     0.00000     0

 19 21  0  0  1  0  0  0  0  0999 V2000
   -2.0695   -2.0649    0.0000 O   0  0  0  0  0  0  0  0  0
   -1.3550   -1.6524    0.0000 C   0  0  0  0  0  0  0  0  0
   -0.6406   -2.0649    0.0000 C   0  0  0  0  0  0  0  0  0
    0.0739   -1.6524    0.0000 C   0  0  0  0  0  0  0  0  0
    0.0739   -0.8274    0.0000 C   0  0  0  0  0  0  0  0  0
   -0.6406   -0.4149    0.0000 C   0  0  0  0  0  0  0  0  0
   -1.3550   -0.8274    0.0000 C   0  0  0  0  0  0  0  0  0
   -2.0695   -0.4149    0.0000 O   0  0  0  0  0  0  0  0  0
    0.7189   -0.3131    0.0000 C   0  0  0  0  0  0  0  0  0
    1.5232   -0.4966    0.0000 C   0  0  0  0  0  0  0  0  0
    1.8812   -1.2399    0.0000 N   0  0  0  0  0  0  0  0  0
    1.5232   -1.9832    0.0000 C   0  0  0  0  0  0  0  0  0
    0.7189   -2.1668    0.0000 C   0  0  0  0  0  0  0  0  0
    0.5353   -2.9711    0.0000 C   0  0  0  0  0  0  0  0  0
    1.1401   -3.5323    0.0000 C   0  0  0  0  0  0  0  0  0
    0.9565   -4.3366    0.0000 C   0  0  0  0  0  0  0  0  0
    0.1682   -4.5798    0.0000 C   0  0  0  0  0  0  0  0  0
   -0.4366   -4.0186    0.0000 C   0  0  0  0  0  0  0  0  0
   -0.2530   -3.2143    0.0000 C   0  0  0  0  0  0  0  0  0
  1  2  1  0  0  0  0
  2  3  4  0  0  0  0
  2  7  4  0  0  0  0
  3  4  4  0  0  0  0
  4  5  4  0  0  0  0
  4 13  1  0  0  0  0
  5  6  4  0  0  0  0
  5  9  1  0  0  0  0
  6  7  4  0  0  0  0
  7  8  1  0  0  0  0
  9 10  1  0  0  0  0
 10 11  1  0  0  0  0
 11 12  1  0  0  0  0
 12 13  1  0  0  0  0
 13 14  1  0  0  0  0
 14 15  4  0  0  0  0
 14 19  4  0  0  0  0
 15 16  4  0  0  0  0
 16 17  4  0  0  0  0
 17 18  4  0  0  0  0
 18 19  4  0  0  0  0
M  END
>  <Name_Molregno>
514509

>  <5-HT1A>
5.51

>  <DOPAMINE D1>
6.88

>  <DOPAMINE D2>
5.11

>  <DOPAMINE D3>
5

>  <DOPAMINE D5>
7

>  <HISTAMINE H1>
5.6

$$$$
514511
  Marvin  02231216192D 0   1.00000     0.00000     0

 22 24  0  0  1  0  0  0  0  0999 V2000
    1.7542   -1.9189    0.0000 Cl  0  0  0  0  0  0  0  0  0
    1.7542   -1.0939    0.0000 C   0  0  0  0  0  0  0  0  0
    2.4686   -0.6814    0.0000 C   0  0  0  0  0  0  0  0  0
    2.4686    0.1436    0.0000 C   0  0  0  0  0  0  0  0  0
    1.7542    0.5561    0.0000 C   0  0  0  0  0  0  0  0  0
    1.0397    0.1436    0.0000 C   0  0  0  0  0  0  0  0  0
    0.3252    0.5561    0.0000 O   0  0  0  0  0  0  0  0  0
    1.0397   -0.6814    0.0000 C   0  0  0  0  0  0  0  0  0
    0.3252   -1.0939    0.0000 O   0  0  0  0  0  0  0  0  0
    3.1136    0.6579    0.0000 C   0  0  0  0  0  0  0  0  0
    3.9180    0.4744    0.0000 C   0  0  0  0  0  0  0  0  0
    4.2759   -0.2689    0.0000 N   0  0  0  0  0  0  0  0  0
    3.9180   -1.0122    0.0000 C   0  0  0  0  0  0  0  0  0
    3.1136   -1.1958    0.0000 C   0  0  0  0  0  0  0  0  0
    5.1009   -0.2689    0.0000 C   0  0  0  0  0  0  0  0  0
    2.9301    1.4623    0.0000 C   0  0  0  0  0  0  0  0  0
    2.1417    1.7054    0.0000 C   0  0  0  0  0  0  0  0  0
    1.9581    2.5097    0.0000 C   0  0  0  0  0  0  0  0  0
    2.5629    3.0709    0.0000 C   0  0  0  0  0  0  0  0  0
    3.3512    2.8277    0.0000 C   0  0  0  0  0  0  0  0  0
    3.5348    2.0234    0.0000 C   0  0  0  0  0  0  0  0  0
    1.1698    2.7529    0.0000 C   0  0  0  0  0  0  0  0  0
  1  2  1  0  0  0  0
  2  3  4  0  0  0  0
  2  8  4  0  0  0  0
  3  4  4  0  0  0  0
  3 14  1  0  0  0  0
  4  5  4  0  0  0  0
  4 10  1  0  0  0  0
  5  6  4  0  0  0  0
  6  7  1  0  0  0  0
  6  8  4  0  0  0  0
  8  9  1  0  0  0  0
 10 11  1  0  0  0  0
 10 16  1  0  0  0  0
 11 12  1  0  0  0  0
 12 13  1  0  0  0  0
 12 15  1  0  0  0  0
 13 14  1  0  0  0  0
 16 17  4  0  0  0  0
 16 21  4  0  0  0  0
 17 18  4  0  0  0  0
 18 19  4  0  0  0  0
 18 22  1  0  0  0  0
 19 20  4  0  0  0  0
 20 21  4  0  0  0  0
M  END
>  <Name_Molregno>
514511

>  <DOPAMINE D1>
8.93

>  <DOPAMINE D3>
6.4

>  <DOPAMINE D5>
8.12

$$$$
515071
  Marvin  02231216192D 0   1.00000     0.00000     0

 29 32  0  0  0  0  0  0  0  0999 V2000
  -11.1556    0.8481    0.0000 O   0  0  0  0  0  0  0  0  0
  -10.6707    1.5156    0.0000 N   0  0  0  0  0  0  0  0  0
   -9.8861    1.2606    0.0000 C   0  0  0  0  0  0  0  0  0
   -9.1716    1.6731    0.0000 C   0  0  0  0  0  0  0  0  0
   -8.4572    1.2606    0.0000 C   0  0  0  0  0  0  0  0  0
   -8.4572    0.4356    0.0000 C   0  0  0  0  0  0  0  0  0
   -9.1716    0.0231    0.0000 C   0  0  0  0  0  0  0  0  0
   -9.8861    0.4356    0.0000 C   0  0  0  0  0  0  0  0  0
  -10.6707    0.1807    0.0000 N   0  0  0  0  0  0  0  0  0
   -7.7427    1.6731    0.0000 C   0  0  0  0  0  0  0  0  0
   -7.7427    2.4981    0.0000 O   0  0  0  0  0  0  0  0  0
   -7.0282    1.2606    0.0000 N   0  0  0  0  0  0  0  0  0
   -6.3137    1.6731    0.0000 C   0  0  0  0  0  0  0  0  0
   -5.5993    1.2606    0.0000 C   0  0  0  0  0  0  0  0  0
   -4.8848    1.6731    0.0000 C   0  0  0  0  0  0  0  0  0
   -4.1703    1.2606    0.0000 N   0  0  0  0  0  0  0  0  0
   -3.4559    1.6731    0.0000 C   0  0  0  0  0  0  0  0  0
   -2.7414    1.2606    0.0000 C   0  0  0  0  0  0  0  0  0
   -2.7414    0.4356    0.0000 N   0  0  0  0  0  0  0  0  0
   -3.4559    0.0231    0.0000 C   0  0  0  0  0  0  0  0  0
   -4.1703    0.4356    0.0000 C   0  0  0  0  0  0  0  0  0
   -2.0269    0.0231    0.0000 C   0  0  0  0  0  0  0  0  0
   -1.3124    0.4356    0.0000 C   0  0  0  0  0  0  0  0  0
   -0.5980    0.0231    0.0000 C   0  0  0  0  0  0  0  0  0
   -0.5980   -0.8019    0.0000 C   0  0  0  0  0  0  0  0  0
   -1.3124   -1.2144    0.0000 C   0  0  0  0  0  0  0  0  0
   -2.0269   -0.8019    0.0000 C   0  0  0  0  0  0  0  0  0
   -2.7414   -1.2144    0.0000 O   0  0  0  0  0  0  0  0  0
   -2.7414   -2.0394    0.0000 C   0  0  0  0  0  0  0  0  0
  1  2  4  0  0  0  0
  1  9  4  0  0  0  0
  2  3  4  0  0  0  0
  3  4  4  0  0  0  0
  3  8  4  0  0  0  0
  4  5  4  0  0  0  0
  5  6  4  0  0  0  0
  5 10  1  0  0  0  0
  6  7  4  0  0  0  0
  7  8  4  0  0  0  0
  8  9  4  0  0  0  0
 10 11  2  0  0  0  0
 10 12  1  0  0  0  0
 12 13  1  0  0  0  0
 13 14  1  0  0  0  0
 14 15  1  0  0  0  0
 15 16  1  0  0  0  0
 16 17  1  0  0  0  0
 16 21  1  0  0  0  0
 17 18  1  0  0  0  0
 18 19  1  0  0  0  0
 19 20  1  0  0  0  0
 19 22  1  0  0  0  0
 20 21  1  0  0  0  0
 22 23  4  0  0  0  0
 22 27  4  0  0  0  0
 23 24  4  0  0  0  0
 24 25  4  0  0  0  0
 25 26  4  0  0  0  0
 26 27  4  0  0  0  0
 27 28  1  0  0  0  0
 28 29  1  0  0  0  0
M  END
>  <Name_Molregno>
515071

>  <DOPAMINE D2>
7.05

>  <DOPAMINE D3>
6

$$$$
515072
  Marvin  02231216192D 0   1.00000     0.00000     0

 32 35  0  0  0  0  0  0  0  0999 V2000
  -10.9249    4.0011    0.0000 O   0  0  0  0  0  0  0  0  0
  -11.6394    4.4136    0.0000 C   0  0  0  0  0  0  0  0  0
  -10.9249    3.1761    0.0000 C   0  0  0  0  0  0  0  0  0
  -10.2104    2.7636    0.0000 C   0  0  0  0  0  0  0  0  0
  -10.2104    1.9386    0.0000 C   0  0  0  0  0  0  0  0  0
   -9.4960    1.5261    0.0000 N   0  0  0  0  0  0  0  0  0
   -8.7815    1.9386    0.0000 C   0  0  0  0  0  0  0  0  0
   -8.0670    1.5261    0.0000 C   0  0  0  0  0  0  0  0  0
   -8.0670    0.7011    0.0000 N   0  0  0  0  0  0  0  0  0
   -8.7815    0.2886    0.0000 C   0  0  0  0  0  0  0  0  0
   -9.4960    0.7011    0.0000 C   0  0  0  0  0  0  0  0  0
   -7.3526    0.2886    0.0000 C   0  0  0  0  0  0  0  0  0
   -6.6381    0.7011    0.0000 C   0  0  0  0  0  0  0  0  0
   -5.9236    0.2886    0.0000 C   0  0  0  0  0  0  0  0  0
   -5.2092    0.7011    0.0000 C   0  0  0  0  0  0  0  0  0
   -4.4947    0.2886    0.0000 N   0  0  0  0  0  0  0  0  0
   -3.7802    0.7011    0.0000 C   0  0  0  0  0  0  0  0  0
   -3.7802    1.5261    0.0000 O   0  0  0  0  0  0  0  0  0
   -3.0657    0.2886    0.0000 C   0  0  0  0  0  0  0  0  0
   -2.3513    0.7011    0.0000 C   0  0  0  0  0  0  0  0  0
   -1.6368    0.2886    0.0000 C   0  0  0  0  0  0  0  0  0
   -1.6368   -0.5364    0.0000 C   0  0  0  0  0  0  0  0  0
   -0.9223   -0.9489    0.0000 N   0  0  0  0  0  0  0  0  0
   -0.1687   -0.6134    0.0000 C   0  0  0  0  0  0  0  0  0
    0.3834   -1.2265    0.0000 C   0  0  0  0  0  0  0  0  0
   -0.0291   -1.9409    0.0000 N   0  0  0  0  0  0  0  0  0
   -0.8361   -1.7694    0.0000 C   0  0  0  0  0  0  0  0  0
   -2.3513   -0.9489    0.0000 C   0  0  0  0  0  0  0  0  0
   -3.0657   -0.5364    0.0000 C   0  0  0  0  0  0  0  0  0
  -10.9249    1.5261    0.0000 C   0  0  0  0  0  0  0  0  0
  -11.6394    1.9386    0.0000 C   0  0  0  0  0  0  0  0  0
  -11.6394    2.7636    0.0000 C   0  0  0  0  0  0  0  0  0
  1  2  1  0  0  0  0
  1  3  1  0  0  0  0
  3  4  4  0  0  0  0
  3 32  4  0  0  0  0
  4  5  4  0  0  0  0
  5  6  1  0  0  0  0
  5 30  4  0  0  0  0
  6  7  1  0  0  0  0
  6 11  1  0  0  0  0
  7  8  1  0  0  0  0
  8  9  1  0  0  0  0
  9 10  1  0  0  0  0
  9 12  1  0  0  0  0
 10 11  1  0  0  0  0
 12 13  1  0  0  0  0
 13 14  1  0  0  0  0
 14 15  1  0  0  0  0
 15 16  1  0  0  0  0
 16 17  1  0  0  0  0
 17 18  2  0  0  0  0
 17 19  1  0  0  0  0
 19 20  4  0  0  0  0
 19 29  4  0  0  0  0
 20 21  4  0  0  0  0
 21 22  4  0  0  0  0
 22 23  1  0  0  0  0
 22 28  4  0  0  0  0
 23 24  4  0  0  0  0
 23 27  4  0  0  0  0
 24 25  4  0  0  0  0
 25 26  4  0  0  0  0
 26 27  4  0  0  0  0
 28 29  4  0  0  0  0
 30 31  4  0  0  0  0
 31 32  4  0  0  0  0
M  END
>  <Name_Molregno>
515072

>  <DOPAMINE D2>
6.61

>  <DOPAMINE D3>
7.7

$$$$
515073
  Marvin  02231216192D 0   1.00000     0.00000     0

 30 33  0  0  0  0  0  0  0  0999 V2000
  -11.3856    2.8445    0.0000 O   0  0  0  0  0  0  0  0  0
  -10.5652    2.7583    0.0000 N   0  0  0  0  0  0  0  0  0
  -10.3936    1.9513    0.0000 C   0  0  0  0  0  0  0  0  0
   -9.6792    1.5388    0.0000 C   0  0  0  0  0  0  0  0  0
   -9.6792    0.7138    0.0000 C   0  0  0  0  0  0  0  0  0
  -10.3936    0.3013    0.0000 C   0  0  0  0  0  0  0  0  0
  -11.1081    0.7138    0.0000 C   0  0  0  0  0  0  0  0  0
  -11.1081    1.5388    0.0000 C   0  0  0  0  0  0  0  0  0
  -11.7212    2.0909    0.0000 N   0  0  0  0  0  0  0  0  0
   -8.9647    0.3013    0.0000 C   0  0  0  0  0  0  0  0  0
   -8.9647   -0.5237    0.0000 O   0  0  0  0  0  0  0  0  0
   -8.2502    0.7138    0.0000 N   0  0  0  0  0  0  0  0  0
   -7.5357    0.3013    0.0000 C   0  0  0  0  0  0  0  0  0
   -6.8213    0.7138    0.0000 C   0  0  0  0  0  0  0  0  0
   -6.1068    0.3013    0.0000 C   0  0  0  0  0  0  0  0  0
   -5.3923    0.7138    0.0000 C   0  0  0  0  0  0  0  0  0
   -4.6779    0.3013    0.0000 N   0  0  0  0  0  0  0  0  0
   -3.9634    0.7138    0.0000 C   0  0  0  0  0  0  0  0  0
   -3.2489    0.3013    0.0000 C   0  0  0  0  0  0  0  0  0
   -3.2489   -0.5237    0.0000 N   0  0  0  0  0  0  0  0  0
   -3.9634   -0.9362    0.0000 C   0  0  0  0  0  0  0  0  0
   -4.6779   -0.5237    0.0000 C   0  0  0  0  0  0  0  0  0
   -2.5344   -0.9362    0.0000 C   0  0  0  0  0  0  0  0  0
   -1.8200   -0.5237    0.0000 C   0  0  0  0  0  0  0  0  0
   -1.1055   -0.9362    0.0000 C   0  0  0  0  0  0  0  0  0
   -0.3910   -0.5237    0.0000 O   0  0  0  0  0  0  0  0  0
   -0.3910    0.3013    0.0000 C   0  0  0  0  0  0  0  0  0
   -1.1055   -1.7612    0.0000 C   0  0  0  0  0  0  0  0  0
   -1.8200   -2.1737    0.0000 C   0  0  0  0  0  0  0  0  0
   -2.5344   -1.7612    0.0000 C   0  0  0  0  0  0  0  0  0
  1  2  4  0  0  0  0
  1  9  4  0  0  0  0
  2  3  4  0  0  0  0
  3  4  4  0  0  0  0
  3  8  4  0  0  0  0
  4  5  4  0  0  0  0
  5  6  4  0  0  0  0
  5 10  1  0  0  0  0
  6  7  4  0  0  0  0
  7  8  4  0  0  0  0
  8  9  4  0  0  0  0
 10 11  2  0  0  0  0
 10 12  1  0  0  0  0
 12 13  1  0  0  0  0
 13 14  1  0  0  0  0
 14 15  1  0  0  0  0
 15 16  1  0  0  0  0
 16 17  1  0  0  0  0
 17 18  1  0  0  0  0
 17 22  1  0  0  0  0
 18 19  1  0  0  0  0
 19 20  1  0  0  0  0
 20 21  1  0  0  0  0
 20 23  1  0  0  0  0
 21 22  1  0  0  0  0
 23 24  4  0  0  0  0
 23 30  4  0  0  0  0
 24 25  4  0  0  0  0
 25 26  1  0  0  0  0
 25 28  4  0  0  0  0
 26 27  1  0  0  0  0
 28 29  4  0  0  0  0
 29 30  4  0  0  0  0
M  END
>  <Name_Molregno>
515073

>  <DOPAMINE D2>
7

>  <DOPAMINE D3>
6.77

$$$$
515136
  Marvin  02231216192D 0   1.00000     0.00000     0

 31 34  0  0  0  0  0  0  0  0999 V2000
   -7.6142   -1.0021    0.0000 O   0  0  0  0  0  0  0  0  0
   -7.6142   -1.8271    0.0000 C   0  0  0  0  0  0  0  0  0
   -8.3286   -0.5896    0.0000 C   0  0  0  0  0  0  0  0  0
   -9.0431   -1.0021    0.0000 C   0  0  0  0  0  0  0  0  0
   -9.7576   -0.5896    0.0000 C   0  0  0  0  0  0  0  0  0
   -9.7576    0.2354    0.0000 C   0  0  0  0  0  0  0  0  0
   -9.0431    0.6479    0.0000 C   0  0  0  0  0  0  0  0  0
   -8.3286    0.2354    0.0000 C   0  0  0  0  0  0  0  0  0
   -7.6142    0.6479    0.0000 N   0  0  0  0  0  0  0  0  0
   -7.6142    1.4729    0.0000 C   0  0  0  0  0  0  0  0  0
   -6.8997    1.8854    0.0000 C   0  0  0  0  0  0  0  0  0
   -6.1852    1.4729    0.0000 N   0  0  0  0  0  0  0  0  0
   -6.1852    0.6479    0.0000 C   0  0  0  0  0  0  0  0  0
   -6.8997    0.2354    0.0000 C   0  0  0  0  0  0  0  0  0
   -5.4708    1.8854    0.0000 C   0  0  0  0  0  0  0  0  0
   -4.7563    1.4729    0.0000 C   0  0  0  0  0  0  0  0  0
   -4.0418    1.8854    0.0000 C   0  0  0  0  0  0  0  0  0
   -3.3274    1.4729    0.0000 N   0  0  0  0  0  0  0  0  0
   -2.6129    1.8854    0.0000 C   0  0  0  0  0  0  0  0  0
   -2.6129    2.7104    0.0000 O   0  0  0  0  0  0  0  0  0
   -1.8984    1.4729    0.0000 C   0  0  0  0  0  0  0  0  0
   -1.1839    1.8854    0.0000 C   0  0  0  0  0  0  0  0  0
   -0.4695    1.4729    0.0000 C   0  0  0  0  0  0  0  0  0
   -0.4695    0.6479    0.0000 C   0  0  0  0  0  0  0  0  0
    0.2450    0.2354    0.0000 N   0  0  0  0  0  0  0  0  0
    0.9987    0.5709    0.0000 C   0  0  0  0  0  0  0  0  0
    1.5507   -0.0422    0.0000 C   0  0  0  0  0  0  0  0  0
    1.1382   -0.7566    0.0000 N   0  0  0  0  0  0  0  0  0
    0.3312   -0.5851    0.0000 C   0  0  0  0  0  0  0  0  0
   -1.1839    0.2354    0.0000 C   0  0  0  0  0  0  0  0  0
   -1.8984    0.6479    0.0000 C   0  0  0  0  0  0  0  0  0
  1  2  1  0  0  0  0
  1  3  1  0  0  0  0
  3  4  4  0  0  0  0
  3  8  4  0  0  0  0
  4  5  4  0  0  0  0
  5  6  4  0  0  0  0
  6  7  4  0  0  0  0
  7  8  4  0  0  0  0
  8  9  1  0  0  0  0
  9 10  1  0  0  0  0
  9 14  1  0  0  0  0
 10 11  1  0  0  0  0
 11 12  1  0  0  0  0
 12 13  1  0  0  0  0
 12 15  1  0  0  0  0
 13 14  1  0  0  0  0
 15 16  1  0  0  0  0
 16 17  1  0  0  0  0
 17 18  1  0  0  0  0
 18 19  1  0  0  0  0
 19 20  2  0  0  0  0
 19 21  1  0  0  0  0
 21 22  4  0  0  0  0
 21 31  4  0  0  0  0
 22 23  4  0  0  0  0
 23 24  4  0  0  0  0
 24 25  1  0  0  0  0
 24 30  4  0  0  0  0
 25 26  4  0  0  0  0
 25 29  4  0  0  0  0
 26 27  4  0  0  0  0
 27 28  4  0  0  0  0
 28 29  4  0  0  0  0
 30 31  4  0  0  0  0
M  END
>  <Name_Molregno>
515136

>  <DOPAMINE D2>
6.92

>  <DOPAMINE D3>
7.02

$$$$
515137
  Marvin  02231216192D 0   1.00000     0.00000     0

 30 33  0  0  0  0  0  0  0  0999 V2000
  -11.4172    3.0843    0.0000 O   0  0  0  0  0  0  0  0  0
  -10.5967    2.9980    0.0000 N   0  0  0  0  0  0  0  0  0
  -10.4252    2.1911    0.0000 C   0  0  0  0  0  0  0  0  0
   -9.7107    1.7786    0.0000 C   0  0  0  0  0  0  0  0  0
   -9.7107    0.9536    0.0000 C   0  0  0  0  0  0  0  0  0
  -10.4252    0.5411    0.0000 C   0  0  0  0  0  0  0  0  0
  -11.1397    0.9536    0.0000 C   0  0  0  0  0  0  0  0  0
  -11.1397    1.7786    0.0000 C   0  0  0  0  0  0  0  0  0
  -11.7528    2.3306    0.0000 N   0  0  0  0  0  0  0  0  0
   -8.9963    0.5411    0.0000 C   0  0  0  0  0  0  0  0  0
   -8.9963   -0.2839    0.0000 O   0  0  0  0  0  0  0  0  0
   -8.2818    0.9536    0.0000 N   0  0  0  0  0  0  0  0  0
   -7.5673    0.5411    0.0000 C   0  0  0  0  0  0  0  0  0
   -6.8529    0.9536    0.0000 C   0  0  0  0  0  0  0  0  0
   -6.1384    0.5411    0.0000 C   0  0  0  0  0  0  0  0  0
   -5.4239    0.9536    0.0000 C   0  0  0  0  0  0  0  0  0
   -4.7094    0.5411    0.0000 N   0  0  0  0  0  0  0  0  0
   -3.9950    0.9536    0.0000 C   0  0  0  0  0  0  0  0  0
   -3.2805    0.5411    0.0000 C   0  0  0  0  0  0  0  0  0
   -3.2805   -0.2839    0.0000 N   0  0  0  0  0  0  0  0  0
   -3.9950   -0.6964    0.0000 C   0  0  0  0  0  0  0  0  0
   -4.7094   -0.2839    0.0000 C   0  0  0  0  0  0  0  0  0
   -2.5660   -0.6964    0.0000 C   0  0  0  0  0  0  0  0  0
   -1.8516   -0.2839    0.0000 C   0  0  0  0  0  0  0  0  0
   -1.1371   -0.6964    0.0000 C   0  0  0  0  0  0  0  0  0
   -1.1371   -1.5214    0.0000 C   0  0  0  0  0  0  0  0  0
   -0.4226   -1.9339    0.0000 O   0  0  0  0  0  0  0  0  0
    0.2919   -1.5214    0.0000 C   0  0  0  0  0  0  0  0  0
   -1.8516   -1.9339    0.0000 C   0  0  0  0  0  0  0  0  0
   -2.5660   -1.5214    0.0000 C   0  0  0  0  0  0  0  0  0
  1  2  4  0  0  0  0
  1  9  4  0  0  0  0
  2  3  4  0  0  0  0
  3  4  4  0  0  0  0
  3  8  4  0  0  0  0
  4  5  4  0  0  0  0
  5  6  4  0  0  0  0
  5 10  1  0  0  0  0
  6  7  4  0  0  0  0
  7  8  4  0  0  0  0
  8  9  4  0  0  0  0
 10 11  2  0  0  0  0
 10 12  1  0  0  0  0
 12 13  1  0  0  0  0
 13 14  1  0  0  0  0
 14 15  1  0  0  0  0
 15 16  1  0  0  0  0
 16 17  1  0  0  0  0
 17 18  1  0  0  0  0
 17 22  1  0  0  0  0
 18 19  1  0  0  0  0
 19 20  1  0  0  0  0
 20 21  1  0  0  0  0
 20 23  1  0  0  0  0
 21 22  1  0  0  0  0
 23 24  4  0  0  0  0
 23 30  4  0  0  0  0
 24 25  4  0  0  0  0
 25 26  4  0  0  0  0
 26 27  1  0  0  0  0
 26 29  4  0  0  0  0
 27 28  1  0  0  0  0
 29 30  4  0  0  0  0
M  END
>  <Name_Molregno>
515137

>  <DOPAMINE D2>
7

>  <DOPAMINE D3>
5.21

$$$$
515138
  Marvin  02231216192D 0   1.00000     0.00000     0

 34 37  0  0  0  0  0  0  0  0999 V2000
   -0.1426   -0.0878    0.0000 F   0  0  0  0  0  0  0  0  0
    0.5719    0.3247    0.0000 C   0  0  0  0  0  0  0  0  0
    0.5719    1.1497    0.0000 C   0  0  0  0  0  0  0  0  0
    1.2863    1.5622    0.0000 O   0  0  0  0  0  0  0  0  0
    1.2863    2.3872    0.0000 C   0  0  0  0  0  0  0  0  0
    0.5719    2.7997    0.0000 C   0  0  0  0  0  0  0  0  0
    0.5719    3.6247    0.0000 C   0  0  0  0  0  0  0  0  0
    1.2863    4.0372    0.0000 C   0  0  0  0  0  0  0  0  0
    2.0008    3.6247    0.0000 C   0  0  0  0  0  0  0  0  0
    2.0008    2.7997    0.0000 C   0  0  0  0  0  0  0  0  0
    2.7153    2.3872    0.0000 N   0  0  0  0  0  0  0  0  0
    3.4298    2.7997    0.0000 C   0  0  0  0  0  0  0  0  0
    4.1442    2.3872    0.0000 C   0  0  0  0  0  0  0  0  0
    4.1442    1.5622    0.0000 N   0  0  0  0  0  0  0  0  0
    3.4298    1.1497    0.0000 C   0  0  0  0  0  0  0  0  0
    2.7153    1.5622    0.0000 C   0  0  0  0  0  0  0  0  0
    4.8587    1.1497    0.0000 C   0  0  0  0  0  0  0  0  0
    5.5732    1.5622    0.0000 C   0  0  0  0  0  0  0  0  0
    6.2876    1.1497    0.0000 C   0  0  0  0  0  0  0  0  0
    7.0021    1.5622    0.0000 C   0  0  0  0  0  0  0  0  0
    7.7166    1.1497    0.0000 N   0  0  0  0  0  0  0  0  0
    8.4311    1.5622    0.0000 C   0  0  0  0  0  0  0  0  0
    8.4311    2.3872    0.0000 O   0  0  0  0  0  0  0  0  0
    9.1455    1.1497    0.0000 C   0  0  0  0  0  0  0  0  0
    9.8600    1.5622    0.0000 C   0  0  0  0  0  0  0  0  0
   10.5745    1.1497    0.0000 C   0  0  0  0  0  0  0  0  0
   10.5745    0.3247    0.0000 C   0  0  0  0  0  0  0  0  0
   11.2889   -0.0878    0.0000 N   0  0  0  0  0  0  0  0  0
   12.0426    0.2478    0.0000 C   0  0  0  0  0  0  0  0  0
   12.5946   -0.3653    0.0000 C   0  0  0  0  0  0  0  0  0
   12.1821   -1.0798    0.0000 N   0  0  0  0  0  0  0  0  0
   11.3752   -0.9083    0.0000 C   0  0  0  0  0  0  0  0  0
    9.8600   -0.0878    0.0000 C   0  0  0  0  0  0  0  0  0
    9.1455    0.3247    0.0000 C   0  0  0  0  0  0  0  0  0
  1  2  1  0  0  0  0
  2  3  1  0  0  0  0
  3  4  1  0  0  0  0
  4  5  1  0  0  0  0
  5  6  4  0  0  0  0
  5 10  4  0  0  0  0
  6  7  4  0  0  0  0
  7  8  4  0  0  0  0
  8  9  4  0  0  0  0
  9 10  4  0  0  0  0
 10 11  1  0  0  0  0
 11 12  1  0  0  0  0
 11 16  1  0  0  0  0
 12 13  1  0  0  0  0
 13 14  1  0  0  0  0
 14 15  1  0  0  0  0
 14 17  1  0  0  0  0
 15 16  1  0  0  0  0
 17 18  1  0  0  0  0
 18 19  1  0  0  0  0
 19 20  1  0  0  0  0
 20 21  1  0  0  0  0
 21 22  1  0  0  0  0
 22 23  2  0  0  0  0
 22 24  1  0  0  0  0
 24 25  4  0  0  0  0
 24 34  4  0  0  0  0
 25 26  4  0  0  0  0
 26 27  4  0  0  0  0
 27 28  1  0  0  0  0
 27 33  4  0  0  0  0
 28 29  4  0  0  0  0
 28 32  4  0  0  0  0
 29 30  4  0  0  0  0
 30 31  4  0  0  0  0
 31 32  4  0  0  0  0
 33 34  4  0  0  0  0
M  END
>  <Name_Molregno>
515138

>  <DOPAMINE D2>
8.23

>  <DOPAMINE D3>
8.53

$$$$
515139
  Marvin  02231216192D 0   1.00000     0.00000     0

 32 35  0  0  0  0  0  0  0  0999 V2000
  -12.6414    3.3622    0.0000 O   0  0  0  0  0  0  0  0  0
  -13.3559    2.9497    0.0000 C   0  0  0  0  0  0  0  0  0
  -11.9270    2.9497    0.0000 C   0  0  0  0  0  0  0  0  0
  -11.2125    3.3622    0.0000 C   0  0  0  0  0  0  0  0  0
  -10.4980    2.9497    0.0000 C   0  0  0  0  0  0  0  0  0
  -10.4980    2.1247    0.0000 C   0  0  0  0  0  0  0  0  0
   -9.7835    1.7122    0.0000 N   0  0  0  0  0  0  0  0  0
   -9.0691    2.1247    0.0000 C   0  0  0  0  0  0  0  0  0
   -8.3546    1.7122    0.0000 C   0  0  0  0  0  0  0  0  0
   -8.3546    0.8872    0.0000 N   0  0  0  0  0  0  0  0  0
   -9.0691    0.4747    0.0000 C   0  0  0  0  0  0  0  0  0
   -9.7835    0.8872    0.0000 C   0  0  0  0  0  0  0  0  0
   -7.6401    0.4747    0.0000 C   0  0  0  0  0  0  0  0  0
   -6.9257    0.8872    0.0000 C   0  0  0  0  0  0  0  0  0
   -6.2112    0.4747    0.0000 C   0  0  0  0  0  0  0  0  0
   -5.4967    0.8872    0.0000 C   0  0  0  0  0  0  0  0  0
   -4.7822    0.4747    0.0000 N   0  0  0  0  0  0  0  0  0
   -4.0678    0.8872    0.0000 C   0  0  0  0  0  0  0  0  0
   -4.0678    1.7122    0.0000 O   0  0  0  0  0  0  0  0  0
   -3.3533    0.4747    0.0000 C   0  0  0  0  0  0  0  0  0
   -2.6388    0.8872    0.0000 C   0  0  0  0  0  0  0  0  0
   -1.9244    0.4747    0.0000 C   0  0  0  0  0  0  0  0  0
   -1.9244   -0.3503    0.0000 C   0  0  0  0  0  0  0  0  0
   -1.2099   -0.7628    0.0000 N   0  0  0  0  0  0  0  0  0
   -0.4562   -0.4273    0.0000 C   0  0  0  0  0  0  0  0  0
    0.0958   -1.0404    0.0000 C   0  0  0  0  0  0  0  0  0
   -0.3167   -1.7548    0.0000 N   0  0  0  0  0  0  0  0  0
   -1.1237   -1.5833    0.0000 C   0  0  0  0  0  0  0  0  0
   -2.6388   -0.7628    0.0000 C   0  0  0  0  0  0  0  0  0
   -3.3533   -0.3503    0.0000 C   0  0  0  0  0  0  0  0  0
  -11.2125    1.7122    0.0000 C   0  0  0  0  0  0  0  0  0
  -11.9270    2.1247    0.0000 C   0  0  0  0  0  0  0  0  0
  1  2  1  0  0  0  0
  1  3  1  0  0  0  0
  3  4  4  0  0  0  0
  3 32  4  0  0  0  0
  4  5  4  0  0  0  0
  5  6  4  0  0  0  0
  6  7  1  0  0  0  0
  6 31  4  0  0  0  0
  7  8  1  0  0  0  0
  7 12  1  0  0  0  0
  8  9  1  0  0  0  0
  9 10  1  0  0  0  0
 10 11  1  0  0  0  0
 10 13  1  0  0  0  0
 11 12  1  0  0  0  0
 13 14  1  0  0  0  0
 14 15  1  0  0  0  0
 15 16  1  0  0  0  0
 16 17  1  0  0  0  0
 17 18  1  0  0  0  0
 18 19  2  0  0  0  0
 18 20  1  0  0  0  0
 20 21  4  0  0  0  0
 20 30  4  0  0  0  0
 21 22  4  0  0  0  0
 22 23  4  0  0  0  0
 23 24  1  0  0  0  0
 23 29  4  0  0  0  0
 24 25  4  0  0  0  0
 24 28  4  0  0  0  0
 25 26  4  0  0  0  0
 26 27  4  0  0  0  0
 27 28  4  0  0  0  0
 29 30  4  0  0  0  0
 31 32  4  0  0  0  0
M  END
>  <Name_Molregno>
515139

>  <DOPAMINE D2>
7

>  <DOPAMINE D3>
6.68

$$$$
515140
  Marvin  02231216192D 0   1.00000     0.00000     0

 32 35  0  0  0  0  0  0  0  0999 V2000
   -0.1439   -0.0438    0.0000 F   0  0  0  0  0  0  0  0  0
    0.5706    0.3687    0.0000 C   0  0  0  0  0  0  0  0  0
    0.5706    1.1937    0.0000 C   0  0  0  0  0  0  0  0  0
    1.2851    1.6062    0.0000 O   0  0  0  0  0  0  0  0  0
    1.2851    2.4312    0.0000 C   0  0  0  0  0  0  0  0  0
    0.5706    2.8437    0.0000 C   0  0  0  0  0  0  0  0  0
    0.5706    3.6687    0.0000 C   0  0  0  0  0  0  0  0  0
    1.2851    4.0812    0.0000 C   0  0  0  0  0  0  0  0  0
    1.9995    3.6687    0.0000 C   0  0  0  0  0  0  0  0  0
    1.9995    2.8437    0.0000 C   0  0  0  0  0  0  0  0  0
    2.7140    2.4312    0.0000 N   0  0  0  0  0  0  0  0  0
    3.4285    2.8437    0.0000 C   0  0  0  0  0  0  0  0  0
    4.1429    2.4312    0.0000 C   0  0  0  0  0  0  0  0  0
    4.1429    1.6062    0.0000 N   0  0  0  0  0  0  0  0  0
    3.4285    1.1937    0.0000 C   0  0  0  0  0  0  0  0  0
    2.7140    1.6062    0.0000 C   0  0  0  0  0  0  0  0  0
    4.8574    1.1937    0.0000 C   0  0  0  0  0  0  0  0  0
    5.5719    1.6062    0.0000 C   0  0  0  0  0  0  0  0  0
    6.2864    1.1937    0.0000 C   0  0  0  0  0  0  0  0  0
    7.0008    1.6062    0.0000 C   0  0  0  0  0  0  0  0  0
    7.7153    1.1937    0.0000 N   0  0  0  0  0  0  0  0  0
    8.4298    1.6062    0.0000 C   0  0  0  0  0  0  0  0  0
    8.4298    2.4312    0.0000 O   0  0  0  0  0  0  0  0  0
    9.1442    1.1937    0.0000 C   0  0  0  0  0  0  0  0  0
    9.8587    1.6062    0.0000 C   0  0  0  0  0  0  0  0  0
   10.5732    1.1937    0.0000 C   0  0  0  0  0  0  0  0  0
   11.3578    1.4486    0.0000 N   0  0  0  0  0  0  0  0  0
   11.8427    0.7812    0.0000 O   0  0  0  0  0  0  0  0  0
   11.3578    0.1137    0.0000 N   0  0  0  0  0  0  0  0  0
   10.5732    0.3687    0.0000 C   0  0  0  0  0  0  0  0  0
    9.8587   -0.0438    0.0000 C   0  0  0  0  0  0  0  0  0
    9.1442    0.3687    0.0000 C   0  0  0  0  0  0  0  0  0
  1  2  1  0  0  0  0
  2  3  1  0  0  0  0
  3  4  1  0  0  0  0
  4  5  1  0  0  0  0
  5  6  4  0  0  0  0
  5 10  4  0  0  0  0
  6  7  4  0  0  0  0
  7  8  4  0  0  0  0
  8  9  4  0  0  0  0
  9 10  4  0  0  0  0
 10 11  1  0  0  0  0
 11 12  1  0  0  0  0
 11 16  1  0  0  0  0
 12 13  1  0  0  0  0
 13 14  1  0  0  0  0
 14 15  1  0  0  0  0
 14 17  1  0  0  0  0
 15 16  1  0  0  0  0
 17 18  1  0  0  0  0
 18 19  1  0  0  0  0
 19 20  1  0  0  0  0
 20 21  1  0  0  0  0
 21 22  1  0  0  0  0
 22 23  2  0  0  0  0
 22 24  1  0  0  0  0
 24 25  4  0  0  0  0
 24 32  4  0  0  0  0
 25 26  4  0  0  0  0
 26 27  4  0  0  0  0
 26 30  4  0  0  0  0
 27 28  4  0  0  0  0
 28 29  4  0  0  0  0
 29 30  4  0  0  0  0
 30 31  4  0  0  0  0
 31 32  4  0  0  0  0
M  END
>  <Name_Molregno>
515140

>  <DOPAMINE D2>
7.75

>  <DOPAMINE D3>
7.66

$$$$
515141
  Marvin  02231216192D 0   1.00000     0.00000     0

 34 37  0  0  0  0  0  0  0  0999 V2000
    1.8125    4.2740    0.0000 F   0  0  0  0  0  0  0  0  0
    2.5270    3.8615    0.0000 C   0  0  0  0  0  0  0  0  0
    2.5270    3.0365    0.0000 C   0  0  0  0  0  0  0  0  0
    3.2414    2.6240    0.0000 O   0  0  0  0  0  0  0  0  0
    3.2414    1.7990    0.0000 C   0  0  0  0  0  0  0  0  0
    3.9559    1.3865    0.0000 C   0  0  0  0  0  0  0  0  0
    3.9559    0.5615    0.0000 C   0  0  0  0  0  0  0  0  0
    4.6704    0.1490    0.0000 N   0  0  0  0  0  0  0  0  0
    5.3848    0.5615    0.0000 C   0  0  0  0  0  0  0  0  0
    6.0993    0.1490    0.0000 C   0  0  0  0  0  0  0  0  0
    6.0993   -0.6760    0.0000 N   0  0  0  0  0  0  0  0  0
    5.3848   -1.0885    0.0000 C   0  0  0  0  0  0  0  0  0
    4.6704   -0.6760    0.0000 C   0  0  0  0  0  0  0  0  0
    6.8138   -1.0885    0.0000 C   0  0  0  0  0  0  0  0  0
    7.5282   -0.6760    0.0000 C   0  0  0  0  0  0  0  0  0
    8.2427   -1.0885    0.0000 C   0  0  0  0  0  0  0  0  0
    8.9572   -0.6760    0.0000 C   0  0  0  0  0  0  0  0  0
    9.6717   -1.0885    0.0000 N   0  0  0  0  0  0  0  0  0
   10.3861   -0.6760    0.0000 C   0  0  0  0  0  0  0  0  0
   10.3861    0.1490    0.0000 O   0  0  0  0  0  0  0  0  0
   11.1006   -1.0885    0.0000 C   0  0  0  0  0  0  0  0  0
   11.8151   -0.6760    0.0000 C   0  0  0  0  0  0  0  0  0
   12.5295   -1.0885    0.0000 C   0  0  0  0  0  0  0  0  0
   12.5295   -1.9135    0.0000 C   0  0  0  0  0  0  0  0  0
   13.2440   -2.3260    0.0000 N   0  0  0  0  0  0  0  0  0
   13.9977   -1.9904    0.0000 C   0  0  0  0  0  0  0  0  0
   14.5497   -2.6035    0.0000 C   0  0  0  0  0  0  0  0  0
   14.1372   -3.3180    0.0000 N   0  0  0  0  0  0  0  0  0
   13.3303   -3.1465    0.0000 C   0  0  0  0  0  0  0  0  0
   11.8151   -2.3260    0.0000 C   0  0  0  0  0  0  0  0  0
   11.1006   -1.9135    0.0000 C   0  0  0  0  0  0  0  0  0
    3.2414    0.1490    0.0000 C   0  0  0  0  0  0  0  0  0
    2.5270    0.5615    0.0000 C   0  0  0  0  0  0  0  0  0
    2.5270    1.3865    0.0000 C   0  0  0  0  0  0  0  0  0
  1  2  1  0  0  0  0
  2  3  1  0  0  0  0
  3  4  1  0  0  0  0
  4  5  1  0  0  0  0
  5  6  4  0  0  0  0
  5 34  4  0  0  0  0
  6  7  4  0  0  0  0
  7  8  1  0  0  0  0
  7 32  4  0  0  0  0
  8  9  1  0  0  0  0
  8 13  1  0  0  0  0
  9 10  1  0  0  0  0
 10 11  1  0  0  0  0
 11 12  1  0  0  0  0
 11 14  1  0  0  0  0
 12 13  1  0  0  0  0
 14 15  1  0  0  0  0
 15 16  1  0  0  0  0
 16 17  1  0  0  0  0
 17 18  1  0  0  0  0
 18 19  1  0  0  0  0
 19 20  2  0  0  0  0
 19 21  1  0  0  0  0
 21 22  4  0  0  0  0
 21 31  4  0  0  0  0
 22 23  4  0  0  0  0
 23 24  4  0  0  0  0
 24 25  1  0  0  0  0
 24 30  4  0  0  0  0
 25 26  4  0  0  0  0
 25 29  4  0  0  0  0
 26 27  4  0  0  0  0
 27 28  4  0  0  0  0
 28 29  4  0  0  0  0
 30 31  4  0  0  0  0
 32 33  4  0  0  0  0
 33 34  4  0  0  0  0
M  END
>  <Name_Molregno>
515141

>  <DOPAMINE D2>
6.71

>  <DOPAMINE D3>
7.33

$$$$
515142
  Marvin  02231216192D 0   1.00000     0.00000     0

 32 35  0  0  0  0  0  0  0  0999 V2000
    1.7731    3.8373    0.0000 F   0  0  0  0  0  0  0  0  0
    2.4875    3.4248    0.0000 C   0  0  0  0  0  0  0  0  0
    2.4875    2.5998    0.0000 C   0  0  0  0  0  0  0  0  0
    3.2020    2.1873    0.0000 O   0  0  0  0  0  0  0  0  0
    3.2020    1.3623    0.0000 C   0  0  0  0  0  0  0  0  0
    3.9165    0.9498    0.0000 C   0  0  0  0  0  0  0  0  0
    3.9165    0.1248    0.0000 C   0  0  0  0  0  0  0  0  0
    4.6310   -0.2877    0.0000 N   0  0  0  0  0  0  0  0  0
    5.3454    0.1248    0.0000 C   0  0  0  0  0  0  0  0  0
    6.0599   -0.2877    0.0000 C   0  0  0  0  0  0  0  0  0
    6.0599   -1.1127    0.0000 N   0  0  0  0  0  0  0  0  0
    5.3454   -1.5252    0.0000 C   0  0  0  0  0  0  0  0  0
    4.6310   -1.1127    0.0000 C   0  0  0  0  0  0  0  0  0
    6.7744   -1.5252    0.0000 C   0  0  0  0  0  0  0  0  0
    7.4888   -1.1127    0.0000 C   0  0  0  0  0  0  0  0  0
    8.2033   -1.5252    0.0000 C   0  0  0  0  0  0  0  0  0
    8.9178   -1.1127    0.0000 C   0  0  0  0  0  0  0  0  0
    9.6322   -1.5252    0.0000 N   0  0  0  0  0  0  0  0  0
   10.3467   -1.1127    0.0000 C   0  0  0  0  0  0  0  0  0
   10.3467   -0.2877    0.0000 O   0  0  0  0  0  0  0  0  0
   11.0612   -1.5252    0.0000 C   0  0  0  0  0  0  0  0  0
   11.7757   -1.1127    0.0000 C   0  0  0  0  0  0  0  0  0
   12.4901   -1.5252    0.0000 C   0  0  0  0  0  0  0  0  0
   13.2748   -1.2702    0.0000 N   0  0  0  0  0  0  0  0  0
   13.7597   -1.9377    0.0000 O   0  0  0  0  0  0  0  0  0
   13.2748   -2.6051    0.0000 N   0  0  0  0  0  0  0  0  0
   12.4901   -2.3502    0.0000 C   0  0  0  0  0  0  0  0  0
   11.7757   -2.7627    0.0000 C   0  0  0  0  0  0  0  0  0
   11.0612   -2.3502    0.0000 C   0  0  0  0  0  0  0  0  0
    3.2020   -0.2877    0.0000 C   0  0  0  0  0  0  0  0  0
    2.4875    0.1248    0.0000 C   0  0  0  0  0  0  0  0  0
    2.4875    0.9498    0.0000 C   0  0  0  0  0  0  0  0  0
  1  2  1  0  0  0  0
  2  3  1  0  0  0  0
  3  4  1  0  0  0  0
  4  5  1  0  0  0  0
  5  6  4  0  0  0  0
  5 32  4  0  0  0  0
  6  7  4  0  0  0  0
  7  8  1  0  0  0  0
  7 30  4  0  0  0  0
  8  9  1  0  0  0  0
  8 13  1  0  0  0  0
  9 10  1  0  0  0  0
 10 11  1  0  0  0  0
 11 12  1  0  0  0  0
 11 14  1  0  0  0  0
 12 13  1  0  0  0  0
 14 15  1  0  0  0  0
 15 16  1  0  0  0  0
 16 17  1  0  0  0  0
 17 18  1  0  0  0  0
 18 19  1  0  0  0  0
 19 20  2  0  0  0  0
 19 21  1  0  0  0  0
 21 22  4  0  0  0  0
 21 29  4  0  0  0  0
 22 23  4  0  0  0  0
 23 24  4  0  0  0  0
 23 27  4  0  0  0  0
 24 25  4  0  0  0  0
 25 26  4  0  0  0  0
 26 27  4  0  0  0  0
 27 28  4  0  0  0  0
 28 29  4  0  0  0  0
 30 31  4  0  0  0  0
 31 32  4  0  0  0  0
M  END
>  <Name_Molregno>
515142

>  <DOPAMINE D2>
7

>  <DOPAMINE D3>
6.65

$$$$
515828
  Marvin  02231216192D 0   1.00000     0.00000     0

 33 37  0  0  1  0  0  0  0  0999 V2000
  -11.4593    0.1760    0.0000 S   0  0  0  0  0  0  0  0  0
  -11.9442    0.8434    0.0000 C   0  0  0  0  0  0  0  0  0
  -11.4593    1.5109    0.0000 C   0  0  0  0  0  0  0  0  0
  -10.6747    1.2559    0.0000 N   0  0  0  0  0  0  0  0  0
   -9.8901    1.5109    0.0000 C   0  0  0  0  0  0  0  0  0
   -9.4052    0.8434    0.0000 C   0  0  0  0  0  0  0  0  0
   -9.8901    0.1760    0.0000 N   0  0  0  0  0  0  0  0  0
  -10.6747    0.4309    0.0000 C   0  0  0  0  0  0  0  0  0
   -8.5802    0.8434    0.0000 C   0  0  0  0  0  0  0  0  0
   -8.1677    1.5579    0.0000 C   0  0  0  0  0  0  0  0  0
   -7.3427    1.5579    0.0000 C   0  0  0  0  0  0  0  0  0
   -6.9302    0.8434    0.0000 C   0  0  0  0  0  0  0  0  0
   -6.1052    0.8434    0.0000 O   0  0  0  0  0  0  0  0  0
   -5.6927    0.1290    0.0000 C   0  0  0  0  0  0  0  0  0
   -4.8677    0.1290    0.0000 C   0  0  0  0  0  0  0  0  0
   -4.4552   -0.5855    0.0000 C   0  0  0  0  0  0  0  0  0
   -3.6302   -0.5855    0.0000 C   0  0  0  0  0  0  0  0  0
   -3.2177   -1.3000    0.0000 N   0  0  0  0  0  0  0  0  0
   -2.3927   -1.3000    0.0000 C   0  0  0  0  0  0  0  0  0
   -1.9802   -2.0144    0.0000 C   0  0  0  0  0  0  0  0  0
   -2.3927   -2.7289    0.0000 N   0  0  0  0  0  0  0  0  0
   -3.2177   -2.7289    0.0000 C   0  0  0  0  0  0  0  0  0
   -3.6302   -2.0144    0.0000 C   0  0  0  0  0  0  0  0  0
   -1.9802   -3.4434    0.0000 C   0  0  0  0  0  0  0  0  0
   -1.1552   -3.4434    0.0000 C   0  0  0  0  0  0  0  0  0
   -0.7427   -4.1579    0.0000 C   0  0  0  0  0  0  0  0  0
   -1.1552   -4.8723    0.0000 C   0  0  0  0  0  0  0  0  0
   -1.9802   -4.8723    0.0000 C   0  0  0  0  0  0  0  0  0
   -2.3927   -4.1579    0.0000 C   0  0  0  0  0  0  0  0  0
   -3.2177   -4.1579    0.0000 O   0  0  0  0  0  0  0  0  0
   -3.6302   -4.8723    0.0000 C   0  0  0  0  0  0  0  0  0
   -7.3427    0.1290    0.0000 C   0  0  0  0  0  0  0  0  0
   -8.1677    0.1290    0.0000 C   0  0  0  0  0  0  0  0  0
  1  2  1  0  0  0  0
  1  8  1  0  0  0  0
  2  3  2  0  0  0  0
  3  4  1  0  0  0  0
  4  5  1  0  0  0  0
  4  8  1  0  0  0  0
  5  6  1  0  0  0  0
  6  7  1  0  0  0  0
  6  9  1  0  0  0  0
  7  8  2  0  0  0  0
  9 10  4  0  0  0  0
  9 33  4  0  0  0  0
 10 11  4  0  0  0  0
 11 12  4  0  0  0  0
 12 13  1  0  0  0  0
 12 32  4  0  0  0  0
 13 14  1  0  0  0  0
 14 15  1  0  0  0  0
 15 16  1  0  0  0  0
 16 17  1  0  0  0  0
 17 18  1  0  0  0  0
 18 19  1  0  0  0  0
 18 23  1  0  0  0  0
 19 20  1  0  0  0  0
 20 21  1  0  0  0  0
 21 22  1  0  0  0  0
 21 24  1  0  0  0  0
 22 23  1  0  0  0  0
 24 25  4  0  0  0  0
 24 29  4  0  0  0  0
 25 26  4  0  0  0  0
 26 27  4  0  0  0  0
 27 28  4  0  0  0  0
 28 29  4  0  0  0  0
 29 30  1  0  0  0  0
 30 31  1  0  0  0  0
 32 33  4  0  0  0  0
M  END
>  <Name_Molregno>
515828

>  <DOPAMINE D3>
9.92

$$$$
515829
  Marvin  02231216192D 0   1.00000     0.00000     0

 33 36  0  0  0  0  0  0  0  0999 V2000
   -0.6254   -1.1366    0.0000 F   0  0  0  0  0  0  0  0  0
    0.0890   -1.5491    0.0000 C   0  0  0  0  0  0  0  0  0
    0.8035   -1.1366    0.0000 C   0  0  0  0  0  0  0  0  0
    1.5180   -1.5491    0.0000 C   0  0  0  0  0  0  0  0  0
    2.2325   -1.1366    0.0000 N   0  0  0  0  0  0  0  0  0
    2.2325   -0.3116    0.0000 C   0  0  0  0  0  0  0  0  0
    2.9469    0.1009    0.0000 C   0  0  0  0  0  0  0  0  0
    3.6614   -0.3116    0.0000 N   0  0  0  0  0  0  0  0  0
    3.6614   -1.1366    0.0000 C   0  0  0  0  0  0  0  0  0
    2.9469   -1.5491    0.0000 C   0  0  0  0  0  0  0  0  0
    4.3759    0.1009    0.0000 C   0  0  0  0  0  0  0  0  0
    5.0903   -0.3116    0.0000 C   0  0  0  0  0  0  0  0  0
    5.8048    0.1009    0.0000 C   0  0  0  0  0  0  0  0  0
    6.5193   -0.3116    0.0000 C   0  0  0  0  0  0  0  0  0
    7.2338    0.1009    0.0000 N   0  0  0  0  0  0  0  0  0
    7.9482   -0.3116    0.0000 C   0  0  0  0  0  0  0  0  0
    7.9482   -1.1366    0.0000 O   0  0  0  0  0  0  0  0  0
    8.6627    0.1009    0.0000 C   0  0  0  0  0  0  0  0  0
    8.6627    0.9259    0.0000 C   0  0  0  0  0  0  0  0  0
    9.3772    1.3384    0.0000 C   0  0  0  0  0  0  0  0  0
   10.0916    0.9259    0.0000 C   0  0  0  0  0  0  0  0  0
   10.8061    1.3384    0.0000 N   0  0  0  0  0  0  0  0  0
   10.8923    2.1589    0.0000 C   0  0  0  0  0  0  0  0  0
   11.6993    2.3304    0.0000 C   0  0  0  0  0  0  0  0  0
   12.1118    1.6160    0.0000 N   0  0  0  0  0  0  0  0  0
   11.5598    1.0029    0.0000 C   0  0  0  0  0  0  0  0  0
   10.0916    0.1009    0.0000 C   0  0  0  0  0  0  0  0  0
    9.3772   -0.3116    0.0000 C   0  0  0  0  0  0  0  0  0
    1.5180   -2.3741    0.0000 C   0  0  0  0  0  0  0  0  0
    0.8035   -2.7866    0.0000 C   0  0  0  0  0  0  0  0  0
    0.8035   -3.6116    0.0000 O   0  0  0  0  0  0  0  0  0
    0.0890   -4.0241    0.0000 C   0  0  0  0  0  0  0  0  0
    0.0890   -2.3741    0.0000 C   0  0  0  0  0  0  0  0  0
  1  2  1  0  0  0  0
  2  3  4  0  0  0  0
  2 33  4  0  0  0  0
  3  4  4  0  0  0  0
  4  5  1  0  0  0  0
  4 29  4  0  0  0  0
  5  6  1  0  0  0  0
  5 10  1  0  0  0  0
  6  7  1  0  0  0  0
  7  8  1  0  0  0  0
  8  9  1  0  0  0  0
  8 11  1  0  0  0  0
  9 10  1  0  0  0  0
 11 12  1  0  0  0  0
 12 13  1  0  0  0  0
 13 14  1  0  0  0  0
 14 15  1  0  0  0  0
 15 16  1  0  0  0  0
 16 17  2  0  0  0  0
 16 18  1  0  0  0  0
 18 19  4  0  0  0  0
 18 28  4  0  0  0  0
 19 20  4  0  0  0  0
 20 21  4  0  0  0  0
 21 22  1  0  0  0  0
 21 27  4  0  0  0  0
 22 23  4  0  0  0  0
 22 26  4  0  0  0  0
 23 24  4  0  0  0  0
 24 25  4  0  0  0  0
 25 26  4  0  0  0  0
 27 28  4  0  0  0  0
 29 30  4  0  0  0  0
 30 31  1  0  0  0  0
 30 33  4  0  0  0  0
 31 32  1  0  0  0  0
M  END
>  <Name_Molregno>
515829

>  <DOPAMINE D2>
6.88

>  <DOPAMINE D3>
7.53

$$$$
515830
  Marvin  02231216192D 0   1.00000     0.00000     0

 31 34  0  0  0  0  0  0  0  0999 V2000
   -0.6011   -1.0048    0.0000 F   0  0  0  0  0  0  0  0  0
    0.1134   -1.4173    0.0000 C   0  0  0  0  0  0  0  0  0
    0.8279   -1.0048    0.0000 C   0  0  0  0  0  0  0  0  0
    1.5423   -1.4173    0.0000 C   0  0  0  0  0  0  0  0  0
    2.2568   -1.0048    0.0000 N   0  0  0  0  0  0  0  0  0
    2.2568   -0.1798    0.0000 C   0  0  0  0  0  0  0  0  0
    2.9713    0.2327    0.0000 C   0  0  0  0  0  0  0  0  0
    3.6857   -0.1798    0.0000 N   0  0  0  0  0  0  0  0  0
    3.6857   -1.0048    0.0000 C   0  0  0  0  0  0  0  0  0
    2.9713   -1.4173    0.0000 C   0  0  0  0  0  0  0  0  0
    4.4002    0.2327    0.0000 C   0  0  0  0  0  0  0  0  0
    5.1147   -0.1798    0.0000 C   0  0  0  0  0  0  0  0  0
    5.8291    0.2327    0.0000 C   0  0  0  0  0  0  0  0  0
    6.5436   -0.1798    0.0000 C   0  0  0  0  0  0  0  0  0
    7.2581    0.2327    0.0000 N   0  0  0  0  0  0  0  0  0
    7.9726   -0.1798    0.0000 C   0  0  0  0  0  0  0  0  0
    7.9726   -1.0048    0.0000 O   0  0  0  0  0  0  0  0  0
    8.6870    0.2327    0.0000 C   0  0  0  0  0  0  0  0  0
    8.6870    1.0577    0.0000 C   0  0  0  0  0  0  0  0  0
    9.4015    1.4702    0.0000 C   0  0  0  0  0  0  0  0  0
    9.5730    2.2772    0.0000 N   0  0  0  0  0  0  0  0  0
   10.3935    2.3634    0.0000 O   0  0  0  0  0  0  0  0  0
   10.7291    1.6097    0.0000 N   0  0  0  0  0  0  0  0  0
   10.1160    1.0577    0.0000 C   0  0  0  0  0  0  0  0  0
   10.1160    0.2327    0.0000 C   0  0  0  0  0  0  0  0  0
    9.4015   -0.1798    0.0000 C   0  0  0  0  0  0  0  0  0
    1.5423   -2.2423    0.0000 C   0  0  0  0  0  0  0  0  0
    0.8279   -2.6548    0.0000 C   0  0  0  0  0  0  0  0  0
    0.8279   -3.4798    0.0000 O   0  0  0  0  0  0  0  0  0
    0.1134   -3.8923    0.0000 C   0  0  0  0  0  0  0  0  0
    0.1134   -2.2423    0.0000 C   0  0  0  0  0  0  0  0  0
  1  2  1  0  0  0  0
  2  3  4  0  0  0  0
  2 31  4  0  0  0  0
  3  4  4  0  0  0  0
  4  5  1  0  0  0  0
  4 27  4  0  0  0  0
  5  6  1  0  0  0  0
  5 10  1  0  0  0  0
  6  7  1  0  0  0  0
  7  8  1  0  0  0  0
  8  9  1  0  0  0  0
  8 11  1  0  0  0  0
  9 10  1  0  0  0  0
 11 12  1  0  0  0  0
 12 13  1  0  0  0  0
 13 14  1  0  0  0  0
 14 15  1  0  0  0  0
 15 16  1  0  0  0  0
 16 17  2  0  0  0  0
 16 18  1  0  0  0  0
 18 19  4  0  0  0  0
 18 26  4  0  0  0  0
 19 20  4  0  0  0  0
 20 21  4  0  0  0  0
 20 24  4  0  0  0  0
 21 22  4  0  0  0  0
 22 23  4  0  0  0  0
 23 24  4  0  0  0  0
 24 25  4  0  0  0  0
 25 26  4  0  0  0  0
 27 28  4  0  0  0  0
 28 29  1  0  0  0  0
 28 31  4  0  0  0  0
 29 30  1  0  0  0  0
M  END
>  <Name_Molregno>
515830

>  <DOPAMINE D2>
5.87

>  <DOPAMINE D3>
6.18

$$$$
515852
  Marvin  02231216192D 0   1.00000     0.00000     0

 24 28  0  0  1  0  0  0  0  0999 V2000
    3.5696   -0.3324    0.0000 O   0  0  0  0  0  0  0  0  0
    3.9434   -1.0678    0.0000 C   0  0  0  0  0  0  0  0  0
    3.3594   -1.6506    0.0000 C   0  0  0  0  0  0  0  0  0
    2.6247   -1.2753    0.0000 C   0  0  0  0  0  0  0  0  0
    2.7546   -0.4606    0.0000 C   0  0  0  0  0  0  0  0  0
    2.1140    0.0593    0.0000 C   0  0  0  0  0  0  0  0  0
    1.3435   -0.2355    0.0000 C   0  0  0  0  0  0  0  0  0
    1.2136   -1.0502    0.0000 C   0  0  0  0  0  0  0  0  0
    1.8542   -1.5701    0.0000 C   0  0  0  0  0  0  0  0  0
    1.7243   -2.3848    0.0000 N   0  0  0  0  0  0  0  0  0
    0.9537   -2.6797    0.0000 C   0  0  0  0  0  0  0  0  0
    0.3131   -2.1598    0.0000 N   0  0  0  0  0  0  0  0  0
    0.4431   -1.3451    0.0000 C   0  0  0  0  0  0  0  0  0
   -0.1975   -0.8252    0.0000 N   0  0  0  0  0  0  0  0  0
   -0.9680   -1.1201    0.0000 C   0  0  0  0  0  0  0  0  0
   -1.6086   -0.6002    0.0000 C   0  0  0  0  0  0  0  0  0
   -1.4787    0.2145    0.0000 N   0  0  0  0  0  0  0  0  0
   -0.7082    0.5094    0.0000 C   0  0  0  0  0  0  0  0  0
   -0.0676   -0.0105    0.0000 C   0  0  0  0  0  0  0  0  0
    0.8238   -3.4944    0.0000 N   0  0  0  0  0  0  0  0  0
    3.5721   -2.4477    0.0000 C   0  0  0  0  0  0  0  0  0
    4.3687   -2.6621    0.0000 C   0  0  0  0  0  0  0  0  0
    4.9527   -2.0793    0.0000 C   0  0  0  0  0  0  0  0  0
    4.7400   -1.2822    0.0000 C   0  0  0  0  0  0  0  0  0
  1  2  1  0  0  0  0
  1  5  1  0  0  0  0
  2  3  1  0  0  0  0
  2 24  1  0  0  0  0
  3  4  1  0  0  0  0
  3 21  1  0  0  0  0
  4  5  2  0  0  0  0
  4  9  1  0  0  0  0
  5  6  1  0  0  0  0
  6  7  1  0  0  0  0
  7  8  1  0  0  0  0
  8  9  4  0  0  0  0
  8 13  4  0  0  0  0
  9 10  4  0  0  0  0
 10 11  4  0  0  0  0
 11 12  4  0  0  0  0
 11 20  1  0  0  0  0
 12 13  4  0  0  0  0
 13 14  1  0  0  0  0
 14 15  1  0  0  0  0
 14 19  1  0  0  0  0
 15 16  1  0  0  0  0
 16 17  1  0  0  0  0
 17 18  1  0  0  0  0
 18 19  1  0  0  0  0
 21 22  1  0  0  0  0
 22 23  1  0  0  0  0
 23 24  1  0  0  0  0
M  END
>  <Name_Molregno>
515852

>  <5-HT1A>
9.18

>  <5-HT1B>
7.74

>  <5-HT2A>
8.89

>  <5-HT2C>
8.41

>  <5-HT3>
8.18

>  <5-HT5>
6.96

>  <5-HT6>
7.03

>  <5-HT7>
9.66

>  <Beta-1>
6.37

>  <Beta-2>
9.3

>  <DOPAMINE D1>
9.42

>  <DOPAMINE D2>
8.54

>  <DOPAMINE D3>
8.85

>  <DOPAMINE D5>
9.32

>  <Dopamine transporter>
8.05

>  <HISTAMINE H1>
7.05

>  <HISTAMINE H2>
5.91

>  <HISTAMINE H3>
6.03

>  <HISTAMINE H4>
8.24

>  <Muscarinic acetylcholine receptor M1>
7.6

>  <Muscarinic acetylcholine receptor M2>
7.44

>  <Muscarinic acetylcholine receptor M3>
9.38

>  <Muscarinic acetylcholine receptor M4>
9.18

>  <Muscarinic acetylcholine receptor M5>
9.38

>  <Norepinephrine transporter>
8.17

>  <Serotonin transporter>
8.49

$$$$
518965
  Marvin  02231216192D 0   1.00000     0.00000     0

 22 25  0  0  0  0  0  0  0  0999 V2000
   -2.7343   -1.0269    0.0000 N   0  0  0  0  0  0  0  0  0
   -3.2193   -0.3595    0.0000 C   0  0  0  0  0  0  0  0  0
   -2.7343    0.3079    0.0000 C   0  0  0  0  0  0  0  0  0
   -1.9497    0.0530    0.0000 C   0  0  0  0  0  0  0  0  0
   -1.2353    0.4655    0.0000 C   0  0  0  0  0  0  0  0  0
   -0.5208    0.0530    0.0000 C   0  0  0  0  0  0  0  0  0
   -0.5208   -0.7720    0.0000 C   0  0  0  0  0  0  0  0  0
   -1.2353   -1.1845    0.0000 N   0  0  0  0  0  0  0  0  0
   -1.9497   -0.7720    0.0000 C   0  0  0  0  0  0  0  0  0
   -2.9893    1.0926    0.0000 C   0  0  0  0  0  0  0  0  0
   -2.4373    1.7057    0.0000 N   0  0  0  0  0  0  0  0  0
   -2.6922    2.4903    0.0000 C   0  0  0  0  0  0  0  0  0
   -2.1402    3.1034    0.0000 C   0  0  0  0  0  0  0  0  0
   -1.3332    2.9318    0.0000 N   0  0  0  0  0  0  0  0  0
   -1.0782    2.1472    0.0000 C   0  0  0  0  0  0  0  0  0
   -1.6303    1.5341    0.0000 C   0  0  0  0  0  0  0  0  0
   -0.7812    3.5449    0.0000 C   0  0  0  0  0  0  0  0  0
   -1.0361    4.3296    0.0000 N   0  0  0  0  0  0  0  0  0
   -0.4841    4.9427    0.0000 C   0  0  0  0  0  0  0  0  0
    0.3229    4.7711    0.0000 C   0  0  0  0  0  0  0  0  0
    0.5779    3.9865    0.0000 C   0  0  0  0  0  0  0  0  0
    0.0258    3.3734    0.0000 N   0  0  0  0  0  0  0  0  0
  1  2  4  0  0  0  0
  1  9  4  0  0  0  0
  2  3  4  0  0  0  0
  3  4  4  0  0  0  0
  3 10  1  0  0  0  0
  4  5  4  0  0  0  0
  4  9  4  0  0  0  0
  5  6  4  0  0  0  0
  6  7  4  0  0  0  0
  7  8  4  0  0  0  0
  8  9  4  0  0  0  0
 10 11  1  0  0  0  0
 11 12  1  0  0  0  0
 11 16  1  0  0  0  0
 12 13  1  0  0  0  0
 13 14  1  0  0  0  0
 14 15  1  0  0  0  0
 14 17  1  0  0  0  0
 15 16  1  0  0  0  0
 17 18  4  0  0  0  0
 17 22  4  0  0  0  0
 18 19  4  0  0  0  0
 19 20  4  0  0  0  0
 20 21  4  0  0  0  0
 21 22  4  0  0  0  0
M  STY  1   1 DAT
M  SAL   1  1   1
M  SDT   1 MRV_IMPLICIT_H                                        
M  SDD   1     0.0000    0.0000    DR    ALL  0       0  
M  SED   1 IMPL_H1
M  END
>  <Name_Molregno>
518965

>  <DOPAMINE D2>
5.93

>  <DOPAMINE D3>
5.82

>  <DOPAMINE D4>
7.25

$$$$
518973
  Marvin  02231216192D 0   1.00000     0.00000     0

 39 43  0  0  0  0  0  0  0  0999 V2000
   -4.2205    3.1345    0.0000 O   0  0  0  0  0  0  0  0  0
   -4.9349    3.5470    0.0000 C   0  0  0  0  0  0  0  0  0
   -4.9349    4.3720    0.0000 C   0  0  0  0  0  0  0  0  0
   -5.6494    4.7845    0.0000 C   0  0  0  0  0  0  0  0  0
   -5.6494    5.6095    0.0000 N   0  0  0  0  0  0  0  0  0
   -6.3639    6.0220    0.0000 C   0  0  0  0  0  0  0  0  0
   -6.3639    6.8470    0.0000 C   0  0  0  0  0  0  0  0  0
   -5.6494    7.2595    0.0000 C   0  0  0  0  0  0  0  0  0
   -4.9349    6.8470    0.0000 C   0  0  0  0  0  0  0  0  0
   -4.9349    6.0220    0.0000 C   0  0  0  0  0  0  0  0  0
   -4.2205    2.3095    0.0000 C   0  0  0  0  0  0  0  0  0
   -3.5060    1.8970    0.0000 C   0  0  0  0  0  0  0  0  0
   -3.5060    1.0720    0.0000 C   0  0  0  0  0  0  0  0  0
   -4.2205    0.6595    0.0000 C   0  0  0  0  0  0  0  0  0
   -4.9349    1.0720    0.0000 C   0  0  0  0  0  0  0  0  0
   -4.9349    1.8970    0.0000 C   0  0  0  0  0  0  0  0  0
   -4.2205   -0.1655    0.0000 C   0  0  0  0  0  0  0  0  0
   -3.5060   -0.5780    0.0000 C   0  0  0  0  0  0  0  0  0
   -2.7915   -0.1655    0.0000 O   0  0  0  0  0  0  0  0  0
   -3.5060   -1.4030    0.0000 N   0  0  0  0  0  0  0  0  0
   -2.7915   -1.8155    0.0000 C   0  0  0  0  0  0  0  0  0
   -2.7915   -2.6405    0.0000 C   0  0  0  0  0  0  0  0  0
   -2.0770   -3.0530    0.0000 C   0  0  0  0  0  0  0  0  0
   -2.0770   -3.8780    0.0000 C   0  0  0  0  0  0  0  0  0
   -1.3337   -4.2359    0.0000 C   0  0  0  0  0  0  0  0  0
   -1.1502   -5.0403    0.0000 C   0  0  0  0  0  0  0  0  0
   -1.6645   -5.6853    0.0000 C   0  0  0  0  0  0  0  0  0
   -2.4895   -5.6853    0.0000 C   0  0  0  0  0  0  0  0  0
   -3.0039   -5.0403    0.0000 C   0  0  0  0  0  0  0  0  0
   -2.8203   -4.2359    0.0000 C   0  0  0  0  0  0  0  0  0
   -3.4251   -3.6748    0.0000 C   0  0  0  0  0  0  0  0  0
   -4.2135   -3.9180    0.0000 C   0  0  0  0  0  0  0  0  0
   -4.3970   -4.7223    0.0000 C   0  0  0  0  0  0  0  0  0
   -3.7923   -5.2834    0.0000 C   0  0  0  0  0  0  0  0  0
   -0.3618   -5.2834    0.0000 C   0  0  0  0  0  0  0  0  0
    0.2430   -4.7223    0.0000 C   0  0  0  0  0  0  0  0  0
    0.0594   -3.9180    0.0000 C   0  0  0  0  0  0  0  0  0
   -0.7290   -3.6748    0.0000 C   0  0  0  0  0  0  0  0  0
   -4.2205   -1.8155    0.0000 C   0  0  0  0  0  0  0  0  0
  1  2  1  0  0  0  0
  1 11  1  0  0  0  0
  2  3  1  0  0  0  0
  3  4  1  0  0  0  0
  4  5  1  0  0  0  0
  5  6  1  0  0  0  0
  5 10  1  0  0  0  0
  6  7  1  0  0  0  0
  7  8  1  0  0  0  0
  8  9  1  0  0  0  0
  9 10  1  0  0  0  0
 11 12  4  0  0  0  0
 11 16  4  0  0  0  0
 12 13  4  0  0  0  0
 13 14  4  0  0  0  0
 14 15  4  0  0  0  0
 14 17  1  0  0  0  0
 15 16  4  0  0  0  0
 17 18  1  0  0  0  0
 18 19  2  0  0  0  0
 18 20  1  0  0  0  0
 20 21  1  0  0  0  0
 20 39  1  0  0  0  0
 21 22  1  0  0  0  0
 22 23  1  0  0  0  0
 23 24  2  0  0  0  0
 24 25  1  0  0  0  0
 24 30  1  0  0  0  0
 25 26  4  0  0  0  0
 25 38  4  0  0  0  0
 26 27  1  0  0  0  0
 26 35  4  0  0  0  0
 27 28  1  0  0  0  0
 28 29  1  0  0  0  0
 29 30  4  0  0  0  0
 29 34  4  0  0  0  0
 30 31  4  0  0  0  0
 31 32  4  0  0  0  0
 32 33  4  0  0  0  0
 33 34  4  0  0  0  0
 35 36  4  0  0  0  0
 36 37  4  0  0  0  0
 37 38  4  0  0  0  0
M  END
>  <Name_Molregno>
518973

>  <DOPAMINE D1>
6.06

>  <DOPAMINE D2>
6.04

>  <DOPAMINE D3>
6.49

>  <DOPAMINE D5>
6

>  <HISTAMINE H1>
6.25

>  <HISTAMINE H3>
8.31

$$$$
519022
  Marvin  02231216192D 0   1.00000     0.00000     0

 27 31  0  0  1  0  0  0  0  0999 V2000
    9.1761   -0.7428    0.0000 Cl  0  0  0  0  0  0  0  0  0
    8.3535   -0.8053    0.0000 C   0  0  0  0  0  0  0  0  0
    7.9963   -1.5490    0.0000 C   0  0  0  0  0  0  0  0  0
    7.1737   -1.6116    0.0000 C   0  0  0  0  0  0  0  0  0
    6.7082   -0.9304    0.0000 C   0  0  0  0  0  0  0  0  0
    7.0654   -0.1867    0.0000 C   0  0  0  0  0  0  0  0  0
    7.8880   -0.1242    0.0000 C   0  0  0  0  0  0  0  0  0
    5.8856   -0.9929    0.0000 C   0  0  0  0  0  0  0  0  0
    5.7129   -1.7996    0.0000 O   0  0  0  0  0  0  0  0  0
    5.5915   -0.2179    0.0000 C   0  0  0  0  0  0  0  0  0
    4.6833   -0.4133    0.0000 C   0  0  0  0  0  0  0  0  0
    4.0480   -0.0905    0.0000 N   0  0  0  0  0  0  0  0  0
    4.3428   -0.8610    0.0000 C   0  0  0  0  0  0  0  0  0
    5.2961   -0.6725    0.0000 C   0  0  0  0  0  0  0  0  0
    3.9710   -1.6607    0.0000 C   0  0  0  0  0  0  0  0  0
    4.5064   -1.1706    0.0000 C   0  0  0  0  0  0  0  0  0
    3.4960    0.5226    0.0000 C   0  0  0  0  0  0  0  0  0
    3.7509    1.3072    0.0000 C   0  0  0  0  0  0  0  0  0
    3.1989    1.9203    0.0000 C   0  0  0  0  0  0  0  0  0
    3.3704    2.7273    0.0000 C   0  0  0  0  0  0  0  0  0
    2.6560    3.1398    0.0000 C   0  0  0  0  0  0  0  0  0
    2.0429    2.5878    0.0000 N   0  0  0  0  0  0  0  0  0
    2.3784    1.8341    0.0000 C   0  0  0  0  0  0  0  0  0
    2.6560    3.9648    0.0000 C   0  0  0  0  0  0  0  0  0
    3.3704    4.3773    0.0000 C   0  0  0  0  0  0  0  0  0
    4.0849    3.9648    0.0000 C   0  0  0  0  0  0  0  0  0
    4.0849    3.1398    0.0000 C   0  0  0  0  0  0  0  0  0
  1  2  1  0  0  0  0
  2  3  4  0  0  0  0
  2  7  4  0  0  0  0
  3  4  4  0  0  0  0
  4  5  4  0  0  0  0
  5  6  4  0  0  0  0
  5  8  1  0  0  0  0
  6  7  4  0  0  0  0
  8  9  1  0  0  0  0
  8 10  1  0  0  0  0
  8 14  1  0  0  0  0
 10 11  1  0  0  0  0
 11 12  1  0  0  0  0
 11 16  1  0  0  0  0
 12 13  1  0  0  0  0
 12 17  1  0  0  0  0
 13 14  1  0  0  0  0
 13 15  1  0  0  0  0
 15 16  1  0  0  0  0
 17 18  1  0  0  0  0
 18 19  1  0  0  0  0
 19 20  4  0  0  0  0
 19 23  4  0  0  0  0
 20 21  4  0  0  0  0
 20 27  4  0  0  0  0
 21 22  4  0  0  0  0
 21 24  4  0  0  0  0
 22 23  4  0  0  0  0
 24 25  4  0  0  0  0
 25 26  4  0  0  0  0
 26 27  4  0  0  0  0
M  STY  1   1 DAT
M  SAL   1  1  22
M  SDT   1 MRV_IMPLICIT_H                                        
M  SDD   1     0.0000    0.0000    DR    ALL  0       0  
M  SED   1 IMPL_H1
M  END
>  <Name_Molregno>
519022

>  <DOPAMINE D2>
7.28

>  <DOPAMINE D3>
7.74

>  <DOPAMINE D4>
6.56

$$$$
519023
  Marvin  02231216192D 0   1.00000     0.00000     0

 23 26  0  0  1  0  0  0  0  0999 V2000
    0.1453   -0.8004    0.0000 Cl  0  0  0  0  0  0  0  0  0
    0.9657   -0.7141    0.0000 C   0  0  0  0  0  0  0  0  0
    1.3013    0.0396    0.0000 C   0  0  0  0  0  0  0  0  0
    2.1218    0.1258    0.0000 C   0  0  0  0  0  0  0  0  0
    2.6067   -0.5416    0.0000 C   0  0  0  0  0  0  0  0  0
    2.2712   -1.2953    0.0000 C   0  0  0  0  0  0  0  0  0
    1.4507   -1.3816    0.0000 C   0  0  0  0  0  0  0  0  0
    3.4272   -0.4554    0.0000 C   0  0  0  0  0  0  0  0  0
    3.4272   -1.2804    0.0000 O   0  0  0  0  0  0  0  0  0
    3.2557    0.3516    0.0000 C   0  0  0  0  0  0  0  0  0
    3.9701    0.7641    0.0000 C   0  0  0  0  0  0  0  0  0
    4.5832    0.2120    0.0000 N   0  0  0  0  0  0  0  0  0
    4.2477   -0.5416    0.0000 C   0  0  0  0  0  0  0  0  0
    5.3902    0.3836    0.0000 C   0  0  0  0  0  0  0  0  0
    5.6451    1.1682    0.0000 C   0  0  0  0  0  0  0  0  0
    6.4298    1.4231    0.0000 C   0  0  0  0  0  0  0  0  0
    6.4298    2.2481    0.0000 C   0  0  0  0  0  0  0  0  0
    5.6451    2.5031    0.0000 N   0  0  0  0  0  0  0  0  0
    5.1602    1.8356    0.0000 C   0  0  0  0  0  0  0  0  0
    7.1442    2.6606    0.0000 C   0  0  0  0  0  0  0  0  0
    7.8587    2.2481    0.0000 C   0  0  0  0  0  0  0  0  0
    7.8587    1.4231    0.0000 C   0  0  0  0  0  0  0  0  0
    7.1442    1.0106    0.0000 C   0  0  0  0  0  0  0  0  0
  1  2  1  0  0  0  0
  2  3  4  0  0  0  0
  2  7  4  0  0  0  0
  3  4  4  0  0  0  0
  4  5  4  0  0  0  0
  5  6  4  0  0  0  0
  5  8  1  0  0  0  0
  6  7  4  0  0  0  0
  8  9  1  0  0  0  0
  8 10  1  0  0  0  0
  8 13  1  0  0  0  0
 10 11  1  0  0  0  0
 11 12  1  0  0  0  0
 12 13  1  0  0  0  0
 12 14  1  0  0  0  0
 14 15  1  0  0  0  0
 15 16  4  0  0  0  0
 15 19  4  0  0  0  0
 16 17  4  0  0  0  0
 16 23  4  0  0  0  0
 17 18  4  0  0  0  0
 17 20  4  0  0  0  0
 18 19  4  0  0  0  0
 20 21  4  0  0  0  0
 21 22  4  0  0  0  0
 22 23  4  0  0  0  0
M  STY  1   1 DAT
M  SAL   1  1  18
M  SDT   1 MRV_IMPLICIT_H                                        
M  SDD   1     0.0000    0.0000    DR    ALL  0       0  
M  SED   1 IMPL_H1
M  END
>  <Name_Molregno>
519023

>  <DOPAMINE D3>
5.54

>  <DOPAMINE D4>
6.09

$$$$
519024
  Marvin  02231216192D 0   1.00000     0.00000     0

 24 27  0  0  1  0  0  0  0  0999 V2000
    2.5973   -4.7849    0.0000 Cl  0  0  0  0  0  0  0  0  0
    2.9329   -4.0313    0.0000 C   0  0  0  0  0  0  0  0  0
    2.4480   -3.3638    0.0000 C   0  0  0  0  0  0  0  0  0
    2.7835   -2.6101    0.0000 C   0  0  0  0  0  0  0  0  0
    3.6040   -2.5239    0.0000 C   0  0  0  0  0  0  0  0  0
    4.0889   -3.1913    0.0000 C   0  0  0  0  0  0  0  0  0
    3.7534   -3.9450    0.0000 C   0  0  0  0  0  0  0  0  0
    3.9396   -1.7702    0.0000 C   0  0  0  0  0  0  0  0  0
    4.6540   -2.1827    0.0000 O   0  0  0  0  0  0  0  0  0
    3.1549   -1.5153    0.0000 C   0  0  0  0  0  0  0  0  0
    3.1549   -0.6903    0.0000 C   0  0  0  0  0  0  0  0  0
    3.9396   -0.4354    0.0000 N   0  0  0  0  0  0  0  0  0
    4.4245   -1.1028    0.0000 C   0  0  0  0  0  0  0  0  0
    4.1945    0.3493    0.0000 C   0  0  0  0  0  0  0  0  0
    5.0015    0.5208    0.0000 C   0  0  0  0  0  0  0  0  0
    5.2564    1.3054    0.0000 C   0  0  0  0  0  0  0  0  0
    6.0410    1.5604    0.0000 C   0  0  0  0  0  0  0  0  0
    6.0410    2.3854    0.0000 C   0  0  0  0  0  0  0  0  0
    5.2564    2.6403    0.0000 N   0  0  0  0  0  0  0  0  0
    4.7715    1.9729    0.0000 C   0  0  0  0  0  0  0  0  0
    6.7555    2.7979    0.0000 C   0  0  0  0  0  0  0  0  0
    7.4700    2.3854    0.0000 C   0  0  0  0  0  0  0  0  0
    7.4700    1.5604    0.0000 C   0  0  0  0  0  0  0  0  0
    6.7555    1.1479    0.0000 C   0  0  0  0  0  0  0  0  0
  1  2  1  0  0  0  0
  2  3  4  0  0  0  0
  2  7  4  0  0  0  0
  3  4  4  0  0  0  0
  4  5  4  0  0  0  0
  5  6  4  0  0  0  0
  5  8  1  0  0  0  0
  6  7  4  0  0  0  0
  8  9  1  0  0  0  0
  8 10  1  0  0  0  0
  8 13  1  0  0  0  0
 10 11  1  0  0  0  0
 11 12  1  0  0  0  0
 12 13  1  0  0  0  0
 12 14  1  0  0  0  0
 14 15  1  0  0  0  0
 15 16  1  0  0  0  0
 16 17  4  0  0  0  0
 16 20  4  0  0  0  0
 17 18  4  0  0  0  0
 17 24  4  0  0  0  0
 18 19  4  0  0  0  0
 18 21  4  0  0  0  0
 19 20  4  0  0  0  0
 21 22  4  0  0  0  0
 22 23  4  0  0  0  0
 23 24  4  0  0  0  0
M  STY  1   1 DAT
M  SAL   1  1  19
M  SDT   1 MRV_IMPLICIT_H                                        
M  SDD   1     0.0000    0.0000    DR    ALL  0       0  
M  SED   1 IMPL_H1
M  END
>  <Name_Molregno>
519024

>  <DOPAMINE D3>
5.51

$$$$
519025
  Marvin  02231216192D 0   1.00000     0.00000     0

 24 27  0  0  0  0  0  0  0  0999 V2000
    0.1563    0.0146    0.0000 Cl  0  0  0  0  0  0  0  0  0
    0.9578    0.2102    0.0000 C   0  0  0  0  0  0  0  0  0
    1.1892    1.0021    0.0000 C   0  0  0  0  0  0  0  0  0
    1.9907    1.1977    0.0000 C   0  0  0  0  0  0  0  0  0
    2.5608    0.6014    0.0000 C   0  0  0  0  0  0  0  0  0
    3.3623    0.7970    0.0000 N   0  0  0  0  0  0  0  0  0
    3.5338    1.6039    0.0000 C   0  0  0  0  0  0  0  0  0
    4.2716    1.9730    0.0000 C   0  0  0  0  0  0  0  0  0
    5.0202    1.6262    0.0000 C   0  0  0  0  0  0  0  0  0
    5.2158    0.8247    0.0000 N   0  0  0  0  0  0  0  0  0
    4.7111    0.1721    0.0000 C   0  0  0  0  0  0  0  0  0
    3.8862    0.1597    0.0000 C   0  0  0  0  0  0  0  0  0
    6.0228    0.6532    0.0000 C   0  0  0  0  0  0  0  0  0
    6.2777   -0.1314    0.0000 C   0  0  0  0  0  0  0  0  0
    7.0623   -0.3864    0.0000 C   0  0  0  0  0  0  0  0  0
    7.7768    0.0261    0.0000 C   0  0  0  0  0  0  0  0  0
    8.4913   -0.3864    0.0000 C   0  0  0  0  0  0  0  0  0
    8.4913   -1.2114    0.0000 C   0  0  0  0  0  0  0  0  0
    7.7768   -1.6239    0.0000 N   0  0  0  0  0  0  0  0  0
    7.0623   -1.2114    0.0000 C   0  0  0  0  0  0  0  0  0
    6.2777   -1.4663    0.0000 N   0  0  0  0  0  0  0  0  0
    5.7928   -0.7989    0.0000 C   0  0  0  0  0  0  0  0  0
    2.3294   -0.1905    0.0000 C   0  0  0  0  0  0  0  0  0
    1.5279   -0.3861    0.0000 C   0  0  0  0  0  0  0  0  0
  1  2  1  0  0  0  0
  2  3  4  0  0  0  0
  2 24  4  0  0  0  0
  3  4  4  0  0  0  0
  4  5  4  0  0  0  0
  5  6  1  0  0  0  0
  5 23  4  0  0  0  0
  6  7  1  0  0  0  0
  6 12  1  0  0  0  0
  7  8  1  0  0  0  0
  8  9  1  0  0  0  0
  9 10  1  0  0  0  0
 10 11  1  0  0  0  0
 10 13  1  0  0  0  0
 11 12  1  0  0  0  0
 13 14  1  0  0  0  0
 14 15  4  0  0  0  0
 14 22  4  0  0  0  0
 15 16  4  0  0  0  0
 15 20  4  0  0  0  0
 16 17  4  0  0  0  0
 17 18  4  0  0  0  0
 18 19  4  0  0  0  0
 19 20  4  0  0  0  0
 20 21  4  0  0  0  0
 21 22  4  0  0  0  0
 23 24  4  0  0  0  0
M  STY  1   1 DAT
M  SAL   1  1  21
M  SDT   1 MRV_IMPLICIT_H                                        
M  SDD   1     0.0000    0.0000    DR    ALL  0       0  
M  SED   1 IMPL_H1
M  END
>  <Name_Molregno>
519025

>  <DOPAMINE D2>
6.01

>  <DOPAMINE D3>
6.43

>  <DOPAMINE D4>
7.73

$$$$
519088
  Marvin  02231216192D 0   1.00000     0.00000     0

 26 29  0  0  1  0  0  0  0  0999 V2000
    9.1531   -1.8689    0.0000 Cl  0  0  0  0  0  0  0  0  0
    8.3339   -1.7707    0.0000 C   0  0  0  0  0  0  0  0  0
    7.8393   -2.4309    0.0000 C   0  0  0  0  0  0  0  0  0
    7.0201   -2.3327    0.0000 C   0  0  0  0  0  0  0  0  0
    6.6957   -1.5742    0.0000 C   0  0  0  0  0  0  0  0  0
    7.1903   -0.9139    0.0000 C   0  0  0  0  0  0  0  0  0
    8.0094   -1.0122    0.0000 C   0  0  0  0  0  0  0  0  0
    5.8765   -1.4760    0.0000 C   0  0  0  0  0  0  0  0  0
    5.5505   -2.2338    0.0000 O   0  0  0  0  0  0  0  0  0
    5.7383   -0.6586    0.0000 C   0  0  0  0  0  0  0  0  0
    4.8095   -0.6741    0.0000 C   0  0  0  0  0  0  0  0  0
    4.2489   -0.2342    0.0000 N   0  0  0  0  0  0  0  0  0
    4.3886   -1.0473    0.0000 C   0  0  0  0  0  0  0  0  0
    5.3603   -1.0473    0.0000 C   0  0  0  0  0  0  0  0  0
    3.8687   -1.7596    0.0000 C   0  0  0  0  0  0  0  0  0
    4.4890   -1.3827    0.0000 C   0  0  0  0  0  0  0  0  0
    3.8263    0.4744    0.0000 C   0  0  0  0  0  0  0  0  0
    3.0014    0.4627    0.0000 C   0  0  0  0  0  0  0  0  0
    2.5991   -0.2576    0.0000 O   0  0  0  0  0  0  0  0  0
    2.5788    1.1712    0.0000 C   0  0  0  0  0  0  0  0  0
    1.7539    1.1595    0.0000 C   0  0  0  0  0  0  0  0  0
    1.3313    1.8680    0.0000 C   0  0  0  0  0  0  0  0  0
    1.7336    2.5883    0.0000 C   0  0  0  0  0  0  0  0  0
    1.3110    3.2968    0.0000 F   0  0  0  0  0  0  0  0  0
    2.5585    2.6000    0.0000 C   0  0  0  0  0  0  0  0  0
    2.9811    1.8915    0.0000 C   0  0  0  0  0  0  0  0  0
  1  2  1  0  0  0  0
  2  3  4  0  0  0  0
  2  7  4  0  0  0  0
  3  4  4  0  0  0  0
  4  5  4  0  0  0  0
  5  6  4  0  0  0  0
  5  8  1  0  0  0  0
  6  7  4  0  0  0  0
  8  9  1  0  0  0  0
  8 10  1  0  0  0  0
  8 14  1  0  0  0  0
 10 11  1  0  0  0  0
 11 12  1  0  0  0  0
 11 16  1  0  0  0  0
 12 13  1  0  0  0  0
 12 17  1  0  0  0  0
 13 14  1  0  0  0  0
 13 15  1  0  0  0  0
 15 16  1  0  0  0  0
 17 18  1  0  0  0  0
 18 19  2  0  0  0  0
 18 20  1  0  0  0  0
 20 21  4  0  0  0  0
 20 26  4  0  0  0  0
 21 22  4  0  0  0  0
 22 23  4  0  0  0  0
 23 24  1  0  0  0  0
 23 25  4  0  0  0  0
 25 26  4  0  0  0  0
M  END
>  <Name_Molregno>
519088

>  <DOPAMINE D2>
5.91

>  <DOPAMINE D3>
5

>  <DOPAMINE D4>
6.1

$$$$
519089
  Marvin  02231216192D 0   1.00000     0.00000     0

 24 27  0  0  1  0  0  0  0  0999 V2000
    7.8864   -1.3354    0.0000 Cl  0  0  0  0  0  0  0  0  0
    7.0673   -1.2372    0.0000 C   0  0  0  0  0  0  0  0  0
    6.5726   -1.8974    0.0000 C   0  0  0  0  0  0  0  0  0
    5.7535   -1.7992    0.0000 C   0  0  0  0  0  0  0  0  0
    5.4290   -1.0407    0.0000 C   0  0  0  0  0  0  0  0  0
    5.9237   -0.3804    0.0000 C   0  0  0  0  0  0  0  0  0
    6.7428   -0.4787    0.0000 C   0  0  0  0  0  0  0  0  0
    4.6099   -0.9425    0.0000 C   0  0  0  0  0  0  0  0  0
    4.2839   -1.7003    0.0000 O   0  0  0  0  0  0  0  0  0
    4.4717   -0.1251    0.0000 C   0  0  0  0  0  0  0  0  0
    3.5429   -0.1406    0.0000 C   0  0  0  0  0  0  0  0  0
    2.9823    0.2993    0.0000 N   0  0  0  0  0  0  0  0  0
    3.1220   -0.5138    0.0000 C   0  0  0  0  0  0  0  0  0
    4.0937   -0.5138    0.0000 C   0  0  0  0  0  0  0  0  0
    2.6021   -1.2261    0.0000 C   0  0  0  0  0  0  0  0  0
    3.2224   -0.8492    0.0000 C   0  0  0  0  0  0  0  0  0
    2.5597    1.0079    0.0000 C   0  0  0  0  0  0  0  0  0
    2.9620    1.7281    0.0000 C   0  0  0  0  0  0  0  0  0
    2.5394    2.4367    0.0000 C   0  0  0  0  0  0  0  0  0
    2.9417    3.1569    0.0000 C   0  0  0  0  0  0  0  0  0
    3.7666    3.1687    0.0000 C   0  0  0  0  0  0  0  0  0
    4.1689    3.8889    0.0000 F   0  0  0  0  0  0  0  0  0
    4.1892    2.4601    0.0000 C   0  0  0  0  0  0  0  0  0
    3.7869    1.7399    0.0000 C   0  0  0  0  0  0  0  0  0
  1  2  1  0  0  0  0
  2  3  4  0  0  0  0
  2  7  4  0  0  0  0
  3  4  4  0  0  0  0
  4  5  4  0  0  0  0
  5  6  4  0  0  0  0
  5  8  1  0  0  0  0
  6  7  4  0  0  0  0
  8  9  1  0  0  0  0
  8 10  1  0  0  0  0
  8 14  1  0  0  0  0
 10 11  1  0  0  0  0
 11 12  1  0  0  0  0
 11 16  1  0  0  0  0
 12 13  1  0  0  0  0
 12 17  1  0  0  0  0
 13 14  1  0  0  0  0
 13 15  1  0  0  0  0
 15 16  1  0  0  0  0
 17 18  1  0  0  0  0
 18 19  4  0  0  0  0
 18 24  4  0  0  0  0
 19 20  4  0  0  0  0
 20 21  4  0  0  0  0
 21 22  1  0  0  0  0
 21 23  4  0  0  0  0
 23 24  4  0  0  0  0
M  END
>  <Name_Molregno>
519089

>  <DOPAMINE D2>
5.98

>  <DOPAMINE D3>
6.76

>  <DOPAMINE D4>
5.99

$$$$
519090
  Marvin  02231216192D 0   1.00000     0.00000     0

 26 30  0  0  1  0  0  0  0  0999 V2000
    7.9627   -3.0682    0.0000 Cl  0  0  0  0  0  0  0  0  0
    7.1858   -2.7908    0.0000 C   0  0  0  0  0  0  0  0  0
    6.5570   -3.3249    0.0000 C   0  0  0  0  0  0  0  0  0
    5.7801   -3.0474    0.0000 C   0  0  0  0  0  0  0  0  0
    5.6319   -2.2358    0.0000 C   0  0  0  0  0  0  0  0  0
    6.2606   -1.7017    0.0000 C   0  0  0  0  0  0  0  0  0
    7.0376   -1.9792    0.0000 C   0  0  0  0  0  0  0  0  0
    4.8549   -1.9584    0.0000 C   0  0  0  0  0  0  0  0  0
    4.3690   -2.6251    0.0000 O   0  0  0  0  0  0  0  0  0
    4.9015   -1.1307    0.0000 C   0  0  0  0  0  0  0  0  0
    3.9924   -0.9398    0.0000 C   0  0  0  0  0  0  0  0  0
    3.5433   -0.3865    0.0000 N   0  0  0  0  0  0  0  0  0
    3.4992   -1.2104    0.0000 C   0  0  0  0  0  0  0  0  0
    4.4467   -1.4259    0.0000 C   0  0  0  0  0  0  0  0  0
    2.8342   -1.7896    0.0000 C   0  0  0  0  0  0  0  0  0
    3.5227   -1.5597    0.0000 C   0  0  0  0  0  0  0  0  0
    3.2883    0.3981    0.0000 C   0  0  0  0  0  0  0  0  0
    3.8404    1.0112    0.0000 C   0  0  0  0  0  0  0  0  0
    3.6689    1.8182    0.0000 C   0  0  0  0  0  0  0  0  0
    2.9544    2.2307    0.0000 C   0  0  0  0  0  0  0  0  0
    2.9544    3.0557    0.0000 C   0  0  0  0  0  0  0  0  0
    3.6689    3.4682    0.0000 C   0  0  0  0  0  0  0  0  0
    4.3833    3.0557    0.0000 N   0  0  0  0  0  0  0  0  0
    4.3833    2.2307    0.0000 C   0  0  0  0  0  0  0  0  0
    4.9964    1.6786    0.0000 N   0  0  0  0  0  0  0  0  0
    4.6609    0.9250    0.0000 C   0  0  0  0  0  0  0  0  0
  1  2  1  0  0  0  0
  2  3  4  0  0  0  0
  2  7  4  0  0  0  0
  3  4  4  0  0  0  0
  4  5  4  0  0  0  0
  5  6  4  0  0  0  0
  5  8  1  0  0  0  0
  6  7  4  0  0  0  0
  8  9  1  0  0  0  0
  8 10  1  0  0  0  0
  8 14  1  0  0  0  0
 10 11  1  0  0  0  0
 11 12  1  0  0  0  0
 11 16  1  0  0  0  0
 12 13  1  0  0  0  0
 12 17  1  0  0  0  0
 13 14  1  0  0  0  0
 13 15  1  0  0  0  0
 15 16  1  0  0  0  0
 17 18  1  0  0  0  0
 18 19  4  0  0  0  0
 18 26  4  0  0  0  0
 19 20  4  0  0  0  0
 19 24  4  0  0  0  0
 20 21  4  0  0  0  0
 21 22  4  0  0  0  0
 22 23  4  0  0  0  0
 23 24  4  0  0  0  0
 24 25  4  0  0  0  0
 25 26  4  0  0  0  0
M  STY  1   1 DAT
M  SAL   1  1  25
M  SDT   1 MRV_IMPLICIT_H                                        
M  SDD   1     0.0000    0.0000    DR    ALL  0       0  
M  SED   1 IMPL_H1
M  END
>  <Name_Molregno>
519090

>  <DOPAMINE D2>
6.23

>  <DOPAMINE D3>
6.89

>  <DOPAMINE D4>
5.1

$$$$
519092
  Marvin  02231216192D 0   1.00000     0.00000     0

 26 30  0  0  1  0  0  0  0  0999 V2000
    2.9420   -4.6948    0.0000 Cl  0  0  0  0  0  0  0  0  0
    3.1480   -3.8960    0.0000 C   0  0  0  0  0  0  0  0  0
    2.5592   -3.3181    0.0000 C   0  0  0  0  0  0  0  0  0
    2.7652   -2.5192    0.0000 C   0  0  0  0  0  0  0  0  0
    3.5600   -2.2982    0.0000 C   0  0  0  0  0  0  0  0  0
    3.7661   -1.4994    0.0000 N   0  0  0  0  0  0  0  0  0
    4.5960   -1.3315    0.0000 C   0  0  0  0  0  0  0  0  0
    5.0417   -0.8345    0.0000 C   0  0  0  0  0  0  0  0  0
    4.4983    0.2994    0.0000 N   0  0  0  0  0  0  0  0  0
    4.6442   -0.4961    0.0000 C   0  0  0  0  0  0  0  0  0
    5.5532   -0.4692    0.0000 C   0  0  0  0  0  0  0  0  0
    5.9654   -0.8617    0.0000 C   0  0  0  0  0  0  0  0  0
    3.8203   -0.6659    0.0000 C   0  0  0  0  0  0  0  0  0
    3.3726   -1.1651    0.0000 C   0  0  0  0  0  0  0  0  0
    4.2434    1.0840    0.0000 C   0  0  0  0  0  0  0  0  0
    4.7954    1.6971    0.0000 C   0  0  0  0  0  0  0  0  0
    4.6239    2.5041    0.0000 C   0  0  0  0  0  0  0  0  0
    3.9094    2.9166    0.0000 C   0  0  0  0  0  0  0  0  0
    3.9094    3.7416    0.0000 C   0  0  0  0  0  0  0  0  0
    4.6239    4.1541    0.0000 C   0  0  0  0  0  0  0  0  0
    5.3383    3.7416    0.0000 N   0  0  0  0  0  0  0  0  0
    5.3383    2.9166    0.0000 C   0  0  0  0  0  0  0  0  0
    5.9514    2.3646    0.0000 N   0  0  0  0  0  0  0  0  0
    5.6159    1.6109    0.0000 C   0  0  0  0  0  0  0  0  0
    4.1489   -2.8761    0.0000 C   0  0  0  0  0  0  0  0  0
    3.9428   -3.6750    0.0000 C   0  0  0  0  0  0  0  0  0
  1  2  1  0  0  0  0
  2  3  4  0  0  0  0
  2 26  4  0  0  0  0
  3  4  4  0  0  0  0
  4  5  4  0  0  0  0
  5  6  1  0  0  0  0
  5 25  4  0  0  0  0
  6  7  1  0  0  0  0
  6 14  1  0  0  0  0
  7  8  1  0  0  0  0
  8  9  1  0  0  0  0
  8 12  1  0  0  0  0
  9 10  1  0  0  0  0
  9 15  1  0  0  0  0
 10 11  1  0  0  0  0
 10 13  1  0  0  0  0
 11 12  1  0  0  0  0
 13 14  1  0  0  0  0
 15 16  1  0  0  0  0
 16 17  4  0  0  0  0
 16 24  4  0  0  0  0
 17 18  4  0  0  0  0
 17 22  4  0  0  0  0
 18 19  4  0  0  0  0
 19 20  4  0  0  0  0
 20 21  4  0  0  0  0
 21 22  4  0  0  0  0
 22 23  4  0  0  0  0
 23 24  4  0  0  0  0
 25 26  4  0  0  0  0
M  STY  1   1 DAT
M  SAL   1  1  23
M  SDT   1 MRV_IMPLICIT_H                                        
M  SDD   1     0.0000    0.0000    DR    ALL  0       0  
M  SED   1 IMPL_H1
M  END
>  <Name_Molregno>
519092

>  <DOPAMINE D2>
5

>  <DOPAMINE D3>
6.47

>  <DOPAMINE D4>
6.23

$$$$
519093
  Marvin  02231216192D 0   1.00000     0.00000     0

 26 29  0  0  1  0  0  0  0  0999 V2000
    0.7444   -2.0912    0.0000 Cl  0  0  0  0  0  0  0  0  0
    1.3390   -1.5193    0.0000 C   0  0  0  0  0  0  0  0  0
    1.1411   -0.7184    0.0000 C   0  0  0  0  0  0  0  0  0
    1.7357   -0.1465    0.0000 C   0  0  0  0  0  0  0  0  0
    2.5283   -0.3755    0.0000 C   0  0  0  0  0  0  0  0  0
    3.1229    0.1964    0.0000 N   0  0  0  0  0  0  0  0  0
    3.8984    0.5867    0.0000 C   0  0  0  0  0  0  0  0  0
    4.6289    0.2164    0.0000 N   0  0  0  0  0  0  0  0  0
    4.9240    0.8418    0.0000 C   0  0  0  0  0  0  0  0  0
    4.1285    1.3071    0.0000 C   0  0  0  0  0  0  0  0  0
    3.9685    2.1225    0.0000 C   0  0  0  0  0  0  0  0  0
    3.4882    0.8569    0.0000 C   0  0  0  0  0  0  0  0  0
    4.8965   -0.5640    0.0000 C   0  0  0  0  0  0  0  0  0
    5.7061   -0.7224    0.0000 C   0  0  0  0  0  0  0  0  0
    5.9738   -1.5028    0.0000 C   0  0  0  0  0  0  0  0  0
    6.7834   -1.6612    0.0000 C   0  0  0  0  0  0  0  0  0
    7.3254   -1.0392    0.0000 O   0  0  0  0  0  0  0  0  0
    7.0510   -2.4416    0.0000 C   0  0  0  0  0  0  0  0  0
    7.8607   -2.6000    0.0000 C   0  0  0  0  0  0  0  0  0
    8.1283   -3.3804    0.0000 C   0  0  0  0  0  0  0  0  0
    7.5863   -4.0023    0.0000 C   0  0  0  0  0  0  0  0  0
    7.8539   -4.7827    0.0000 F   0  0  0  0  0  0  0  0  0
    6.7766   -3.8439    0.0000 C   0  0  0  0  0  0  0  0  0
    6.5090   -3.0635    0.0000 C   0  0  0  0  0  0  0  0  0
    2.7262   -1.1764    0.0000 C   0  0  0  0  0  0  0  0  0
    2.1316   -1.7483    0.0000 C   0  0  0  0  0  0  0  0  0
  1  2  1  0  0  0  0
  2  3  4  0  0  0  0
  2 26  4  0  0  0  0
  3  4  4  0  0  0  0
  4  5  4  0  0  0  0
  5  6  1  0  0  0  0
  5 25  4  0  0  0  0
  6  7  1  0  0  0  0
  6 12  1  0  0  0  0
  7  8  1  0  0  0  0
  7 11  1  0  0  0  0
  8  9  1  0  0  0  0
  8 13  1  0  0  0  0
  9 10  1  0  0  0  0
 10 11  1  0  0  0  0
 10 12  1  0  0  0  0
 13 14  1  0  0  0  0
 14 15  1  0  0  0  0
 15 16  1  0  0  0  0
 16 17  2  0  0  0  0
 16 18  1  0  0  0  0
 18 19  4  0  0  0  0
 18 24  4  0  0  0  0
 19 20  4  0  0  0  0
 20 21  4  0  0  0  0
 21 22  1  0  0  0  0
 21 23  4  0  0  0  0
 23 24  4  0  0  0  0
 25 26  4  0  0  0  0
M  END
>  <Name_Molregno>
519093

>  <DOPAMINE D2>
6.77

>  <DOPAMINE D3>
6.66

>  <DOPAMINE D4>
6.29

$$$$
519094
  Marvin  02231216192D 0   1.00000     0.00000     0

 24 28  0  0  1  0  0  0  0  0999 V2000
    6.8575   -3.9994    0.0000 Cl  0  0  0  0  0  0  0  0  0
    6.2775   -3.4127    0.0000 C   0  0  0  0  0  0  0  0  0
    5.4794   -3.6218    0.0000 C   0  0  0  0  0  0  0  0  0
    4.8993   -3.0351    0.0000 C   0  0  0  0  0  0  0  0  0
    5.1173   -2.2394    0.0000 C   0  0  0  0  0  0  0  0  0
    4.5373   -1.6528    0.0000 N   0  0  0  0  0  0  0  0  0
    4.1363   -0.8828    0.0000 C   0  0  0  0  0  0  0  0  0
    2.5996   -0.8339    0.0000 C   0  0  0  0  0  0  0  0  0
    3.4128   -0.6627    0.0000 C   0  0  0  0  0  0  0  0  0
    3.8670    0.1392    0.0000 N   0  0  0  0  0  0  0  0  0
    4.4964   -0.1472    0.0000 C   0  0  0  0  0  0  0  0  0
    3.6121    0.9238    0.0000 C   0  0  0  0  0  0  0  0  0
    4.1641    1.5369    0.0000 C   0  0  0  0  0  0  0  0  0
    3.9926    2.3439    0.0000 C   0  0  0  0  0  0  0  0  0
    3.2781    2.7564    0.0000 C   0  0  0  0  0  0  0  0  0
    3.2781    3.5814    0.0000 C   0  0  0  0  0  0  0  0  0
    3.9926    3.9939    0.0000 C   0  0  0  0  0  0  0  0  0
    4.7070    3.5814    0.0000 N   0  0  0  0  0  0  0  0  0
    4.7070    2.7564    0.0000 C   0  0  0  0  0  0  0  0  0
    5.3201    2.2044    0.0000 N   0  0  0  0  0  0  0  0  0
    4.9846    1.4507    0.0000 C   0  0  0  0  0  0  0  0  0
    3.8718   -1.2967    0.0000 C   0  0  0  0  0  0  0  0  0
    5.9154   -2.0304    0.0000 C   0  0  0  0  0  0  0  0  0
    6.4955   -2.6170    0.0000 C   0  0  0  0  0  0  0  0  0
  1  2  1  0  0  0  0
  2  3  4  0  0  0  0
  2 24  4  0  0  0  0
  3  4  4  0  0  0  0
  4  5  4  0  0  0  0
  5  6  1  0  0  0  0
  5 23  4  0  0  0  0
  6  7  1  0  0  0  0
  6 22  1  0  0  0  0
  7  8  1  0  0  0  0
  7 11  1  0  0  0  0
  8  9  1  0  0  0  0
  9 10  1  0  0  0  0
  9 22  1  0  0  0  0
 10 11  1  0  0  0  0
 10 12  1  0  0  0  0
 12 13  1  0  0  0  0
 13 14  4  0  0  0  0
 13 21  4  0  0  0  0
 14 15  4  0  0  0  0
 14 19  4  0  0  0  0
 15 16  4  0  0  0  0
 16 17  4  0  0  0  0
 17 18  4  0  0  0  0
 18 19  4  0  0  0  0
 19 20  4  0  0  0  0
 20 21  4  0  0  0  0
 23 24  4  0  0  0  0
M  STY  1   1 DAT
M  SAL   1  1  20
M  SDT   1 MRV_IMPLICIT_H                                        
M  SDD   1     0.0000    0.0000    DR    ALL  0       0  
M  SED   1 IMPL_H1
M  END
>  <Name_Molregno>
519094

>  <DOPAMINE D2>
7.21

>  <DOPAMINE D3>
7.96

>  <DOPAMINE D4>
7.16

$$$$
519116
  Marvin  02231216192D 0   1.00000     0.00000     0

 38 42  0  0  0  0  0  0  0  0999 V2000
   -1.0754    0.9920    0.0000 O   0  0  0  0  0  0  0  0  0
   -1.0754    1.8170    0.0000 C   0  0  0  0  0  0  0  0  0
   -0.3609    2.2295    0.0000 C   0  0  0  0  0  0  0  0  0
   -0.3609    3.0545    0.0000 C   0  0  0  0  0  0  0  0  0
    0.3536    3.4670    0.0000 N   0  0  0  0  0  0  0  0  0
    0.3536    4.2920    0.0000 C   0  0  0  0  0  0  0  0  0
    1.0680    4.7045    0.0000 C   0  0  0  0  0  0  0  0  0
    1.7825    4.2920    0.0000 C   0  0  0  0  0  0  0  0  0
    1.7825    3.4670    0.0000 C   0  0  0  0  0  0  0  0  0
    1.0680    3.0545    0.0000 C   0  0  0  0  0  0  0  0  0
   -1.7898    0.5795    0.0000 C   0  0  0  0  0  0  0  0  0
   -1.7898   -0.2455    0.0000 C   0  0  0  0  0  0  0  0  0
   -2.5043   -0.6580    0.0000 C   0  0  0  0  0  0  0  0  0
   -3.2188   -0.2455    0.0000 C   0  0  0  0  0  0  0  0  0
   -3.2188    0.5795    0.0000 C   0  0  0  0  0  0  0  0  0
   -2.5043    0.9920    0.0000 C   0  0  0  0  0  0  0  0  0
   -3.9333   -0.6580    0.0000 C   0  0  0  0  0  0  0  0  0
   -3.9333   -1.4830    0.0000 O   0  0  0  0  0  0  0  0  0
   -4.6477   -0.2455    0.0000 N   0  0  0  0  0  0  0  0  0
   -5.3622   -0.6580    0.0000 C   0  0  0  0  0  0  0  0  0
   -5.3622   -1.4830    0.0000 C   0  0  0  0  0  0  0  0  0
   -4.6477   -1.8955    0.0000 C   0  0  0  0  0  0  0  0  0
   -4.6477   -2.7205    0.0000 C   0  0  0  0  0  0  0  0  0
   -3.9044   -3.0785    0.0000 C   0  0  0  0  0  0  0  0  0
   -3.7208   -3.8828    0.0000 C   0  0  0  0  0  0  0  0  0
   -4.2352   -4.5278    0.0000 C   0  0  0  0  0  0  0  0  0
   -5.0602   -4.5278    0.0000 C   0  0  0  0  0  0  0  0  0
   -5.5746   -3.8828    0.0000 C   0  0  0  0  0  0  0  0  0
   -5.3910   -3.0785    0.0000 C   0  0  0  0  0  0  0  0  0
   -5.9958   -2.5174    0.0000 C   0  0  0  0  0  0  0  0  0
   -6.7841   -2.7605    0.0000 C   0  0  0  0  0  0  0  0  0
   -6.9677   -3.5648    0.0000 C   0  0  0  0  0  0  0  0  0
   -6.3630   -4.1260    0.0000 C   0  0  0  0  0  0  0  0  0
   -2.9325   -4.1260    0.0000 C   0  0  0  0  0  0  0  0  0
   -2.3277   -3.5648    0.0000 C   0  0  0  0  0  0  0  0  0
   -2.5113   -2.7605    0.0000 C   0  0  0  0  0  0  0  0  0
   -3.2997   -2.5174    0.0000 C   0  0  0  0  0  0  0  0  0
   -4.6477    0.5795    0.0000 C   0  0  0  0  0  0  0  0  0
  1  2  1  0  0  0  0
  1 11  1  0  0  0  0
  2  3  1  0  0  0  0
  3  4  1  0  0  0  0
  4  5  1  0  0  0  0
  5  6  1  0  0  0  0
  5 10  1  0  0  0  0
  6  7  1  0  0  0  0
  7  8  1  0  0  0  0
  8  9  1  0  0  0  0
  9 10  1  0  0  0  0
 11 12  4  0  0  0  0
 11 16  4  0  0  0  0
 12 13  4  0  0  0  0
 13 14  4  0  0  0  0
 14 15  4  0  0  0  0
 14 17  1  0  0  0  0
 15 16  4  0  0  0  0
 17 18  2  0  0  0  0
 17 19  1  0  0  0  0
 19 20  1  0  0  0  0
 19 38  1  0  0  0  0
 20 21  1  0  0  0  0
 21 22  1  0  0  0  0
 22 23  2  0  0  0  0
 23 24  1  0  0  0  0
 23 29  1  0  0  0  0
 24 25  4  0  0  0  0
 24 37  4  0  0  0  0
 25 26  1  0  0  0  0
 25 34  4  0  0  0  0
 26 27  1  0  0  0  0
 27 28  1  0  0  0  0
 28 29  4  0  0  0  0
 28 33  4  0  0  0  0
 29 30  4  0  0  0  0
 30 31  4  0  0  0  0
 31 32  4  0  0  0  0
 32 33  4  0  0  0  0
 34 35  4  0  0  0  0
 35 36  4  0  0  0  0
 36 37  4  0  0  0  0
M  END
>  <Name_Molregno>
519116

>  <DOPAMINE D1>
6

>  <DOPAMINE D2>
6

>  <DOPAMINE D3>
6.61

>  <DOPAMINE D5>
6

>  <HISTAMINE H1>
6.16

>  <HISTAMINE H3>
8.46

$$$$
519117
  Marvin  02231216192D 0   1.00000     0.00000     0

 37 41  0  0  0  0  0  0  0  0999 V2000
   -1.1059    1.0162    0.0000 O   0  0  0  0  0  0  0  0  0
   -1.1059    1.8412    0.0000 C   0  0  0  0  0  0  0  0  0
   -0.3914    2.2537    0.0000 C   0  0  0  0  0  0  0  0  0
   -0.3914    3.0787    0.0000 C   0  0  0  0  0  0  0  0  0
    0.3230    3.4912    0.0000 N   0  0  0  0  0  0  0  0  0
    0.3230    4.3162    0.0000 C   0  0  0  0  0  0  0  0  0
    1.0375    4.7287    0.0000 C   0  0  0  0  0  0  0  0  0
    1.7520    4.3162    0.0000 C   0  0  0  0  0  0  0  0  0
    1.7520    3.4912    0.0000 C   0  0  0  0  0  0  0  0  0
    1.0375    3.0787    0.0000 C   0  0  0  0  0  0  0  0  0
   -1.8204    0.6037    0.0000 C   0  0  0  0  0  0  0  0  0
   -1.8204   -0.2213    0.0000 C   0  0  0  0  0  0  0  0  0
   -2.5349   -0.6338    0.0000 C   0  0  0  0  0  0  0  0  0
   -3.2493   -0.2213    0.0000 C   0  0  0  0  0  0  0  0  0
   -3.2493    0.6037    0.0000 C   0  0  0  0  0  0  0  0  0
   -2.5349    1.0162    0.0000 C   0  0  0  0  0  0  0  0  0
   -3.9638   -0.6338    0.0000 C   0  0  0  0  0  0  0  0  0
   -4.6783   -0.2213    0.0000 N   0  0  0  0  0  0  0  0  0
   -5.3927   -0.6338    0.0000 C   0  0  0  0  0  0  0  0  0
   -5.3927   -1.4588    0.0000 C   0  0  0  0  0  0  0  0  0
   -4.6783   -1.8713    0.0000 C   0  0  0  0  0  0  0  0  0
   -4.6783   -2.6963    0.0000 C   0  0  0  0  0  0  0  0  0
   -3.9350   -3.0543    0.0000 C   0  0  0  0  0  0  0  0  0
   -3.7514   -3.8586    0.0000 C   0  0  0  0  0  0  0  0  0
   -4.2658   -4.5036    0.0000 C   0  0  0  0  0  0  0  0  0
   -5.0908   -4.5036    0.0000 C   0  0  0  0  0  0  0  0  0
   -5.6051   -3.8586    0.0000 C   0  0  0  0  0  0  0  0  0
   -5.4216   -3.0543    0.0000 C   0  0  0  0  0  0  0  0  0
   -6.0263   -2.4932    0.0000 C   0  0  0  0  0  0  0  0  0
   -6.8147   -2.7363    0.0000 C   0  0  0  0  0  0  0  0  0
   -6.9983   -3.5406    0.0000 C   0  0  0  0  0  0  0  0  0
   -6.3935   -4.1018    0.0000 C   0  0  0  0  0  0  0  0  0
   -2.9630   -4.1018    0.0000 C   0  0  0  0  0  0  0  0  0
   -2.3583   -3.5406    0.0000 C   0  0  0  0  0  0  0  0  0
   -2.5418   -2.7363    0.0000 C   0  0  0  0  0  0  0  0  0
   -3.3302   -2.4932    0.0000 C   0  0  0  0  0  0  0  0  0
   -4.6783    0.6037    0.0000 C   0  0  0  0  0  0  0  0  0
  1  2  1  0  0  0  0
  1 11  1  0  0  0  0
  2  3  1  0  0  0  0
  3  4  1  0  0  0  0
  4  5  1  0  0  0  0
  5  6  1  0  0  0  0
  5 10  1  0  0  0  0
  6  7  1  0  0  0  0
  7  8  1  0  0  0  0
  8  9  1  0  0  0  0
  9 10  1  0  0  0  0
 11 12  4  0  0  0  0
 11 16  4  0  0  0  0
 12 13  4  0  0  0  0
 13 14  4  0  0  0  0
 14 15  4  0  0  0  0
 14 17  1  0  0  0  0
 15 16  4  0  0  0  0
 17 18  1  0  0  0  0
 18 19  1  0  0  0  0
 18 37  1  0  0  0  0
 19 20  1  0  0  0  0
 20 21  1  0  0  0  0
 21 22  2  0  0  0  0
 22 23  1  0  0  0  0
 22 28  1  0  0  0  0
 23 24  4  0  0  0  0
 23 36  4  0  0  0  0
 24 25  1  0  0  0  0
 24 33  4  0  0  0  0
 25 26  1  0  0  0  0
 26 27  1  0  0  0  0
 27 28  4  0  0  0  0
 27 32  4  0  0  0  0
 28 29  4  0  0  0  0
 29 30  4  0  0  0  0
 30 31  4  0  0  0  0
 31 32  4  0  0  0  0
 33 34  4  0  0  0  0
 34 35  4  0  0  0  0
 35 36  4  0  0  0  0
M  END
>  <Name_Molregno>
519117

>  <DOPAMINE D1>
6.52

>  <DOPAMINE D2>
7

>  <DOPAMINE D3>
7.17

>  <DOPAMINE D5>
6.56

>  <HISTAMINE H1>
7.1

>  <HISTAMINE H3>
9.57

$$$$
519118
  Marvin  02231216192D 0   1.00000     0.00000     0

 38 43  0  0  0  0  0  0  0  0999 V2000
   -1.1994   -3.5598    0.0000 O   0  0  0  0  0  0  0  0  0
   -0.4829   -3.1509    0.0000 C   0  0  0  0  0  0  0  0  0
    0.2295   -3.5669    0.0000 C   0  0  0  0  0  0  0  0  0
    0.9460   -3.1579    0.0000 C   0  0  0  0  0  0  0  0  0
    1.6584   -3.5740    0.0000 N   0  0  0  0  0  0  0  0  0
    2.3749   -3.1650    0.0000 C   0  0  0  0  0  0  0  0  0
    3.0873   -3.5810    0.0000 C   0  0  0  0  0  0  0  0  0
    3.0833   -4.4060    0.0000 C   0  0  0  0  0  0  0  0  0
    2.3668   -4.8150    0.0000 C   0  0  0  0  0  0  0  0  0
    1.6543   -4.3990    0.0000 C   0  0  0  0  0  0  0  0  0
   -1.9119   -3.1438    0.0000 C   0  0  0  0  0  0  0  0  0
   -2.6284   -3.5528    0.0000 C   0  0  0  0  0  0  0  0  0
   -3.3408   -3.1368    0.0000 C   0  0  0  0  0  0  0  0  0
   -3.3367   -2.3118    0.0000 C   0  0  0  0  0  0  0  0  0
   -2.6202   -1.9028    0.0000 C   0  0  0  0  0  0  0  0  0
   -1.9078   -2.3188    0.0000 C   0  0  0  0  0  0  0  0  0
   -4.0491   -1.8958    0.0000 C   0  0  0  0  0  0  0  0  0
   -4.0451   -1.0708    0.0000 N   0  0  0  0  0  0  0  0  0
   -4.7575   -0.6547    0.0000 C   0  0  0  0  0  0  0  0  0
   -4.7534    0.1702    0.0000 C   0  0  0  0  0  0  0  0  0
   -5.4658    0.5863    0.0000 C   0  0  0  0  0  0  0  0  0
   -5.4618    1.4113    0.0000 C   0  0  0  0  0  0  0  0  0
   -5.3221    2.4499    0.0000 C   0  0  0  0  0  0  0  0  0
   -5.5668    3.0558    0.0000 C   0  0  0  0  0  0  0  0  0
   -5.6045    2.1597    0.0000 C   0  0  0  0  0  0  0  0  0
   -4.8659    1.8274    0.0000 C   0  0  0  0  0  0  0  0  0
   -4.7041    1.0184    0.0000 C   0  0  0  0  0  0  0  0  0
   -3.9226    0.7540    0.0000 C   0  0  0  0  0  0  0  0  0
   -3.3029    1.2986    0.0000 C   0  0  0  0  0  0  0  0  0
   -3.4647    2.1076    0.0000 C   0  0  0  0  0  0  0  0  0
   -4.2462    2.3720    0.0000 C   0  0  0  0  0  0  0  0  0
   -6.4083    1.8078    0.0000 C   0  0  0  0  0  0  0  0  0
   -6.2923    0.9909    0.0000 C   0  0  0  0  0  0  0  0  0
   -6.9418    0.4822    0.0000 C   0  0  0  0  0  0  0  0  0
   -7.7071    0.7902    0.0000 C   0  0  0  0  0  0  0  0  0
   -7.8230    1.6070    0.0000 C   0  0  0  0  0  0  0  0  0
   -7.1736    2.1158    0.0000 C   0  0  0  0  0  0  0  0  0
   -3.3286   -0.6618    0.0000 C   0  0  0  0  0  0  0  0  0
  1  2  1  0  0  0  0
  1 11  1  0  0  0  0
  2  3  1  0  0  0  0
  3  4  1  0  0  0  0
  4  5  1  0  0  0  0
  5  6  1  0  0  0  0
  5 10  1  0  0  0  0
  6  7  1  0  0  0  0
  7  8  1  0  0  0  0
  8  9  1  0  0  0  0
  9 10  1  0  0  0  0
 11 12  4  0  0  0  0
 11 16  4  0  0  0  0
 12 13  4  0  0  0  0
 13 14  4  0  0  0  0
 14 15  4  0  0  0  0
 14 17  1  0  0  0  0
 15 16  4  0  0  0  0
 17 18  1  0  0  0  0
 18 19  1  0  0  0  0
 18 38  1  0  0  0  0
 19 20  1  0  0  0  0
 20 21  1  0  0  0  0
 21 22  1  0  0  0  0
 22 23  1  0  0  0  0
 22 27  1  0  0  0  0
 22 33  1  0  0  0  0
 23 24  1  0  0  0  0
 24 25  1  0  0  0  0
 25 26  1  0  0  0  0
 25 32  1  0  0  0  0
 26 27  4  0  0  0  0
 26 31  4  0  0  0  0
 27 28  4  0  0  0  0
 28 29  4  0  0  0  0
 29 30  4  0  0  0  0
 30 31  4  0  0  0  0
 32 33  4  0  0  0  0
 32 37  4  0  0  0  0
 33 34  4  0  0  0  0
 34 35  4  0  0  0  0
 35 36  4  0  0  0  0
 36 37  4  0  0  0  0
M  END
>  <Name_Molregno>
519118

>  <DOPAMINE D1>
6.69

>  <DOPAMINE D2>
6.84

>  <DOPAMINE D3>
6.83

>  <DOPAMINE D5>
6.58

>  <HISTAMINE H1>
7.4

>  <HISTAMINE H3>
9.45

$$$$
519173
  Marvin  02231216192D 0   1.00000     0.00000     0

 37 41  0  0  0  0  0  0  0  0999 V2000
    4.8594    1.8159    0.0000 Cl  0  0  0  0  0  0  0  0  0
    5.5739    2.2284    0.0000 C   0  0  0  0  0  0  0  0  0
    6.2884    1.8159    0.0000 C   0  0  0  0  0  0  0  0  0
    7.0029    2.2284    0.0000 C   0  0  0  0  0  0  0  0  0
    7.7173    1.8159    0.0000 N   0  0  0  0  0  0  0  0  0
    8.4318    2.2284    0.0000 C   0  0  0  0  0  0  0  0  0
    8.4318    3.0534    0.0000 C   0  0  0  0  0  0  0  0  0
    7.7173    3.4659    0.0000 S   0  0  0  0  0  0  0  0  0
    7.0029    3.0534    0.0000 C   0  0  0  0  0  0  0  0  0
    6.2884    3.4659    0.0000 C   0  0  0  0  0  0  0  0  0
    5.5739    3.0534    0.0000 C   0  0  0  0  0  0  0  0  0
    9.1463    3.4659    0.0000 C   0  0  0  0  0  0  0  0  0
    9.8607    3.0534    0.0000 C   0  0  0  0  0  0  0  0  0
    9.8607    2.2284    0.0000 C   0  0  0  0  0  0  0  0  0
    9.1463    1.8159    0.0000 C   0  0  0  0  0  0  0  0  0
    7.7173    0.9909    0.0000 C   0  0  0  0  0  0  0  0  0
    7.0029    0.5784    0.0000 C   0  0  0  0  0  0  0  0  0
    7.0029   -0.2466    0.0000 C   0  0  0  0  0  0  0  0  0
    6.2884   -0.6591    0.0000 N   0  0  0  0  0  0  0  0  0
    6.2884   -1.4841    0.0000 C   0  0  0  0  0  0  0  0  0
    5.5739   -1.8966    0.0000 C   0  0  0  0  0  0  0  0  0
    5.5739   -2.7216    0.0000 C   0  0  0  0  0  0  0  0  0
    4.8594   -3.1341    0.0000 C   0  0  0  0  0  0  0  0  0
    4.1450   -2.7216    0.0000 C   0  0  0  0  0  0  0  0  0
    3.4305   -3.1341    0.0000 O   0  0  0  0  0  0  0  0  0
    3.4305   -3.9591    0.0000 C   0  0  0  0  0  0  0  0  0
    2.7160   -4.3716    0.0000 C   0  0  0  0  0  0  0  0  0
    2.7160   -5.1966    0.0000 C   0  0  0  0  0  0  0  0  0
    2.0016   -5.6091    0.0000 N   0  0  0  0  0  0  0  0  0
    2.0016   -6.4341    0.0000 C   0  0  0  0  0  0  0  0  0
    1.2871   -6.8466    0.0000 C   0  0  0  0  0  0  0  0  0
    0.5726   -6.4341    0.0000 C   0  0  0  0  0  0  0  0  0
    0.5726   -5.6091    0.0000 C   0  0  0  0  0  0  0  0  0
    1.2871   -5.1966    0.0000 C   0  0  0  0  0  0  0  0  0
    4.1450   -1.8966    0.0000 C   0  0  0  0  0  0  0  0  0
    4.8594   -1.4841    0.0000 C   0  0  0  0  0  0  0  0  0
    5.5739   -0.2466    0.0000 C   0  0  0  0  0  0  0  0  0
  1  2  1  0  0  0  0
  2  3  4  0  0  0  0
  2 11  4  0  0  0  0
  3  4  4  0  0  0  0
  4  5  1  0  0  0  0
  4  9  4  0  0  0  0
  5  6  1  0  0  0  0
  5 16  1  0  0  0  0
  6  7  4  0  0  0  0
  6 15  4  0  0  0  0
  7  8  1  0  0  0  0
  7 12  4  0  0  0  0
  8  9  1  0  0  0  0
  9 10  4  0  0  0  0
 10 11  4  0  0  0  0
 12 13  4  0  0  0  0
 13 14  4  0  0  0  0
 14 15  4  0  0  0  0
 16 17  1  0  0  0  0
 17 18  1  0  0  0  0
 18 19  1  0  0  0  0
 19 20  1  0  0  0  0
 19 37  1  0  0  0  0
 20 21  1  0  0  0  0
 21 22  4  0  0  0  0
 21 36  4  0  0  0  0
 22 23  4  0  0  0  0
 23 24  4  0  0  0  0
 24 25  1  0  0  0  0
 24 35  4  0  0  0  0
 25 26  1  0  0  0  0
 26 27  1  0  0  0  0
 27 28  1  0  0  0  0
 28 29  1  0  0  0  0
 29 30  1  0  0  0  0
 29 34  1  0  0  0  0
 30 31  1  0  0  0  0
 31 32  1  0  0  0  0
 32 33  1  0  0  0  0
 33 34  1  0  0  0  0
 35 36  4  0  0  0  0
M  END
>  <Name_Molregno>
519173

>  <DOPAMINE D1>
6.63

>  <DOPAMINE D2>
7.39

>  <DOPAMINE D3>
7.3

>  <DOPAMINE D5>
6.82

>  <HISTAMINE H1>
6.69

>  <HISTAMINE H3>
8.92

$$$$
519174
  Marvin  02231216192D 0   1.00000     0.00000     0

 37 41  0  0  0  0  0  0  0  0999 V2000
   -0.4896    2.3975    0.0000 Cl  0  0  0  0  0  0  0  0  0
   -1.2040    2.8100    0.0000 C   0  0  0  0  0  0  0  0  0
   -1.9185    2.3975    0.0000 C   0  0  0  0  0  0  0  0  0
   -2.6330    2.8100    0.0000 C   0  0  0  0  0  0  0  0  0
   -2.6330    3.6350    0.0000 C   0  0  0  0  0  0  0  0  0
   -3.3475    4.0475    0.0000 S   0  0  0  0  0  0  0  0  0
   -4.0619    3.6350    0.0000 C   0  0  0  0  0  0  0  0  0
   -4.0619    2.8100    0.0000 C   0  0  0  0  0  0  0  0  0
   -4.7764    2.3975    0.0000 C   0  0  0  0  0  0  0  0  0
   -5.4909    2.8100    0.0000 C   0  0  0  0  0  0  0  0  0
   -5.4909    3.6350    0.0000 C   0  0  0  0  0  0  0  0  0
   -4.7764    4.0475    0.0000 C   0  0  0  0  0  0  0  0  0
   -3.3475    2.3975    0.0000 C   0  0  0  0  0  0  0  0  0
   -3.3475    1.5725    0.0000 C   0  0  0  0  0  0  0  0  0
   -4.0619    1.1600    0.0000 C   0  0  0  0  0  0  0  0  0
   -4.0619    0.3350    0.0000 C   0  0  0  0  0  0  0  0  0
   -4.7764   -0.0775    0.0000 N   0  0  0  0  0  0  0  0  0
   -4.7764   -0.9025    0.0000 C   0  0  0  0  0  0  0  0  0
   -5.4909   -1.3150    0.0000 C   0  0  0  0  0  0  0  0  0
   -5.4909   -2.1400    0.0000 C   0  0  0  0  0  0  0  0  0
   -6.2053   -2.5525    0.0000 C   0  0  0  0  0  0  0  0  0
   -6.9198   -2.1400    0.0000 C   0  0  0  0  0  0  0  0  0
   -7.6343   -2.5525    0.0000 O   0  0  0  0  0  0  0  0  0
   -7.6343   -3.3775    0.0000 C   0  0  0  0  0  0  0  0  0
   -8.3488   -3.7900    0.0000 C   0  0  0  0  0  0  0  0  0
   -8.3488   -4.6150    0.0000 C   0  0  0  0  0  0  0  0  0
   -9.0632   -5.0275    0.0000 N   0  0  0  0  0  0  0  0  0
   -9.0632   -5.8525    0.0000 C   0  0  0  0  0  0  0  0  0
   -9.7777   -6.2650    0.0000 C   0  0  0  0  0  0  0  0  0
  -10.4922   -5.8525    0.0000 C   0  0  0  0  0  0  0  0  0
  -10.4922   -5.0275    0.0000 C   0  0  0  0  0  0  0  0  0
   -9.7777   -4.6150    0.0000 C   0  0  0  0  0  0  0  0  0
   -6.9198   -1.3150    0.0000 C   0  0  0  0  0  0  0  0  0
   -6.2053   -0.9025    0.0000 C   0  0  0  0  0  0  0  0  0
   -5.4909    0.3350    0.0000 C   0  0  0  0  0  0  0  0  0
   -1.9185    4.0475    0.0000 C   0  0  0  0  0  0  0  0  0
   -1.2040    3.6350    0.0000 C   0  0  0  0  0  0  0  0  0
  1  2  1  0  0  0  0
  2  3  4  0  0  0  0
  2 37  4  0  0  0  0
  3  4  4  0  0  0  0
  4  5  4  0  0  0  0
  4 13  1  0  0  0  0
  5  6  1  0  0  0  0
  5 36  4  0  0  0  0
  6  7  1  0  0  0  0
  7  8  4  0  0  0  0
  7 12  4  0  0  0  0
  8  9  4  0  0  0  0
  8 13  1  0  0  0  0
  9 10  4  0  0  0  0
 10 11  4  0  0  0  0
 11 12  4  0  0  0  0
 13 14  2  0  0  0  0
 14 15  1  0  0  0  0
 15 16  1  0  0  0  0
 16 17  1  0  0  0  0
 17 18  1  0  0  0  0
 17 35  1  0  0  0  0
 18 19  1  0  0  0  0
 19 20  4  0  0  0  0
 19 34  4  0  0  0  0
 20 21  4  0  0  0  0
 21 22  4  0  0  0  0
 22 23  1  0  0  0  0
 22 33  4  0  0  0  0
 23 24  1  0  0  0  0
 24 25  1  0  0  0  0
 25 26  1  0  0  0  0
 26 27  1  0  0  0  0
 27 28  1  0  0  0  0
 27 32  1  0  0  0  0
 28 29  1  0  0  0  0
 29 30  1  0  0  0  0
 30 31  1  0  0  0  0
 31 32  1  0  0  0  0
 33 34  4  0  0  0  0
 36 37  4  0  0  0  0
M  END
>  <Name_Molregno>
519174

>  <DOPAMINE D1>
6.61

>  <DOPAMINE D2>
7.28

>  <DOPAMINE D3>
7.3

>  <DOPAMINE D5>
6.53

>  <HISTAMINE H1>
6.53

>  <HISTAMINE H3>
8.81

$$$$
519223
  Marvin  02231216192D 0   1.00000     0.00000     0

 39 44  0  0  0  0  0  0  0  0999 V2000
   -1.5718   -4.2946    0.0000 Cl  0  0  0  0  0  0  0  0  0
   -0.7834   -4.5378    0.0000 C   0  0  0  0  0  0  0  0  0
   -0.1787   -3.9766    0.0000 C   0  0  0  0  0  0  0  0  0
    0.6097   -4.2198    0.0000 C   0  0  0  0  0  0  0  0  0
    1.1241   -3.5748    0.0000 N   0  0  0  0  0  0  0  0  0
    1.9491   -3.5748    0.0000 C   0  0  0  0  0  0  0  0  0
    2.3070   -2.8315    0.0000 N   0  0  0  0  0  0  0  0  0
    1.8423   -2.1499    0.0000 C   0  0  0  0  0  0  0  0  0
    2.2002   -1.4066    0.0000 C   0  0  0  0  0  0  0  0  0
    3.0229   -1.3449    0.0000 N   0  0  0  0  0  0  0  0  0
    3.4877   -2.0265    0.0000 C   0  0  0  0  0  0  0  0  0
    3.1297   -2.7698    0.0000 C   0  0  0  0  0  0  0  0  0
    3.3809   -0.6016    0.0000 C   0  0  0  0  0  0  0  0  0
    4.2036   -0.5399    0.0000 C   0  0  0  0  0  0  0  0  0
    4.5615    0.2034    0.0000 C   0  0  0  0  0  0  0  0  0
    5.3842    0.2650    0.0000 C   0  0  0  0  0  0  0  0  0
    5.8490   -0.4166    0.0000 C   0  0  0  0  0  0  0  0  0
    6.6717   -0.3550    0.0000 O   0  0  0  0  0  0  0  0  0
    7.0296    0.3883    0.0000 C   0  0  0  0  0  0  0  0  0
    7.8523    0.4500    0.0000 C   0  0  0  0  0  0  0  0  0
    8.2103    1.1933    0.0000 C   0  0  0  0  0  0  0  0  0
    9.0329    1.2549    0.0000 N   0  0  0  0  0  0  0  0  0
    9.3909    1.9982    0.0000 C   0  0  0  0  0  0  0  0  0
   10.2136    2.0599    0.0000 C   0  0  0  0  0  0  0  0  0
   10.6783    1.3782    0.0000 C   0  0  0  0  0  0  0  0  0
   10.3204    0.6349    0.0000 C   0  0  0  0  0  0  0  0  0
    9.4977    0.5733    0.0000 C   0  0  0  0  0  0  0  0  0
    5.4910   -1.1599    0.0000 C   0  0  0  0  0  0  0  0  0
    4.6683   -1.2216    0.0000 C   0  0  0  0  0  0  0  0  0
    2.4634   -4.2198    0.0000 C   0  0  0  0  0  0  0  0  0
    2.2799   -5.0241    0.0000 C   0  0  0  0  0  0  0  0  0
    1.5366   -5.3821    0.0000 N   0  0  0  0  0  0  0  0  0
    0.7933   -5.0241    0.0000 C   0  0  0  0  0  0  0  0  0
    0.1885   -5.5853    0.0000 C   0  0  0  0  0  0  0  0  0
   -0.5998   -5.3421    0.0000 C   0  0  0  0  0  0  0  0  0
    2.8846   -5.5853    0.0000 C   0  0  0  0  0  0  0  0  0
    3.6730   -5.3421    0.0000 C   0  0  0  0  0  0  0  0  0
    3.8566   -4.5378    0.0000 C   0  0  0  0  0  0  0  0  0
    3.2518   -3.9766    0.0000 C   0  0  0  0  0  0  0  0  0
  1  2  1  0  0  0  0
  2  3  4  0  0  0  0
  2 35  4  0  0  0  0
  3  4  4  0  0  0  0
  4  5  1  0  0  0  0
  4 33  4  0  0  0  0
  5  6  2  0  0  0  0
  6  7  1  0  0  0  0
  6 30  1  0  0  0  0
  7  8  1  0  0  0  0
  7 12  1  0  0  0  0
  8  9  1  0  0  0  0
  9 10  1  0  0  0  0
 10 11  1  0  0  0  0
 10 13  1  0  0  0  0
 11 12  1  0  0  0  0
 13 14  1  0  0  0  0
 14 15  4  0  0  0  0
 14 29  4  0  0  0  0
 15 16  4  0  0  0  0
 16 17  4  0  0  0  0
 17 18  1  0  0  0  0
 17 28  4  0  0  0  0
 18 19  1  0  0  0  0
 19 20  1  0  0  0  0
 20 21  1  0  0  0  0
 21 22  1  0  0  0  0
 22 23  1  0  0  0  0
 22 27  1  0  0  0  0
 23 24  1  0  0  0  0
 24 25  1  0  0  0  0
 25 26  1  0  0  0  0
 26 27  1  0  0  0  0
 28 29  4  0  0  0  0
 30 31  4  0  0  0  0
 30 39  4  0  0  0  0
 31 32  1  0  0  0  0
 31 36  4  0  0  0  0
 32 33  1  0  0  0  0
 33 34  4  0  0  0  0
 34 35  4  0  0  0  0
 36 37  4  0  0  0  0
 37 38  4  0  0  0  0
 38 39  4  0  0  0  0
M  END
>  <Name_Molregno>
519223

>  <DOPAMINE D1>
6.06

>  <DOPAMINE D2>
6.55

>  <DOPAMINE D3>
6.65

>  <DOPAMINE D5>
6.04

>  <HISTAMINE H1>
6.72

>  <HISTAMINE H3>
8.49

$$$$
519224
  Marvin  02231216192D 0   1.00000     0.00000     0

 48 53  0  0  0  0  0  0  0  0999 V2000
    8.7754   -5.1467    0.0000 S   0  0  0  0  0  0  0  0  0
    9.4898   -4.7342    0.0000 C   0  0  0  0  0  0  0  0  0
    9.4898   -3.9092    0.0000 C   0  0  0  0  0  0  0  0  0
    8.7754   -3.4967    0.0000 N   0  0  0  0  0  0  0  0  0
    8.0609   -3.9092    0.0000 C   0  0  0  0  0  0  0  0  0
    8.0609   -4.7342    0.0000 C   0  0  0  0  0  0  0  0  0
    7.3464   -5.1467    0.0000 C   0  0  0  0  0  0  0  0  0
    6.6319   -4.7342    0.0000 C   0  0  0  0  0  0  0  0  0
    6.6319   -3.9092    0.0000 C   0  0  0  0  0  0  0  0  0
    7.3464   -3.4967    0.0000 C   0  0  0  0  0  0  0  0  0
    8.7754   -2.6717    0.0000 C   0  0  0  0  0  0  0  0  0
    8.0609   -2.2592    0.0000 C   0  0  0  0  0  0  0  0  0
    8.0609   -1.4342    0.0000 C   0  0  0  0  0  0  0  0  0
    7.3464   -1.0217    0.0000 N   0  0  0  0  0  0  0  0  0
    6.6319   -1.4342    0.0000 C   0  0  0  0  0  0  0  0  0
    5.9175   -1.0217    0.0000 C   0  0  0  0  0  0  0  0  0
    5.9175   -0.1967    0.0000 N   0  0  0  0  0  0  0  0  0
    6.6319    0.2158    0.0000 C   0  0  0  0  0  0  0  0  0
    7.3464   -0.1967    0.0000 C   0  0  0  0  0  0  0  0  0
    5.2030    0.2158    0.0000 C   0  0  0  0  0  0  0  0  0
    5.2030    1.0408    0.0000 C   0  0  0  0  0  0  0  0  0
    4.4885    1.4533    0.0000 O   0  0  0  0  0  0  0  0  0
    4.4885    2.2783    0.0000 C   0  0  0  0  0  0  0  0  0
    5.2030    2.6908    0.0000 O   0  0  0  0  0  0  0  0  0
    3.7741    2.6908    0.0000 C   0  0  0  0  0  0  0  0  0
    3.0596    2.2783    0.0000 C   0  0  0  0  0  0  0  0  0
    2.3451    2.6908    0.0000 C   0  0  0  0  0  0  0  0  0
    2.3451    3.5158    0.0000 C   0  0  0  0  0  0  0  0  0
    1.6307    3.9283    0.0000 O   0  0  0  0  0  0  0  0  0
    1.6307    4.7533    0.0000 C   0  0  0  0  0  0  0  0  0
    0.9162    5.1658    0.0000 C   0  0  0  0  0  0  0  0  0
    0.9162    5.9908    0.0000 C   0  0  0  0  0  0  0  0  0
    0.2017    6.4033    0.0000 N   0  0  0  0  0  0  0  0  0
   -0.5128    5.9908    0.0000 C   0  0  0  0  0  0  0  0  0
   -1.2272    6.4033    0.0000 C   0  0  0  0  0  0  0  0  0
   -1.2272    7.2283    0.0000 C   0  0  0  0  0  0  0  0  0
   -0.5128    7.6408    0.0000 C   0  0  0  0  0  0  0  0  0
    0.2017    7.2283    0.0000 C   0  0  0  0  0  0  0  0  0
    3.0596    3.9283    0.0000 C   0  0  0  0  0  0  0  0  0
    3.7741    3.5158    0.0000 C   0  0  0  0  0  0  0  0  0
   10.2043   -3.4967    0.0000 C   0  0  0  0  0  0  0  0  0
   10.9188   -3.9092    0.0000 C   0  0  0  0  0  0  0  0  0
   10.9188   -4.7342    0.0000 C   0  0  0  0  0  0  0  0  0
   10.2043   -5.1467    0.0000 C   0  0  0  0  0  0  0  0  0
   11.6332   -3.4967    0.0000 C   0  0  0  0  0  0  0  0  0
   12.3477   -3.0842    0.0000 F   0  0  0  0  0  0  0  0  0
   12.0457   -4.2112    0.0000 F   0  0  0  0  0  0  0  0  0
   11.2207   -2.7822    0.0000 F   0  0  0  0  0  0  0  0  0
  1  2  1  0  0  0  0
  1  6  1  0  0  0  0
  2  3  4  0  0  0  0
  2 44  4  0  0  0  0
  3  4  1  0  0  0  0
  3 41  4  0  0  0  0
  4  5  1  0  0  0  0
  4 11  1  0  0  0  0
  5  6  4  0  0  0  0
  5 10  4  0  0  0  0
  6  7  4  0  0  0  0
  7  8  4  0  0  0  0
  8  9  4  0  0  0  0
  9 10  4  0  0  0  0
 11 12  1  0  0  0  0
 12 13  1  0  0  0  0
 13 14  1  0  0  0  0
 14 15  1  0  0  0  0
 14 19  1  0  0  0  0
 15 16  1  0  0  0  0
 16 17  1  0  0  0  0
 17 18  1  0  0  0  0
 17 20  1  0  0  0  0
 18 19  1  0  0  0  0
 20 21  1  0  0  0  0
 21 22  1  0  0  0  0
 22 23  1  0  0  0  0
 23 24  2  0  0  0  0
 23 25  1  0  0  0  0
 25 26  4  0  0  0  0
 25 40  4  0  0  0  0
 26 27  4  0  0  0  0
 27 28  4  0  0  0  0
 28 29  1  0  0  0  0
 28 39  4  0  0  0  0
 29 30  1  0  0  0  0
 30 31  1  0  0  0  0
 31 32  1  0  0  0  0
 32 33  1  0  0  0  0
 33 34  1  0  0  0  0
 33 38  1  0  0  0  0
 34 35  1  0  0  0  0
 35 36  1  0  0  0  0
 36 37  1  0  0  0  0
 37 38  1  0  0  0  0
 39 40  4  0  0  0  0
 41 42  4  0  0  0  0
 42 43  4  0  0  0  0
 42 45  1  0  0  0  0
 43 44  4  0  0  0  0
 45 46  1  0  0  0  0
 45 47  1  0  0  0  0
 45 48  1  0  0  0  0
M  END
>  <Name_Molregno>
519224

>  <DOPAMINE D1>
6.69

>  <DOPAMINE D2>
7.33

>  <DOPAMINE D3>
7.82

>  <DOPAMINE D5>
6.58

>  <HISTAMINE H1>
6.41

>  <HISTAMINE H3>
10.38

$$$$
520126
  Marvin  02231216192D 0   1.00000     0.00000     0

 20 22  0  0  1  0  0  0  0  0999 V2000
    1.4696   -1.6890    0.0000 O   0  0  0  0  0  0  0  0  0
    1.0571   -0.9746    0.0000 C   0  0  0  0  0  0  0  0  0
    1.4696   -0.2601    0.0000 C   0  0  0  0  0  0  0  0  0
    2.2946   -0.2601    0.0000 N   0  0  0  0  0  0  0  0  0
    2.7071   -0.9746    0.0000 C   0  0  0  0  0  0  0  0  0
    2.2946   -1.6890    0.0000 C   0  0  0  0  0  0  0  0  0
    2.7071    0.4544    0.0000 C   0  0  0  0  0  0  0  0  0
    3.5321    0.4544    0.0000 C   0  0  0  0  0  0  0  0  0
    3.9446    1.1688    0.0000 C   0  0  0  0  0  0  0  0  0
    1.0571    0.4544    0.0000 C   0  0  0  0  0  0  0  0  0
    0.2321    0.4544    0.0000 C   0  0  0  0  0  0  0  0  0
   -0.1804   -0.2601    0.0000 C   0  0  0  0  0  0  0  0  0
    0.2321   -0.9746    0.0000 C   0  0  0  0  0  0  0  0  0
   -0.1804   -1.6890    0.0000 C   0  0  0  0  0  0  0  0  0
   -1.0054   -1.6890    0.0000 C   0  0  0  0  0  0  0  0  0
   -1.4179   -0.9746    0.0000 C   0  0  0  0  0  0  0  0  0
   -1.0054   -0.2601    0.0000 C   0  0  0  0  0  0  0  0  0
   -1.4179   -2.4035    0.0000 C   0  0  0  0  0  0  0  0  0
   -1.0054   -3.1180    0.0000 O   0  0  0  0  0  0  0  0  0
   -2.2429   -2.4035    0.0000 N   0  0  0  0  0  0  0  0  0
  1  2  1  0  0  0  0
  1  6  1  0  0  0  0
  2  3  1  0  0  0  0
  2 13  1  0  0  0  0
  3  4  1  0  0  0  0
  3 10  1  0  0  0  0
  4  5  1  0  0  0  0
  4  7  1  0  0  0  0
  5  6  1  0  0  0  0
  7  8  1  0  0  0  0
  8  9  1  0  0  0  0
 10 11  1  0  0  0  0
 11 12  1  0  0  0  0
 12 13  4  0  0  0  0
 12 17  4  0  0  0  0
 13 14  4  0  0  0  0
 14 15  4  0  0  0  0
 15 16  4  0  0  0  0
 15 18  1  0  0  0  0
 16 17  4  0  0  0  0
 18 19  2  0  0  0  0
 18 20  1  0  0  0  0
M  END
>  <Name_Molregno>
520126

>  <DOPAMINE D2>
5.68

>  <DOPAMINE D3>
7.05

$$$$
520127
  Marvin  02231216192D 0   1.00000     0.00000     0

 21 24  0  0  1  0  0  0  0  0999 V2000
    1.6310   -0.1689    0.0000 O   0  0  0  0  0  0  0  0  0
    1.3507    0.6070    0.0000 C   0  0  0  0  0  0  0  0  0
    1.8825    1.2377    0.0000 C   0  0  0  0  0  0  0  0  0
    2.6946    1.0925    0.0000 N   0  0  0  0  0  0  0  0  0
    2.9749    0.3166    0.0000 C   0  0  0  0  0  0  0  0  0
    2.4431   -0.3141    0.0000 C   0  0  0  0  0  0  0  0  0
    3.2264    1.7232    0.0000 C   0  0  0  0  0  0  0  0  0
    4.0385    1.5780    0.0000 C   0  0  0  0  0  0  0  0  0
    4.5704    2.2087    0.0000 C   0  0  0  0  0  0  0  0  0
    1.6022    2.0136    0.0000 C   0  0  0  0  0  0  0  0  0
    0.7901    2.1589    0.0000 C   0  0  0  0  0  0  0  0  0
    0.2582    1.5282    0.0000 C   0  0  0  0  0  0  0  0  0
    0.5385    0.7522    0.0000 C   0  0  0  0  0  0  0  0  0
    0.0067    0.1215    0.0000 C   0  0  0  0  0  0  0  0  0
   -0.8054    0.2667    0.0000 C   0  0  0  0  0  0  0  0  0
   -1.0857    1.0427    0.0000 C   0  0  0  0  0  0  0  0  0
   -1.9103    1.0159    0.0000 C   0  0  0  0  0  0  0  0  0
   -2.1396    0.2234    0.0000 N   0  0  0  0  0  0  0  0  0
   -1.4567   -0.2396    0.0000 C   0  0  0  0  0  0  0  0  0
   -1.4299   -1.0642    0.0000 O   0  0  0  0  0  0  0  0  0
   -0.5539    1.6734    0.0000 C   0  0  0  0  0  0  0  0  0
  1  2  1  0  0  0  0
  1  6  1  0  0  0  0
  2  3  1  0  0  0  0
  2 13  1  0  0  0  0
  3  4  1  0  0  0  0
  3 10  1  0  0  0  0
  4  5  1  0  0  0  0
  4  7  1  0  0  0  0
  5  6  1  0  0  0  0
  7  8  1  0  0  0  0
  8  9  1  0  0  0  0
 10 11  1  0  0  0  0
 11 12  1  0  0  0  0
 12 13  4  0  0  0  0
 12 21  4  0  0  0  0
 13 14  4  0  0  0  0
 14 15  4  0  0  0  0
 15 16  4  0  0  0  0
 15 19  1  0  0  0  0
 16 17  1  0  0  0  0
 16 21  4  0  0  0  0
 17 18  1  0  0  0  0
 18 19  1  0  0  0  0
 19 20  2  0  0  0  0
M  END
>  <Name_Molregno>
520127

>  <DOPAMINE D2>
6.19

>  <DOPAMINE D3>
7.22

$$$$
520211
  Marvin  02231216192D 0   1.00000     0.00000     0

 19 21  0  0  1  0  0  0  0  0999 V2000
    1.2410   -1.8570    0.0000 O   0  0  0  0  0  0  0  0  0
    0.8285   -1.1425    0.0000 C   0  0  0  0  0  0  0  0  0
    1.2410   -0.4280    0.0000 C   0  0  0  0  0  0  0  0  0
    2.0660   -0.4280    0.0000 N   0  0  0  0  0  0  0  0  0
    2.4785   -1.1425    0.0000 C   0  0  0  0  0  0  0  0  0
    2.0660   -1.8570    0.0000 C   0  0  0  0  0  0  0  0  0
    2.4785    0.2865    0.0000 C   0  0  0  0  0  0  0  0  0
    3.3035    0.2865    0.0000 C   0  0  0  0  0  0  0  0  0
    3.7160    1.0009    0.0000 C   0  0  0  0  0  0  0  0  0
    0.8285    0.2865    0.0000 C   0  0  0  0  0  0  0  0  0
    0.0035    0.2865    0.0000 C   0  0  0  0  0  0  0  0  0
   -0.4090   -0.4280    0.0000 C   0  0  0  0  0  0  0  0  0
    0.0035   -1.1425    0.0000 C   0  0  0  0  0  0  0  0  0
   -0.4090   -1.8570    0.0000 C   0  0  0  0  0  0  0  0  0
   -1.2340   -1.8570    0.0000 C   0  0  0  0  0  0  0  0  0
   -1.6465   -1.1425    0.0000 C   0  0  0  0  0  0  0  0  0
   -1.2340   -0.4280    0.0000 C   0  0  0  0  0  0  0  0  0
   -1.6465   -2.5714    0.0000 C   0  0  0  0  0  0  0  0  0
   -2.0590   -3.2859    0.0000 N   0  0  0  0  0  0  0  0  0
  1  2  1  0  0  0  0
  1  6  1  0  0  0  0
  2  3  1  0  0  0  0
  2 13  1  0  0  0  0
  3  4  1  0  0  0  0
  3 10  1  0  0  0  0
  4  5  1  0  0  0  0
  4  7  1  0  0  0  0
  5  6  1  0  0  0  0
  7  8  1  0  0  0  0
  8  9  1  0  0  0  0
 10 11  1  0  0  0  0
 11 12  1  0  0  0  0
 12 13  4  0  0  0  0
 12 17  4  0  0  0  0
 13 14  4  0  0  0  0
 14 15  4  0  0  0  0
 15 16  4  0  0  0  0
 15 18  1  0  0  0  0
 16 17  4  0  0  0  0
 18 19  3  0  0  0  0
M  END
>  <Name_Molregno>
520211

>  <DOPAMINE D2>
6.1

>  <DOPAMINE D3>
7.4

$$$$
520212
  Marvin  02231216192D 0   1.00000     0.00000     0

 21 23  0  0  1  0  0  0  0  0999 V2000
    1.7807   -1.4810    0.0000 O   0  0  0  0  0  0  0  0  0
    1.3682   -0.7666    0.0000 C   0  0  0  0  0  0  0  0  0
    1.7807   -0.0521    0.0000 C   0  0  0  0  0  0  0  0  0
    2.6057   -0.0521    0.0000 N   0  0  0  0  0  0  0  0  0
    3.0182   -0.7666    0.0000 C   0  0  0  0  0  0  0  0  0
    2.6057   -1.4810    0.0000 C   0  0  0  0  0  0  0  0  0
    3.0182    0.6624    0.0000 C   0  0  0  0  0  0  0  0  0
    3.8432    0.6624    0.0000 C   0  0  0  0  0  0  0  0  0
    4.2557    1.3768    0.0000 C   0  0  0  0  0  0  0  0  0
    1.3682    0.6624    0.0000 C   0  0  0  0  0  0  0  0  0
    0.5432    0.6624    0.0000 C   0  0  0  0  0  0  0  0  0
    0.1307   -0.0521    0.0000 C   0  0  0  0  0  0  0  0  0
    0.5432   -0.7666    0.0000 C   0  0  0  0  0  0  0  0  0
    0.1307   -1.4810    0.0000 C   0  0  0  0  0  0  0  0  0
   -0.6943   -1.4810    0.0000 C   0  0  0  0  0  0  0  0  0
   -1.1068   -0.7666    0.0000 C   0  0  0  0  0  0  0  0  0
   -0.6943   -0.0521    0.0000 C   0  0  0  0  0  0  0  0  0
   -1.1068   -2.1955    0.0000 C   0  0  0  0  0  0  0  0  0
   -1.9318   -2.1955    0.0000 O   0  0  0  0  0  0  0  0  0
   -2.3443   -2.9100    0.0000 C   0  0  0  0  0  0  0  0  0
   -0.6943   -2.9100    0.0000 O   0  0  0  0  0  0  0  0  0
  1  2  1  0  0  0  0
  1  6  1  0  0  0  0
  2  3  1  0  0  0  0
  2 13  1  0  0  0  0
  3  4  1  0  0  0  0
  3 10  1  0  0  0  0
  4  5  1  0  0  0  0
  4  7  1  0  0  0  0
  5  6  1  0  0  0  0
  7  8  1  0  0  0  0
  8  9  1  0  0  0  0
 10 11  1  0  0  0  0
 11 12  1  0  0  0  0
 12 13  4  0  0  0  0
 12 17  4  0  0  0  0
 13 14  4  0  0  0  0
 14 15  4  0  0  0  0
 15 16  4  0  0  0  0
 15 18  1  0  0  0  0
 16 17  4  0  0  0  0
 18 19  1  0  0  0  0
 18 21  2  0  0  0  0
 19 20  1  0  0  0  0
M  END
>  <Name_Molregno>
520212

>  <DOPAMINE D2>
6

>  <DOPAMINE D3>
5

$$$$
520213
  Marvin  02231216192D 0   1.00000     0.00000     0

 20 22  0  0  1  0  0  0  0  0999 V2000
    1.4696   -1.6890    0.0000 O   0  0  0  0  0  0  0  0  0
    1.0571   -0.9746    0.0000 C   0  0  0  0  0  0  0  0  0
    1.4696   -0.2601    0.0000 C   0  0  0  0  0  0  0  0  0
    2.2946   -0.2601    0.0000 N   0  0  0  0  0  0  0  0  0
    2.7071   -0.9746    0.0000 C   0  0  0  0  0  0  0  0  0
    2.2946   -1.6890    0.0000 C   0  0  0  0  0  0  0  0  0
    2.7071    0.4544    0.0000 C   0  0  0  0  0  0  0  0  0
    3.5321    0.4544    0.0000 C   0  0  0  0  0  0  0  0  0
    3.9446    1.1688    0.0000 C   0  0  0  0  0  0  0  0  0
    1.0571    0.4544    0.0000 C   0  0  0  0  0  0  0  0  0
    0.2321    0.4544    0.0000 C   0  0  0  0  0  0  0  0  0
   -0.1804   -0.2601    0.0000 C   0  0  0  0  0  0  0  0  0
    0.2321   -0.9746    0.0000 C   0  0  0  0  0  0  0  0  0
   -0.1804   -1.6890    0.0000 C   0  0  0  0  0  0  0  0  0
   -1.0054   -1.6890    0.0000 C   0  0  0  0  0  0  0  0  0
   -1.4179   -0.9746    0.0000 C   0  0  0  0  0  0  0  0  0
   -1.0054   -0.2601    0.0000 C   0  0  0  0  0  0  0  0  0
   -1.4179   -2.4035    0.0000 C   0  0  0  0  0  0  0  0  0
   -1.0054   -3.1180    0.0000 O   0  0  0  0  0  0  0  0  0
   -2.2429   -2.4035    0.0000 O   0  0  0  0  0  0  0  0  0
  1  2  1  0  0  0  0
  1  6  1  0  0  0  0
  2  3  1  0  0  0  0
  2 13  1  0  0  0  0
  3  4  1  0  0  0  0
  3 10  1  0  0  0  0
  4  5  1  0  0  0  0
  4  7  1  0  0  0  0
  5  6  1  0  0  0  0
  7  8  1  0  0  0  0
  8  9  1  0  0  0  0
 10 11  1  0  0  0  0
 11 12  1  0  0  0  0
 12 13  4  0  0  0  0
 12 17  4  0  0  0  0
 13 14  4  0  0  0  0
 14 15  4  0  0  0  0
 15 16  4  0  0  0  0
 15 18  1  0  0  0  0
 16 17  4  0  0  0  0
 18 19  1  0  0  0  0
 18 20  2  0  0  0  0
M  END
>  <Name_Molregno>
520213

>  <DOPAMINE D2>
5

>  <DOPAMINE D3>
5.48

$$$$
520214
  Marvin  02231216192D 0   1.00000     0.00000     0

 20 22  0  0  1  0  0  0  0  0999 V2000
    1.4696   -1.6890    0.0000 O   0  0  0  0  0  0  0  0  0
    1.0571   -0.9746    0.0000 C   0  0  0  0  0  0  0  0  0
    1.4696   -0.2601    0.0000 C   0  0  0  0  0  0  0  0  0
    2.2946   -0.2601    0.0000 N   0  0  0  0  0  0  0  0  0
    2.7071   -0.9746    0.0000 C   0  0  0  0  0  0  0  0  0
    2.2946   -1.6890    0.0000 C   0  0  0  0  0  0  0  0  0
    2.7071    0.4544    0.0000 C   0  0  0  0  0  0  0  0  0
    3.5321    0.4544    0.0000 C   0  0  0  0  0  0  0  0  0
    3.9446    1.1688    0.0000 C   0  0  0  0  0  0  0  0  0
    1.0571    0.4544    0.0000 C   0  0  0  0  0  0  0  0  0
    0.2321    0.4544    0.0000 C   0  0  0  0  0  0  0  0  0
   -0.1804   -0.2601    0.0000 C   0  0  0  0  0  0  0  0  0
    0.2321   -0.9746    0.0000 C   0  0  0  0  0  0  0  0  0
   -0.1804   -1.6890    0.0000 C   0  0  0  0  0  0  0  0  0
   -1.0054   -1.6890    0.0000 C   0  0  0  0  0  0  0  0  0
   -1.4179   -0.9746    0.0000 C   0  0  0  0  0  0  0  0  0
   -1.0054   -0.2601    0.0000 C   0  0  0  0  0  0  0  0  0
   -1.4179   -2.4035    0.0000 C   0  0  0  0  0  0  0  0  0
   -1.0054   -3.1180    0.0000 O   0  0  0  0  0  0  0  0  0
   -2.2429   -2.4035    0.0000 C   0  0  0  0  0  0  0  0  0
  1  2  1  0  0  0  0
  1  6  1  0  0  0  0
  2  3  1  0  0  0  0
  2 13  1  0  0  0  0
  3  4  1  0  0  0  0
  3 10  1  0  0  0  0
  4  5  1  0  0  0  0
  4  7  1  0  0  0  0
  5  6  1  0  0  0  0
  7  8  1  0  0  0  0
  8  9  1  0  0  0  0
 10 11  1  0  0  0  0
 11 12  1  0  0  0  0
 12 13  4  0  0  0  0
 12 17  4  0  0  0  0
 13 14  4  0  0  0  0
 14 15  4  0  0  0  0
 15 16  4  0  0  0  0
 15 18  1  0  0  0  0
 16 17  4  0  0  0  0
 18 19  2  0  0  0  0
 18 20  1  0  0  0  0
M  END
>  <Name_Molregno>
520214

>  <DOPAMINE D2>
5.51

>  <DOPAMINE D3>
7.02

$$$$
520215
  Marvin  02231216192D 0   1.00000     0.00000     0

 22 25  0  0  1  0  0  0  0  0999 V2000
    0.9713   -1.7476    0.0000 O   0  0  0  0  0  0  0  0  0
    0.5588   -1.0331    0.0000 C   0  0  0  0  0  0  0  0  0
    0.9713   -0.3186    0.0000 C   0  0  0  0  0  0  0  0  0
    1.7963   -0.3186    0.0000 N   0  0  0  0  0  0  0  0  0
    2.2088   -1.0331    0.0000 C   0  0  0  0  0  0  0  0  0
    1.7963   -1.7476    0.0000 C   0  0  0  0  0  0  0  0  0
    2.2088    0.3959    0.0000 C   0  0  0  0  0  0  0  0  0
    3.0338    0.3959    0.0000 C   0  0  0  0  0  0  0  0  0
    3.4463    1.1103    0.0000 C   0  0  0  0  0  0  0  0  0
    0.5588    0.3959    0.0000 C   0  0  0  0  0  0  0  0  0
   -0.2662    0.3959    0.0000 C   0  0  0  0  0  0  0  0  0
   -0.6787   -0.3186    0.0000 C   0  0  0  0  0  0  0  0  0
   -0.2662   -1.0331    0.0000 C   0  0  0  0  0  0  0  0  0
   -0.6787   -1.7476    0.0000 C   0  0  0  0  0  0  0  0  0
   -1.5037   -1.7476    0.0000 C   0  0  0  0  0  0  0  0  0
   -1.9162   -1.0331    0.0000 C   0  0  0  0  0  0  0  0  0
   -1.5037   -0.3186    0.0000 C   0  0  0  0  0  0  0  0  0
   -1.9162   -2.4620    0.0000 C   0  0  0  0  0  0  0  0  0
   -1.5806   -3.2157    0.0000 N   0  0  0  0  0  0  0  0  0
   -2.1937   -3.7677    0.0000 N   0  0  0  0  0  0  0  0  0
   -2.9082   -3.3552    0.0000 N   0  0  0  0  0  0  0  0  0
   -2.7367   -2.5483    0.0000 N   0  0  0  0  0  0  0  0  0
  1  2  1  0  0  0  0
  1  6  1  0  0  0  0
  2  3  1  0  0  0  0
  2 13  1  0  0  0  0
  3  4  1  0  0  0  0
  3 10  1  0  0  0  0
  4  5  1  0  0  0  0
  4  7  1  0  0  0  0
  5  6  1  0  0  0  0
  7  8  1  0  0  0  0
  8  9  1  0  0  0  0
 10 11  1  0  0  0  0
 11 12  1  0  0  0  0
 12 13  4  0  0  0  0
 12 17  4  0  0  0  0
 13 14  4  0  0  0  0
 14 15  4  0  0  0  0
 15 16  4  0  0  0  0
 15 18  1  0  0  0  0
 16 17  4  0  0  0  0
 18 19  4  0  0  0  0
 18 22  4  0  0  0  0
 19 20  4  0  0  0  0
 20 21  4  0  0  0  0
 21 22  4  0  0  0  0
M  STY  1   1 DAT
M  SAL   1  1  19
M  SDT   1 MRV_IMPLICIT_H                                        
M  SDD   1     0.0000    0.0000    DR    ALL  0       0  
M  SED   1 IMPL_H1
M  END
>  <Name_Molregno>
520215

>  <DOPAMINE D2>
5

>  <DOPAMINE D3>
5

$$$$
520216
  Marvin  02231216192D 0   1.00000     0.00000     0

 22 24  0  0  1  0  0  0  0  0999 V2000
    1.9752   -1.1892    0.0000 O   0  0  0  0  0  0  0  0  0
    1.5627   -0.4748    0.0000 C   0  0  0  0  0  0  0  0  0
    1.9752    0.2397    0.0000 C   0  0  0  0  0  0  0  0  0
    2.8002    0.2397    0.0000 N   0  0  0  0  0  0  0  0  0
    3.2127   -0.4748    0.0000 C   0  0  0  0  0  0  0  0  0
    2.8002   -1.1892    0.0000 C   0  0  0  0  0  0  0  0  0
    3.2127    0.9542    0.0000 C   0  0  0  0  0  0  0  0  0
    4.0377    0.9542    0.0000 C   0  0  0  0  0  0  0  0  0
    4.4502    1.6687    0.0000 C   0  0  0  0  0  0  0  0  0
    1.5627    0.9542    0.0000 C   0  0  0  0  0  0  0  0  0
    0.7377    0.9542    0.0000 C   0  0  0  0  0  0  0  0  0
    0.3252    0.2397    0.0000 C   0  0  0  0  0  0  0  0  0
    0.7377   -0.4748    0.0000 C   0  0  0  0  0  0  0  0  0
    0.3252   -1.1892    0.0000 C   0  0  0  0  0  0  0  0  0
   -0.4998   -1.1892    0.0000 C   0  0  0  0  0  0  0  0  0
   -0.9123   -0.4748    0.0000 C   0  0  0  0  0  0  0  0  0
   -0.4998    0.2397    0.0000 C   0  0  0  0  0  0  0  0  0
   -0.9123   -1.9037    0.0000 C   0  0  0  0  0  0  0  0  0
   -0.4998   -2.6182    0.0000 O   0  0  0  0  0  0  0  0  0
   -0.9123   -3.3326    0.0000 C   0  0  0  0  0  0  0  0  0
   -0.4998   -4.0471    0.0000 C   0  0  0  0  0  0  0  0  0
   -1.7373   -1.9037    0.0000 O   0  0  0  0  0  0  0  0  0
  1  2  1  0  0  0  0
  1  6  1  0  0  0  0
  2  3  1  0  0  0  0
  2 13  1  0  0  0  0
  3  4  1  0  0  0  0
  3 10  1  0  0  0  0
  4  5  1  0  0  0  0
  4  7  1  0  0  0  0
  5  6  1  0  0  0  0
  7  8  1  0  0  0  0
  8  9  1  0  0  0  0
 10 11  1  0  0  0  0
 11 12  1  0  0  0  0
 12 13  4  0  0  0  0
 12 17  4  0  0  0  0
 13 14  4  0  0  0  0
 14 15  4  0  0  0  0
 15 16  4  0  0  0  0
 15 18  1  0  0  0  0
 16 17  4  0  0  0  0
 18 19  1  0  0  0  0
 18 22  2  0  0  0  0
 19 20  1  0  0  0  0
 20 21  1  0  0  0  0
M  END
>  <Name_Molregno>
520216

>  <DOPAMINE D3>
5.58

$$$$
520287
  Marvin  02231216192D 0   1.00000     0.00000     0

 21 23  0  0  1  0  0  0  0  0999 V2000
    1.7807   -1.4810    0.0000 O   0  0  0  0  0  0  0  0  0
    1.3682   -0.7666    0.0000 C   0  0  0  0  0  0  0  0  0
    1.7807   -0.0521    0.0000 C   0  0  0  0  0  0  0  0  0
    2.6057   -0.0521    0.0000 N   0  0  0  0  0  0  0  0  0
    3.0182   -0.7666    0.0000 C   0  0  0  0  0  0  0  0  0
    2.6057   -1.4810    0.0000 C   0  0  0  0  0  0  0  0  0
    3.0182    0.6624    0.0000 C   0  0  0  0  0  0  0  0  0
    3.8432    0.6624    0.0000 C   0  0  0  0  0  0  0  0  0
    4.2557    1.3768    0.0000 C   0  0  0  0  0  0  0  0  0
    1.3682    0.6624    0.0000 C   0  0  0  0  0  0  0  0  0
    0.5432    0.6624    0.0000 C   0  0  0  0  0  0  0  0  0
    0.1307   -0.0521    0.0000 C   0  0  0  0  0  0  0  0  0
    0.5432   -0.7666    0.0000 C   0  0  0  0  0  0  0  0  0
    0.1307   -1.4810    0.0000 C   0  0  0  0  0  0  0  0  0
   -0.6943   -1.4810    0.0000 C   0  0  0  0  0  0  0  0  0
   -1.1068   -0.7666    0.0000 C   0  0  0  0  0  0  0  0  0
   -0.6943   -0.0521    0.0000 C   0  0  0  0  0  0  0  0  0
   -1.1068   -2.1955    0.0000 C   0  0  0  0  0  0  0  0  0
   -0.6943   -2.9100    0.0000 O   0  0  0  0  0  0  0  0  0
   -1.9318   -2.1955    0.0000 N   0  0  0  0  0  0  0  0  0
   -2.3443   -2.9100    0.0000 C   0  0  0  0  0  0  0  0  0
  1  2  1  0  0  0  0
  1  6  1  0  0  0  0
  2  3  1  0  0  0  0
  2 13  1  0  0  0  0
  3  4  1  0  0  0  0
  3 10  1  0  0  0  0
  4  5  1  0  0  0  0
  4  7  1  0  0  0  0
  5  6  1  0  0  0  0
  7  8  1  0  0  0  0
  8  9  1  0  0  0  0
 10 11  1  0  0  0  0
 11 12  1  0  0  0  0
 12 13  4  0  0  0  0
 12 17  4  0  0  0  0
 13 14  4  0  0  0  0
 14 15  4  0  0  0  0
 15 16  4  0  0  0  0
 15 18  1  0  0  0  0
 16 17  4  0  0  0  0
 18 19  2  0  0  0  0
 18 20  1  0  0  0  0
 20 21  1  0  0  0  0
M  END
>  <Name_Molregno>
520287

>  <DOPAMINE D2>
5.1

>  <DOPAMINE D3>
5

$$$$
520288
  Marvin  02231216192D 0   1.00000     0.00000     0

 22 24  0  0  1  0  0  0  0  0999 V2000
    2.0670   -1.4188    0.0000 O   0  0  0  0  0  0  0  0  0
    1.6545   -0.7043    0.0000 C   0  0  0  0  0  0  0  0  0
    2.0670    0.0102    0.0000 C   0  0  0  0  0  0  0  0  0
    2.8920    0.0102    0.0000 N   0  0  0  0  0  0  0  0  0
    3.3045   -0.7043    0.0000 C   0  0  0  0  0  0  0  0  0
    2.8920   -1.4188    0.0000 C   0  0  0  0  0  0  0  0  0
    3.3045    0.7246    0.0000 C   0  0  0  0  0  0  0  0  0
    4.1295    0.7246    0.0000 C   0  0  0  0  0  0  0  0  0
    4.5420    1.4391    0.0000 C   0  0  0  0  0  0  0  0  0
    1.6545    0.7246    0.0000 C   0  0  0  0  0  0  0  0  0
    0.8295    0.7246    0.0000 C   0  0  0  0  0  0  0  0  0
    0.4170    0.0102    0.0000 C   0  0  0  0  0  0  0  0  0
    0.8295   -0.7043    0.0000 C   0  0  0  0  0  0  0  0  0
    0.4170   -1.4188    0.0000 C   0  0  0  0  0  0  0  0  0
   -0.4080   -1.4188    0.0000 C   0  0  0  0  0  0  0  0  0
   -0.8205   -0.7043    0.0000 C   0  0  0  0  0  0  0  0  0
   -0.4080    0.0102    0.0000 C   0  0  0  0  0  0  0  0  0
   -0.8205   -2.1333    0.0000 C   0  0  0  0  0  0  0  0  0
   -0.4080   -2.8477    0.0000 O   0  0  0  0  0  0  0  0  0
   -1.6455   -2.1333    0.0000 N   0  0  0  0  0  0  0  0  0
   -2.0580   -2.8477    0.0000 C   0  0  0  0  0  0  0  0  0
   -2.0580   -1.4188    0.0000 C   0  0  0  0  0  0  0  0  0
  1  2  1  0  0  0  0
  1  6  1  0  0  0  0
  2  3  1  0  0  0  0
  2 13  1  0  0  0  0
  3  4  1  0  0  0  0
  3 10  1  0  0  0  0
  4  5  1  0  0  0  0
  4  7  1  0  0  0  0
  5  6  1  0  0  0  0
  7  8  1  0  0  0  0
  8  9  1  0  0  0  0
 10 11  1  0  0  0  0
 11 12  1  0  0  0  0
 12 13  4  0  0  0  0
 12 17  4  0  0  0  0
 13 14  4  0  0  0  0
 14 15  4  0  0  0  0
 15 16  4  0  0  0  0
 15 18  1  0  0  0  0
 16 17  4  0  0  0  0
 18 19  2  0  0  0  0
 18 20  1  0  0  0  0
 20 21  1  0  0  0  0
 20 22  1  0  0  0  0
M  END
>  <Name_Molregno>
520288

>  <DOPAMINE D2>
5.73

>  <DOPAMINE D3>
5

$$$$
520289
  Marvin  02231216192D 0   1.00000     0.00000     0

 24 26  0  0  1  0  0  0  0  0999 V2000
   -1.2604    0.6570    0.0000 O   0  0  0  0  0  0  0  0  0
   -1.9748    0.2445    0.0000 C   0  0  0  0  0  0  0  0  0
   -2.6893    0.6570    0.0000 C   0  0  0  0  0  0  0  0  0
   -2.6893    1.4820    0.0000 N   0  0  0  0  0  0  0  0  0
   -1.9748    1.8945    0.0000 C   0  0  0  0  0  0  0  0  0
   -1.2604    1.4820    0.0000 C   0  0  0  0  0  0  0  0  0
   -3.4038    1.8945    0.0000 C   0  0  0  0  0  0  0  0  0
   -3.4038    2.7195    0.0000 C   0  0  0  0  0  0  0  0  0
   -4.1183    3.1320    0.0000 C   0  0  0  0  0  0  0  0  0
   -3.4038    0.2445    0.0000 C   0  0  0  0  0  0  0  0  0
   -3.4038   -0.5805    0.0000 C   0  0  0  0  0  0  0  0  0
   -2.6893   -0.9930    0.0000 C   0  0  0  0  0  0  0  0  0
   -1.9748   -0.5805    0.0000 C   0  0  0  0  0  0  0  0  0
   -1.2604   -0.9930    0.0000 C   0  0  0  0  0  0  0  0  0
   -1.2604   -1.8180    0.0000 C   0  0  0  0  0  0  0  0  0
   -1.9748   -2.2305    0.0000 C   0  0  0  0  0  0  0  0  0
   -2.6893   -1.8180    0.0000 C   0  0  0  0  0  0  0  0  0
   -0.5459   -2.2305    0.0000 C   0  0  0  0  0  0  0  0  0
   -0.5459   -3.0555    0.0000 O   0  0  0  0  0  0  0  0  0
    0.1686   -1.8180    0.0000 N   0  0  0  0  0  0  0  0  0
    0.8830   -2.2305    0.0000 C   0  0  0  0  0  0  0  0  0
    1.5975   -1.8180    0.0000 C   0  0  0  0  0  0  0  0  0
    2.3120   -2.2305    0.0000 C   0  0  0  0  0  0  0  0  0
    3.0264   -1.8180    0.0000 C   0  0  0  0  0  0  0  0  0
  1  2  1  0  0  0  0
  1  6  1  0  0  0  0
  2  3  1  0  0  0  0
  2 13  1  0  0  0  0
  3  4  1  0  0  0  0
  3 10  1  0  0  0  0
  4  5  1  0  0  0  0
  4  7  1  0  0  0  0
  5  6  1  0  0  0  0
  7  8  1  0  0  0  0
  8  9  1  0  0  0  0
 10 11  1  0  0  0  0
 11 12  1  0  0  0  0
 12 13  4  0  0  0  0
 12 17  4  0  0  0  0
 13 14  4  0  0  0  0
 14 15  4  0  0  0  0
 15 16  4  0  0  0  0
 15 18  1  0  0  0  0
 16 17  4  0  0  0  0
 18 19  2  0  0  0  0
 18 20  1  0  0  0  0
 20 21  1  0  0  0  0
 21 22  1  0  0  0  0
 22 23  1  0  0  0  0
 23 24  1  0  0  0  0
M  END
>  <Name_Molregno>
520289

>  <DOPAMINE D2>
5.34

>  <DOPAMINE D3>
5

$$$$
520290
  Marvin  02231216192D 0   1.00000     0.00000     0

 29 32  0  0  1  0  0  0  0  0999 V2000
    4.6886   -0.2539    0.0000 O   0  0  0  0  0  0  0  0  0
    4.2761    0.4606    0.0000 C   0  0  0  0  0  0  0  0  0
    4.6886    1.1751    0.0000 C   0  0  0  0  0  0  0  0  0
    5.5136    1.1751    0.0000 N   0  0  0  0  0  0  0  0  0
    5.9261    0.4606    0.0000 C   0  0  0  0  0  0  0  0  0
    5.5136   -0.2539    0.0000 C   0  0  0  0  0  0  0  0  0
    5.9261    1.8896    0.0000 C   0  0  0  0  0  0  0  0  0
    6.7511    1.8896    0.0000 C   0  0  0  0  0  0  0  0  0
    7.1636    2.6040    0.0000 C   0  0  0  0  0  0  0  0  0
    4.2761    1.8896    0.0000 C   0  0  0  0  0  0  0  0  0
    3.4511    1.8896    0.0000 C   0  0  0  0  0  0  0  0  0
    3.0386    1.1751    0.0000 C   0  0  0  0  0  0  0  0  0
    3.4511    0.4606    0.0000 C   0  0  0  0  0  0  0  0  0
    3.0386   -0.2539    0.0000 C   0  0  0  0  0  0  0  0  0
    2.2136   -0.2539    0.0000 C   0  0  0  0  0  0  0  0  0
    1.8011    0.4606    0.0000 C   0  0  0  0  0  0  0  0  0
    2.2136    1.1751    0.0000 C   0  0  0  0  0  0  0  0  0
    1.8011   -0.9683    0.0000 C   0  0  0  0  0  0  0  0  0
    2.2136   -1.6828    0.0000 O   0  0  0  0  0  0  0  0  0
    0.9761   -0.9683    0.0000 N   0  0  0  0  0  0  0  0  0
    0.5636   -1.6828    0.0000 C   0  0  0  0  0  0  0  0  0
   -0.2614   -1.6828    0.0000 C   0  0  0  0  0  0  0  0  0
   -0.6739   -2.3973    0.0000 C   0  0  0  0  0  0  0  0  0
   -1.4989   -2.3973    0.0000 C   0  0  0  0  0  0  0  0  0
   -1.9114   -1.6828    0.0000 C   0  0  0  0  0  0  0  0  0
   -2.7364   -1.6828    0.0000 O   0  0  0  0  0  0  0  0  0
   -3.1489   -2.3973    0.0000 C   0  0  0  0  0  0  0  0  0
   -1.4989   -0.9683    0.0000 C   0  0  0  0  0  0  0  0  0
   -0.6739   -0.9683    0.0000 C   0  0  0  0  0  0  0  0  0
  1  2  1  0  0  0  0
  1  6  1  0  0  0  0
  2  3  1  0  0  0  0
  2 13  1  0  0  0  0
  3  4  1  0  0  0  0
  3 10  1  0  0  0  0
  4  5  1  0  0  0  0
  4  7  1  0  0  0  0
  5  6  1  0  0  0  0
  7  8  1  0  0  0  0
  8  9  1  0  0  0  0
 10 11  1  0  0  0  0
 11 12  1  0  0  0  0
 12 13  4  0  0  0  0
 12 17  4  0  0  0  0
 13 14  4  0  0  0  0
 14 15  4  0  0  0  0
 15 16  4  0  0  0  0
 15 18  1  0  0  0  0
 16 17  4  0  0  0  0
 18 19  2  0  0  0  0
 18 20  1  0  0  0  0
 20 21  1  0  0  0  0
 21 22  1  0  0  0  0
 22 23  4  0  0  0  0
 22 29  4  0  0  0  0
 23 24  4  0  0  0  0
 24 25  4  0  0  0  0
 25 26  1  0  0  0  0
 25 28  4  0  0  0  0
 26 27  1  0  0  0  0
 28 29  4  0  0  0  0
M  END
>  <Name_Molregno>
520290

>  <DOPAMINE D2>
5.47

>  <DOPAMINE D3>
5

$$$$
520291
  Marvin  02231216192D 0   1.00000     0.00000     0

 28 31  0  0  1  0  0  0  0  0999 V2000
   -0.1459   -0.5187    0.0000 O   0  0  0  0  0  0  0  0  0
   -0.5584    0.1957    0.0000 C   0  0  0  0  0  0  0  0  0
   -0.1459    0.9102    0.0000 C   0  0  0  0  0  0  0  0  0
    0.6791    0.9102    0.0000 N   0  0  0  0  0  0  0  0  0
    1.0916    0.1957    0.0000 C   0  0  0  0  0  0  0  0  0
    0.6791   -0.5187    0.0000 C   0  0  0  0  0  0  0  0  0
    1.0916    1.6247    0.0000 C   0  0  0  0  0  0  0  0  0
    1.9166    1.6247    0.0000 C   0  0  0  0  0  0  0  0  0
    2.3291    2.3391    0.0000 C   0  0  0  0  0  0  0  0  0
   -0.5584    1.6247    0.0000 C   0  0  0  0  0  0  0  0  0
   -1.3834    1.6247    0.0000 C   0  0  0  0  0  0  0  0  0
   -1.7959    0.9102    0.0000 C   0  0  0  0  0  0  0  0  0
   -1.3834    0.1957    0.0000 C   0  0  0  0  0  0  0  0  0
   -1.7959   -0.5187    0.0000 C   0  0  0  0  0  0  0  0  0
   -2.6209   -0.5187    0.0000 C   0  0  0  0  0  0  0  0  0
   -3.0334    0.1957    0.0000 C   0  0  0  0  0  0  0  0  0
   -2.6209    0.9102    0.0000 C   0  0  0  0  0  0  0  0  0
   -3.0334   -1.2332    0.0000 C   0  0  0  0  0  0  0  0  0
   -3.8584   -1.2332    0.0000 O   0  0  0  0  0  0  0  0  0
   -2.6209   -1.9477    0.0000 N   0  0  0  0  0  0  0  0  0
   -3.0334   -2.6622    0.0000 C   0  0  0  0  0  0  0  0  0
   -2.6209   -3.3766    0.0000 C   0  0  0  0  0  0  0  0  0
   -3.0334   -4.0911    0.0000 C   0  0  0  0  0  0  0  0  0
   -3.8584   -4.0911    0.0000 C   0  0  0  0  0  0  0  0  0
   -4.2709   -4.8056    0.0000 O   0  0  0  0  0  0  0  0  0
   -3.8584   -5.5200    0.0000 C   0  0  0  0  0  0  0  0  0
   -4.2709   -3.3766    0.0000 C   0  0  0  0  0  0  0  0  0
   -3.8584   -2.6622    0.0000 C   0  0  0  0  0  0  0  0  0
  1  2  1  0  0  0  0
  1  6  1  0  0  0  0
  2  3  1  0  0  0  0
  2 13  1  0  0  0  0
  3  4  1  0  0  0  0
  3 10  1  0  0  0  0
  4  5  1  0  0  0  0
  4  7  1  0  0  0  0
  5  6  1  0  0  0  0
  7  8  1  0  0  0  0
  8  9  1  0  0  0  0
 10 11  1  0  0  0  0
 11 12  1  0  0  0  0
 12 13  4  0  0  0  0
 12 17  4  0  0  0  0
 13 14  4  0  0  0  0
 14 15  4  0  0  0  0
 15 16  4  0  0  0  0
 15 18  1  0  0  0  0
 16 17  4  0  0  0  0
 18 19  2  0  0  0  0
 18 20  1  0  0  0  0
 20 21  1  0  0  0  0
 21 22  4  0  0  0  0
 21 28  4  0  0  0  0
 22 23  4  0  0  0  0
 23 24  4  0  0  0  0
 24 25  1  0  0  0  0
 24 27  4  0  0  0  0
 25 26  1  0  0  0  0
 27 28  4  0  0  0  0
M  END
>  <Name_Molregno>
520291

>  <DOPAMINE D2>
5

>  <DOPAMINE D3>
5.56

$$$$
520356
  Marvin  02231216192D 0   1.00000     0.00000     0

 21 24  0  0  1  0  0  0  0  0999 V2000
    0.0850    0.8294    0.0000 O   0  0  0  0  0  0  0  0  0
    0.3143    0.0369    0.0000 C   0  0  0  0  0  0  0  0  0
    1.1389    0.0101    0.0000 C   0  0  0  0  0  0  0  0  0
    1.4192    0.7860    0.0000 C   0  0  0  0  0  0  0  0  0
    2.2313    0.9313    0.0000 C   0  0  0  0  0  0  0  0  0
    2.7631    0.3005    0.0000 C   0  0  0  0  0  0  0  0  0
    3.5752    0.4458    0.0000 C   0  0  0  0  0  0  0  0  0
    3.8555    1.2217    0.0000 O   0  0  0  0  0  0  0  0  0
    4.6677    1.3669    0.0000 C   0  0  0  0  0  0  0  0  0
    5.1995    0.7362    0.0000 C   0  0  0  0  0  0  0  0  0
    4.9192   -0.0397    0.0000 N   0  0  0  0  0  0  0  0  0
    4.1071   -0.1849    0.0000 C   0  0  0  0  0  0  0  0  0
    3.8268   -0.9609    0.0000 C   0  0  0  0  0  0  0  0  0
    3.0146   -1.1061    0.0000 C   0  0  0  0  0  0  0  0  0
    2.4828   -0.4754    0.0000 C   0  0  0  0  0  0  0  0  0
    1.6707   -0.6206    0.0000 C   0  0  0  0  0  0  0  0  0
    5.4510   -0.6704    0.0000 C   0  0  0  0  0  0  0  0  0
    5.1707   -1.4464    0.0000 C   0  0  0  0  0  0  0  0  0
    5.7025   -2.0771    0.0000 C   0  0  0  0  0  0  0  0  0
    0.7678    1.2924    0.0000 C   0  0  0  0  0  0  0  0  0
    0.7947    2.1170    0.0000 O   0  0  0  0  0  0  0  0  0
  1  2  1  0  0  0  0
  1 20  1  0  0  0  0
  2  3  1  0  0  0  0
  3  4  4  0  0  0  0
  3 16  4  0  0  0  0
  4  5  4  0  0  0  0
  4 20  1  0  0  0  0
  5  6  4  0  0  0  0
  6  7  1  0  0  0  0
  6 15  4  0  0  0  0
  7  8  1  0  0  0  0
  7 12  1  0  0  0  0
  8  9  1  0  0  0  0
  9 10  1  0  0  0  0
 10 11  1  0  0  0  0
 11 12  1  0  0  0  0
 11 17  1  0  0  0  0
 12 13  1  0  0  0  0
 13 14  1  0  0  0  0
 14 15  1  0  0  0  0
 15 16  4  0  0  0  0
 17 18  1  0  0  0  0
 18 19  1  0  0  0  0
 20 21  2  0  0  0  0
M  END
>  <Name_Molregno>
520356

>  <DOPAMINE D2>
5.69

>  <DOPAMINE D3>
8.12

$$$$
520357
  Marvin  02231216192D 0   1.00000     0.00000     0

 22 25  0  0  1  0  0  0  0  0999 V2000
    1.9613   -0.1953    0.0000 O   0  0  0  0  0  0  0  0  0
    1.6810    0.5806    0.0000 C   0  0  0  0  0  0  0  0  0
    2.2128    1.2113    0.0000 C   0  0  0  0  0  0  0  0  0
    3.0250    1.0661    0.0000 N   0  0  0  0  0  0  0  0  0
    3.3053    0.2902    0.0000 C   0  0  0  0  0  0  0  0  0
    2.7734   -0.3405    0.0000 C   0  0  0  0  0  0  0  0  0
    3.5568    1.6968    0.0000 C   0  0  0  0  0  0  0  0  0
    4.3689    1.5516    0.0000 C   0  0  0  0  0  0  0  0  0
    4.9007    2.1823    0.0000 C   0  0  0  0  0  0  0  0  0
    1.9326    1.9873    0.0000 C   0  0  0  0  0  0  0  0  0
    1.1204    2.1325    0.0000 C   0  0  0  0  0  0  0  0  0
    0.5886    1.5018    0.0000 C   0  0  0  0  0  0  0  0  0
    0.8689    0.7258    0.0000 C   0  0  0  0  0  0  0  0  0
    0.3371    0.0951    0.0000 C   0  0  0  0  0  0  0  0  0
   -0.4750    0.2404    0.0000 C   0  0  0  0  0  0  0  0  0
   -0.7553    1.0163    0.0000 C   0  0  0  0  0  0  0  0  0
   -1.5799    0.9895    0.0000 C   0  0  0  0  0  0  0  0  0
   -1.8092    0.1970    0.0000 N   0  0  0  0  0  0  0  0  0
   -2.5851   -0.0833    0.0000 C   0  0  0  0  0  0  0  0  0
   -1.1264   -0.2660    0.0000 C   0  0  0  0  0  0  0  0  0
   -1.0996   -1.0906    0.0000 O   0  0  0  0  0  0  0  0  0
   -0.2235    1.6470    0.0000 C   0  0  0  0  0  0  0  0  0
  1  2  1  0  0  0  0
  1  6  1  0  0  0  0
  2  3  1  0  0  0  0
  2 13  1  0  0  0  0
  3  4  1  0  0  0  0
  3 10  1  0  0  0  0
  4  5  1  0  0  0  0
  4  7  1  0  0  0  0
  5  6  1  0  0  0  0
  7  8  1  0  0  0  0
  8  9  1  0  0  0  0
 10 11  1  0  0  0  0
 11 12  1  0  0  0  0
 12 13  4  0  0  0  0
 12 22  4  0  0  0  0
 13 14  4  0  0  0  0
 14 15  4  0  0  0  0
 15 16  4  0  0  0  0
 15 20  1  0  0  0  0
 16 17  1  0  0  0  0
 16 22  4  0  0  0  0
 17 18  1  0  0  0  0
 18 19  1  0  0  0  0
 18 20  1  0  0  0  0
 20 21  2  0  0  0  0
M  END
>  <Name_Molregno>
520357

>  <DOPAMINE D2>
5

>  <DOPAMINE D3>
5.66

$$$$
520358
  Marvin  02231216192D 0   1.00000     0.00000     0

 22 25  0  0  1  0  0  0  0  0999 V2000
    0.1819    1.0837    0.0000 O   0  0  0  0  0  0  0  0  0
   -0.0882    0.3041    0.0000 C   0  0  0  0  0  0  0  0  0
    0.4519   -0.3195    0.0000 C   0  0  0  0  0  0  0  0  0
    1.2620   -0.1636    0.0000 C   0  0  0  0  0  0  0  0  0
    1.5321    0.6160    0.0000 C   0  0  0  0  0  0  0  0  0
    2.3422    0.7719    0.0000 C   0  0  0  0  0  0  0  0  0
    2.8823    0.1482    0.0000 C   0  0  0  0  0  0  0  0  0
    3.6925    0.3041    0.0000 C   0  0  0  0  0  0  0  0  0
    3.9625    1.0837    0.0000 O   0  0  0  0  0  0  0  0  0
    4.7726    1.2396    0.0000 C   0  0  0  0  0  0  0  0  0
    5.3127    0.6160    0.0000 C   0  0  0  0  0  0  0  0  0
    5.0427   -0.1636    0.0000 N   0  0  0  0  0  0  0  0  0
    4.2325   -0.3195    0.0000 C   0  0  0  0  0  0  0  0  0
    3.9625   -1.0990    0.0000 C   0  0  0  0  0  0  0  0  0
    3.1524   -1.2550    0.0000 C   0  0  0  0  0  0  0  0  0
    2.6123   -0.6313    0.0000 C   0  0  0  0  0  0  0  0  0
    1.8021   -0.7872    0.0000 C   0  0  0  0  0  0  0  0  0
    5.5828   -0.7872    0.0000 C   0  0  0  0  0  0  0  0  0
    5.3127   -1.5668    0.0000 C   0  0  0  0  0  0  0  0  0
    5.8528   -2.1904    0.0000 C   0  0  0  0  0  0  0  0  0
    0.9920    1.2396    0.0000 C   0  0  0  0  0  0  0  0  0
    1.2620    2.0192    0.0000 O   0  0  0  0  0  0  0  0  0
  1  2  1  0  0  0  0
  1 21  1  0  0  0  0
  2  3  1  0  0  0  0
  3  4  1  0  0  0  0
  4  5  4  0  0  0  0
  4 17  4  0  0  0  0
  5  6  4  0  0  0  0
  5 21  1  0  0  0  0
  6  7  4  0  0  0  0
  7  8  1  0  0  0  0
  7 16  4  0  0  0  0
  8  9  1  0  0  0  0
  8 13  1  0  0  0  0
  9 10  1  0  0  0  0
 10 11  1  0  0  0  0
 11 12  1  0  0  0  0
 12 13  1  0  0  0  0
 12 18  1  0  0  0  0
 13 14  1  0  0  0  0
 14 15  1  0  0  0  0
 15 16  1  0  0  0  0
 16 17  4  0  0  0  0
 18 19  1  0  0  0  0
 19 20  1  0  0  0  0
 21 22  2  0  0  0  0
M  END
>  <Name_Molregno>
520358

>  <DOPAMINE D2>
5.83

>  <DOPAMINE D3>
6.92

$$$$
520359
  Marvin  02231216192D 0   1.00000     0.00000     0

 22 25  0  0  1  0  0  0  0  0999 V2000
    1.8667    1.7790    0.0000 O   0  0  0  0  0  0  0  0  0
    1.5967    0.9994    0.0000 C   0  0  0  0  0  0  0  0  0
    2.1368    0.3758    0.0000 C   0  0  0  0  0  0  0  0  0
    2.9469    0.5317    0.0000 N   0  0  0  0  0  0  0  0  0
    3.2170    1.3113    0.0000 C   0  0  0  0  0  0  0  0  0
    2.6769    1.9349    0.0000 C   0  0  0  0  0  0  0  0  0
    3.4870   -0.0919    0.0000 C   0  0  0  0  0  0  0  0  0
    4.2971    0.0640    0.0000 C   0  0  0  0  0  0  0  0  0
    4.8372   -0.5597    0.0000 C   0  0  0  0  0  0  0  0  0
    1.8667   -0.4037    0.0000 C   0  0  0  0  0  0  0  0  0
    1.0566   -0.5597    0.0000 C   0  0  0  0  0  0  0  0  0
    0.5165    0.0640    0.0000 C   0  0  0  0  0  0  0  0  0
    0.7866    0.8435    0.0000 C   0  0  0  0  0  0  0  0  0
    0.2465    1.4672    0.0000 C   0  0  0  0  0  0  0  0  0
   -0.5637    1.3113    0.0000 C   0  0  0  0  0  0  0  0  0
   -0.8337    0.5317    0.0000 C   0  0  0  0  0  0  0  0  0
   -1.6438    0.3758    0.0000 C   0  0  0  0  0  0  0  0  0
   -2.1839    0.9994    0.0000 C   0  0  0  0  0  0  0  0  0
   -1.9139    1.7790    0.0000 N   0  0  0  0  0  0  0  0  0
   -1.1037    1.9349    0.0000 C   0  0  0  0  0  0  0  0  0
   -0.8337    2.7145    0.0000 O   0  0  0  0  0  0  0  0  0
   -0.2936   -0.0919    0.0000 C   0  0  0  0  0  0  0  0  0
  1  2  1  0  0  0  0
  1  6  1  0  0  0  0
  2  3  1  0  0  0  0
  2 13  1  0  0  0  0
  3  4  1  0  0  0  0
  3 10  1  0  0  0  0
  4  5  1  0  0  0  0
  4  7  1  0  0  0  0
  5  6  1  0  0  0  0
  7  8  1  0  0  0  0
  8  9  1  0  0  0  0
 10 11  1  0  0  0  0
 11 12  1  0  0  0  0
 12 13  4  0  0  0  0
 12 22  4  0  0  0  0
 13 14  4  0  0  0  0
 14 15  4  0  0  0  0
 15 16  4  0  0  0  0
 15 20  1  0  0  0  0
 16 17  1  0  0  0  0
 16 22  4  0  0  0  0
 17 18  1  0  0  0  0
 18 19  1  0  0  0  0
 19 20  1  0  0  0  0
 20 21  2  0  0  0  0
M  END
>  <Name_Molregno>
520359

>  <DOPAMINE D2>
6.11

>  <DOPAMINE D3>
7.42

$$$$
520425
  Marvin  02231216192D 0   1.00000     0.00000     0

 22 25  0  0  1  0  0  0  0  0999 V2000
    1.8667    1.7790    0.0000 O   0  0  0  0  0  0  0  0  0
    1.5967    0.9994    0.0000 C   0  0  0  0  0  0  0  0  0
    2.1368    0.3758    0.0000 C   0  0  0  0  0  0  0  0  0
    2.9469    0.5317    0.0000 N   0  0  0  0  0  0  0  0  0
    3.2170    1.3113    0.0000 C   0  0  0  0  0  0  0  0  0
    2.6769    1.9349    0.0000 C   0  0  0  0  0  0  0  0  0
    3.4870   -0.0919    0.0000 C   0  0  0  0  0  0  0  0  0
    4.2971    0.0640    0.0000 C   0  0  0  0  0  0  0  0  0
    4.8372   -0.5597    0.0000 C   0  0  0  0  0  0  0  0  0
    1.8667   -0.4037    0.0000 C   0  0  0  0  0  0  0  0  0
    1.0566   -0.5597    0.0000 C   0  0  0  0  0  0  0  0  0
    0.5165    0.0640    0.0000 C   0  0  0  0  0  0  0  0  0
    0.7866    0.8435    0.0000 C   0  0  0  0  0  0  0  0  0
    0.2465    1.4672    0.0000 C   0  0  0  0  0  0  0  0  0
   -0.5637    1.3113    0.0000 C   0  0  0  0  0  0  0  0  0
   -0.8337    0.5317    0.0000 C   0  0  0  0  0  0  0  0  0
   -1.6438    0.3758    0.0000 C   0  0  0  0  0  0  0  0  0
   -2.1839    0.9994    0.0000 C   0  0  0  0  0  0  0  0  0
   -1.9139    1.7790    0.0000 N   0  0  0  0  0  0  0  0  0
   -1.1037    1.9349    0.0000 C   0  0  0  0  0  0  0  0  0
   -0.8337    2.7145    0.0000 O   0  0  0  0  0  0  0  0  0
   -0.2936   -0.0919    0.0000 C   0  0  0  0  0  0  0  0  0
  1  2  1  0  0  0  0
  1  6  1  0  0  0  0
  2  3  1  0  0  0  0
  2 13  1  0  0  0  0
  3  4  1  0  0  0  0
  3 10  1  0  0  0  0
  4  5  1  0  0  0  0
  4  7  1  0  0  0  0
  5  6  1  0  0  0  0
  7  8  1  0  0  0  0
  8  9  1  0  0  0  0
 10 11  1  0  0  0  0
 11 12  1  0  0  0  0
 12 13  4  0  0  0  0
 12 22  4  0  0  0  0
 13 14  4  0  0  0  0
 14 15  4  0  0  0  0
 15 16  4  0  0  0  0
 15 20  1  0  0  0  0
 16 17  1  0  0  0  0
 16 22  4  0  0  0  0
 17 18  2  0  0  0  0
 18 19  1  0  0  0  0
 19 20  1  0  0  0  0
 20 21  2  0  0  0  0
M  END
>  <Name_Molregno>
520425

>  <DOPAMINE D2>
5.92

>  <DOPAMINE D3>
7.72

$$$$
544880
  Marvin  02231216192D 0   1.00000     0.00000     0

 32 36  0  0  0  0  0  0  0  0999 V2000
   -0.5061    0.7118    0.0000 O   0  0  0  0  0  0  0  0  0
   -0.0936   -0.0027    0.0000 C   0  0  0  0  0  0  0  0  0
   -0.5061   -0.7172    0.0000 N   0  0  0  0  0  0  0  0  0
   -1.3311   -0.7172    0.0000 C   0  0  0  0  0  0  0  0  0
   -1.7436   -1.4316    0.0000 C   0  0  0  0  0  0  0  0  0
   -2.5686   -1.4316    0.0000 C   0  0  0  0  0  0  0  0  0
   -2.9811   -0.7172    0.0000 C   0  0  0  0  0  0  0  0  0
   -2.5686   -0.0027    0.0000 C   0  0  0  0  0  0  0  0  0
   -1.7436   -0.0027    0.0000 C   0  0  0  0  0  0  0  0  0
   -3.8061   -0.7172    0.0000 C   0  0  0  0  0  0  0  0  0
   -4.2186   -0.0027    0.0000 C   0  0  0  0  0  0  0  0  0
   -5.0436   -0.0027    0.0000 N   0  0  0  0  0  0  0  0  0
   -5.4561    0.7118    0.0000 C   0  0  0  0  0  0  0  0  0
   -6.2811    0.7118    0.0000 C   0  0  0  0  0  0  0  0  0
   -6.6936   -0.0027    0.0000 C   0  0  0  0  0  0  0  0  0
   -6.2811   -0.7172    0.0000 C   0  0  0  0  0  0  0  0  0
   -6.6936   -1.4316    0.0000 C   0  0  0  0  0  0  0  0  0
   -7.5186   -1.4316    0.0000 C   0  0  0  0  0  0  0  0  0
   -7.9311   -0.7172    0.0000 C   0  0  0  0  0  0  0  0  0
   -7.5186   -0.0027    0.0000 C   0  0  0  0  0  0  0  0  0
   -7.9311   -2.1461    0.0000 C   0  0  0  0  0  0  0  0  0
   -8.3436   -2.8606    0.0000 N   0  0  0  0  0  0  0  0  0
   -5.4561   -0.7172    0.0000 C   0  0  0  0  0  0  0  0  0
    0.7314   -0.0027    0.0000 C   0  0  0  0  0  0  0  0  0
    1.2163   -0.6701    0.0000 N   0  0  0  0  0  0  0  0  0
    2.0009   -0.4152    0.0000 C   0  0  0  0  0  0  0  0  0
    2.0009    0.4098    0.0000 C   0  0  0  0  0  0  0  0  0
    1.2163    0.6647    0.0000 C   0  0  0  0  0  0  0  0  0
    2.7154    0.8223    0.0000 C   0  0  0  0  0  0  0  0  0
    3.4298    0.4098    0.0000 C   0  0  0  0  0  0  0  0  0
    3.4298   -0.4152    0.0000 C   0  0  0  0  0  0  0  0  0
    2.7154   -0.8277    0.0000 C   0  0  0  0  0  0  0  0  0
  1  2  2  0  0  0  0
  2  3  1  0  0  0  0
  2 24  1  0  0  0  0
  3  4  1  0  0  0  0
  4  5  1  0  0  0  0
  4  9  1  0  0  0  0
  5  6  1  0  0  0  0
  6  7  1  0  0  0  0
  7  8  1  0  0  0  0
  7 10  1  0  0  0  0
  8  9  1  0  0  0  0
 10 11  1  0  0  0  0
 11 12  1  0  0  0  0
 12 13  1  0  0  0  0
 12 23  1  0  0  0  0
 13 14  1  0  0  0  0
 14 15  1  0  0  0  0
 15 16  4  0  0  0  0
 15 20  4  0  0  0  0
 16 17  4  0  0  0  0
 16 23  1  0  0  0  0
 17 18  4  0  0  0  0
 18 19  4  0  0  0  0
 18 21  1  0  0  0  0
 19 20  4  0  0  0  0
 21 22  3  0  0  0  0
 24 25  4  0  0  0  0
 24 28  4  0  0  0  0
 25 26  4  0  0  0  0
 26 27  4  0  0  0  0
 26 32  4  0  0  0  0
 27 28  4  0  0  0  0
 27 29  4  0  0  0  0
 29 30  4  0  0  0  0
 30 31  4  0  0  0  0
 31 32  4  0  0  0  0
M  STY  1   1 DAT
M  SAL   1  1  25
M  SDT   1 MRV_IMPLICIT_H                                        
M  SDD   1     0.0000    0.0000    DR    ALL  0       0  
M  SED   1 IMPL_H1
M  END
>  <Name_Molregno>
544880

>  <5-HT1B>
6.2

>  <5-HT1D>
7

>  <DOPAMINE D2>
7

>  <DOPAMINE D3>
8.7

$$$$
544978
  Marvin  02231216192D 0   1.00000     0.00000     0

 33 37  0  0  0  0  0  0  0  0999 V2000
    4.9151   -0.5168    0.0000 O   0  0  0  0  0  0  0  0  0
    4.9151    0.3082    0.0000 C   0  0  0  0  0  0  0  0  0
    4.2006    0.7207    0.0000 N   0  0  0  0  0  0  0  0  0
    3.4862    0.3082    0.0000 C   0  0  0  0  0  0  0  0  0
    3.4862   -0.5168    0.0000 C   0  0  0  0  0  0  0  0  0
    2.7717   -0.9293    0.0000 C   0  0  0  0  0  0  0  0  0
    2.0572   -0.5168    0.0000 C   0  0  0  0  0  0  0  0  0
    2.0572    0.3082    0.0000 C   0  0  0  0  0  0  0  0  0
    2.7717    0.7207    0.0000 C   0  0  0  0  0  0  0  0  0
    1.3427   -0.9293    0.0000 C   0  0  0  0  0  0  0  0  0
    0.6283   -0.5168    0.0000 C   0  0  0  0  0  0  0  0  0
   -0.0862   -0.9293    0.0000 N   0  0  0  0  0  0  0  0  0
   -0.0862   -1.7543    0.0000 C   0  0  0  0  0  0  0  0  0
   -0.8007   -2.1668    0.0000 C   0  0  0  0  0  0  0  0  0
   -1.5151   -1.7543    0.0000 C   0  0  0  0  0  0  0  0  0
   -2.2296   -2.1668    0.0000 C   0  0  0  0  0  0  0  0  0
   -2.9441   -1.7543    0.0000 C   0  0  0  0  0  0  0  0  0
   -2.9441   -0.9293    0.0000 C   0  0  0  0  0  0  0  0  0
   -2.2296   -0.5168    0.0000 C   0  0  0  0  0  0  0  0  0
   -1.5151   -0.9293    0.0000 C   0  0  0  0  0  0  0  0  0
   -0.8007   -0.5168    0.0000 C   0  0  0  0  0  0  0  0  0
   -3.6586   -2.1668    0.0000 C   0  0  0  0  0  0  0  0  0
   -4.3730   -2.5793    0.0000 N   0  0  0  0  0  0  0  0  0
    5.6296    0.7207    0.0000 C   0  0  0  0  0  0  0  0  0
    6.3440    0.3082    0.0000 C   0  0  0  0  0  0  0  0  0
    7.0585    0.7207    0.0000 C   0  0  0  0  0  0  0  0  0
    7.0585    1.5457    0.0000 C   0  0  0  0  0  0  0  0  0
    6.3440    1.9582    0.0000 C   0  0  0  0  0  0  0  0  0
    5.6296    1.5457    0.0000 C   0  0  0  0  0  0  0  0  0
    7.7730    1.9582    0.0000 C   0  0  0  0  0  0  0  0  0
    8.4875    1.5457    0.0000 C   0  0  0  0  0  0  0  0  0
    8.4875    0.7207    0.0000 C   0  0  0  0  0  0  0  0  0
    7.7730    0.3082    0.0000 C   0  0  0  0  0  0  0  0  0
  1  2  2  0  0  0  0
  2  3  1  0  0  0  0
  2 24  1  0  0  0  0
  3  4  1  0  0  0  0
  4  5  1  0  0  0  0
  4  9  1  0  0  0  0
  5  6  1  0  0  0  0
  6  7  1  0  0  0  0
  7  8  1  0  0  0  0
  7 10  1  0  0  0  0
  8  9  1  0  0  0  0
 10 11  1  0  0  0  0
 11 12  1  0  0  0  0
 12 13  1  0  0  0  0
 12 21  1  0  0  0  0
 13 14  1  0  0  0  0
 14 15  1  0  0  0  0
 15 16  4  0  0  0  0
 15 20  4  0  0  0  0
 16 17  4  0  0  0  0
 17 18  4  0  0  0  0
 17 22  1  0  0  0  0
 18 19  4  0  0  0  0
 19 20  4  0  0  0  0
 20 21  1  0  0  0  0
 22 23  3  0  0  0  0
 24 25  4  0  0  0  0
 24 29  4  0  0  0  0
 25 26  4  0  0  0  0
 26 27  4  0  0  0  0
 26 33  4  0  0  0  0
 27 28  4  0  0  0  0
 27 30  4  0  0  0  0
 28 29  4  0  0  0  0
 30 31  4  0  0  0  0
 31 32  4  0  0  0  0
 32 33  4  0  0  0  0
M  END
>  <Name_Molregno>
544978

>  <5-HT1B>
5

>  <5-HT1D>
7

>  <DOPAMINE D2>
5.8

>  <DOPAMINE D3>
8

$$$$
545009
  Marvin  02231216192D 0   1.00000     0.00000     0

 32 35  0  0  0  0  0  0  0  0999 V2000
    0.9192   -3.6514    0.0000 F   0  0  0  0  0  0  0  0  0
    1.6337   -3.2389    0.0000 C   0  0  0  0  0  0  0  0  0
    1.6337   -2.4139    0.0000 C   0  0  0  0  0  0  0  0  0
    2.3482   -2.0014    0.0000 C   0  0  0  0  0  0  0  0  0
    3.0626   -2.4139    0.0000 C   0  0  0  0  0  0  0  0  0
    3.0626   -3.2389    0.0000 C   0  0  0  0  0  0  0  0  0
    2.3482   -3.6514    0.0000 C   0  0  0  0  0  0  0  0  0
    3.7771   -2.0014    0.0000 C   0  0  0  0  0  0  0  0  0
    4.4916   -2.4139    0.0000 C   0  0  0  0  0  0  0  0  0
    5.2060   -2.0014    0.0000 C   0  0  0  0  0  0  0  0  0
    5.9205   -2.4139    0.0000 O   0  0  0  0  0  0  0  0  0
    5.2060   -1.1764    0.0000 N   0  0  0  0  0  0  0  0  0
    5.9205   -0.7639    0.0000 C   0  0  0  0  0  0  0  0  0
    5.9205    0.0611    0.0000 C   0  0  0  0  0  0  0  0  0
    6.6350    0.4736    0.0000 C   0  0  0  0  0  0  0  0  0
    7.3495    0.0611    0.0000 C   0  0  0  0  0  0  0  0  0
    7.3495   -0.7639    0.0000 C   0  0  0  0  0  0  0  0  0
    6.6350   -1.1764    0.0000 C   0  0  0  0  0  0  0  0  0
    8.0639    0.4736    0.0000 C   0  0  0  0  0  0  0  0  0
    8.0639    1.2986    0.0000 C   0  0  0  0  0  0  0  0  0
    8.7784    1.7111    0.0000 N   0  0  0  0  0  0  0  0  0
    8.7784    2.5361    0.0000 C   0  0  0  0  0  0  0  0  0
    9.4929    2.9486    0.0000 C   0  0  0  0  0  0  0  0  0
   10.2073    2.5361    0.0000 C   0  0  0  0  0  0  0  0  0
   10.9218    2.9486    0.0000 C   0  0  0  0  0  0  0  0  0
   11.6363    2.5361    0.0000 C   0  0  0  0  0  0  0  0  0
   11.6363    1.7111    0.0000 C   0  0  0  0  0  0  0  0  0
   10.9218    1.2986    0.0000 C   0  0  0  0  0  0  0  0  0
   10.2073    1.7111    0.0000 C   0  0  0  0  0  0  0  0  0
    9.4929    1.2986    0.0000 C   0  0  0  0  0  0  0  0  0
   12.3508    2.9486    0.0000 C   0  0  0  0  0  0  0  0  0
   13.0652    3.3611    0.0000 N   0  0  0  0  0  0  0  0  0
  1  2  1  0  0  0  0
  2  3  4  0  0  0  0
  2  7  4  0  0  0  0
  3  4  4  0  0  0  0
  4  5  4  0  0  0  0
  5  6  4  0  0  0  0
  5  8  1  0  0  0  0
  6  7  4  0  0  0  0
  8  9  2  0  0  0  0
  9 10  1  0  0  0  0
 10 11  2  0  0  0  0
 10 12  1  0  0  0  0
 12 13  1  0  0  0  0
 13 14  1  0  0  0  0
 13 18  1  0  0  0  0
 14 15  1  0  0  0  0
 15 16  1  0  0  0  0
 16 17  1  0  0  0  0
 16 19  1  0  0  0  0
 17 18  1  0  0  0  0
 19 20  1  0  0  0  0
 20 21  1  0  0  0  0
 21 22  1  0  0  0  0
 21 30  1  0  0  0  0
 22 23  1  0  0  0  0
 23 24  1  0  0  0  0
 24 25  4  0  0  0  0
 24 29  4  0  0  0  0
 25 26  4  0  0  0  0
 26 27  4  0  0  0  0
 26 31  1  0  0  0  0
 27 28  4  0  0  0  0
 28 29  4  0  0  0  0
 29 30  1  0  0  0  0
 31 32  3  0  0  0  0
M  END
>  <Name_Molregno>
545009

>  <5-HT1B>
5

>  <5-HT1D>
6.2

>  <DOPAMINE D2>
6.7

>  <DOPAMINE D3>
8.5

$$$$
545012
  Marvin  02231216192D 0   1.00000     0.00000     0

 34 38  0  0  0  0  0  0  0  0999 V2000
    3.3093    1.1449    0.0000 O   0  0  0  0  0  0  0  0  0
    2.7573    1.7580    0.0000 C   0  0  0  0  0  0  0  0  0
    1.9503    1.5865    0.0000 N   0  0  0  0  0  0  0  0  0
    1.6954    0.8019    0.0000 C   0  0  0  0  0  0  0  0  0
    2.2474    0.1888    0.0000 C   0  0  0  0  0  0  0  0  0
    1.9925   -0.5959    0.0000 C   0  0  0  0  0  0  0  0  0
    1.1855   -0.7674    0.0000 C   0  0  0  0  0  0  0  0  0
    0.6335   -0.1543    0.0000 C   0  0  0  0  0  0  0  0  0
    0.8884    0.6303    0.0000 C   0  0  0  0  0  0  0  0  0
    0.9306   -1.5520    0.0000 C   0  0  0  0  0  0  0  0  0
    0.1236   -1.7235    0.0000 C   0  0  0  0  0  0  0  0  0
   -0.1314   -2.5082    0.0000 N   0  0  0  0  0  0  0  0  0
   -0.9383   -2.6797    0.0000 C   0  0  0  0  0  0  0  0  0
   -1.1933   -3.4643    0.0000 C   0  0  0  0  0  0  0  0  0
   -0.6412   -4.0774    0.0000 C   0  0  0  0  0  0  0  0  0
    0.1657   -3.9059    0.0000 C   0  0  0  0  0  0  0  0  0
    0.7178   -4.5190    0.0000 C   0  0  0  0  0  0  0  0  0
    0.4628   -5.3036    0.0000 C   0  0  0  0  0  0  0  0  0
   -0.3441   -5.4751    0.0000 C   0  0  0  0  0  0  0  0  0
   -0.8962   -4.8620    0.0000 C   0  0  0  0  0  0  0  0  0
    1.0149   -5.9167    0.0000 C   0  0  0  0  0  0  0  0  0
    1.5669   -6.5298    0.0000 N   0  0  0  0  0  0  0  0  0
    0.4207   -3.1213    0.0000 C   0  0  0  0  0  0  0  0  0
    3.0122    2.5426    0.0000 C   0  0  0  0  0  0  0  0  0
    3.8192    2.7142    0.0000 C   0  0  0  0  0  0  0  0  0
    4.0741    3.4988    0.0000 C   0  0  0  0  0  0  0  0  0
    4.8588    3.7537    0.0000 C   0  0  0  0  0  0  0  0  0
    4.8588    4.5787    0.0000 C   0  0  0  0  0  0  0  0  0
    4.0741    4.8337    0.0000 N   0  0  0  0  0  0  0  0  0
    3.5892    4.1662    0.0000 C   0  0  0  0  0  0  0  0  0
    5.5732    4.9912    0.0000 C   0  0  0  0  0  0  0  0  0
    6.2877    4.5787    0.0000 C   0  0  0  0  0  0  0  0  0
    6.2877    3.7537    0.0000 C   0  0  0  0  0  0  0  0  0
    5.5732    3.3412    0.0000 C   0  0  0  0  0  0  0  0  0
  1  2  2  0  0  0  0
  2  3  1  0  0  0  0
  2 24  1  0  0  0  0
  3  4  1  0  0  0  0
  4  5  1  0  0  0  0
  4  9  1  0  0  0  0
  5  6  1  0  0  0  0
  6  7  1  0  0  0  0
  7  8  1  0  0  0  0
  7 10  1  0  0  0  0
  8  9  1  0  0  0  0
 10 11  1  0  0  0  0
 11 12  1  0  0  0  0
 12 13  1  0  0  0  0
 12 23  1  0  0  0  0
 13 14  1  0  0  0  0
 14 15  1  0  0  0  0
 15 16  4  0  0  0  0
 15 20  4  0  0  0  0
 16 17  4  0  0  0  0
 16 23  1  0  0  0  0
 17 18  4  0  0  0  0
 18 19  4  0  0  0  0
 18 21  1  0  0  0  0
 19 20  4  0  0  0  0
 21 22  3  0  0  0  0
 24 25  2  0  0  0  0
 25 26  1  0  0  0  0
 26 27  4  0  0  0  0
 26 30  4  0  0  0  0
 27 28  4  0  0  0  0
 27 34  4  0  0  0  0
 28 29  4  0  0  0  0
 28 31  4  0  0  0  0
 29 30  4  0  0  0  0
 31 32  4  0  0  0  0
 32 33  4  0  0  0  0
 33 34  4  0  0  0  0
M  STY  1   1 DAT
M  SAL   1  1  29
M  SDT   1 MRV_IMPLICIT_H                                        
M  SDD   1     0.0000    0.0000    DR    ALL  0       0  
M  SED   1 IMPL_H1
M  END
>  <Name_Molregno>
545012

>  <DOPAMINE D2>
6.9

>  <DOPAMINE D3>
8.5

$$$$
545026
  Marvin  02231216192D 0   1.00000     0.00000     0

 30 33  0  0  0  0  0  0  0  0999 V2000
   -3.1708   -0.4729    0.0000 O   0  0  0  0  0  0  0  0  0
   -3.1708   -1.2979    0.0000 C   0  0  0  0  0  0  0  0  0
   -2.4563   -1.7104    0.0000 N   0  0  0  0  0  0  0  0  0
   -1.7419   -1.2979    0.0000 C   0  0  0  0  0  0  0  0  0
   -1.0274   -1.7104    0.0000 C   0  0  0  0  0  0  0  0  0
   -0.3129   -1.2979    0.0000 C   0  0  0  0  0  0  0  0  0
    0.4015   -1.7104    0.0000 C   0  0  0  0  0  0  0  0  0
    1.1160   -1.2979    0.0000 N   0  0  0  0  0  0  0  0  0
    1.8305   -1.7104    0.0000 C   0  0  0  0  0  0  0  0  0
    2.5450   -1.2979    0.0000 C   0  0  0  0  0  0  0  0  0
    2.5450   -0.4729    0.0000 C   0  0  0  0  0  0  0  0  0
    1.8305   -0.0604    0.0000 C   0  0  0  0  0  0  0  0  0
    1.8305    0.7646    0.0000 C   0  0  0  0  0  0  0  0  0
    2.5450    1.1771    0.0000 C   0  0  0  0  0  0  0  0  0
    3.2594    0.7646    0.0000 C   0  0  0  0  0  0  0  0  0
    3.2594   -0.0604    0.0000 C   0  0  0  0  0  0  0  0  0
    2.5450    2.0021    0.0000 C   0  0  0  0  0  0  0  0  0
    2.5450    2.8271    0.0000 N   0  0  0  0  0  0  0  0  0
    1.1160   -0.4729    0.0000 C   0  0  0  0  0  0  0  0  0
   -3.8853   -1.7104    0.0000 C   0  0  0  0  0  0  0  0  0
   -4.5997   -1.2979    0.0000 C   0  0  0  0  0  0  0  0  0
   -5.3142   -1.7104    0.0000 C   0  0  0  0  0  0  0  0  0
   -6.0679   -1.3749    0.0000 C   0  0  0  0  0  0  0  0  0
   -6.6199   -1.9880    0.0000 C   0  0  0  0  0  0  0  0  0
   -6.2074   -2.7025    0.0000 N   0  0  0  0  0  0  0  0  0
   -5.4005   -2.5309    0.0000 C   0  0  0  0  0  0  0  0  0
   -7.4269   -1.8165    0.0000 C   0  0  0  0  0  0  0  0  0
   -7.6818   -1.0318    0.0000 C   0  0  0  0  0  0  0  0  0
   -7.1298   -0.4187    0.0000 C   0  0  0  0  0  0  0  0  0
   -6.3228   -0.5903    0.0000 C   0  0  0  0  0  0  0  0  0
  1  2  2  0  0  0  0
  2  3  1  0  0  0  0
  2 20  1  0  0  0  0
  3  4  1  0  0  0  0
  4  5  1  0  0  0  0
  5  6  1  0  0  0  0
  6  7  1  0  0  0  0
  7  8  1  0  0  0  0
  8  9  1  0  0  0  0
  8 19  1  0  0  0  0
  9 10  1  0  0  0  0
 10 11  1  0  0  0  0
 11 12  4  0  0  0  0
 11 16  4  0  0  0  0
 12 13  4  0  0  0  0
 12 19  1  0  0  0  0
 13 14  4  0  0  0  0
 14 15  4  0  0  0  0
 14 17  1  0  0  0  0
 15 16  4  0  0  0  0
 17 18  3  0  0  0  0
 20 21  2  0  0  0  0
 21 22  1  0  0  0  0
 22 23  4  0  0  0  0
 22 26  4  0  0  0  0
 23 24  4  0  0  0  0
 23 30  4  0  0  0  0
 24 25  4  0  0  0  0
 24 27  4  0  0  0  0
 25 26  4  0  0  0  0
 27 28  4  0  0  0  0
 28 29  4  0  0  0  0
 29 30  4  0  0  0  0
M  STY  1   1 DAT
M  SAL   1  1  25
M  SDT   1 MRV_IMPLICIT_H                                        
M  SDD   1     0.0000    0.0000    DR    ALL  0       0  
M  SED   1 IMPL_H1
M  END
>  <Name_Molregno>
545026

>  <5-HT1B>
6.8

>  <5-HT1D>
6.6

>  <DOPAMINE D2>
6.1

>  <DOPAMINE D3>
7.9

$$$$
545029
  Marvin  02231216192D 0   1.00000     0.00000     0

 32 36  0  0  0  0  0  0  0  0999 V2000
    4.7939    0.4164    0.0000 O   0  0  0  0  0  0  0  0  0
    5.2064   -0.2981    0.0000 C   0  0  0  0  0  0  0  0  0
    4.7939   -1.0125    0.0000 N   0  0  0  0  0  0  0  0  0
    3.9689   -1.0125    0.0000 C   0  0  0  0  0  0  0  0  0
    3.5564   -1.7270    0.0000 C   0  0  0  0  0  0  0  0  0
    2.7314   -1.7270    0.0000 C   0  0  0  0  0  0  0  0  0
    2.3189   -1.0125    0.0000 C   0  0  0  0  0  0  0  0  0
    2.7314   -0.2981    0.0000 C   0  0  0  0  0  0  0  0  0
    3.5564   -0.2981    0.0000 C   0  0  0  0  0  0  0  0  0
    1.4939   -1.0125    0.0000 C   0  0  0  0  0  0  0  0  0
    1.0814   -0.2981    0.0000 C   0  0  0  0  0  0  0  0  0
    0.2564   -0.2981    0.0000 N   0  0  0  0  0  0  0  0  0
   -0.1561   -1.0125    0.0000 C   0  0  0  0  0  0  0  0  0
   -0.9811   -1.0125    0.0000 C   0  0  0  0  0  0  0  0  0
   -1.3936   -0.2981    0.0000 C   0  0  0  0  0  0  0  0  0
   -2.2186   -0.2981    0.0000 C   0  0  0  0  0  0  0  0  0
   -2.6311    0.4164    0.0000 C   0  0  0  0  0  0  0  0  0
   -2.2186    1.1309    0.0000 C   0  0  0  0  0  0  0  0  0
   -1.3936    1.1309    0.0000 C   0  0  0  0  0  0  0  0  0
   -0.9811    0.4164    0.0000 C   0  0  0  0  0  0  0  0  0
   -0.1561    0.4164    0.0000 C   0  0  0  0  0  0  0  0  0
   -3.4561    0.4164    0.0000 C   0  0  0  0  0  0  0  0  0
   -4.2811    0.4164    0.0000 N   0  0  0  0  0  0  0  0  0
    6.0314   -0.2981    0.0000 C   0  0  0  0  0  0  0  0  0
    6.5163   -0.9655    0.0000 N   0  0  0  0  0  0  0  0  0
    7.3009   -0.7106    0.0000 C   0  0  0  0  0  0  0  0  0
    7.3009    0.1144    0.0000 C   0  0  0  0  0  0  0  0  0
    6.5163    0.3694    0.0000 C   0  0  0  0  0  0  0  0  0
    8.0154    0.5269    0.0000 C   0  0  0  0  0  0  0  0  0
    8.7299    0.1144    0.0000 C   0  0  0  0  0  0  0  0  0
    8.7299   -0.7106    0.0000 C   0  0  0  0  0  0  0  0  0
    8.0154   -1.1231    0.0000 C   0  0  0  0  0  0  0  0  0
  1  2  2  0  0  0  0
  2  3  1  0  0  0  0
  2 24  1  0  0  0  0
  3  4  1  0  0  0  0
  4  5  1  0  0  0  0
  4  9  1  0  0  0  0
  5  6  1  0  0  0  0
  6  7  1  0  0  0  0
  7  8  1  0  0  0  0
  7 10  1  0  0  0  0
  8  9  1  0  0  0  0
 10 11  1  0  0  0  0
 11 12  1  0  0  0  0
 12 13  1  0  0  0  0
 12 21  1  0  0  0  0
 13 14  1  0  0  0  0
 14 15  1  0  0  0  0
 15 16  4  0  0  0  0
 15 20  4  0  0  0  0
 16 17  4  0  0  0  0
 17 18  4  0  0  0  0
 17 22  1  0  0  0  0
 18 19  4  0  0  0  0
 19 20  4  0  0  0  0
 20 21  1  0  0  0  0
 22 23  3  0  0  0  0
 24 25  4  0  0  0  0
 24 28  4  0  0  0  0
 25 26  4  0  0  0  0
 26 27  4  0  0  0  0
 26 32  4  0  0  0  0
 27 28  4  0  0  0  0
 27 29  4  0  0  0  0
 29 30  4  0  0  0  0
 30 31  4  0  0  0  0
 31 32  4  0  0  0  0
M  STY  1   1 DAT
M  SAL   1  1  25
M  SDT   1 MRV_IMPLICIT_H                                        
M  SDD   1     0.0000    0.0000    DR    ALL  0       0  
M  SED   1 IMPL_H1
M  END
>  <Name_Molregno>
545029

>  <DOPAMINE D2>
6.1

>  <DOPAMINE D3>
7.8

$$$$
545036
  Marvin  02231216192D 0   1.00000     0.00000     0

 31 34  0  0  0  0  0  0  0  0999 V2000
    0.9434   -1.7541    0.0000 O   0  0  0  0  0  0  0  0  0
    0.2289   -1.3416    0.0000 C   0  0  0  0  0  0  0  0  0
    0.2289   -0.5166    0.0000 N   0  0  0  0  0  0  0  0  0
    0.9434   -0.1041    0.0000 C   0  0  0  0  0  0  0  0  0
    0.9434    0.7209    0.0000 C   0  0  0  0  0  0  0  0  0
    1.6578    1.1334    0.0000 C   0  0  0  0  0  0  0  0  0
    2.3723    0.7209    0.0000 C   0  0  0  0  0  0  0  0  0
    2.3723   -0.1041    0.0000 C   0  0  0  0  0  0  0  0  0
    1.6578   -0.5166    0.0000 C   0  0  0  0  0  0  0  0  0
    3.0868    1.1334    0.0000 C   0  0  0  0  0  0  0  0  0
    3.8012    0.7209    0.0000 C   0  0  0  0  0  0  0  0  0
    4.5157    1.1334    0.0000 N   0  0  0  0  0  0  0  0  0
    4.5157    1.9584    0.0000 C   0  0  0  0  0  0  0  0  0
    5.2302    2.3709    0.0000 C   0  0  0  0  0  0  0  0  0
    5.9447    1.9584    0.0000 C   0  0  0  0  0  0  0  0  0
    6.6591    2.3709    0.0000 C   0  0  0  0  0  0  0  0  0
    7.3736    1.9584    0.0000 C   0  0  0  0  0  0  0  0  0
    7.3736    1.1334    0.0000 C   0  0  0  0  0  0  0  0  0
    6.6591    0.7209    0.0000 C   0  0  0  0  0  0  0  0  0
    5.9447    1.1334    0.0000 C   0  0  0  0  0  0  0  0  0
    5.2302    0.7209    0.0000 C   0  0  0  0  0  0  0  0  0
    8.0881    2.3709    0.0000 C   0  0  0  0  0  0  0  0  0
    8.8025    2.7834    0.0000 N   0  0  0  0  0  0  0  0  0
   -0.4856   -1.7541    0.0000 C   0  0  0  0  0  0  0  0  0
   -0.4856   -2.5791    0.0000 C   0  0  0  0  0  0  0  0  0
   -1.2001   -2.9916    0.0000 C   0  0  0  0  0  0  0  0  0
   -1.2001   -3.8166    0.0000 C   0  0  0  0  0  0  0  0  0
   -1.9145   -4.2291    0.0000 C   0  0  0  0  0  0  0  0  0
   -2.6290   -3.8166    0.0000 C   0  0  0  0  0  0  0  0  0
   -2.6290   -2.9916    0.0000 C   0  0  0  0  0  0  0  0  0
   -1.9145   -2.5791    0.0000 C   0  0  0  0  0  0  0  0  0
  1  2  2  0  0  0  0
  2  3  1  0  0  0  0
  2 24  1  0  0  0  0
  3  4  1  0  0  0  0
  4  5  1  0  0  0  0
  4  9  1  0  0  0  0
  5  6  1  0  0  0  0
  6  7  1  0  0  0  0
  7  8  1  0  0  0  0
  7 10  1  0  0  0  0
  8  9  1  0  0  0  0
 10 11  1  0  0  0  0
 11 12  1  0  0  0  0
 12 13  1  0  0  0  0
 12 21  1  0  0  0  0
 13 14  1  0  0  0  0
 14 15  1  0  0  0  0
 15 16  4  0  0  0  0
 15 20  4  0  0  0  0
 16 17  4  0  0  0  0
 17 18  4  0  0  0  0
 17 22  1  0  0  0  0
 18 19  4  0  0  0  0
 19 20  4  0  0  0  0
 20 21  1  0  0  0  0
 22 23  3  0  0  0  0
 24 25  2  0  0  0  0
 25 26  1  0  0  0  0
 26 27  4  0  0  0  0
 26 31  4  0  0  0  0
 27 28  4  0  0  0  0
 28 29  4  0  0  0  0
 29 30  4  0  0  0  0
 30 31  4  0  0  0  0
M  END
>  <Name_Molregno>
545036

>  <5-HT1B>
6

>  <5-HT1D>
6.5

>  <DOPAMINE D2>
6.7

>  <DOPAMINE D3>
8.5

$$$$
545046
  Marvin  02231216192D 0   1.00000     0.00000     0

 31 34  0  0  0  0  0  0  0  0999 V2000
    0.2287   -0.0093    0.0000 O   0  0  0  0  0  0  0  0  0
    0.2287    0.8157    0.0000 C   0  0  0  0  0  0  0  0  0
    0.9431    1.2282    0.0000 N   0  0  0  0  0  0  0  0  0
    1.6576    0.8157    0.0000 C   0  0  0  0  0  0  0  0  0
    2.3721    1.2282    0.0000 C   0  0  0  0  0  0  0  0  0
    3.0865    0.8157    0.0000 C   0  0  0  0  0  0  0  0  0
    3.0865   -0.0093    0.0000 C   0  0  0  0  0  0  0  0  0
    2.3721   -0.4218    0.0000 C   0  0  0  0  0  0  0  0  0
    1.6576   -0.0093    0.0000 C   0  0  0  0  0  0  0  0  0
    3.8010   -0.4218    0.0000 C   0  0  0  0  0  0  0  0  0
    3.8010   -1.2468    0.0000 C   0  0  0  0  0  0  0  0  0
    4.5155   -1.6593    0.0000 N   0  0  0  0  0  0  0  0  0
    4.5155   -2.4843    0.0000 C   0  0  0  0  0  0  0  0  0
    5.2300   -2.8968    0.0000 C   0  0  0  0  0  0  0  0  0
    5.9444   -2.4843    0.0000 C   0  0  0  0  0  0  0  0  0
    5.9444   -1.6593    0.0000 C   0  0  0  0  0  0  0  0  0
    6.6589   -1.2468    0.0000 C   0  0  0  0  0  0  0  0  0
    7.3734   -1.6593    0.0000 C   0  0  0  0  0  0  0  0  0
    7.3734   -2.4843    0.0000 C   0  0  0  0  0  0  0  0  0
    6.6589   -2.8968    0.0000 C   0  0  0  0  0  0  0  0  0
    8.0878   -1.2468    0.0000 C   0  0  0  0  0  0  0  0  0
    8.8023   -0.8343    0.0000 N   0  0  0  0  0  0  0  0  0
    5.2300   -1.2468    0.0000 C   0  0  0  0  0  0  0  0  0
   -0.4858    1.2282    0.0000 C   0  0  0  0  0  0  0  0  0
   -1.2003    0.8157    0.0000 C   0  0  0  0  0  0  0  0  0
   -1.9148    1.2282    0.0000 C   0  0  0  0  0  0  0  0  0
   -2.6292    0.8157    0.0000 C   0  0  0  0  0  0  0  0  0
   -3.3437    1.2282    0.0000 C   0  0  0  0  0  0  0  0  0
   -3.3437    2.0532    0.0000 C   0  0  0  0  0  0  0  0  0
   -2.6292    2.4657    0.0000 C   0  0  0  0  0  0  0  0  0
   -1.9148    2.0532    0.0000 C   0  0  0  0  0  0  0  0  0
  1  2  2  0  0  0  0
  2  3  1  0  0  0  0
  2 24  1  0  0  0  0
  3  4  1  0  0  0  0
  4  5  1  0  0  0  0
  4  9  1  0  0  0  0
  5  6  1  0  0  0  0
  6  7  1  0  0  0  0
  7  8  1  0  0  0  0
  7 10  1  0  0  0  0
  8  9  1  0  0  0  0
 10 11  1  0  0  0  0
 11 12  1  0  0  0  0
 12 13  1  0  0  0  0
 12 23  1  0  0  0  0
 13 14  1  0  0  0  0
 14 15  1  0  0  0  0
 15 16  4  0  0  0  0
 15 20  4  0  0  0  0
 16 17  4  0  0  0  0
 16 23  1  0  0  0  0
 17 18  4  0  0  0  0
 18 19  4  0  0  0  0
 18 21  1  0  0  0  0
 19 20  4  0  0  0  0
 21 22  3  0  0  0  0
 24 25  2  0  0  0  0
 25 26  1  0  0  0  0
 26 27  4  0  0  0  0
 26 31  4  0  0  0  0
 27 28  4  0  0  0  0
 28 29  4  0  0  0  0
 29 30  4  0  0  0  0
 30 31  4  0  0  0  0
M  END
>  <Name_Molregno>
545046

>  <5-HT1B>
6.8

>  <5-HT1D>
7

>  <DOPAMINE D2>
6.8

>  <DOPAMINE D3>
8.9

$$$$
545052
  Marvin  02231216192D 0   1.00000     0.00000     0

 36 39  0  0  0  0  0  0  0  0999 V2000
  -10.6561    0.6018    0.0000 S   0  0  0  0  0  0  0  0  0
   -9.9416    0.1893    0.0000 O   0  0  0  0  0  0  0  0  0
   -9.2272    0.6018    0.0000 C   0  0  0  0  0  0  0  0  0
   -8.5127    0.1893    0.0000 C   0  0  0  0  0  0  0  0  0
   -7.7982    0.6018    0.0000 C   0  0  0  0  0  0  0  0  0
   -7.7982    1.4268    0.0000 C   0  0  0  0  0  0  0  0  0
   -7.0837    1.8393    0.0000 C   0  0  0  0  0  0  0  0  0
   -6.3693    1.4268    0.0000 C   0  0  0  0  0  0  0  0  0
   -6.3693    0.6018    0.0000 N   0  0  0  0  0  0  0  0  0
   -7.0837    0.1893    0.0000 C   0  0  0  0  0  0  0  0  0
   -5.6548    0.1893    0.0000 C   0  0  0  0  0  0  0  0  0
   -4.9403    0.6018    0.0000 C   0  0  0  0  0  0  0  0  0
   -4.2259    0.1893    0.0000 C   0  0  0  0  0  0  0  0  0
   -3.5114    0.6018    0.0000 C   0  0  0  0  0  0  0  0  0
   -2.7969    0.1893    0.0000 N   0  0  0  0  0  0  0  0  0
   -2.0824    0.6018    0.0000 C   0  0  0  0  0  0  0  0  0
   -2.0824    1.4268    0.0000 O   0  0  0  0  0  0  0  0  0
   -1.3680    0.1893    0.0000 C   0  0  0  0  0  0  0  0  0
   -1.3680   -0.6357    0.0000 C   0  0  0  0  0  0  0  0  0
   -0.6535   -1.0482    0.0000 C   0  0  0  0  0  0  0  0  0
   -0.5673   -1.8686    0.0000 C   0  0  0  0  0  0  0  0  0
    0.2397   -2.0402    0.0000 C   0  0  0  0  0  0  0  0  0
    0.6522   -1.3257    0.0000 N   0  0  0  0  0  0  0  0  0
    0.1002   -0.7126    0.0000 C   0  0  0  0  0  0  0  0  0
    0.4946   -2.8248    0.0000 C   0  0  0  0  0  0  0  0  0
   -0.0574   -3.4379    0.0000 C   0  0  0  0  0  0  0  0  0
   -0.8644   -3.2664    0.0000 C   0  0  0  0  0  0  0  0  0
   -1.1193   -2.4817    0.0000 C   0  0  0  0  0  0  0  0  0
   -8.5127    1.8393    0.0000 C   0  0  0  0  0  0  0  0  0
   -9.2272    1.4268    0.0000 C   0  0  0  0  0  0  0  0  0
  -10.2436    1.3163    0.0000 O   0  0  0  0  0  0  0  0  0
  -11.0686   -0.1126    0.0000 O   0  0  0  0  0  0  0  0  0
  -11.3706    1.0143    0.0000 C   0  0  0  0  0  0  0  0  0
  -12.0850    1.4268    0.0000 F   0  0  0  0  0  0  0  0  0
  -10.9581    1.7288    0.0000 F   0  0  0  0  0  0  0  0  0
  -11.7831    0.2999    0.0000 F   0  0  0  0  0  0  0  0  0
  1  2  1  0  0  0  0
  1 31  2  0  0  0  0
  1 32  2  0  0  0  0
  1 33  1  0  0  0  0
  2  3  1  0  0  0  0
  3  4  4  0  0  0  0
  3 30  4  0  0  0  0
  4  5  4  0  0  0  0
  5  6  4  0  0  0  0
  5 10  1  0  0  0  0
  6  7  1  0  0  0  0
  6 29  4  0  0  0  0
  7  8  1  0  0  0  0
  8  9  1  0  0  0  0
  9 10  1  0  0  0  0
  9 11  1  0  0  0  0
 11 12  1  0  0  0  0
 12 13  1  0  0  0  0
 13 14  1  0  0  0  0
 14 15  1  0  0  0  0
 15 16  1  0  0  0  0
 16 17  2  0  0  0  0
 16 18  1  0  0  0  0
 18 19  2  0  0  0  0
 19 20  1  0  0  0  0
 20 21  4  0  0  0  0
 20 24  4  0  0  0  0
 21 22  4  0  0  0  0
 21 28  4  0  0  0  0
 22 23  4  0  0  0  0
 22 25  4  0  0  0  0
 23 24  4  0  0  0  0
 25 26  4  0  0  0  0
 26 27  4  0  0  0  0
 27 28  4  0  0  0  0
 29 30  4  0  0  0  0
 33 34  1  0  0  0  0
 33 35  1  0  0  0  0
 33 36  1  0  0  0  0
M  STY  1   1 DAT
M  SAL   1  1  23
M  SDT   1 MRV_IMPLICIT_H                                        
M  SDD   1     0.0000    0.0000    DR    ALL  0       0  
M  SED   1 IMPL_H1
M  END
>  <Name_Molregno>
545052

>  <5-HT1B>
7

>  <5-HT1D>
7.2

>  <DOPAMINE D2>
6.2

>  <DOPAMINE D3>
8.4

$$$$
545091
  Marvin  02231216192D 0   1.00000     0.00000     0

 33 37  0  0  0  0  0  0  0  0999 V2000
    3.8943    2.1300    0.0000 O   0  0  0  0  0  0  0  0  0
    3.1798    2.5425    0.0000 C   0  0  0  0  0  0  0  0  0
    2.4653    2.1300    0.0000 N   0  0  0  0  0  0  0  0  0
    2.4653    1.3050    0.0000 C   0  0  0  0  0  0  0  0  0
    3.1798    0.8925    0.0000 C   0  0  0  0  0  0  0  0  0
    3.1798    0.0675    0.0000 C   0  0  0  0  0  0  0  0  0
    2.4653   -0.3450    0.0000 C   0  0  0  0  0  0  0  0  0
    1.7509    0.0675    0.0000 C   0  0  0  0  0  0  0  0  0
    1.7509    0.8925    0.0000 C   0  0  0  0  0  0  0  0  0
    2.4653   -1.1700    0.0000 C   0  0  0  0  0  0  0  0  0
    1.7509   -1.5825    0.0000 C   0  0  0  0  0  0  0  0  0
    1.7509   -2.4075    0.0000 N   0  0  0  0  0  0  0  0  0
    2.4653   -2.8200    0.0000 C   0  0  0  0  0  0  0  0  0
    2.4653   -3.6450    0.0000 C   0  0  0  0  0  0  0  0  0
    1.7509   -4.0575    0.0000 C   0  0  0  0  0  0  0  0  0
    1.7509   -4.8825    0.0000 C   0  0  0  0  0  0  0  0  0
    1.0364   -5.2950    0.0000 C   0  0  0  0  0  0  0  0  0
    0.3219   -4.8825    0.0000 C   0  0  0  0  0  0  0  0  0
    0.3219   -4.0575    0.0000 C   0  0  0  0  0  0  0  0  0
    1.0364   -3.6450    0.0000 C   0  0  0  0  0  0  0  0  0
    1.0364   -2.8200    0.0000 C   0  0  0  0  0  0  0  0  0
    1.0364   -6.1200    0.0000 C   0  0  0  0  0  0  0  0  0
    1.0364   -6.9450    0.0000 N   0  0  0  0  0  0  0  0  0
    3.1798    3.3675    0.0000 C   0  0  0  0  0  0  0  0  0
    3.8943    3.7800    0.0000 C   0  0  0  0  0  0  0  0  0
    3.8943    4.6050    0.0000 C   0  0  0  0  0  0  0  0  0
    3.1798    5.0175    0.0000 C   0  0  0  0  0  0  0  0  0
    2.4653    4.6050    0.0000 C   0  0  0  0  0  0  0  0  0
    2.4653    3.7800    0.0000 C   0  0  0  0  0  0  0  0  0
    4.6088    5.0175    0.0000 C   0  0  0  0  0  0  0  0  0
    5.3232    4.6050    0.0000 C   0  0  0  0  0  0  0  0  0
    5.3232    3.7800    0.0000 C   0  0  0  0  0  0  0  0  0
    4.6088    3.3675    0.0000 C   0  0  0  0  0  0  0  0  0
  1  2  2  0  0  0  0
  2  3  1  0  0  0  0
  2 24  1  0  0  0  0
  3  4  1  0  0  0  0
  4  5  1  0  0  0  0
  4  9  1  0  0  0  0
  5  6  1  0  0  0  0
  6  7  1  0  0  0  0
  7  8  1  0  0  0  0
  7 10  1  0  0  0  0
  8  9  1  0  0  0  0
 10 11  1  0  0  0  0
 11 12  1  0  0  0  0
 12 13  1  0  0  0  0
 12 21  1  0  0  0  0
 13 14  1  0  0  0  0
 14 15  1  0  0  0  0
 15 16  4  0  0  0  0
 15 20  4  0  0  0  0
 16 17  4  0  0  0  0
 17 18  4  0  0  0  0
 17 22  1  0  0  0  0
 18 19  4  0  0  0  0
 19 20  4  0  0  0  0
 20 21  1  0  0  0  0
 22 23  3  0  0  0  0
 24 25  4  0  0  0  0
 24 29  4  0  0  0  0
 25 26  4  0  0  0  0
 25 33  4  0  0  0  0
 26 27  4  0  0  0  0
 26 30  4  0  0  0  0
 27 28  4  0  0  0  0
 28 29  4  0  0  0  0
 30 31  4  0  0  0  0
 31 32  4  0  0  0  0
 32 33  4  0  0  0  0
M  END
>  <Name_Molregno>
545091

>  <DOPAMINE D2>
6.4

>  <DOPAMINE D3>
8.1

$$$$
545108
  Marvin  02231216192D 0   1.00000     0.00000     0

 35 38  0  0  0  0  0  0  0  0999 V2000
    0.5158   -1.2108    0.0000 S   0  0  0  0  0  0  0  0  0
   -0.1987   -0.7983    0.0000 O   0  0  0  0  0  0  0  0  0
    0.1033   -1.9253    0.0000 O   0  0  0  0  0  0  0  0  0
    0.9283   -0.4964    0.0000 C   0  0  0  0  0  0  0  0  0
    1.2302   -1.6233    0.0000 C   0  0  0  0  0  0  0  0  0
    1.9447   -1.2108    0.0000 C   0  0  0  0  0  0  0  0  0
    2.6592   -1.6233    0.0000 C   0  0  0  0  0  0  0  0  0
    2.6592   -2.4483    0.0000 C   0  0  0  0  0  0  0  0  0
    1.9447   -2.8608    0.0000 C   0  0  0  0  0  0  0  0  0
    1.2302   -2.4483    0.0000 C   0  0  0  0  0  0  0  0  0
    3.3736   -1.2108    0.0000 C   0  0  0  0  0  0  0  0  0
    4.0881   -1.6233    0.0000 C   0  0  0  0  0  0  0  0  0
    4.8026   -1.2108    0.0000 C   0  0  0  0  0  0  0  0  0
    5.5171   -1.6233    0.0000 O   0  0  0  0  0  0  0  0  0
    4.8026   -0.3858    0.0000 N   0  0  0  0  0  0  0  0  0
    5.5171    0.0267    0.0000 C   0  0  0  0  0  0  0  0  0
    5.5171    0.8517    0.0000 C   0  0  0  0  0  0  0  0  0
    6.2315    1.2642    0.0000 C   0  0  0  0  0  0  0  0  0
    6.9460    0.8517    0.0000 C   0  0  0  0  0  0  0  0  0
    6.9460    0.0267    0.0000 C   0  0  0  0  0  0  0  0  0
    6.2315   -0.3858    0.0000 C   0  0  0  0  0  0  0  0  0
    7.6605    1.2642    0.0000 C   0  0  0  0  0  0  0  0  0
    7.6605    2.0892    0.0000 C   0  0  0  0  0  0  0  0  0
    8.3749    2.5017    0.0000 N   0  0  0  0  0  0  0  0  0
    8.3749    3.3267    0.0000 C   0  0  0  0  0  0  0  0  0
    9.0894    3.7392    0.0000 C   0  0  0  0  0  0  0  0  0
    9.8039    3.3267    0.0000 C   0  0  0  0  0  0  0  0  0
   10.5184    3.7392    0.0000 C   0  0  0  0  0  0  0  0  0
   11.2328    3.3267    0.0000 C   0  0  0  0  0  0  0  0  0
   11.2328    2.5017    0.0000 C   0  0  0  0  0  0  0  0  0
   10.5184    2.0892    0.0000 C   0  0  0  0  0  0  0  0  0
    9.8039    2.5017    0.0000 C   0  0  0  0  0  0  0  0  0
    9.0894    2.0892    0.0000 C   0  0  0  0  0  0  0  0  0
   11.9473    3.7392    0.0000 C   0  0  0  0  0  0  0  0  0
   12.6618    4.1517    0.0000 N   0  0  0  0  0  0  0  0  0
  1  2  2  0  0  0  0
  1  3  2  0  0  0  0
  1  4  1  0  0  0  0
  1  5  1  0  0  0  0
  5  6  4  0  0  0  0
  5 10  4  0  0  0  0
  6  7  4  0  0  0  0
  7  8  4  0  0  0  0
  7 11  1  0  0  0  0
  8  9  4  0  0  0  0
  9 10  4  0  0  0  0
 11 12  2  0  0  0  0
 12 13  1  0  0  0  0
 13 14  2  0  0  0  0
 13 15  1  0  0  0  0
 15 16  1  0  0  0  0
 16 17  1  0  0  0  0
 16 21  1  0  0  0  0
 17 18  1  0  0  0  0
 18 19  1  0  0  0  0
 19 20  1  0  0  0  0
 19 22  1  0  0  0  0
 20 21  1  0  0  0  0
 22 23  1  0  0  0  0
 23 24  1  0  0  0  0
 24 25  1  0  0  0  0
 24 33  1  0  0  0  0
 25 26  1  0  0  0  0
 26 27  1  0  0  0  0
 27 28  4  0  0  0  0
 27 32  4  0  0  0  0
 28 29  4  0  0  0  0
 29 30  4  0  0  0  0
 29 34  1  0  0  0  0
 30 31  4  0  0  0  0
 31 32  4  0  0  0  0
 32 33  1  0  0  0  0
 34 35  3  0  0  0  0
M  END
>  <Name_Molregno>
545108

>  <5-HT1B>
5.2

>  <5-HT1D>
5.4

>  <DOPAMINE D2>
6.5

>  <DOPAMINE D3>
8.3

$$$$
551459
  Marvin  02231216192D 0   1.00000     0.00000     0

 28 31  0  0  0  0  0  0  0  0999 V2000
   -0.5594    0.5963    0.0000 O   0  0  0  0  0  0  0  0  0
    0.1550    0.1838    0.0000 C   0  0  0  0  0  0  0  0  0
    0.8695    0.5963    0.0000 C   0  0  0  0  0  0  0  0  0
    0.8695    1.4213    0.0000 N   0  0  0  0  0  0  0  0  0
    0.1550    1.8338    0.0000 C   0  0  0  0  0  0  0  0  0
   -0.5594    1.4213    0.0000 C   0  0  0  0  0  0  0  0  0
   -1.2739    1.8338    0.0000 C   0  0  0  0  0  0  0  0  0
   -1.2739    2.6588    0.0000 C   0  0  0  0  0  0  0  0  0
   -0.5594    3.0713    0.0000 C   0  0  0  0  0  0  0  0  0
    0.1550    2.6588    0.0000 C   0  0  0  0  0  0  0  0  0
    1.5840    0.1838    0.0000 N   0  0  0  0  0  0  0  0  0
    2.2985    0.5963    0.0000 C   0  0  0  0  0  0  0  0  0
    3.0129    0.1838    0.0000 C   0  0  0  0  0  0  0  0  0
    3.7274    0.5963    0.0000 C   0  0  0  0  0  0  0  0  0
    4.4419    0.1838    0.0000 C   0  0  0  0  0  0  0  0  0
    5.1563    0.5963    0.0000 C   0  0  0  0  0  0  0  0  0
    5.8708    0.1838    0.0000 N   0  0  0  0  0  0  0  0  0
    6.5853    0.5963    0.0000 C   0  0  0  0  0  0  0  0  0
    7.2998    0.1838    0.0000 C   0  0  0  0  0  0  0  0  0
    7.2998   -0.6412    0.0000 N   0  0  0  0  0  0  0  0  0
    6.5853   -1.0537    0.0000 C   0  0  0  0  0  0  0  0  0
    5.8708   -0.6412    0.0000 C   0  0  0  0  0  0  0  0  0
    8.0142   -1.0537    0.0000 C   0  0  0  0  0  0  0  0  0
    8.7287   -0.6412    0.0000 C   0  0  0  0  0  0  0  0  0
    9.4432   -1.0537    0.0000 C   0  0  0  0  0  0  0  0  0
    9.4432   -1.8787    0.0000 C   0  0  0  0  0  0  0  0  0
    8.7287   -2.2912    0.0000 C   0  0  0  0  0  0  0  0  0
    8.0142   -1.8787    0.0000 C   0  0  0  0  0  0  0  0  0
  1  2  1  0  0  0  0
  1  6  1  0  0  0  0
  2  3  1  0  0  0  0
  3  4  2  0  0  0  0
  3 11  1  0  0  0  0
  4  5  1  0  0  0  0
  5  6  4  0  0  0  0
  5 10  4  0  0  0  0
  6  7  4  0  0  0  0
  7  8  4  0  0  0  0
  8  9  4  0  0  0  0
  9 10  4  0  0  0  0
 11 12  1  0  0  0  0
 12 13  1  0  0  0  0
 13 14  1  0  0  0  0
 14 15  1  0  0  0  0
 15 16  1  0  0  0  0
 16 17  1  0  0  0  0
 17 18  1  0  0  0  0
 17 22  1  0  0  0  0
 18 19  1  0  0  0  0
 19 20  1  0  0  0  0
 20 21  1  0  0  0  0
 20 23  1  0  0  0  0
 21 22  1  0  0  0  0
 23 24  4  0  0  0  0
 23 28  4  0  0  0  0
 24 25  4  0  0  0  0
 25 26  4  0  0  0  0
 26 27  4  0  0  0  0
 27 28  4  0  0  0  0
M  END
>  <Name_Molregno>
551459

>  <DOPAMINE D2>
7.03

>  <DOPAMINE D3>
6.78

>  <DOPAMINE D4>
7.28

$$$$
551501
  Marvin  02231216192D 0   1.00000     0.00000     0

 24 27  0  0  1  0  0  0  0  0999 V2000
    3.3142   -0.9352    0.0000 N   0  0  0  0  0  0  0  0  0
    3.0593   -1.7198    0.0000 C   0  0  0  0  0  0  0  0  0
    2.2343   -1.7198    0.0000 N   0  0  0  0  0  0  0  0  0
    1.9794   -0.9352    0.0000 C   0  0  0  0  0  0  0  0  0
    2.6468   -0.4503    0.0000 C   0  0  0  0  0  0  0  0  0
    2.6468    0.3747    0.0000 C   0  0  0  0  0  0  0  0  0
    1.9323    0.7872    0.0000 N   0  0  0  0  0  0  0  0  0
    1.2178    0.3747    0.0000 C   0  0  0  0  0  0  0  0  0
    0.5034    0.7872    0.0000 C   0  0  0  0  0  0  0  0  0
    0.5034    1.6122    0.0000 N   0  0  0  0  0  0  0  0  0
    1.2178    2.0247    0.0000 C   0  0  0  0  0  0  0  0  0
    1.9323    1.6122    0.0000 C   0  0  0  0  0  0  0  0  0
   -0.2111    2.0247    0.0000 C   0  0  0  0  0  0  0  0  0
   -0.9256    1.6122    0.0000 C   0  0  0  0  0  0  0  0  0
   -1.6400    2.0247    0.0000 C   0  0  0  0  0  0  0  0  0
   -1.6400    2.8497    0.0000 C   0  0  0  0  0  0  0  0  0
   -0.9256    3.2622    0.0000 C   0  0  0  0  0  0  0  0  0
   -0.2111    2.8497    0.0000 C   0  0  0  0  0  0  0  0  0
    3.5442   -2.3873    0.0000 C   0  0  0  0  0  0  0  0  0
    4.3647   -2.3010    0.0000 C   0  0  0  0  0  0  0  0  0
    4.8496   -2.9685    0.0000 C   0  0  0  0  0  0  0  0  0
    4.5141   -3.7222    0.0000 C   0  0  0  0  0  0  0  0  0
    3.6936   -3.8084    0.0000 C   0  0  0  0  0  0  0  0  0
    3.2087   -3.1410    0.0000 C   0  0  0  0  0  0  0  0  0
  1  2  1  0  0  0  0
  1  5  1  0  0  0  0
  2  3  2  0  0  0  0
  2 19  1  0  0  0  0
  3  4  1  0  0  0  0
  4  5  1  0  0  0  0
  5  6  1  0  0  0  0
  6  7  1  0  0  0  0
  7  8  1  0  0  0  0
  7 12  1  0  0  0  0
  8  9  1  0  0  0  0
  9 10  1  0  0  0  0
 10 11  1  0  0  0  0
 10 13  1  0  0  0  0
 11 12  1  0  0  0  0
 13 14  4  0  0  0  0
 13 18  4  0  0  0  0
 14 15  4  0  0  0  0
 15 16  4  0  0  0  0
 16 17  4  0  0  0  0
 17 18  4  0  0  0  0
 19 20  4  0  0  0  0
 19 24  4  0  0  0  0
 20 21  4  0  0  0  0
 21 22  4  0  0  0  0
 22 23  4  0  0  0  0
 23 24  4  0  0  0  0
M  END
>  <Name_Molregno>
551501

>  <DOPAMINE D2>
4.92

>  <DOPAMINE D3>
5.1

>  <DOPAMINE D4>
7.14

$$$$
554913
  Marvin  02231216192D 0   1.00000     0.00000     0

 25 28  0  0  0  0  0  0  0  0999 V2000
   -0.0873   -0.5446    0.0000 Cl  0  0  0  0  0  0  0  0  0
    0.6664   -0.8802    0.0000 C   0  0  0  0  0  0  0  0  0
    1.3338   -0.3952    0.0000 C   0  0  0  0  0  0  0  0  0
    2.0875   -0.7308    0.0000 C   0  0  0  0  0  0  0  0  0
    2.7549   -0.2459    0.0000 N   0  0  0  0  0  0  0  0  0
    2.7549    0.5791    0.0000 C   0  0  0  0  0  0  0  0  0
    3.5395    0.8341    0.0000 C   0  0  0  0  0  0  0  0  0
    4.0245    0.1666    0.0000 N   0  0  0  0  0  0  0  0  0
    4.8495    0.1666    0.0000 C   0  0  0  0  0  0  0  0  0
    5.2620    0.8811    0.0000 C   0  0  0  0  0  0  0  0  0
    6.0870    0.8811    0.0000 N   0  0  0  0  0  0  0  0  0
    6.5719    0.2137    0.0000 C   0  0  0  0  0  0  0  0  0
    7.3565    0.4686    0.0000 C   0  0  0  0  0  0  0  0  0
    7.3565    1.2936    0.0000 C   0  0  0  0  0  0  0  0  0
    6.5719    1.5485    0.0000 C   0  0  0  0  0  0  0  0  0
    8.0710    1.7061    0.0000 C   0  0  0  0  0  0  0  0  0
    8.7854    1.2936    0.0000 C   0  0  0  0  0  0  0  0  0
    8.7854    0.4686    0.0000 C   0  0  0  0  0  0  0  0  0
    8.0710    0.0561    0.0000 C   0  0  0  0  0  0  0  0  0
    3.5395   -0.5008    0.0000 C   0  0  0  0  0  0  0  0  0
    3.7945   -1.2854    0.0000 O   0  0  0  0  0  0  0  0  0
    2.1737   -1.5513    0.0000 C   0  0  0  0  0  0  0  0  0
    1.5063   -2.0362    0.0000 C   0  0  0  0  0  0  0  0  0
    0.7526   -1.7006    0.0000 C   0  0  0  0  0  0  0  0  0
    0.0852   -2.1856    0.0000 F   0  0  0  0  0  0  0  0  0
  1  2  1  0  0  0  0
  2  3  4  0  0  0  0
  2 24  4  0  0  0  0
  3  4  4  0  0  0  0
  4  5  1  0  0  0  0
  4 22  4  0  0  0  0
  5  6  1  0  0  0  0
  5 20  1  0  0  0  0
  6  7  1  0  0  0  0
  7  8  1  0  0  0  0
  8  9  1  0  0  0  0
  8 20  1  0  0  0  0
  9 10  1  0  0  0  0
 10 11  1  0  0  0  0
 11 12  1  0  0  0  0
 11 15  1  0  0  0  0
 12 13  1  0  0  0  0
 13 14  4  0  0  0  0
 13 19  4  0  0  0  0
 14 15  1  0  0  0  0
 14 16  4  0  0  0  0
 16 17  4  0  0  0  0
 17 18  4  0  0  0  0
 18 19  4  0  0  0  0
 20 21  2  0  0  0  0
 22 23  4  0  0  0  0
 23 24  4  0  0  0  0
 24 25  1  0  0  0  0
M  END
>  <Name_Molregno>
554913

>  <DOPAMINE D2>
6.8

>  <DOPAMINE D3>
7.7

$$$$
554920
  Marvin  02231216192D 0   1.00000     0.00000     0

 25 28  0  0  0  0  0  0  0  0999 V2000
   -1.3370   -2.1949    0.0000 O   0  0  0  0  0  0  0  0  0
   -1.5919   -1.4103    0.0000 C   0  0  0  0  0  0  0  0  0
   -2.3766   -1.1553    0.0000 N   0  0  0  0  0  0  0  0  0
   -2.3766   -0.3303    0.0000 C   0  0  0  0  0  0  0  0  0
   -1.5919   -0.0754    0.0000 C   0  0  0  0  0  0  0  0  0
   -1.1070   -0.7428    0.0000 N   0  0  0  0  0  0  0  0  0
   -0.2820   -0.7428    0.0000 C   0  0  0  0  0  0  0  0  0
    0.1305   -0.0284    0.0000 C   0  0  0  0  0  0  0  0  0
    0.9555   -0.0284    0.0000 N   0  0  0  0  0  0  0  0  0
    1.4404   -0.6958    0.0000 C   0  0  0  0  0  0  0  0  0
    2.2250   -0.4409    0.0000 C   0  0  0  0  0  0  0  0  0
    2.2250    0.3841    0.0000 C   0  0  0  0  0  0  0  0  0
    1.4404    0.6391    0.0000 C   0  0  0  0  0  0  0  0  0
    2.9395    0.7966    0.0000 C   0  0  0  0  0  0  0  0  0
    3.6540    0.3841    0.0000 C   0  0  0  0  0  0  0  0  0
    3.6540   -0.4409    0.0000 C   0  0  0  0  0  0  0  0  0
    2.9395   -0.8534    0.0000 C   0  0  0  0  0  0  0  0  0
   -3.0440   -1.6403    0.0000 C   0  0  0  0  0  0  0  0  0
   -2.9578   -2.4607    0.0000 C   0  0  0  0  0  0  0  0  0
   -3.6252   -2.9457    0.0000 C   0  0  0  0  0  0  0  0  0
   -4.3789   -2.6101    0.0000 C   0  0  0  0  0  0  0  0  0
   -4.4651   -1.7896    0.0000 C   0  0  0  0  0  0  0  0  0
   -3.7977   -1.3047    0.0000 C   0  0  0  0  0  0  0  0  0
   -3.5390   -3.7661    0.0000 C   0  0  0  0  0  0  0  0  0
   -3.4527   -4.5866    0.0000 N   0  0  0  0  0  0  0  0  0
  1  2  2  0  0  0  0
  2  3  1  0  0  0  0
  2  6  1  0  0  0  0
  3  4  1  0  0  0  0
  3 18  1  0  0  0  0
  4  5  1  0  0  0  0
  5  6  1  0  0  0  0
  6  7  1  0  0  0  0
  7  8  1  0  0  0  0
  8  9  1  0  0  0  0
  9 10  1  0  0  0  0
  9 13  1  0  0  0  0
 10 11  1  0  0  0  0
 11 12  4  0  0  0  0
 11 17  4  0  0  0  0
 12 13  1  0  0  0  0
 12 14  4  0  0  0  0
 14 15  4  0  0  0  0
 15 16  4  0  0  0  0
 16 17  4  0  0  0  0
 18 19  4  0  0  0  0
 18 23  4  0  0  0  0
 19 20  4  0  0  0  0
 20 21  4  0  0  0  0
 20 24  1  0  0  0  0
 21 22  4  0  0  0  0
 22 23  4  0  0  0  0
 24 25  3  0  0  0  0
M  END
>  <Name_Molregno>
554920

>  <DOPAMINE D2>
7

>  <DOPAMINE D3>
8.6

$$$$
554941
  Marvin  02231216192D 0   1.00000     0.00000     0

 26 29  0  0  0  0  0  0  0  0999 V2000
    1.1055    1.9809    0.0000 Cl  0  0  0  0  0  0  0  0  0
    1.1917    1.1605    0.0000 C   0  0  0  0  0  0  0  0  0
    1.9454    0.8249    0.0000 C   0  0  0  0  0  0  0  0  0
    2.0317    0.0044    0.0000 C   0  0  0  0  0  0  0  0  0
    1.3642   -0.4805    0.0000 C   0  0  0  0  0  0  0  0  0
    0.6105   -0.1449    0.0000 C   0  0  0  0  0  0  0  0  0
    0.5243    0.6755    0.0000 C   0  0  0  0  0  0  0  0  0
   -0.2294    1.0111    0.0000 Cl  0  0  0  0  0  0  0  0  0
    2.7853   -0.3311    0.0000 C   0  0  0  0  0  0  0  0  0
    3.4528    0.1538    0.0000 N   0  0  0  0  0  0  0  0  0
    3.4528    0.9788    0.0000 C   0  0  0  0  0  0  0  0  0
    4.2374    1.2337    0.0000 C   0  0  0  0  0  0  0  0  0
    4.7223    0.5663    0.0000 N   0  0  0  0  0  0  0  0  0
    5.5473    0.5663    0.0000 C   0  0  0  0  0  0  0  0  0
    5.9598    1.2808    0.0000 C   0  0  0  0  0  0  0  0  0
    6.7848    1.2808    0.0000 N   0  0  0  0  0  0  0  0  0
    7.2697    0.6133    0.0000 C   0  0  0  0  0  0  0  0  0
    8.0544    0.8683    0.0000 C   0  0  0  0  0  0  0  0  0
    8.0544    1.6933    0.0000 C   0  0  0  0  0  0  0  0  0
    7.2697    1.9482    0.0000 C   0  0  0  0  0  0  0  0  0
    8.7688    2.1058    0.0000 C   0  0  0  0  0  0  0  0  0
    9.4833    1.6933    0.0000 C   0  0  0  0  0  0  0  0  0
    9.4833    0.8683    0.0000 C   0  0  0  0  0  0  0  0  0
    8.7688    0.4558    0.0000 C   0  0  0  0  0  0  0  0  0
    4.2374   -0.1012    0.0000 C   0  0  0  0  0  0  0  0  0
    4.4923   -0.8858    0.0000 O   0  0  0  0  0  0  0  0  0
  1  2  1  0  0  0  0
  2  3  4  0  0  0  0
  2  7  4  0  0  0  0
  3  4  4  0  0  0  0
  4  5  4  0  0  0  0
  4  9  1  0  0  0  0
  5  6  4  0  0  0  0
  6  7  4  0  0  0  0
  7  8  1  0  0  0  0
  9 10  1  0  0  0  0
 10 11  1  0  0  0  0
 10 25  1  0  0  0  0
 11 12  1  0  0  0  0
 12 13  1  0  0  0  0
 13 14  1  0  0  0  0
 13 25  1  0  0  0  0
 14 15  1  0  0  0  0
 15 16  1  0  0  0  0
 16 17  1  0  0  0  0
 16 20  1  0  0  0  0
 17 18  1  0  0  0  0
 18 19  4  0  0  0  0
 18 24  4  0  0  0  0
 19 20  1  0  0  0  0
 19 21  4  0  0  0  0
 21 22  4  0  0  0  0
 22 23  4  0  0  0  0
 23 24  4  0  0  0  0
 25 26  2  0  0  0  0
M  END
>  <Name_Molregno>
554941

>  <DOPAMINE D2>
5

>  <DOPAMINE D3>
7.1

$$$$
554942
  Marvin  02231216192D 0   1.00000     0.00000     0

 25 28  0  0  0  0  0  0  0  0999 V2000
   -0.2070    1.1955    0.0000 Cl  0  0  0  0  0  0  0  0  0
    0.5467    0.8599    0.0000 C   0  0  0  0  0  0  0  0  0
    1.2141    1.3448    0.0000 C   0  0  0  0  0  0  0  0  0
    1.9678    1.0093    0.0000 C   0  0  0  0  0  0  0  0  0
    2.0540    0.1888    0.0000 C   0  0  0  0  0  0  0  0  0
    1.3866   -0.2961    0.0000 C   0  0  0  0  0  0  0  0  0
    0.6329    0.0394    0.0000 C   0  0  0  0  0  0  0  0  0
    2.8077   -0.1468    0.0000 C   0  0  0  0  0  0  0  0  0
    3.4752    0.3381    0.0000 N   0  0  0  0  0  0  0  0  0
    3.4752    1.1631    0.0000 C   0  0  0  0  0  0  0  0  0
    4.2598    1.4181    0.0000 C   0  0  0  0  0  0  0  0  0
    4.7447    0.7506    0.0000 N   0  0  0  0  0  0  0  0  0
    5.5697    0.7506    0.0000 C   0  0  0  0  0  0  0  0  0
    5.9822    1.4651    0.0000 C   0  0  0  0  0  0  0  0  0
    6.8072    1.4651    0.0000 N   0  0  0  0  0  0  0  0  0
    7.2921    0.7977    0.0000 C   0  0  0  0  0  0  0  0  0
    8.0767    1.0526    0.0000 C   0  0  0  0  0  0  0  0  0
    8.0767    1.8776    0.0000 C   0  0  0  0  0  0  0  0  0
    7.2921    2.1326    0.0000 C   0  0  0  0  0  0  0  0  0
    8.7912    2.2901    0.0000 C   0  0  0  0  0  0  0  0  0
    9.5057    1.8776    0.0000 C   0  0  0  0  0  0  0  0  0
    9.5057    1.0526    0.0000 C   0  0  0  0  0  0  0  0  0
    8.7912    0.6401    0.0000 C   0  0  0  0  0  0  0  0  0
    4.2598    0.0832    0.0000 C   0  0  0  0  0  0  0  0  0
    4.5147   -0.7014    0.0000 O   0  0  0  0  0  0  0  0  0
  1  2  1  0  0  0  0
  2  3  4  0  0  0  0
  2  7  4  0  0  0  0
  3  4  4  0  0  0  0
  4  5  4  0  0  0  0
  5  6  4  0  0  0  0
  5  8  1  0  0  0  0
  6  7  4  0  0  0  0
  8  9  1  0  0  0  0
  9 10  1  0  0  0  0
  9 24  1  0  0  0  0
 10 11  1  0  0  0  0
 11 12  1  0  0  0  0
 12 13  1  0  0  0  0
 12 24  1  0  0  0  0
 13 14  1  0  0  0  0
 14 15  1  0  0  0  0
 15 16  1  0  0  0  0
 15 19  1  0  0  0  0
 16 17  1  0  0  0  0
 17 18  4  0  0  0  0
 17 23  4  0  0  0  0
 18 19  1  0  0  0  0
 18 20  4  0  0  0  0
 20 21  4  0  0  0  0
 21 22  4  0  0  0  0
 22 23  4  0  0  0  0
 24 25  2  0  0  0  0
M  END
>  <Name_Molregno>
554942

>  <DOPAMINE D2>
5

>  <DOPAMINE D3>
6.8

$$$$
554956
  Marvin  02231216192D 0   1.00000     0.00000     0

 22 24  0  0  1  0  0  0  0  0999 V2000
    5.9647    3.6480    0.0000 Cl  0  0  0  0  0  0  0  0  0
    5.2502    3.2355    0.0000 C   0  0  0  0  0  0  0  0  0
    5.2502    2.4105    0.0000 C   0  0  0  0  0  0  0  0  0
    4.5358    1.9980    0.0000 C   0  0  0  0  0  0  0  0  0
    4.5358    1.1730    0.0000 N   0  0  0  0  0  0  0  0  0
    5.2032    0.6880    0.0000 C   0  0  0  0  0  0  0  0  0
    4.9483   -0.0966    0.0000 C   0  0  0  0  0  0  0  0  0
    4.1233   -0.0966    0.0000 N   0  0  0  0  0  0  0  0  0
    3.6384   -0.7640    0.0000 C   0  0  0  0  0  0  0  0  0
    3.9739   -1.5177    0.0000 C   0  0  0  0  0  0  0  0  0
    3.4890   -2.1851    0.0000 N   0  0  0  0  0  0  0  0  0
    3.8245   -2.9388    0.0000 C   0  0  0  0  0  0  0  0  0
    3.3396   -3.6063    0.0000 C   0  0  0  0  0  0  0  0  0
    2.5191   -3.5200    0.0000 C   0  0  0  0  0  0  0  0  0
    2.1836   -2.7663    0.0000 C   0  0  0  0  0  0  0  0  0
    2.6685   -2.0989    0.0000 C   0  0  0  0  0  0  0  0  0
    2.3330   -1.3452    0.0000 C   0  0  0  0  0  0  0  0  0
    3.8683    0.6880    0.0000 C   0  0  0  0  0  0  0  0  0
    3.0837    0.9430    0.0000 O   0  0  0  0  0  0  0  0  0
    3.8213    2.4105    0.0000 C   0  0  0  0  0  0  0  0  0
    3.8213    3.2355    0.0000 C   0  0  0  0  0  0  0  0  0
    4.5358    3.6480    0.0000 C   0  0  0  0  0  0  0  0  0
  1  2  1  0  0  0  0
  2  3  4  0  0  0  0
  2 22  4  0  0  0  0
  3  4  4  0  0  0  0
  4  5  1  0  0  0  0
  4 20  4  0  0  0  0
  5  6  1  0  0  0  0
  5 18  1  0  0  0  0
  6  7  1  0  0  0  0
  7  8  1  0  0  0  0
  8  9  1  0  0  0  0
  8 18  1  0  0  0  0
  9 10  1  0  0  0  0
 10 11  1  0  0  0  0
 11 12  1  0  0  0  0
 11 16  1  0  0  0  0
 12 13  1  0  0  0  0
 13 14  1  0  0  0  0
 14 15  1  0  0  0  0
 15 16  1  0  0  0  0
 16 17  1  0  0  0  0
 18 19  2  0  0  0  0
 20 21  4  0  0  0  0
 21 22  4  0  0  0  0
M  END
>  <Name_Molregno>
554956

>  <DOPAMINE D2>
7.6

>  <DOPAMINE D3>
8.1

$$$$
555227
  Marvin  02231216192D 0   1.00000     0.00000     0

 26 29  0  0  0  0  0  0  0  0999 V2000
   -4.7301   -2.6779    0.0000 O   0  0  0  0  0  0  0  0  0
   -4.9851   -3.4625    0.0000 C   0  0  0  0  0  0  0  0  0
   -5.2822   -2.0648    0.0000 C   0  0  0  0  0  0  0  0  0
   -6.0891   -2.2363    0.0000 C   0  0  0  0  0  0  0  0  0
   -6.6412   -1.6232    0.0000 C   0  0  0  0  0  0  0  0  0
   -6.3862   -0.8386    0.0000 C   0  0  0  0  0  0  0  0  0
   -5.5793   -0.6671    0.0000 C   0  0  0  0  0  0  0  0  0
   -5.0272   -1.2802    0.0000 C   0  0  0  0  0  0  0  0  0
   -4.2203   -1.1087    0.0000 N   0  0  0  0  0  0  0  0  0
   -3.9653   -0.3240    0.0000 C   0  0  0  0  0  0  0  0  0
   -3.1583   -0.1525    0.0000 C   0  0  0  0  0  0  0  0  0
   -2.6063   -0.7656    0.0000 N   0  0  0  0  0  0  0  0  0
   -2.8612   -1.5502    0.0000 C   0  0  0  0  0  0  0  0  0
   -3.6682   -1.7218    0.0000 C   0  0  0  0  0  0  0  0  0
   -1.7993   -0.5941    0.0000 C   0  0  0  0  0  0  0  0  0
   -1.5444    0.1905    0.0000 C   0  0  0  0  0  0  0  0  0
   -0.7598    0.4455    0.0000 N   0  0  0  0  0  0  0  0  0
   -0.7598    1.2705    0.0000 C   0  0  0  0  0  0  0  0  0
   -1.5444    1.5254    0.0000 N   0  0  0  0  0  0  0  0  0
   -2.0293    0.8580    0.0000 C   0  0  0  0  0  0  0  0  0
   -2.8543    0.8580    0.0000 C   0  0  0  0  0  0  0  0  0
   -0.0453    1.6830    0.0000 C   0  0  0  0  0  0  0  0  0
    0.6692    1.2705    0.0000 C   0  0  0  0  0  0  0  0  0
    0.6692    0.4455    0.0000 N   0  0  0  0  0  0  0  0  0
   -0.0453    0.0330    0.0000 C   0  0  0  0  0  0  0  0  0
    1.3836    1.6830    0.0000 C   0  0  0  0  0  0  0  0  0
  1  2  1  0  0  0  0
  1  3  1  0  0  0  0
  3  4  4  0  0  0  0
  3  8  4  0  0  0  0
  4  5  4  0  0  0  0
  5  6  4  0  0  0  0
  6  7  4  0  0  0  0
  7  8  4  0  0  0  0
  8  9  1  0  0  0  0
  9 10  1  0  0  0  0
  9 14  1  0  0  0  0
 10 11  1  0  0  0  0
 11 12  1  0  0  0  0
 12 13  1  0  0  0  0
 12 15  1  0  0  0  0
 13 14  1  0  0  0  0
 15 16  1  0  0  0  0
 16 17  4  0  0  0  0
 16 20  4  0  0  0  0
 17 18  4  0  0  0  0
 17 25  4  0  0  0  0
 18 19  4  0  0  0  0
 18 22  4  0  0  0  0
 19 20  4  0  0  0  0
 20 21  1  0  0  0  0
 22 23  4  0  0  0  0
 23 24  4  0  0  0  0
 23 26  1  0  0  0  0
 24 25  4  0  0  0  0
M  END
>  <Name_Molregno>
555227

>  <DOPAMINE D2>
4.67

>  <DOPAMINE D3>
4.59

$$$$
555271
  Marvin  02231216192D 0   1.00000     0.00000     0

 23 26  0  0  0  0  0  0  0  0999 V2000
    6.2632    1.7254    0.0000 Cl  0  0  0  0  0  0  0  0  0
    6.2632    0.9004    0.0000 C   0  0  0  0  0  0  0  0  0
    6.9777    0.4879    0.0000 N   0  0  0  0  0  0  0  0  0
    6.9777   -0.3371    0.0000 C   0  0  0  0  0  0  0  0  0
    6.2632   -0.7496    0.0000 C   0  0  0  0  0  0  0  0  0
    5.5487   -0.3371    0.0000 C   0  0  0  0  0  0  0  0  0
    5.5487    0.4879    0.0000 C   0  0  0  0  0  0  0  0  0
    4.7641    0.7429    0.0000 N   0  0  0  0  0  0  0  0  0
    4.2792    0.0754    0.0000 C   0  0  0  0  0  0  0  0  0
    4.7641   -0.5920    0.0000 C   0  0  0  0  0  0  0  0  0
    4.5091   -1.3766    0.0000 C   0  0  0  0  0  0  0  0  0
    3.7022   -1.5482    0.0000 N   0  0  0  0  0  0  0  0  0
    3.4472   -2.3328    0.0000 C   0  0  0  0  0  0  0  0  0
    2.6403   -2.5043    0.0000 C   0  0  0  0  0  0  0  0  0
    2.0882   -1.8912    0.0000 N   0  0  0  0  0  0  0  0  0
    2.3432   -1.1066    0.0000 C   0  0  0  0  0  0  0  0  0
    3.1501   -0.9351    0.0000 C   0  0  0  0  0  0  0  0  0
    1.2813   -2.0627    0.0000 C   0  0  0  0  0  0  0  0  0
    1.0263   -2.8474    0.0000 C   0  0  0  0  0  0  0  0  0
    0.2194   -3.0189    0.0000 C   0  0  0  0  0  0  0  0  0
   -0.3327   -2.4058    0.0000 C   0  0  0  0  0  0  0  0  0
   -0.0777   -1.6212    0.0000 C   0  0  0  0  0  0  0  0  0
    0.7292   -1.4496    0.0000 C   0  0  0  0  0  0  0  0  0
  1  2  1  0  0  0  0
  2  3  4  0  0  0  0
  2  7  4  0  0  0  0
  3  4  4  0  0  0  0
  4  5  4  0  0  0  0
  5  6  4  0  0  0  0
  6  7  4  0  0  0  0
  6 10  4  0  0  0  0
  7  8  4  0  0  0  0
  8  9  4  0  0  0  0
  9 10  4  0  0  0  0
 10 11  1  0  0  0  0
 11 12  1  0  0  0  0
 12 13  1  0  0  0  0
 12 17  1  0  0  0  0
 13 14  1  0  0  0  0
 14 15  1  0  0  0  0
 15 16  1  0  0  0  0
 15 18  1  0  0  0  0
 16 17  1  0  0  0  0
 18 19  4  0  0  0  0
 18 23  4  0  0  0  0
 19 20  4  0  0  0  0
 20 21  4  0  0  0  0
 21 22  4  0  0  0  0
 22 23  4  0  0  0  0
M  STY  1   1 DAT
M  SAL   1  1   8
M  SDT   1 MRV_IMPLICIT_H                                        
M  SDD   1     0.0000    0.0000    DR    ALL  0       0  
M  SED   1 IMPL_H1
M  END
>  <Name_Molregno>
555271

>  <DOPAMINE D2>
5.57

>  <DOPAMINE D3>
5.21

$$$$
555326
  Marvin  02231216192D 0   1.00000     0.00000     0

 22 25  0  0  1  0  0  0  0  0999 V2000
   -7.0140   -2.6991    0.0000 Cl  0  0  0  0  0  0  0  0  0
   -6.2382   -2.4185    0.0000 C   0  0  0  0  0  0  0  0  0
   -6.0933   -1.6063    0.0000 C   0  0  0  0  0  0  0  0  0
   -5.3175   -1.3257    0.0000 C   0  0  0  0  0  0  0  0  0
   -5.1726   -0.5135    0.0000 N   0  0  0  0  0  0  0  0  0
   -5.7445    0.0811    0.0000 C   0  0  0  0  0  0  0  0  0
   -5.3558    0.8087    0.0000 C   0  0  0  0  0  0  0  0  0
   -4.5436    0.6638    0.0000 N   0  0  0  0  0  0  0  0  0
   -3.9490    1.2357    0.0000 C   0  0  0  0  0  0  0  0  0
   -3.1564    1.0068    0.0000 C   0  0  0  0  0  0  0  0  0
   -2.5618    1.5787    0.0000 N   0  0  0  0  0  0  0  0  0
   -1.7863    1.9690    0.0000 C   0  0  0  0  0  0  0  0  0
   -1.7162    3.5048    0.0000 C   0  0  0  0  0  0  0  0  0
   -1.5562    2.6894    0.0000 C   0  0  0  0  0  0  0  0  0
   -0.7607    2.2241    0.0000 C   0  0  0  0  0  0  0  0  0
   -1.0558    1.5987    0.0000 C   0  0  0  0  0  0  0  0  0
   -2.1965    2.2392    0.0000 C   0  0  0  0  0  0  0  0  0
   -4.4304   -0.1534    0.0000 C   0  0  0  0  0  0  0  0  0
   -3.7027   -0.5421    0.0000 O   0  0  0  0  0  0  0  0  0
   -4.6866   -1.8573    0.0000 C   0  0  0  0  0  0  0  0  0
   -4.8315   -2.6694    0.0000 C   0  0  0  0  0  0  0  0  0
   -5.6073   -2.9501    0.0000 C   0  0  0  0  0  0  0  0  0
  1  2  1  0  0  0  0
  2  3  4  0  0  0  0
  2 22  4  0  0  0  0
  3  4  4  0  0  0  0
  4  5  1  0  0  0  0
  4 20  4  0  0  0  0
  5  6  1  0  0  0  0
  5 18  1  0  0  0  0
  6  7  1  0  0  0  0
  7  8  1  0  0  0  0
  8  9  1  0  0  0  0
  8 18  1  0  0  0  0
  9 10  1  0  0  0  0
 10 11  1  0  0  0  0
 11 12  1  0  0  0  0
 11 17  1  0  0  0  0
 12 13  1  0  0  0  0
 12 16  1  0  0  0  0
 13 14  1  0  0  0  0
 14 15  1  0  0  0  0
 14 17  1  0  0  0  0
 15 16  1  0  0  0  0
 18 19  2  0  0  0  0
 20 21  4  0  0  0  0
 21 22  4  0  0  0  0
M  END
>  <Name_Molregno>
555326

>  <DOPAMINE D2>
8.4

>  <DOPAMINE D3>
8.6

$$$$
555338
  Marvin  02231216192D 0   1.00000     0.00000     0

 29 33  0  0  1  0  0  0  0  0999 V2000
    9.4563   -2.6820    0.0000 Cl  0  0  0  0  0  0  0  0  0
    9.2047   -1.8963    0.0000 C   0  0  0  0  0  0  0  0  0
    8.3984   -1.7214    0.0000 C   0  0  0  0  0  0  0  0  0
    8.1468   -0.9358    0.0000 C   0  0  0  0  0  0  0  0  0
    7.3405   -0.7608    0.0000 N   0  0  0  0  0  0  0  0  0
    6.7251   -1.3103    0.0000 C   0  0  0  0  0  0  0  0  0
    6.0124   -0.8948    0.0000 C   0  0  0  0  0  0  0  0  0
    6.1873   -0.0886    0.0000 N   0  0  0  0  0  0  0  0  0
    5.6379    0.5268    0.0000 C   0  0  0  0  0  0  0  0  0
    4.8302    0.3587    0.0000 C   0  0  0  0  0  0  0  0  0
    4.2807    0.9741    0.0000 N   0  0  0  0  0  0  0  0  0
    3.4260    1.4151    0.0000 C   0  0  0  0  0  0  0  0  0
    3.5662    2.2768    0.0000 C   0  0  0  0  0  0  0  0  0
    3.3497    2.7236    0.0000 C   0  0  0  0  0  0  0  0  0
    3.2051    1.9114    0.0000 C   0  0  0  0  0  0  0  0  0
    2.3555    2.1226    0.0000 C   0  0  0  0  0  0  0  0  0
    1.7108    1.8555    0.0000 C   0  0  0  0  0  0  0  0  0
    2.0469    1.1021    0.0000 C   0  0  0  0  0  0  0  0  0
    2.7841    1.1491    0.0000 C   0  0  0  0  0  0  0  0  0
    1.5625    0.4343    0.0000 C   0  0  0  0  0  0  0  0  0
    0.7419    0.5199    0.0000 C   0  0  0  0  0  0  0  0  0
    0.4058    1.2734    0.0000 C   0  0  0  0  0  0  0  0  0
    0.8903    1.9411    0.0000 C   0  0  0  0  0  0  0  0  0
    4.0702    1.5279    0.0000 C   0  0  0  0  0  0  0  0  0
    7.0082   -0.0058    0.0000 C   0  0  0  0  0  0  0  0  0
    7.4236    0.7070    0.0000 O   0  0  0  0  0  0  0  0  0
    8.7014   -0.3250    0.0000 C   0  0  0  0  0  0  0  0  0
    9.5076   -0.4999    0.0000 C   0  0  0  0  0  0  0  0  0
    9.7593   -1.2856    0.0000 C   0  0  0  0  0  0  0  0  0
  1  2  1  0  0  0  0
  2  3  4  0  0  0  0
  2 29  4  0  0  0  0
  3  4  4  0  0  0  0
  4  5  1  0  0  0  0
  4 27  4  0  0  0  0
  5  6  1  0  0  0  0
  5 25  1  0  0  0  0
  6  7  1  0  0  0  0
  7  8  1  0  0  0  0
  8  9  1  0  0  0  0
  8 25  1  0  0  0  0
  9 10  1  0  0  0  0
 10 11  1  0  0  0  0
 11 12  1  0  0  0  0
 11 24  1  0  0  0  0
 12 13  1  0  0  0  0
 12 19  1  0  0  0  0
 13 14  1  0  0  0  0
 14 15  1  0  0  0  0
 15 16  1  0  0  0  0
 15 24  1  0  0  0  0
 16 17  1  0  0  0  0
 17 18  4  0  0  0  0
 17 23  4  0  0  0  0
 18 19  1  0  0  0  0
 18 20  4  0  0  0  0
 20 21  4  0  0  0  0
 21 22  4  0  0  0  0
 22 23  4  0  0  0  0
 25 26  2  0  0  0  0
 27 28  4  0  0  0  0
 28 29  4  0  0  0  0
M  END
>  <Name_Molregno>
555338

>  <DOPAMINE D2>
7.6

>  <DOPAMINE D3>
8.6

$$$$
555356
  Marvin  02231216192D 0   1.00000     0.00000     0

 25 28  0  0  0  0  0  0  0  0999 V2000
   -1.5146    3.7848    0.0000 Cl  0  0  0  0  0  0  0  0  0
   -2.2469    3.4048    0.0000 C   0  0  0  0  0  0  0  0  0
   -2.2839    2.5806    0.0000 C   0  0  0  0  0  0  0  0  0
   -3.0161    2.2006    0.0000 C   0  0  0  0  0  0  0  0  0
   -3.0531    1.3764    0.0000 N   0  0  0  0  0  0  0  0  0
   -2.4081    0.8621    0.0000 C   0  0  0  0  0  0  0  0  0
   -2.6980    0.0897    0.0000 C   0  0  0  0  0  0  0  0  0
   -3.5222    0.1267    0.0000 N   0  0  0  0  0  0  0  0  0
   -4.0366   -0.5183    0.0000 C   0  0  0  0  0  0  0  0  0
   -4.8524   -0.3954    0.0000 C   0  0  0  0  0  0  0  0  0
   -5.3667   -1.0404    0.0000 N   0  0  0  0  0  0  0  0  0
   -5.0088   -1.7837    0.0000 C   0  0  0  0  0  0  0  0  0
   -5.3667   -2.5270    0.0000 C   0  0  0  0  0  0  0  0  0
   -6.1710   -2.7106    0.0000 C   0  0  0  0  0  0  0  0  0
   -6.8161   -2.1962    0.0000 C   0  0  0  0  0  0  0  0  0
   -7.6007   -2.4511    0.0000 S   0  0  0  0  0  0  0  0  0
   -8.0856   -1.7837    0.0000 C   0  0  0  0  0  0  0  0  0
   -7.6007   -1.1162    0.0000 C   0  0  0  0  0  0  0  0  0
   -6.8161   -1.3712    0.0000 C   0  0  0  0  0  0  0  0  0
   -6.1710   -0.8568    0.0000 C   0  0  0  0  0  0  0  0  0
   -3.7417    0.9219    0.0000 C   0  0  0  0  0  0  0  0  0
   -4.5141    1.2118    0.0000 O   0  0  0  0  0  0  0  0  0
   -3.7114    2.6447    0.0000 C   0  0  0  0  0  0  0  0  0
   -3.6744    3.4689    0.0000 C   0  0  0  0  0  0  0  0  0
   -2.9421    3.8489    0.0000 C   0  0  0  0  0  0  0  0  0
  1  2  1  0  0  0  0
  2  3  4  0  0  0  0
  2 25  4  0  0  0  0
  3  4  4  0  0  0  0
  4  5  1  0  0  0  0
  4 23  4  0  0  0  0
  5  6  1  0  0  0  0
  5 21  1  0  0  0  0
  6  7  1  0  0  0  0
  7  8  1  0  0  0  0
  8  9  1  0  0  0  0
  8 21  1  0  0  0  0
  9 10  1  0  0  0  0
 10 11  1  0  0  0  0
 11 12  1  0  0  0  0
 11 20  1  0  0  0  0
 12 13  1  0  0  0  0
 13 14  1  0  0  0  0
 14 15  1  0  0  0  0
 15 16  4  0  0  0  0
 15 19  4  0  0  0  0
 16 17  4  0  0  0  0
 17 18  4  0  0  0  0
 18 19  4  0  0  0  0
 19 20  1  0  0  0  0
 21 22  2  0  0  0  0
 23 24  4  0  0  0  0
 24 25  4  0  0  0  0
M  END
>  <Name_Molregno>
555356

>  <DOPAMINE D2>
8.5

>  <DOPAMINE D3>
9.2

$$$$
555357
  Marvin  02231216192D 0   1.00000     0.00000     0

 27 31  0  0  1  0  0  0  0  0999 V2000
    0.7663   -2.5422    0.0000 Cl  0  0  0  0  0  0  0  0  0
    1.5547   -2.2992    0.0000 C   0  0  0  0  0  0  0  0  0
    1.7384   -1.4949    0.0000 C   0  0  0  0  0  0  0  0  0
    2.5268   -1.2519    0.0000 C   0  0  0  0  0  0  0  0  0
    2.7105   -0.4476    0.0000 N   0  0  0  0  0  0  0  0  0
    2.1678    0.1738    0.0000 C   0  0  0  0  0  0  0  0  0
    2.5911    0.8819    0.0000 C   0  0  0  0  0  0  0  0  0
    3.3954    0.6982    0.0000 N   0  0  0  0  0  0  0  0  0
    4.0167    1.2409    0.0000 C   0  0  0  0  0  0  0  0  0
    4.7974    0.9741    0.0000 C   0  0  0  0  0  0  0  0  0
    5.4188    1.5168    0.0000 N   0  0  0  0  0  0  0  0  0
    6.2743    1.3146    0.0000 C   0  0  0  0  0  0  0  0  0
    6.7506    2.0008    0.0000 C   0  0  0  0  0  0  0  0  0
    7.2262    2.6673    0.0000 C   0  0  0  0  0  0  0  0  0
    7.9700    2.2101    0.0000 C   0  0  0  0  0  0  0  0  0
    7.6469    1.1809    0.0000 C   0  0  0  0  0  0  0  0  0
    6.8834    0.7392    0.0000 C   0  0  0  0  0  0  0  0  0
    7.7193    1.7350    0.0000 C   0  0  0  0  0  0  0  0  0
    6.9553    1.4235    0.0000 C   0  0  0  0  0  0  0  0  0
    7.1362    1.1514    0.0000 C   0  0  0  0  0  0  0  0  0
    6.1236    2.6213    0.0000 C   0  0  0  0  0  0  0  0  0
    5.3385    2.3407    0.0000 C   0  0  0  0  0  0  0  0  0
    3.4692   -0.1235    0.0000 C   0  0  0  0  0  0  0  0  0
    4.1773   -0.5467    0.0000 O   0  0  0  0  0  0  0  0  0
    3.1314   -1.8131    0.0000 C   0  0  0  0  0  0  0  0  0
    2.9477   -2.6174    0.0000 C   0  0  0  0  0  0  0  0  0
    2.1593   -2.8604    0.0000 C   0  0  0  0  0  0  0  0  0
  1  2  1  0  0  0  0
  2  3  4  0  0  0  0
  2 27  4  0  0  0  0
  3  4  4  0  0  0  0
  4  5  1  0  0  0  0
  4 25  4  0  0  0  0
  5  6  1  0  0  0  0
  5 23  1  0  0  0  0
  6  7  1  0  0  0  0
  7  8  1  0  0  0  0
  8  9  1  0  0  0  0
  8 23  1  0  0  0  0
  9 10  1  0  0  0  0
 10 11  1  0  0  0  0
 11 12  1  0  0  0  0
 11 22  1  0  0  0  0
 12 13  1  0  0  0  0
 12 17  1  0  0  0  0
 13 14  1  0  0  0  0
 13 18  1  0  0  0  0
 13 21  1  0  0  0  0
 14 15  1  0  0  0  0
 15 16  1  0  0  0  0
 16 17  1  0  0  0  0
 16 18  1  0  0  0  0
 18 19  1  0  0  0  0
 18 20  1  0  0  0  0
 21 22  1  0  0  0  0
 23 24  2  0  0  0  0
 25 26  4  0  0  0  0
 26 27  4  0  0  0  0
M  END
>  <Name_Molregno>
555357

>  <DOPAMINE D2>
6.5

>  <DOPAMINE D3>
7.6

$$$$
555371
  Marvin  02231216192D 0   1.00000     0.00000     0

 27 30  0  0  0  0  0  0  0  0999 V2000
    2.9539   -2.1094    0.0000 O   0  0  0  0  0  0  0  0  0
    2.1689   -2.3632    0.0000 C   0  0  0  0  0  0  0  0  0
    1.9128   -3.1475    0.0000 N   0  0  0  0  0  0  0  0  0
    1.0878   -3.1463    0.0000 C   0  0  0  0  0  0  0  0  0
    0.8340   -2.3613    0.0000 C   0  0  0  0  0  0  0  0  0
    1.5022   -1.8773    0.0000 N   0  0  0  0  0  0  0  0  0
    1.5034   -1.0523    0.0000 C   0  0  0  0  0  0  0  0  0
    0.7895   -0.6388    0.0000 C   0  0  0  0  0  0  0  0  0
    0.7907    0.1862    0.0000 N   0  0  0  0  0  0  0  0  0
    0.0768    0.5997    0.0000 C   0  0  0  0  0  0  0  0  0
    0.0780    1.4247    0.0000 C   0  0  0  0  0  0  0  0  0
   -0.6975    1.0344    0.0000 C   0  0  0  0  0  0  0  0  0
   -0.3322    1.6949    0.0000 C   0  0  0  0  0  0  0  0  0
    0.3081    2.1451    0.0000 C   0  0  0  0  0  0  0  0  0
    1.1036    1.6798    0.0000 C   0  0  0  0  0  0  0  0  0
    0.8085    1.0544    0.0000 C   0  0  0  0  0  0  0  0  0
    0.1481    2.9605    0.0000 C   0  0  0  0  0  0  0  0  0
   -0.4316    3.5475    0.0000 C   0  0  0  0  0  0  0  0  0
    0.6348    3.6266    0.0000 C   0  0  0  0  0  0  0  0  0
    1.5057    0.5977    0.0000 C   0  0  0  0  0  0  0  0  0
    2.3968   -3.8156    0.0000 C   0  0  0  0  0  0  0  0  0
    3.2174   -3.7306    0.0000 C   0  0  0  0  0  0  0  0  0
    3.7014   -4.3987    0.0000 C   0  0  0  0  0  0  0  0  0
    3.3647   -5.1519    0.0000 C   0  0  0  0  0  0  0  0  0
    2.5441   -5.2369    0.0000 C   0  0  0  0  0  0  0  0  0
    2.0602   -4.5688    0.0000 C   0  0  0  0  0  0  0  0  0
    3.8487   -5.8200    0.0000 C   0  0  0  0  0  0  0  0  0
  1  2  2  0  0  0  0
  2  3  1  0  0  0  0
  2  6  1  0  0  0  0
  3  4  1  0  0  0  0
  3 21  1  0  0  0  0
  4  5  1  0  0  0  0
  5  6  1  0  0  0  0
  6  7  1  0  0  0  0
  7  8  1  0  0  0  0
  8  9  1  0  0  0  0
  9 10  1  0  0  0  0
  9 20  1  0  0  0  0
 10 11  1  0  0  0  0
 11 12  1  0  0  0  0
 11 16  1  0  0  0  0
 11 17  1  0  0  0  0
 12 13  1  0  0  0  0
 13 14  1  0  0  0  0
 14 15  1  0  0  0  0
 14 17  1  0  0  0  0
 15 16  1  0  0  0  0
 17 18  1  0  0  0  0
 17 19  1  0  0  0  0
 21 22  4  0  0  0  0
 21 26  4  0  0  0  0
 22 23  4  0  0  0  0
 23 24  4  0  0  0  0
 24 25  4  0  0  0  0
 24 27  1  0  0  0  0
 25 26  4  0  0  0  0
M  END
>  <Name_Molregno>
555371

>  <DOPAMINE D2>
6

>  <DOPAMINE D3>
7.6

$$$$
555372
  Marvin  02231216192D 0   1.00000     0.00000     0

 27 30  0  0  0  0  0  0  0  0999 V2000
    3.0024   -2.1499    0.0000 O   0  0  0  0  0  0  0  0  0
    2.2174   -2.4037    0.0000 C   0  0  0  0  0  0  0  0  0
    1.9613   -3.1880    0.0000 N   0  0  0  0  0  0  0  0  0
    1.1363   -3.1868    0.0000 C   0  0  0  0  0  0  0  0  0
    0.8825   -2.4018    0.0000 C   0  0  0  0  0  0  0  0  0
    1.5506   -1.9178    0.0000 N   0  0  0  0  0  0  0  0  0
    1.5518   -1.0928    0.0000 C   0  0  0  0  0  0  0  0  0
    0.8380   -0.6793    0.0000 C   0  0  0  0  0  0  0  0  0
    0.8392    0.1457    0.0000 N   0  0  0  0  0  0  0  0  0
    0.1253    0.5592    0.0000 C   0  0  0  0  0  0  0  0  0
    0.1265    1.3842    0.0000 C   0  0  0  0  0  0  0  0  0
   -0.6490    0.9939    0.0000 C   0  0  0  0  0  0  0  0  0
   -0.2837    1.6544    0.0000 C   0  0  0  0  0  0  0  0  0
    0.3566    2.1046    0.0000 C   0  0  0  0  0  0  0  0  0
    1.1521    1.6393    0.0000 C   0  0  0  0  0  0  0  0  0
    0.8570    1.0139    0.0000 C   0  0  0  0  0  0  0  0  0
    0.1966    2.9200    0.0000 C   0  0  0  0  0  0  0  0  0
   -0.3832    3.5070    0.0000 C   0  0  0  0  0  0  0  0  0
    0.6833    3.5861    0.0000 C   0  0  0  0  0  0  0  0  0
    1.5542    0.5571    0.0000 C   0  0  0  0  0  0  0  0  0
    2.4453   -3.8561    0.0000 C   0  0  0  0  0  0  0  0  0
    3.2659   -3.7711    0.0000 C   0  0  0  0  0  0  0  0  0
    3.7498   -4.4392    0.0000 C   0  0  0  0  0  0  0  0  0
    3.4132   -5.1924    0.0000 C   0  0  0  0  0  0  0  0  0
    2.5926   -5.2775    0.0000 C   0  0  0  0  0  0  0  0  0
    2.1086   -4.6093    0.0000 C   0  0  0  0  0  0  0  0  0
    4.5704   -4.3542    0.0000 C   0  0  0  0  0  0  0  0  0
  1  2  2  0  0  0  0
  2  3  1  0  0  0  0
  2  6  1  0  0  0  0
  3  4  1  0  0  0  0
  3 21  1  0  0  0  0
  4  5  1  0  0  0  0
  5  6  1  0  0  0  0
  6  7  1  0  0  0  0
  7  8  1  0  0  0  0
  8  9  1  0  0  0  0
  9 10  1  0  0  0  0
  9 20  1  0  0  0  0
 10 11  1  0  0  0  0
 11 12  1  0  0  0  0
 11 16  1  0  0  0  0
 11 17  1  0  0  0  0
 12 13  1  0  0  0  0
 13 14  1  0  0  0  0
 14 15  1  0  0  0  0
 14 17  1  0  0  0  0
 15 16  1  0  0  0  0
 17 18  1  0  0  0  0
 17 19  1  0  0  0  0
 21 22  4  0  0  0  0
 21 26  4  0  0  0  0
 22 23  4  0  0  0  0
 23 24  4  0  0  0  0
 23 27  1  0  0  0  0
 24 25  4  0  0  0  0
 25 26  4  0  0  0  0
M  END
>  <Name_Molregno>
555372

>  <DOPAMINE D2>
6.6

>  <DOPAMINE D3>
7.7

$$$$
556636
  Marvin  02231216192D 0   1.00000     0.00000     0

 25 28  0  0  0  0  0  0  0  0999 V2000
   -7.3634   -2.8426    0.0000 Cl  0  0  0  0  0  0  0  0  0
   -6.6097   -3.1781    0.0000 C   0  0  0  0  0  0  0  0  0
   -5.9423   -2.6932    0.0000 C   0  0  0  0  0  0  0  0  0
   -5.1886   -3.0288    0.0000 C   0  0  0  0  0  0  0  0  0
   -4.5212   -2.5438    0.0000 N   0  0  0  0  0  0  0  0  0
   -4.5212   -1.7188    0.0000 C   0  0  0  0  0  0  0  0  0
   -3.7366   -1.4639    0.0000 C   0  0  0  0  0  0  0  0  0
   -3.2516   -2.1313    0.0000 N   0  0  0  0  0  0  0  0  0
   -2.4266   -2.1313    0.0000 C   0  0  0  0  0  0  0  0  0
   -2.0141   -1.4169    0.0000 C   0  0  0  0  0  0  0  0  0
   -1.1891   -1.4169    0.0000 N   0  0  0  0  0  0  0  0  0
   -0.7042   -2.0843    0.0000 C   0  0  0  0  0  0  0  0  0
    0.0804   -1.8294    0.0000 C   0  0  0  0  0  0  0  0  0
    0.0804   -1.0044    0.0000 C   0  0  0  0  0  0  0  0  0
   -0.7042   -0.7494    0.0000 C   0  0  0  0  0  0  0  0  0
    0.7949   -0.5919    0.0000 C   0  0  0  0  0  0  0  0  0
    1.5093   -1.0044    0.0000 C   0  0  0  0  0  0  0  0  0
    1.5093   -1.8294    0.0000 C   0  0  0  0  0  0  0  0  0
    0.7949   -2.2419    0.0000 C   0  0  0  0  0  0  0  0  0
   -3.7366   -2.7988    0.0000 C   0  0  0  0  0  0  0  0  0
   -3.4816   -3.5834    0.0000 O   0  0  0  0  0  0  0  0  0
   -5.1024   -3.8493    0.0000 C   0  0  0  0  0  0  0  0  0
   -5.7698   -4.3342    0.0000 C   0  0  0  0  0  0  0  0  0
   -5.6836   -5.1547    0.0000 Cl  0  0  0  0  0  0  0  0  0
   -6.5235   -3.9986    0.0000 C   0  0  0  0  0  0  0  0  0
  1  2  1  0  0  0  0
  2  3  4  0  0  0  0
  2 25  4  0  0  0  0
  3  4  4  0  0  0  0
  4  5  1  0  0  0  0
  4 22  4  0  0  0  0
  5  6  1  0  0  0  0
  5 20  1  0  0  0  0
  6  7  1  0  0  0  0
  7  8  1  0  0  0  0
  8  9  1  0  0  0  0
  8 20  1  0  0  0  0
  9 10  1  0  0  0  0
 10 11  1  0  0  0  0
 11 12  1  0  0  0  0
 11 15  1  0  0  0  0
 12 13  1  0  0  0  0
 13 14  4  0  0  0  0
 13 19  4  0  0  0  0
 14 15  1  0  0  0  0
 14 16  4  0  0  0  0
 16 17  4  0  0  0  0
 17 18  4  0  0  0  0
 18 19  4  0  0  0  0
 20 21  2  0  0  0  0
 22 23  4  0  0  0  0
 23 24  1  0  0  0  0
 23 25  4  0  0  0  0
M  END
>  <Name_Molregno>
556636

>  <DOPAMINE D2>
8.2

>  <DOPAMINE D3>
8.9

$$$$
556637
  Marvin  02231216192D 0   1.00000     0.00000     0

 28 31  0  0  0  0  0  0  0  0999 V2000
   -9.2295   -1.3488    0.0000 F   0  0  0  0  0  0  0  0  0
   -8.5621   -0.8638    0.0000 C   0  0  0  0  0  0  0  0  0
   -8.0771   -1.5313    0.0000 F   0  0  0  0  0  0  0  0  0
   -9.0470   -0.1964    0.0000 F   0  0  0  0  0  0  0  0  0
   -7.8946   -0.3789    0.0000 O   0  0  0  0  0  0  0  0  0
   -7.1410   -0.7145    0.0000 C   0  0  0  0  0  0  0  0  0
   -6.4735   -0.2295    0.0000 C   0  0  0  0  0  0  0  0  0
   -5.7198   -0.5651    0.0000 C   0  0  0  0  0  0  0  0  0
   -5.0524   -0.0802    0.0000 N   0  0  0  0  0  0  0  0  0
   -5.0524    0.7448    0.0000 C   0  0  0  0  0  0  0  0  0
   -4.2678    0.9998    0.0000 C   0  0  0  0  0  0  0  0  0
   -3.7829    0.3323    0.0000 N   0  0  0  0  0  0  0  0  0
   -2.9579    0.3323    0.0000 C   0  0  0  0  0  0  0  0  0
   -2.5454    1.0468    0.0000 C   0  0  0  0  0  0  0  0  0
   -1.7204    1.0468    0.0000 N   0  0  0  0  0  0  0  0  0
   -1.2354    0.3793    0.0000 C   0  0  0  0  0  0  0  0  0
   -0.4508    0.6343    0.0000 C   0  0  0  0  0  0  0  0  0
   -0.4508    1.4593    0.0000 C   0  0  0  0  0  0  0  0  0
   -1.2354    1.7142    0.0000 C   0  0  0  0  0  0  0  0  0
    0.2637    1.8718    0.0000 C   0  0  0  0  0  0  0  0  0
    0.9781    1.4593    0.0000 C   0  0  0  0  0  0  0  0  0
    0.9781    0.6343    0.0000 C   0  0  0  0  0  0  0  0  0
    0.2637    0.2218    0.0000 C   0  0  0  0  0  0  0  0  0
   -4.2678   -0.3351    0.0000 C   0  0  0  0  0  0  0  0  0
   -4.0128   -1.1197    0.0000 O   0  0  0  0  0  0  0  0  0
   -5.6336   -1.3856    0.0000 C   0  0  0  0  0  0  0  0  0
   -6.3010   -1.8705    0.0000 C   0  0  0  0  0  0  0  0  0
   -7.0547   -1.5350    0.0000 C   0  0  0  0  0  0  0  0  0
  1  2  1  0  0  0  0
  2  3  1  0  0  0  0
  2  4  1  0  0  0  0
  2  5  1  0  0  0  0
  5  6  1  0  0  0  0
  6  7  4  0  0  0  0
  6 28  4  0  0  0  0
  7  8  4  0  0  0  0
  8  9  1  0  0  0  0
  8 26  4  0  0  0  0
  9 10  1  0  0  0  0
  9 24  1  0  0  0  0
 10 11  1  0  0  0  0
 11 12  1  0  0  0  0
 12 13  1  0  0  0  0
 12 24  1  0  0  0  0
 13 14  1  0  0  0  0
 14 15  1  0  0  0  0
 15 16  1  0  0  0  0
 15 19  1  0  0  0  0
 16 17  1  0  0  0  0
 17 18  4  0  0  0  0
 17 23  4  0  0  0  0
 18 19  1  0  0  0  0
 18 20  4  0  0  0  0
 20 21  4  0  0  0  0
 21 22  4  0  0  0  0
 22 23  4  0  0  0  0
 24 25  2  0  0  0  0
 26 27  4  0  0  0  0
 27 28  4  0  0  0  0
M  END
>  <Name_Molregno>
556637

>  <DOPAMINE D2>
7.4

>  <DOPAMINE D3>
8.8

$$$$
556646
  Marvin  02231216192D 0   1.00000     0.00000     0

 25 28  0  0  0  0  0  0  0  0999 V2000
   -7.4741   -2.9115    0.0000 Cl  0  0  0  0  0  0  0  0  0
   -6.7204   -3.2470    0.0000 C   0  0  0  0  0  0  0  0  0
   -6.0530   -2.7621    0.0000 C   0  0  0  0  0  0  0  0  0
   -5.2993   -3.0976    0.0000 C   0  0  0  0  0  0  0  0  0
   -4.6318   -2.6127    0.0000 N   0  0  0  0  0  0  0  0  0
   -4.6318   -1.7877    0.0000 C   0  0  0  0  0  0  0  0  0
   -3.8472   -1.5328    0.0000 C   0  0  0  0  0  0  0  0  0
   -3.3623   -2.2002    0.0000 N   0  0  0  0  0  0  0  0  0
   -2.5373   -2.2002    0.0000 C   0  0  0  0  0  0  0  0  0
   -2.1248   -1.4858    0.0000 C   0  0  0  0  0  0  0  0  0
   -1.2998   -1.4858    0.0000 N   0  0  0  0  0  0  0  0  0
   -0.8149   -2.1532    0.0000 C   0  0  0  0  0  0  0  0  0
   -0.0303   -1.8983    0.0000 C   0  0  0  0  0  0  0  0  0
   -0.0303   -1.0733    0.0000 C   0  0  0  0  0  0  0  0  0
   -0.8149   -0.8183    0.0000 C   0  0  0  0  0  0  0  0  0
    0.6842   -0.6608    0.0000 C   0  0  0  0  0  0  0  0  0
    1.3987   -1.0733    0.0000 C   0  0  0  0  0  0  0  0  0
    1.3987   -1.8983    0.0000 C   0  0  0  0  0  0  0  0  0
    0.6842   -2.3108    0.0000 C   0  0  0  0  0  0  0  0  0
   -3.8472   -2.8677    0.0000 C   0  0  0  0  0  0  0  0  0
   -3.5923   -3.6523    0.0000 O   0  0  0  0  0  0  0  0  0
   -5.2130   -3.9181    0.0000 C   0  0  0  0  0  0  0  0  0
   -4.4594   -4.2537    0.0000 F   0  0  0  0  0  0  0  0  0
   -5.8805   -4.4031    0.0000 C   0  0  0  0  0  0  0  0  0
   -6.6342   -4.0675    0.0000 C   0  0  0  0  0  0  0  0  0
  1  2  1  0  0  0  0
  2  3  4  0  0  0  0
  2 25  4  0  0  0  0
  3  4  4  0  0  0  0
  4  5  1  0  0  0  0
  4 22  4  0  0  0  0
  5  6  1  0  0  0  0
  5 20  1  0  0  0  0
  6  7  1  0  0  0  0
  7  8  1  0  0  0  0
  8  9  1  0  0  0  0
  8 20  1  0  0  0  0
  9 10  1  0  0  0  0
 10 11  1  0  0  0  0
 11 12  1  0  0  0  0
 11 15  1  0  0  0  0
 12 13  1  0  0  0  0
 13 14  4  0  0  0  0
 13 19  4  0  0  0  0
 14 15  1  0  0  0  0
 14 16  4  0  0  0  0
 16 17  4  0  0  0  0
 17 18  4  0  0  0  0
 18 19  4  0  0  0  0
 20 21  2  0  0  0  0
 22 23  1  0  0  0  0
 22 24  4  0  0  0  0
 24 25  4  0  0  0  0
M  END
>  <Name_Molregno>
556646

>  <DOPAMINE D2>
6.8

>  <DOPAMINE D3>
8.2

$$$$
556647
  Marvin  02231216192D 0   1.00000     0.00000     0

 27 30  0  0  0  0  0  0  0  0999 V2000
    0.2847   -1.8631    0.0000 O   0  0  0  0  0  0  0  0  0
    0.0298   -1.0785    0.0000 C   0  0  0  0  0  0  0  0  0
   -0.7548   -0.8236    0.0000 N   0  0  0  0  0  0  0  0  0
   -0.7548    0.0014    0.0000 C   0  0  0  0  0  0  0  0  0
    0.0298    0.2564    0.0000 C   0  0  0  0  0  0  0  0  0
    0.5147   -0.4111    0.0000 N   0  0  0  0  0  0  0  0  0
    1.3397   -0.4111    0.0000 C   0  0  0  0  0  0  0  0  0
    1.7522    0.3034    0.0000 C   0  0  0  0  0  0  0  0  0
    2.5772    0.3034    0.0000 N   0  0  0  0  0  0  0  0  0
    3.0621   -0.3640    0.0000 C   0  0  0  0  0  0  0  0  0
    3.8467   -0.1091    0.0000 C   0  0  0  0  0  0  0  0  0
    3.8467    0.7159    0.0000 C   0  0  0  0  0  0  0  0  0
    3.0621    0.9708    0.0000 C   0  0  0  0  0  0  0  0  0
    4.5612    1.1284    0.0000 C   0  0  0  0  0  0  0  0  0
    5.2757    0.7159    0.0000 C   0  0  0  0  0  0  0  0  0
    5.2757   -0.1091    0.0000 C   0  0  0  0  0  0  0  0  0
    4.5612   -0.5216    0.0000 C   0  0  0  0  0  0  0  0  0
   -1.4223   -1.3085    0.0000 C   0  0  0  0  0  0  0  0  0
   -1.3360   -2.1290    0.0000 C   0  0  0  0  0  0  0  0  0
   -2.0035   -2.6139    0.0000 C   0  0  0  0  0  0  0  0  0
   -2.7572   -2.2783    0.0000 C   0  0  0  0  0  0  0  0  0
   -2.8434   -1.4579    0.0000 C   0  0  0  0  0  0  0  0  0
   -2.1760   -0.9729    0.0000 C   0  0  0  0  0  0  0  0  0
   -3.4246   -2.7633    0.0000 C   0  0  0  0  0  0  0  0  0
   -4.0920   -3.2482    0.0000 C   0  0  0  0  0  0  0  0  0
   -3.9095   -2.0958    0.0000 C   0  0  0  0  0  0  0  0  0
   -2.9397   -3.4307    0.0000 C   0  0  0  0  0  0  0  0  0
  1  2  2  0  0  0  0
  2  3  1  0  0  0  0
  2  6  1  0  0  0  0
  3  4  1  0  0  0  0
  3 18  1  0  0  0  0
  4  5  1  0  0  0  0
  5  6  1  0  0  0  0
  6  7  1  0  0  0  0
  7  8  1  0  0  0  0
  8  9  1  0  0  0  0
  9 10  1  0  0  0  0
  9 13  1  0  0  0  0
 10 11  1  0  0  0  0
 11 12  4  0  0  0  0
 11 17  4  0  0  0  0
 12 13  1  0  0  0  0
 12 14  4  0  0  0  0
 14 15  4  0  0  0  0
 15 16  4  0  0  0  0
 16 17  4  0  0  0  0
 18 19  4  0  0  0  0
 18 23  4  0  0  0  0
 19 20  4  0  0  0  0
 20 21  4  0  0  0  0
 21 22  4  0  0  0  0
 21 24  1  0  0  0  0
 22 23  4  0  0  0  0
 24 25  1  0  0  0  0
 24 26  1  0  0  0  0
 24 27  1  0  0  0  0
M  END
>  <Name_Molregno>
556647

>  <DOPAMINE D2>
6.2

>  <DOPAMINE D3>
7

$$$$
556666
  Marvin  02231216192D 0   1.00000     0.00000     0

 24 27  0  0  0  0  0  0  0  0999 V2000
   -1.6315   -2.2074    0.0000 O   0  0  0  0  0  0  0  0  0
   -1.8864   -1.4227    0.0000 C   0  0  0  0  0  0  0  0  0
   -2.6710   -1.1678    0.0000 N   0  0  0  0  0  0  0  0  0
   -2.6710   -0.3428    0.0000 C   0  0  0  0  0  0  0  0  0
   -1.8864   -0.0879    0.0000 C   0  0  0  0  0  0  0  0  0
   -1.4015   -0.7553    0.0000 N   0  0  0  0  0  0  0  0  0
   -0.5765   -0.7553    0.0000 C   0  0  0  0  0  0  0  0  0
   -0.1640   -0.0408    0.0000 C   0  0  0  0  0  0  0  0  0
    0.6610   -0.0408    0.0000 N   0  0  0  0  0  0  0  0  0
    1.1459   -0.7083    0.0000 C   0  0  0  0  0  0  0  0  0
    1.9305   -0.4533    0.0000 C   0  0  0  0  0  0  0  0  0
    1.9305    0.3717    0.0000 C   0  0  0  0  0  0  0  0  0
    1.1459    0.6266    0.0000 C   0  0  0  0  0  0  0  0  0
    2.6450    0.7842    0.0000 C   0  0  0  0  0  0  0  0  0
    3.3595    0.3717    0.0000 C   0  0  0  0  0  0  0  0  0
    3.3595   -0.4533    0.0000 C   0  0  0  0  0  0  0  0  0
    2.6450   -0.8658    0.0000 C   0  0  0  0  0  0  0  0  0
   -3.3385   -1.6527    0.0000 C   0  0  0  0  0  0  0  0  0
   -3.2522   -2.4732    0.0000 C   0  0  0  0  0  0  0  0  0
   -3.9197   -2.9581    0.0000 C   0  0  0  0  0  0  0  0  0
   -4.6734   -2.6226    0.0000 C   0  0  0  0  0  0  0  0  0
   -4.7596   -1.8021    0.0000 N   0  0  0  0  0  0  0  0  0
   -4.0922   -1.3172    0.0000 C   0  0  0  0  0  0  0  0  0
   -5.3408   -3.1075    0.0000 C   0  0  0  0  0  0  0  0  0
  1  2  2  0  0  0  0
  2  3  1  0  0  0  0
  2  6  1  0  0  0  0
  3  4  1  0  0  0  0
  3 18  1  0  0  0  0
  4  5  1  0  0  0  0
  5  6  1  0  0  0  0
  6  7  1  0  0  0  0
  7  8  1  0  0  0  0
  8  9  1  0  0  0  0
  9 10  1  0  0  0  0
  9 13  1  0  0  0  0
 10 11  1  0  0  0  0
 11 12  4  0  0  0  0
 11 17  4  0  0  0  0
 12 13  1  0  0  0  0
 12 14  4  0  0  0  0
 14 15  4  0  0  0  0
 15 16  4  0  0  0  0
 16 17  4  0  0  0  0
 18 19  4  0  0  0  0
 18 23  4  0  0  0  0
 19 20  4  0  0  0  0
 20 21  4  0  0  0  0
 21 22  4  0  0  0  0
 21 24  1  0  0  0  0
 22 23  4  0  0  0  0
M  END
>  <Name_Molregno>
556666

>  <DOPAMINE D2>
5

>  <DOPAMINE D3>
7.2

$$$$
556688
  Marvin  02231216192D 0   1.00000     0.00000     0

 29 31  0  0  0  0  0  0  0  0999 V2000
   -3.8117    5.0662    0.0000 F   0  0  0  0  0  0  0  0  0
   -3.8117    4.2412    0.0000 C   0  0  0  0  0  0  0  0  0
   -4.6367    4.2412    0.0000 F   0  0  0  0  0  0  0  0  0
   -2.9867    4.2412    0.0000 F   0  0  0  0  0  0  0  0  0
   -3.8117    3.4162    0.0000 C   0  0  0  0  0  0  0  0  0
   -3.0972    3.0037    0.0000 C   0  0  0  0  0  0  0  0  0
   -3.0972    2.1787    0.0000 C   0  0  0  0  0  0  0  0  0
   -3.8117    1.7662    0.0000 N   0  0  0  0  0  0  0  0  0
   -4.5261    2.1787    0.0000 C   0  0  0  0  0  0  0  0  0
   -4.5261    3.0037    0.0000 C   0  0  0  0  0  0  0  0  0
   -3.8117    0.9412    0.0000 C   0  0  0  0  0  0  0  0  0
   -4.5261    0.5287    0.0000 C   0  0  0  0  0  0  0  0  0
   -4.5261   -0.2963    0.0000 N   0  0  0  0  0  0  0  0  0
   -3.8587   -0.7812    0.0000 C   0  0  0  0  0  0  0  0  0
   -4.1136   -1.5658    0.0000 C   0  0  0  0  0  0  0  0  0
   -4.9386   -1.5658    0.0000 N   0  0  0  0  0  0  0  0  0
   -5.4236   -2.2333    0.0000 C   0  0  0  0  0  0  0  0  0
   -5.0880   -2.9869    0.0000 C   0  0  0  0  0  0  0  0  0
   -5.5729   -3.6544    0.0000 C   0  0  0  0  0  0  0  0  0
   -5.2374   -4.4081    0.0000 O   0  0  0  0  0  0  0  0  0
   -4.4169   -4.4943    0.0000 C   0  0  0  0  0  0  0  0  0
   -3.5964   -4.5805    0.0000 F   0  0  0  0  0  0  0  0  0
   -4.5031   -5.3148    0.0000 F   0  0  0  0  0  0  0  0  0
   -4.3306   -3.6738    0.0000 F   0  0  0  0  0  0  0  0  0
   -6.3934   -3.5681    0.0000 C   0  0  0  0  0  0  0  0  0
   -6.7290   -2.8145    0.0000 C   0  0  0  0  0  0  0  0  0
   -6.2440   -2.1470    0.0000 C   0  0  0  0  0  0  0  0  0
   -5.1936   -0.7812    0.0000 C   0  0  0  0  0  0  0  0  0
   -5.9782   -0.5263    0.0000 O   0  0  0  0  0  0  0  0  0
  1  2  1  0  0  0  0
  2  3  1  0  0  0  0
  2  4  1  0  0  0  0
  2  5  1  0  0  0  0
  5  6  1  0  0  0  0
  5 10  1  0  0  0  0
  6  7  1  0  0  0  0
  7  8  1  0  0  0  0
  8  9  1  0  0  0  0
  8 11  1  0  0  0  0
  9 10  1  0  0  0  0
 11 12  1  0  0  0  0
 12 13  1  0  0  0  0
 13 14  1  0  0  0  0
 13 28  1  0  0  0  0
 14 15  1  0  0  0  0
 15 16  1  0  0  0  0
 16 17  1  0  0  0  0
 16 28  1  0  0  0  0
 17 18  4  0  0  0  0
 17 27  4  0  0  0  0
 18 19  4  0  0  0  0
 19 20  1  0  0  0  0
 19 25  4  0  0  0  0
 20 21  1  0  0  0  0
 21 22  1  0  0  0  0
 21 23  1  0  0  0  0
 21 24  1  0  0  0  0
 25 26  4  0  0  0  0
 26 27  4  0  0  0  0
 28 29  2  0  0  0  0
M  END
>  <Name_Molregno>
556688

>  <DOPAMINE D2>
6.8

>  <DOPAMINE D3>
8.3

$$$$
556689
  Marvin  02231216192D 0   1.00000     0.00000     0

 26 28  0  0  0  0  0  0  0  0999 V2000
   -3.0976    3.9217    0.0000 F   0  0  0  0  0  0  0  0  0
   -3.0976    3.0967    0.0000 C   0  0  0  0  0  0  0  0  0
   -3.9226    3.0967    0.0000 F   0  0  0  0  0  0  0  0  0
   -2.2726    3.0967    0.0000 F   0  0  0  0  0  0  0  0  0
   -3.0976    2.2717    0.0000 C   0  0  0  0  0  0  0  0  0
   -2.3831    1.8592    0.0000 C   0  0  0  0  0  0  0  0  0
   -2.3831    1.0342    0.0000 C   0  0  0  0  0  0  0  0  0
   -3.0976    0.6217    0.0000 N   0  0  0  0  0  0  0  0  0
   -3.8120    1.0342    0.0000 C   0  0  0  0  0  0  0  0  0
   -3.8120    1.8592    0.0000 C   0  0  0  0  0  0  0  0  0
   -3.0976   -0.2033    0.0000 C   0  0  0  0  0  0  0  0  0
   -3.8120   -0.6158    0.0000 C   0  0  0  0  0  0  0  0  0
   -3.8120   -1.4408    0.0000 N   0  0  0  0  0  0  0  0  0
   -3.1446   -1.9257    0.0000 C   0  0  0  0  0  0  0  0  0
   -3.3995   -2.7104    0.0000 C   0  0  0  0  0  0  0  0  0
   -4.2245   -2.7104    0.0000 N   0  0  0  0  0  0  0  0  0
   -4.7095   -3.3778    0.0000 C   0  0  0  0  0  0  0  0  0
   -4.3739   -4.1315    0.0000 C   0  0  0  0  0  0  0  0  0
   -4.8588   -4.7989    0.0000 C   0  0  0  0  0  0  0  0  0
   -4.5233   -5.5526    0.0000 O   0  0  0  0  0  0  0  0  0
   -3.7028   -5.6388    0.0000 C   0  0  0  0  0  0  0  0  0
   -5.6793   -4.7127    0.0000 C   0  0  0  0  0  0  0  0  0
   -6.0149   -3.9590    0.0000 C   0  0  0  0  0  0  0  0  0
   -5.5299   -3.2916    0.0000 C   0  0  0  0  0  0  0  0  0
   -4.4795   -1.9257    0.0000 C   0  0  0  0  0  0  0  0  0
   -5.2641   -1.6708    0.0000 O   0  0  0  0  0  0  0  0  0
  1  2  1  0  0  0  0
  2  3  1  0  0  0  0
  2  4  1  0  0  0  0
  2  5  1  0  0  0  0
  5  6  1  0  0  0  0
  5 10  1  0  0  0  0
  6  7  1  0  0  0  0
  7  8  1  0  0  0  0
  8  9  1  0  0  0  0
  8 11  1  0  0  0  0
  9 10  1  0  0  0  0
 11 12  1  0  0  0  0
 12 13  1  0  0  0  0
 13 14  1  0  0  0  0
 13 25  1  0  0  0  0
 14 15  1  0  0  0  0
 15 16  1  0  0  0  0
 16 17  1  0  0  0  0
 16 25  1  0  0  0  0
 17 18  4  0  0  0  0
 17 24  4  0  0  0  0
 18 19  4  0  0  0  0
 19 20  1  0  0  0  0
 19 22  4  0  0  0  0
 20 21  1  0  0  0  0
 22 23  4  0  0  0  0
 23 24  4  0  0  0  0
 25 26  2  0  0  0  0
M  END
>  <Name_Molregno>
556689

>  <DOPAMINE D2>
6.8

>  <DOPAMINE D3>
8

$$$$
556708
  Marvin  02231216192D 0   1.00000     0.00000     0

 24 26  0  0  0  0  0  0  0  0999 V2000
    6.6658    4.0932    0.0000 Cl  0  0  0  0  0  0  0  0  0
    5.9514    3.6807    0.0000 C   0  0  0  0  0  0  0  0  0
    5.9514    2.8557    0.0000 C   0  0  0  0  0  0  0  0  0
    5.2369    2.4432    0.0000 C   0  0  0  0  0  0  0  0  0
    5.2369    1.6182    0.0000 N   0  0  0  0  0  0  0  0  0
    5.9043    1.1333    0.0000 C   0  0  0  0  0  0  0  0  0
    5.6494    0.3487    0.0000 C   0  0  0  0  0  0  0  0  0
    4.8244    0.3487    0.0000 N   0  0  0  0  0  0  0  0  0
    4.3395   -0.3188    0.0000 C   0  0  0  0  0  0  0  0  0
    4.6750   -1.0724    0.0000 C   0  0  0  0  0  0  0  0  0
    4.1901   -1.7399    0.0000 N   0  0  0  0  0  0  0  0  0
    4.5256   -2.4935    0.0000 C   0  0  0  0  0  0  0  0  0
    4.0407   -3.1610    0.0000 C   0  0  0  0  0  0  0  0  0
    3.2202   -3.0747    0.0000 N   0  0  0  0  0  0  0  0  0
    2.8847   -2.3211    0.0000 C   0  0  0  0  0  0  0  0  0
    3.3696   -1.6536    0.0000 C   0  0  0  0  0  0  0  0  0
    2.7353   -3.7422    0.0000 C   0  0  0  0  0  0  0  0  0
    3.0709   -4.4959    0.0000 C   0  0  0  0  0  0  0  0  0
    1.9148   -3.6559    0.0000 C   0  0  0  0  0  0  0  0  0
    4.5694    1.1333    0.0000 C   0  0  0  0  0  0  0  0  0
    3.7848    1.3882    0.0000 O   0  0  0  0  0  0  0  0  0
    4.5224    2.8557    0.0000 C   0  0  0  0  0  0  0  0  0
    4.5224    3.6807    0.0000 C   0  0  0  0  0  0  0  0  0
    5.2369    4.0932    0.0000 C   0  0  0  0  0  0  0  0  0
  1  2  1  0  0  0  0
  2  3  4  0  0  0  0
  2 24  4  0  0  0  0
  3  4  4  0  0  0  0
  4  5  1  0  0  0  0
  4 22  4  0  0  0  0
  5  6  1  0  0  0  0
  5 20  1  0  0  0  0
  6  7  1  0  0  0  0
  7  8  1  0  0  0  0
  8  9  1  0  0  0  0
  8 20  1  0  0  0  0
  9 10  1  0  0  0  0
 10 11  1  0  0  0  0
 11 12  1  0  0  0  0
 11 16  1  0  0  0  0
 12 13  1  0  0  0  0
 13 14  1  0  0  0  0
 14 15  1  0  0  0  0
 14 17  1  0  0  0  0
 15 16  1  0  0  0  0
 17 18  1  0  0  0  0
 17 19  1  0  0  0  0
 20 21  2  0  0  0  0
 22 23  4  0  0  0  0
 23 24  4  0  0  0  0
M  END
>  <Name_Molregno>
556708

>  <DOPAMINE D2>
6.7

>  <DOPAMINE D3>
8.1

$$$$
556986
  Marvin  02231216192D 0   1.00000     0.00000     0

 31 35  0  0  0  0  0  0  0  0999 V2000
    0.6050    3.4810    0.0000 Cl  0  0  0  0  0  0  0  0  0
    0.8599    2.6964    0.0000 C   0  0  0  0  0  0  0  0  0
    1.6669    2.5248    0.0000 C   0  0  0  0  0  0  0  0  0
    1.9218    1.7402    0.0000 C   0  0  0  0  0  0  0  0  0
    2.7288    1.5687    0.0000 N   0  0  0  0  0  0  0  0  0
    3.2808    2.1818    0.0000 C   0  0  0  0  0  0  0  0  0
    4.0878    2.0103    0.0000 C   0  0  0  0  0  0  0  0  0
    4.3427    1.2256    0.0000 N   0  0  0  0  0  0  0  0  0
    3.7907    0.6125    0.0000 C   0  0  0  0  0  0  0  0  0
    2.9837    0.7841    0.0000 C   0  0  0  0  0  0  0  0  0
    5.1497    1.0541    0.0000 C   0  0  0  0  0  0  0  0  0
    5.4047    0.2695    0.0000 C   0  0  0  0  0  0  0  0  0
    6.1893    0.0146    0.0000 C   0  0  0  0  0  0  0  0  0
    6.9037    0.4271    0.0000 N   0  0  0  0  0  0  0  0  0
    7.6182    0.0146    0.0000 C   0  0  0  0  0  0  0  0  0
    7.6182   -0.8104    0.0000 N   0  0  0  0  0  0  0  0  0
    8.3327   -1.2229    0.0000 C   0  0  0  0  0  0  0  0  0
    6.9037   -1.2229    0.0000 C   0  0  0  0  0  0  0  0  0
    6.9037   -2.0479    0.0000 O   0  0  0  0  0  0  0  0  0
    6.1893   -0.8104    0.0000 C   0  0  0  0  0  0  0  0  0
    5.4047   -1.0654    0.0000 N   0  0  0  0  0  0  0  0  0
    4.9197   -0.3979    0.0000 C   0  0  0  0  0  0  0  0  0
    8.3327    0.4271    0.0000 N   0  0  0  0  0  0  0  0  0
    8.4189    1.2475    0.0000 C   0  0  0  0  0  0  0  0  0
    9.2259    1.4191    0.0000 C   0  0  0  0  0  0  0  0  0
    9.6384    0.7046    0.0000 C   0  0  0  0  0  0  0  0  0
    9.0864    0.0915    0.0000 C   0  0  0  0  0  0  0  0  0
    1.3698    1.1271    0.0000 C   0  0  0  0  0  0  0  0  0
    0.5628    1.2987    0.0000 C   0  0  0  0  0  0  0  0  0
    0.3079    2.0833    0.0000 C   0  0  0  0  0  0  0  0  0
   -0.4991    2.2548    0.0000 Cl  0  0  0  0  0  0  0  0  0
  1  2  1  0  0  0  0
  2  3  4  0  0  0  0
  2 30  4  0  0  0  0
  3  4  4  0  0  0  0
  4  5  1  0  0  0  0
  4 28  4  0  0  0  0
  5  6  1  0  0  0  0
  5 10  1  0  0  0  0
  6  7  1  0  0  0  0
  7  8  1  0  0  0  0
  8  9  1  0  0  0  0
  8 11  1  0  0  0  0
  9 10  1  0  0  0  0
 11 12  1  0  0  0  0
 12 13  4  0  0  0  0
 12 22  4  0  0  0  0
 13 14  1  0  0  0  0
 13 20  4  0  0  0  0
 14 15  2  0  0  0  0
 15 16  1  0  0  0  0
 15 23  1  0  0  0  0
 16 17  1  0  0  0  0
 16 18  1  0  0  0  0
 18 19  2  0  0  0  0
 18 20  1  0  0  0  0
 20 21  4  0  0  0  0
 21 22  4  0  0  0  0
 23 24  1  0  0  0  0
 23 27  1  0  0  0  0
 24 25  1  0  0  0  0
 25 26  1  0  0  0  0
 26 27  1  0  0  0  0
 28 29  4  0  0  0  0
 29 30  4  0  0  0  0
 30 31  1  0  0  0  0
M  STY  1   1 DAT
M  SAL   1  1  21
M  SDT   1 MRV_IMPLICIT_H                                        
M  SDD   1     0.0000    0.0000    DR    ALL  0       0  
M  SED   1 IMPL_H1
M  END
>  <Name_Molregno>
556986

>  <DOPAMINE D2>
6.33

>  <DOPAMINE D3>
6.32

$$$$
556987
  Marvin  02231216192D 0   1.00000     0.00000     0

 30 34  0  0  0  0  0  0  0  0999 V2000
    7.8602    2.0909    0.0000 O   0  0  0  0  0  0  0  0  0
    7.1458    1.6784    0.0000 C   0  0  0  0  0  0  0  0  0
    6.4313    2.0909    0.0000 C   0  0  0  0  0  0  0  0  0
    6.4313    2.9159    0.0000 N   0  0  0  0  0  0  0  0  0
    7.1458    3.3284    0.0000 C   0  0  0  0  0  0  0  0  0
    7.8602    2.9159    0.0000 C   0  0  0  0  0  0  0  0  0
    5.7168    3.3284    0.0000 C   0  0  0  0  0  0  0  0  0
    5.0024    2.9159    0.0000 N   0  0  0  0  0  0  0  0  0
    4.2879    3.3284    0.0000 C   0  0  0  0  0  0  0  0  0
    4.2879    4.1534    0.0000 C   0  0  0  0  0  0  0  0  0
    3.5033    4.4083    0.0000 N   0  0  0  0  0  0  0  0  0
    3.0183    3.7409    0.0000 C   0  0  0  0  0  0  0  0  0
    3.5033    3.0734    0.0000 C   0  0  0  0  0  0  0  0  0
    3.2483    2.2888    0.0000 C   0  0  0  0  0  0  0  0  0
    2.4413    2.1173    0.0000 N   0  0  0  0  0  0  0  0  0
    2.1864    1.3327    0.0000 C   0  0  0  0  0  0  0  0  0
    1.3794    1.1611    0.0000 C   0  0  0  0  0  0  0  0  0
    0.8274    1.7742    0.0000 N   0  0  0  0  0  0  0  0  0
    1.0823    2.5589    0.0000 C   0  0  0  0  0  0  0  0  0
    1.8893    2.7304    0.0000 C   0  0  0  0  0  0  0  0  0
    0.0204    1.6027    0.0000 C   0  0  0  0  0  0  0  0  0
   -0.2345    0.8181    0.0000 C   0  0  0  0  0  0  0  0  0
   -1.0415    0.6466    0.0000 C   0  0  0  0  0  0  0  0  0
   -1.5935    1.2597    0.0000 C   0  0  0  0  0  0  0  0  0
   -1.3386    2.0443    0.0000 C   0  0  0  0  0  0  0  0  0
   -0.5316    2.2158    0.0000 C   0  0  0  0  0  0  0  0  0
    5.0024    4.5659    0.0000 C   0  0  0  0  0  0  0  0  0
    5.0024    5.3909    0.0000 O   0  0  0  0  0  0  0  0  0
    5.7168    4.1534    0.0000 N   0  0  0  0  0  0  0  0  0
    6.4313    4.5659    0.0000 C   0  0  0  0  0  0  0  0  0
  1  2  1  0  0  0  0
  1  6  1  0  0  0  0
  2  3  1  0  0  0  0
  3  4  1  0  0  0  0
  4  5  1  0  0  0  0
  4  7  1  0  0  0  0
  5  6  1  0  0  0  0
  7  8  2  0  0  0  0
  7 29  1  0  0  0  0
  8  9  1  0  0  0  0
  9 10  4  0  0  0  0
  9 13  4  0  0  0  0
 10 11  4  0  0  0  0
 10 27  1  0  0  0  0
 11 12  4  0  0  0  0
 12 13  4  0  0  0  0
 13 14  1  0  0  0  0
 14 15  1  0  0  0  0
 15 16  1  0  0  0  0
 15 20  1  0  0  0  0
 16 17  1  0  0  0  0
 17 18  1  0  0  0  0
 18 19  1  0  0  0  0
 18 21  1  0  0  0  0
 19 20  1  0  0  0  0
 21 22  4  0  0  0  0
 21 26  4  0  0  0  0
 22 23  4  0  0  0  0
 23 24  4  0  0  0  0
 24 25  4  0  0  0  0
 25 26  4  0  0  0  0
 27 28  2  0  0  0  0
 27 29  1  0  0  0  0
 29 30  1  0  0  0  0
M  STY  1   1 DAT
M  SAL   1  1  11
M  SDT   1 MRV_IMPLICIT_H                                        
M  SDD   1     0.0000    0.0000    DR    ALL  0       0  
M  SED   1 IMPL_H1
M  END
>  <Name_Molregno>
556987

>  <DOPAMINE D2>
6.05

>  <DOPAMINE D3>
5.57

$$$$
557058
  Marvin  02231216192D 0   1.00000     0.00000     0

 26 29  0  0  1  0  0  0  0  0999 V2000
   -1.6036   -3.2787    0.0000 Cl  0  0  0  0  0  0  0  0  0
   -1.6890   -2.4582    0.0000 C   0  0  0  0  0  0  0  0  0
   -2.4423   -2.1219    0.0000 C   0  0  0  0  0  0  0  0  0
   -2.5278   -1.3013    0.0000 C   0  0  0  0  0  0  0  0  0
   -3.2811   -0.9650    0.0000 N   0  0  0  0  0  0  0  0  0
   -3.9960   -1.3768    0.0000 C   0  0  0  0  0  0  0  0  0
   -4.6085   -0.8241    0.0000 C   0  0  0  0  0  0  0  0  0
   -4.2722   -0.0708    0.0000 N   0  0  0  0  0  0  0  0  0
   -4.6840    0.6441    0.0000 C   0  0  0  0  0  0  0  0  0
   -5.5090    0.6449    0.0000 C   0  0  0  0  0  0  0  0  0
   -5.9208    1.3598    0.0000 N   0  0  0  0  0  0  0  0  0
   -6.4370    1.7885    0.0000 C   0  0  0  0  0  0  0  0  0
   -7.4087    1.7885    0.0000 C   0  0  0  0  0  0  0  0  0
   -7.9286    1.0762    0.0000 C   0  0  0  0  0  0  0  0  0
   -7.3083    1.4531    0.0000 C   0  0  0  0  0  0  0  0  0
   -6.9878    2.1617    0.0000 C   0  0  0  0  0  0  0  0  0
   -6.0590    2.1772    0.0000 C   0  0  0  0  0  0  0  0  0
   -7.5484    2.6016    0.0000 C   0  0  0  0  0  0  0  0  0
   -7.9710    3.3101    0.0000 C   0  0  0  0  0  0  0  0  0
   -7.5687    4.0304    0.0000 O   0  0  0  0  0  0  0  0  0
   -7.9913    4.7389    0.0000 C   0  0  0  0  0  0  0  0  0
   -3.4518   -0.1578    0.0000 C   0  0  0  0  0  0  0  0  0
   -2.8992    0.4547    0.0000 O   0  0  0  0  0  0  0  0  0
   -1.8599   -0.8170    0.0000 C   0  0  0  0  0  0  0  0  0
   -1.1065   -1.1533    0.0000 C   0  0  0  0  0  0  0  0  0
   -1.0211   -1.9739    0.0000 C   0  0  0  0  0  0  0  0  0
  1  2  1  0  0  0  0
  2  3  4  0  0  0  0
  2 26  4  0  0  0  0
  3  4  4  0  0  0  0
  4  5  1  0  0  0  0
  4 24  4  0  0  0  0
  5  6  1  0  0  0  0
  5 22  1  0  0  0  0
  6  7  1  0  0  0  0
  7  8  1  0  0  0  0
  8  9  1  0  0  0  0
  8 22  1  0  0  0  0
  9 10  1  0  0  0  0
 10 11  1  0  0  0  0
 11 12  1  0  0  0  0
 11 17  1  0  0  0  0
 12 13  1  0  0  0  0
 13 14  1  0  0  0  0
 13 18  1  0  0  0  0
 14 15  1  0  0  0  0
 15 16  1  0  0  0  0
 16 17  1  0  0  0  0
 16 18  1  0  0  0  0
 18 19  1  0  0  0  0
 19 20  1  0  0  0  0
 20 21  1  0  0  0  0
 22 23  2  0  0  0  0
 24 25  4  0  0  0  0
 25 26  4  0  0  0  0
M  END
>  <Name_Molregno>
557058

>  <DOPAMINE D2>
6.5

>  <DOPAMINE D3>
6.8

$$$$
557073
  Marvin  02231216192D 0   1.00000     0.00000     0

 28 31  0  0  0  0  0  0  0  0999 V2000
    7.8598    4.8583    0.0000 Cl  0  0  0  0  0  0  0  0  0
    7.1454    4.4458    0.0000 C   0  0  0  0  0  0  0  0  0
    7.1454    3.6208    0.0000 C   0  0  0  0  0  0  0  0  0
    6.4309    3.2083    0.0000 C   0  0  0  0  0  0  0  0  0
    6.4309    2.3833    0.0000 N   0  0  0  0  0  0  0  0  0
    7.0983    1.8984    0.0000 C   0  0  0  0  0  0  0  0  0
    6.8434    1.1138    0.0000 C   0  0  0  0  0  0  0  0  0
    6.0184    1.1138    0.0000 N   0  0  0  0  0  0  0  0  0
    5.5335    0.4464    0.0000 C   0  0  0  0  0  0  0  0  0
    5.8690   -0.3073    0.0000 C   0  0  0  0  0  0  0  0  0
    5.3841   -0.9748    0.0000 N   0  0  0  0  0  0  0  0  0
    5.7197   -1.7284    0.0000 C   0  0  0  0  0  0  0  0  0
    5.2348   -2.3959    0.0000 C   0  0  0  0  0  0  0  0  0
    4.4143   -2.3096    0.0000 C   0  0  0  0  0  0  0  0  0
    4.0787   -1.5560    0.0000 C   0  0  0  0  0  0  0  0  0
    4.5636   -0.8885    0.0000 C   0  0  0  0  0  0  0  0  0
    3.9293   -2.9771    0.0000 C   0  0  0  0  0  0  0  0  0
    4.2649   -3.7307    0.0000 C   0  0  0  0  0  0  0  0  0
    3.7800   -4.3982    0.0000 C   0  0  0  0  0  0  0  0  0
    2.9595   -4.3120    0.0000 C   0  0  0  0  0  0  0  0  0
    2.4746   -4.9794    0.0000 Cl  0  0  0  0  0  0  0  0  0
    2.6239   -3.5583    0.0000 C   0  0  0  0  0  0  0  0  0
    3.1089   -2.8908    0.0000 C   0  0  0  0  0  0  0  0  0
    5.7635    1.8984    0.0000 C   0  0  0  0  0  0  0  0  0
    4.9788    2.1534    0.0000 O   0  0  0  0  0  0  0  0  0
    5.7164    3.6208    0.0000 C   0  0  0  0  0  0  0  0  0
    5.7164    4.4458    0.0000 C   0  0  0  0  0  0  0  0  0
    6.4309    4.8583    0.0000 C   0  0  0  0  0  0  0  0  0
  1  2  1  0  0  0  0
  2  3  4  0  0  0  0
  2 28  4  0  0  0  0
  3  4  4  0  0  0  0
  4  5  1  0  0  0  0
  4 26  4  0  0  0  0
  5  6  1  0  0  0  0
  5 24  1  0  0  0  0
  6  7  1  0  0  0  0
  7  8  1  0  0  0  0
  8  9  1  0  0  0  0
  8 24  1  0  0  0  0
  9 10  1  0  0  0  0
 10 11  1  0  0  0  0
 11 12  1  0  0  0  0
 11 16  1  0  0  0  0
 12 13  1  0  0  0  0
 13 14  1  0  0  0  0
 14 15  1  0  0  0  0
 14 17  1  0  0  0  0
 15 16  1  0  0  0  0
 17 18  4  0  0  0  0
 17 23  4  0  0  0  0
 18 19  4  0  0  0  0
 19 20  4  0  0  0  0
 20 21  1  0  0  0  0
 20 22  4  0  0  0  0
 22 23  4  0  0  0  0
 24 25  2  0  0  0  0
 26 27  4  0  0  0  0
 27 28  4  0  0  0  0
M  END
>  <Name_Molregno>
557073

>  <DOPAMINE D2>
6.6

>  <DOPAMINE D3>
7.3

$$$$
557074
  Marvin  02231216192D 0   1.00000     0.00000     0

 32 36  0  0  0  0  0  0  0  0999 V2000
    8.8175    5.1579    0.0000 Cl  0  0  0  0  0  0  0  0  0
    8.1030    4.7454    0.0000 C   0  0  0  0  0  0  0  0  0
    8.1030    3.9204    0.0000 C   0  0  0  0  0  0  0  0  0
    7.3885    3.5079    0.0000 C   0  0  0  0  0  0  0  0  0
    7.3885    2.6829    0.0000 N   0  0  0  0  0  0  0  0  0
    8.0560    2.1979    0.0000 C   0  0  0  0  0  0  0  0  0
    7.8010    1.4133    0.0000 C   0  0  0  0  0  0  0  0  0
    6.9760    1.4133    0.0000 N   0  0  0  0  0  0  0  0  0
    6.4911    0.7459    0.0000 C   0  0  0  0  0  0  0  0  0
    6.8267   -0.0078    0.0000 C   0  0  0  0  0  0  0  0  0
    6.3418   -0.6752    0.0000 N   0  0  0  0  0  0  0  0  0
    6.6773   -1.4289    0.0000 C   0  0  0  0  0  0  0  0  0
    6.1924   -2.0963    0.0000 C   0  0  0  0  0  0  0  0  0
    5.3719   -2.0101    0.0000 C   0  0  0  0  0  0  0  0  0
    5.0364   -1.2564    0.0000 C   0  0  0  0  0  0  0  0  0
    5.5213   -0.5890    0.0000 C   0  0  0  0  0  0  0  0  0
    4.8870   -2.6775    0.0000 C   0  0  0  0  0  0  0  0  0
    5.1419   -3.4622    0.0000 O   0  0  0  0  0  0  0  0  0
    4.4745   -3.9471    0.0000 C   0  0  0  0  0  0  0  0  0
    3.8071   -3.4622    0.0000 N   0  0  0  0  0  0  0  0  0
    4.0620   -2.6775    0.0000 N   0  0  0  0  0  0  0  0  0
    4.4745   -4.7721    0.0000 C   0  0  0  0  0  0  0  0  0
    5.1890   -5.1846    0.0000 C   0  0  0  0  0  0  0  0  0
    5.1890   -6.0096    0.0000 C   0  0  0  0  0  0  0  0  0
    4.4745   -6.4221    0.0000 C   0  0  0  0  0  0  0  0  0
    3.7600   -6.0096    0.0000 C   0  0  0  0  0  0  0  0  0
    3.7600   -5.1846    0.0000 C   0  0  0  0  0  0  0  0  0
    6.7211    2.1979    0.0000 C   0  0  0  0  0  0  0  0  0
    5.9365    2.4529    0.0000 O   0  0  0  0  0  0  0  0  0
    6.6741    3.9204    0.0000 C   0  0  0  0  0  0  0  0  0
    6.6741    4.7454    0.0000 C   0  0  0  0  0  0  0  0  0
    7.3885    5.1579    0.0000 C   0  0  0  0  0  0  0  0  0
  1  2  1  0  0  0  0
  2  3  4  0  0  0  0
  2 32  4  0  0  0  0
  3  4  4  0  0  0  0
  4  5  1  0  0  0  0
  4 30  4  0  0  0  0
  5  6  1  0  0  0  0
  5 28  1  0  0  0  0
  6  7  1  0  0  0  0
  7  8  1  0  0  0  0
  8  9  1  0  0  0  0
  8 28  1  0  0  0  0
  9 10  1  0  0  0  0
 10 11  1  0  0  0  0
 11 12  1  0  0  0  0
 11 16  1  0  0  0  0
 12 13  1  0  0  0  0
 13 14  1  0  0  0  0
 14 15  1  0  0  0  0
 14 17  1  0  0  0  0
 15 16  1  0  0  0  0
 17 18  4  0  0  0  0
 17 21  4  0  0  0  0
 18 19  4  0  0  0  0
 19 20  4  0  0  0  0
 19 22  1  0  0  0  0
 20 21  4  0  0  0  0
 22 23  4  0  0  0  0
 22 27  4  0  0  0  0
 23 24  4  0  0  0  0
 24 25  4  0  0  0  0
 25 26  4  0  0  0  0
 26 27  4  0  0  0  0
 28 29  2  0  0  0  0
 30 31  4  0  0  0  0
 31 32  4  0  0  0  0
M  END
>  <Name_Molregno>
557074

>  <DOPAMINE D2>
6.3

>  <DOPAMINE D3>
6.8

$$$$
557106
  Marvin  02231216192D 0   1.00000     0.00000     0

 29 33  0  0  0  0  0  0  0  0999 V2000
   -1.7164   -3.8692    0.0000 O   0  0  0  0  0  0  0  0  0
   -1.8879   -3.0622    0.0000 C   0  0  0  0  0  0  0  0  0
   -2.6024   -2.6497    0.0000 C   0  0  0  0  0  0  0  0  0
   -2.6024   -1.8247    0.0000 C   0  0  0  0  0  0  0  0  0
   -3.3169   -1.4122    0.0000 N   0  0  0  0  0  0  0  0  0
   -4.0706   -1.7478    0.0000 C   0  0  0  0  0  0  0  0  0
   -4.6226   -1.1347    0.0000 C   0  0  0  0  0  0  0  0  0
   -4.2101   -0.4202    0.0000 N   0  0  0  0  0  0  0  0  0
   -4.5456    0.3335    0.0000 C   0  0  0  0  0  0  0  0  0
   -5.3661    0.4197    0.0000 C   0  0  0  0  0  0  0  0  0
   -5.7017    1.1734    0.0000 N   0  0  0  0  0  0  0  0  0
   -6.5222    1.2596    0.0000 C   0  0  0  0  0  0  0  0  0
   -6.8577    2.0133    0.0000 C   0  0  0  0  0  0  0  0  0
   -7.4065    1.3405    0.0000 C   0  0  0  0  0  0  0  0  0
   -7.3425    2.0926    0.0000 C   0  0  0  0  0  0  0  0  0
   -6.9416    2.7649    0.0000 C   0  0  0  0  0  0  0  0  0
   -6.0255    2.6647    0.0000 C   0  0  0  0  0  0  0  0  0
   -6.0397    1.9733    0.0000 C   0  0  0  0  0  0  0  0  0
   -7.4204    3.4440    0.0000 C   0  0  0  0  0  0  0  0  0
   -8.1892    3.7433    0.0000 C   0  0  0  0  0  0  0  0  0
   -7.2479    4.2508    0.0000 C   0  0  0  0  0  0  0  0  0
   -5.2168    1.8408    0.0000 C   0  0  0  0  0  0  0  0  0
   -3.4031   -0.5917    0.0000 C   0  0  0  0  0  0  0  0  0
   -2.7900   -0.0397    0.0000 O   0  0  0  0  0  0  0  0  0
   -1.8879   -1.4122    0.0000 C   0  0  0  0  0  0  0  0  0
   -1.1735   -1.8247    0.0000 C   0  0  0  0  0  0  0  0  0
   -1.1735   -2.6497    0.0000 C   0  0  0  0  0  0  0  0  0
   -0.5604   -3.2017    0.0000 O   0  0  0  0  0  0  0  0  0
   -0.8959   -3.9554    0.0000 C   0  0  0  0  0  0  0  0  0
  1  2  1  0  0  0  0
  1 29  1  0  0  0  0
  2  3  4  0  0  0  0
  2 27  4  0  0  0  0
  3  4  4  0  0  0  0
  4  5  1  0  0  0  0
  4 25  4  0  0  0  0
  5  6  1  0  0  0  0
  5 23  1  0  0  0  0
  6  7  1  0  0  0  0
  7  8  1  0  0  0  0
  8  9  1  0  0  0  0
  8 23  1  0  0  0  0
  9 10  1  0  0  0  0
 10 11  1  0  0  0  0
 11 12  1  0  0  0  0
 11 22  1  0  0  0  0
 12 13  1  0  0  0  0
 13 14  1  0  0  0  0
 13 18  1  0  0  0  0
 13 19  1  0  0  0  0
 14 15  1  0  0  0  0
 15 16  1  0  0  0  0
 16 17  1  0  0  0  0
 16 19  1  0  0  0  0
 17 18  1  0  0  0  0
 19 20  1  0  0  0  0
 19 21  1  0  0  0  0
 23 24  2  0  0  0  0
 25 26  4  0  0  0  0
 26 27  4  0  0  0  0
 27 28  1  0  0  0  0
 28 29  1  0  0  0  0
M  END
>  <Name_Molregno>
557106

>  <DOPAMINE D2>
5.8

>  <DOPAMINE D3>
7.3

$$$$
557216
  Marvin  02231216192D 0   1.00000     0.00000     0

 20 21  0  0  0  0  0  0  0  0999 V2000
    0.3794    1.9603    0.0000 Cl  0  0  0  0  0  0  0  0  0
    0.8643    1.2928    0.0000 C   0  0  0  0  0  0  0  0  0
    1.6848    1.3791    0.0000 C   0  0  0  0  0  0  0  0  0
    2.1697    0.7116    0.0000 C   0  0  0  0  0  0  0  0  0
    2.9902    0.7979    0.0000 N   0  0  0  0  0  0  0  0  0
    3.4027    1.5123    0.0000 C   0  0  0  0  0  0  0  0  0
    4.2096    1.3408    0.0000 C   0  0  0  0  0  0  0  0  0
    4.2959    0.5203    0.0000 N   0  0  0  0  0  0  0  0  0
    5.0103    0.1078    0.0000 C   0  0  0  0  0  0  0  0  0
    5.0103   -0.7172    0.0000 C   0  0  0  0  0  0  0  0  0
    5.7248   -1.1297    0.0000 N   0  0  0  0  0  0  0  0  0
    5.7248   -1.9547    0.0000 C   0  0  0  0  0  0  0  0  0
    6.4393   -2.3672    0.0000 C   0  0  0  0  0  0  0  0  0
    6.4393   -0.7172    0.0000 C   0  0  0  0  0  0  0  0  0
    7.1538   -1.1297    0.0000 C   0  0  0  0  0  0  0  0  0
    3.5422    0.1848    0.0000 C   0  0  0  0  0  0  0  0  0
    3.3707   -0.6222    0.0000 O   0  0  0  0  0  0  0  0  0
    1.8341   -0.0421    0.0000 C   0  0  0  0  0  0  0  0  0
    1.0136   -0.1283    0.0000 C   0  0  0  0  0  0  0  0  0
    0.5287    0.5391    0.0000 C   0  0  0  0  0  0  0  0  0
  1  2  1  0  0  0  0
  2  3  4  0  0  0  0
  2 20  4  0  0  0  0
  3  4  4  0  0  0  0
  4  5  1  0  0  0  0
  4 18  4  0  0  0  0
  5  6  1  0  0  0  0
  5 16  1  0  0  0  0
  6  7  1  0  0  0  0
  7  8  1  0  0  0  0
  8  9  1  0  0  0  0
  8 16  1  0  0  0  0
  9 10  1  0  0  0  0
 10 11  1  0  0  0  0
 11 12  1  0  0  0  0
 11 14  1  0  0  0  0
 12 13  1  0  0  0  0
 14 15  1  0  0  0  0
 16 17  2  0  0  0  0
 18 19  4  0  0  0  0
 19 20  4  0  0  0  0
M  END
>  <Name_Molregno>
557216

>  <DOPAMINE D2>
7.6

>  <DOPAMINE D3>
8.6

$$$$
557953
  Marvin  02231216192D 0   1.00000     0.00000     0

 29 32  0  0  0  0  0  0  0  0999 V2000
   -8.0455   -0.5938    0.0000 S   0  0  0  0  0  0  0  0  0
   -8.7599   -1.0063    0.0000 C   0  0  0  0  0  0  0  0  0
   -8.0455    0.2312    0.0000 C   0  0  0  0  0  0  0  0  0
   -8.7599    0.6437    0.0000 C   0  0  0  0  0  0  0  0  0
   -8.7599    1.4687    0.0000 C   0  0  0  0  0  0  0  0  0
   -8.0455    1.8812    0.0000 C   0  0  0  0  0  0  0  0  0
   -7.3310    1.4687    0.0000 C   0  0  0  0  0  0  0  0  0
   -7.3310    0.6437    0.0000 C   0  0  0  0  0  0  0  0  0
   -6.6165    0.2312    0.0000 N   0  0  0  0  0  0  0  0  0
   -5.9021    0.6437    0.0000 C   0  0  0  0  0  0  0  0  0
   -5.1876    0.2312    0.0000 C   0  0  0  0  0  0  0  0  0
   -5.1876   -0.5938    0.0000 N   0  0  0  0  0  0  0  0  0
   -5.9021   -1.0063    0.0000 C   0  0  0  0  0  0  0  0  0
   -6.6165   -0.5938    0.0000 C   0  0  0  0  0  0  0  0  0
   -4.4731   -1.0063    0.0000 C   0  0  0  0  0  0  0  0  0
   -3.7586   -0.5938    0.0000 C   0  0  0  0  0  0  0  0  0
   -3.0442   -1.0063    0.0000 C   0  0  0  0  0  0  0  0  0
   -2.3297   -0.5938    0.0000 N   0  0  0  0  0  0  0  0  0
   -1.6152   -1.0063    0.0000 C   0  0  0  0  0  0  0  0  0
   -1.6152   -1.8313    0.0000 O   0  0  0  0  0  0  0  0  0
   -0.9008   -0.5938    0.0000 C   0  0  0  0  0  0  0  0  0
   -0.1471   -0.9293    0.0000 C   0  0  0  0  0  0  0  0  0
    0.4049   -0.3162    0.0000 N   0  0  0  0  0  0  0  0  0
   -0.0076    0.3983    0.0000 N   0  0  0  0  0  0  0  0  0
   -0.8145    0.2267    0.0000 C   0  0  0  0  0  0  0  0  0
    1.2119   -0.4877    0.0000 C   0  0  0  0  0  0  0  0  0
    1.4669   -1.2724    0.0000 C   0  0  0  0  0  0  0  0  0
    0.9148   -1.8855    0.0000 C   0  0  0  0  0  0  0  0  0
    0.1079   -1.7139    0.0000 C   0  0  0  0  0  0  0  0  0
  1  2  1  0  0  0  0
  1  3  1  0  0  0  0
  3  4  4  0  0  0  0
  3  8  4  0  0  0  0
  4  5  4  0  0  0  0
  5  6  4  0  0  0  0
  6  7  4  0  0  0  0
  7  8  4  0  0  0  0
  8  9  1  0  0  0  0
  9 10  1  0  0  0  0
  9 14  1  0  0  0  0
 10 11  1  0  0  0  0
 11 12  1  0  0  0  0
 12 13  1  0  0  0  0
 12 15  1  0  0  0  0
 13 14  1  0  0  0  0
 15 16  1  0  0  0  0
 16 17  1  0  0  0  0
 17 18  1  0  0  0  0
 18 19  1  0  0  0  0
 19 20  2  0  0  0  0
 19 21  1  0  0  0  0
 21 22  4  0  0  0  0
 21 25  4  0  0  0  0
 22 23  4  0  0  0  0
 22 29  4  0  0  0  0
 23 24  4  0  0  0  0
 23 26  4  0  0  0  0
 24 25  4  0  0  0  0
 26 27  4  0  0  0  0
 27 28  4  0  0  0  0
 28 29  4  0  0  0  0
M  END
>  <Name_Molregno>
557953

>  <DOPAMINE D2>
8.76

>  <DOPAMINE D3>
7.75

>  <DOPAMINE D4>
7.99

$$$$
558350
  Marvin  02231216192D 0   1.00000     0.00000     0

 26 29  0  0  0  0  0  0  0  0999 V2000
    0.2468   -2.0611    0.0000 F   0  0  0  0  0  0  0  0  0
    0.9143   -1.5762    0.0000 C   0  0  0  0  0  0  0  0  0
    0.8280   -0.7557    0.0000 C   0  0  0  0  0  0  0  0  0
    1.4955   -0.2708    0.0000 C   0  0  0  0  0  0  0  0  0
    2.2492   -0.6064    0.0000 C   0  0  0  0  0  0  0  0  0
    2.9166   -0.1215    0.0000 N   0  0  0  0  0  0  0  0  0
    2.9166    0.7035    0.0000 C   0  0  0  0  0  0  0  0  0
    3.7012    0.9585    0.0000 C   0  0  0  0  0  0  0  0  0
    4.1861    0.2910    0.0000 N   0  0  0  0  0  0  0  0  0
    5.0111    0.2910    0.0000 C   0  0  0  0  0  0  0  0  0
    5.4236    1.0055    0.0000 C   0  0  0  0  0  0  0  0  0
    6.2486    1.0055    0.0000 N   0  0  0  0  0  0  0  0  0
    6.7336    0.3381    0.0000 C   0  0  0  0  0  0  0  0  0
    7.5182    0.5930    0.0000 C   0  0  0  0  0  0  0  0  0
    7.5182    1.4180    0.0000 C   0  0  0  0  0  0  0  0  0
    6.7336    1.6730    0.0000 C   0  0  0  0  0  0  0  0  0
    8.2327    1.8305    0.0000 C   0  0  0  0  0  0  0  0  0
    8.9471    1.4180    0.0000 C   0  0  0  0  0  0  0  0  0
    8.9471    0.5930    0.0000 C   0  0  0  0  0  0  0  0  0
    8.2327    0.1805    0.0000 C   0  0  0  0  0  0  0  0  0
    3.7012   -0.3764    0.0000 C   0  0  0  0  0  0  0  0  0
    3.9562   -1.1610    0.0000 O   0  0  0  0  0  0  0  0  0
    2.3354   -1.4269    0.0000 C   0  0  0  0  0  0  0  0  0
    1.6680   -1.9118    0.0000 C   0  0  0  0  0  0  0  0  0
    1.7542   -2.7323    0.0000 C   0  0  0  0  0  0  0  0  0
    1.8404   -3.5527    0.0000 N   0  0  0  0  0  0  0  0  0
  1  2  1  0  0  0  0
  2  3  4  0  0  0  0
  2 24  4  0  0  0  0
  3  4  4  0  0  0  0
  4  5  4  0  0  0  0
  5  6  1  0  0  0  0
  5 23  4  0  0  0  0
  6  7  1  0  0  0  0
  6 21  1  0  0  0  0
  7  8  1  0  0  0  0
  8  9  1  0  0  0  0
  9 10  1  0  0  0  0
  9 21  1  0  0  0  0
 10 11  1  0  0  0  0
 11 12  1  0  0  0  0
 12 13  1  0  0  0  0
 12 16  1  0  0  0  0
 13 14  1  0  0  0  0
 14 15  4  0  0  0  0
 14 20  4  0  0  0  0
 15 16  1  0  0  0  0
 15 17  4  0  0  0  0
 17 18  4  0  0  0  0
 18 19  4  0  0  0  0
 19 20  4  0  0  0  0
 21 22  2  0  0  0  0
 23 24  4  0  0  0  0
 24 25  1  0  0  0  0
 25 26  3  0  0  0  0
M  END
>  <Name_Molregno>
558350

>  <DOPAMINE D2>
6.1

>  <DOPAMINE D3>
7.8

$$$$
558358
  Marvin  02231216192D 0   1.00000     0.00000     0

 27 30  0  0  0  0  0  0  0  0999 V2000
   -7.7761   -0.4254    0.0000 O   0  0  0  0  0  0  0  0  0
   -8.4436   -0.9104    0.0000 C   0  0  0  0  0  0  0  0  0
   -9.1972   -0.5748    0.0000 C   0  0  0  0  0  0  0  0  0
   -8.3573   -1.7308    0.0000 C   0  0  0  0  0  0  0  0  0
   -7.0224   -0.7610    0.0000 C   0  0  0  0  0  0  0  0  0
   -6.3550   -0.2761    0.0000 C   0  0  0  0  0  0  0  0  0
   -5.6013   -0.6116    0.0000 C   0  0  0  0  0  0  0  0  0
   -4.9339   -0.1267    0.0000 N   0  0  0  0  0  0  0  0  0
   -4.9339    0.6983    0.0000 C   0  0  0  0  0  0  0  0  0
   -4.1493    0.9532    0.0000 C   0  0  0  0  0  0  0  0  0
   -3.6643    0.2858    0.0000 N   0  0  0  0  0  0  0  0  0
   -2.8393    0.2858    0.0000 C   0  0  0  0  0  0  0  0  0
   -2.4268    1.0003    0.0000 C   0  0  0  0  0  0  0  0  0
   -1.6018    1.0003    0.0000 N   0  0  0  0  0  0  0  0  0
   -1.1169    0.3328    0.0000 C   0  0  0  0  0  0  0  0  0
   -0.3323    0.5878    0.0000 C   0  0  0  0  0  0  0  0  0
   -0.3323    1.4128    0.0000 C   0  0  0  0  0  0  0  0  0
   -1.1169    1.6677    0.0000 C   0  0  0  0  0  0  0  0  0
    0.3822    1.8253    0.0000 C   0  0  0  0  0  0  0  0  0
    1.0966    1.4128    0.0000 C   0  0  0  0  0  0  0  0  0
    1.0966    0.5878    0.0000 C   0  0  0  0  0  0  0  0  0
    0.3822    0.1753    0.0000 C   0  0  0  0  0  0  0  0  0
   -4.1493   -0.3816    0.0000 C   0  0  0  0  0  0  0  0  0
   -3.8943   -1.1663    0.0000 O   0  0  0  0  0  0  0  0  0
   -5.5151   -1.4321    0.0000 C   0  0  0  0  0  0  0  0  0
   -6.1825   -1.9170    0.0000 C   0  0  0  0  0  0  0  0  0
   -6.9362   -1.5815    0.0000 C   0  0  0  0  0  0  0  0  0
  1  2  1  0  0  0  0
  1  5  1  0  0  0  0
  2  3  1  0  0  0  0
  2  4  1  0  0  0  0
  5  6  4  0  0  0  0
  5 27  4  0  0  0  0
  6  7  4  0  0  0  0
  7  8  1  0  0  0  0
  7 25  4  0  0  0  0
  8  9  1  0  0  0  0
  8 23  1  0  0  0  0
  9 10  1  0  0  0  0
 10 11  1  0  0  0  0
 11 12  1  0  0  0  0
 11 23  1  0  0  0  0
 12 13  1  0  0  0  0
 13 14  1  0  0  0  0
 14 15  1  0  0  0  0
 14 18  1  0  0  0  0
 15 16  1  0  0  0  0
 16 17  4  0  0  0  0
 16 22  4  0  0  0  0
 17 18  1  0  0  0  0
 17 19  4  0  0  0  0
 19 20  4  0  0  0  0
 20 21  4  0  0  0  0
 21 22  4  0  0  0  0
 23 24  2  0  0  0  0
 25 26  4  0  0  0  0
 26 27  4  0  0  0  0
M  END
>  <Name_Molregno>
558358

>  <DOPAMINE D2>
6.5

>  <DOPAMINE D3>
7.4

$$$$
558373
  Marvin  02231216192D 0   1.00000     0.00000     0

 27 31  0  0  0  0  0  0  0  0999 V2000
    0.3143   -1.7392    0.0000 S   0  0  0  0  0  0  0  0  0
    1.0679   -1.4036    0.0000 C   0  0  0  0  0  0  0  0  0
    0.9817   -0.5832    0.0000 C   0  0  0  0  0  0  0  0  0
    0.1747   -0.4116    0.0000 N   0  0  0  0  0  0  0  0  0
   -0.2378   -1.1261    0.0000 C   0  0  0  0  0  0  0  0  0
   -1.0583   -1.2123    0.0000 C   0  0  0  0  0  0  0  0  0
    1.6491   -0.0982    0.0000 C   0  0  0  0  0  0  0  0  0
    2.4028   -0.4338    0.0000 C   0  0  0  0  0  0  0  0  0
    3.0703    0.0511    0.0000 N   0  0  0  0  0  0  0  0  0
    3.0703    0.8761    0.0000 C   0  0  0  0  0  0  0  0  0
    3.8549    1.1311    0.0000 C   0  0  0  0  0  0  0  0  0
    4.3398    0.4636    0.0000 N   0  0  0  0  0  0  0  0  0
    5.1648    0.4636    0.0000 C   0  0  0  0  0  0  0  0  0
    5.5773    1.1781    0.0000 C   0  0  0  0  0  0  0  0  0
    6.4023    1.1781    0.0000 N   0  0  0  0  0  0  0  0  0
    6.8872    0.5107    0.0000 C   0  0  0  0  0  0  0  0  0
    7.6718    0.7656    0.0000 C   0  0  0  0  0  0  0  0  0
    7.6718    1.5906    0.0000 C   0  0  0  0  0  0  0  0  0
    6.8872    1.8455    0.0000 C   0  0  0  0  0  0  0  0  0
    8.3863    2.0031    0.0000 C   0  0  0  0  0  0  0  0  0
    9.1008    1.5906    0.0000 C   0  0  0  0  0  0  0  0  0
    9.1008    0.7656    0.0000 C   0  0  0  0  0  0  0  0  0
    8.3863    0.3531    0.0000 C   0  0  0  0  0  0  0  0  0
    3.8549   -0.2038    0.0000 C   0  0  0  0  0  0  0  0  0
    4.1098   -0.9884    0.0000 O   0  0  0  0  0  0  0  0  0
    2.4890   -1.2543    0.0000 C   0  0  0  0  0  0  0  0  0
    1.8216   -1.7392    0.0000 C   0  0  0  0  0  0  0  0  0
  1  2  4  0  0  0  0
  1  5  4  0  0  0  0
  2  3  4  0  0  0  0
  2 27  4  0  0  0  0
  3  4  4  0  0  0  0
  3  7  4  0  0  0  0
  4  5  4  0  0  0  0
  5  6  1  0  0  0  0
  7  8  4  0  0  0  0
  8  9  1  0  0  0  0
  8 26  4  0  0  0  0
  9 10  1  0  0  0  0
  9 24  1  0  0  0  0
 10 11  1  0  0  0  0
 11 12  1  0  0  0  0
 12 13  1  0  0  0  0
 12 24  1  0  0  0  0
 13 14  1  0  0  0  0
 14 15  1  0  0  0  0
 15 16  1  0  0  0  0
 15 19  1  0  0  0  0
 16 17  1  0  0  0  0
 17 18  4  0  0  0  0
 17 23  4  0  0  0  0
 18 19  1  0  0  0  0
 18 20  4  0  0  0  0
 20 21  4  0  0  0  0
 21 22  4  0  0  0  0
 22 23  4  0  0  0  0
 24 25  2  0  0  0  0
 26 27  4  0  0  0  0
M  END
>  <Name_Molregno>
558373

>  <DOPAMINE D2>
5

>  <DOPAMINE D3>
6.6

$$$$
558374
  Marvin  02231216192D 0   1.00000     0.00000     0

 26 30  0  0  0  0  0  0  0  0999 V2000
    0.3130   -1.8510    0.0000 O   0  0  0  0  0  0  0  0  0
    1.0667   -1.5155    0.0000 C   0  0  0  0  0  0  0  0  0
    0.9805   -0.6950    0.0000 C   0  0  0  0  0  0  0  0  0
    1.6479   -0.2101    0.0000 C   0  0  0  0  0  0  0  0  0
    2.4016   -0.5456    0.0000 C   0  0  0  0  0  0  0  0  0
    3.0690   -0.0607    0.0000 N   0  0  0  0  0  0  0  0  0
    3.0690    0.7643    0.0000 C   0  0  0  0  0  0  0  0  0
    3.8537    1.0192    0.0000 C   0  0  0  0  0  0  0  0  0
    4.3386    0.3518    0.0000 N   0  0  0  0  0  0  0  0  0
    5.1636    0.3518    0.0000 C   0  0  0  0  0  0  0  0  0
    5.5761    1.0663    0.0000 C   0  0  0  0  0  0  0  0  0
    6.4011    1.0663    0.0000 N   0  0  0  0  0  0  0  0  0
    6.8860    0.3988    0.0000 C   0  0  0  0  0  0  0  0  0
    7.6706    0.6538    0.0000 C   0  0  0  0  0  0  0  0  0
    7.6706    1.4788    0.0000 C   0  0  0  0  0  0  0  0  0
    6.8860    1.7337    0.0000 C   0  0  0  0  0  0  0  0  0
    8.3851    1.8913    0.0000 C   0  0  0  0  0  0  0  0  0
    9.0996    1.4788    0.0000 C   0  0  0  0  0  0  0  0  0
    9.0996    0.6538    0.0000 C   0  0  0  0  0  0  0  0  0
    8.3851    0.2413    0.0000 C   0  0  0  0  0  0  0  0  0
    3.8537   -0.3156    0.0000 C   0  0  0  0  0  0  0  0  0
    4.1086   -1.1003    0.0000 O   0  0  0  0  0  0  0  0  0
    2.4878   -1.3661    0.0000 C   0  0  0  0  0  0  0  0  0
    1.8204   -1.8510    0.0000 C   0  0  0  0  0  0  0  0  0
    0.1735   -0.5235    0.0000 C   0  0  0  0  0  0  0  0  0
   -0.2390   -1.2379    0.0000 C   0  0  0  0  0  0  0  0  0
  1  2  4  0  0  0  0
  1 26  4  0  0  0  0
  2  3  4  0  0  0  0
  2 24  4  0  0  0  0
  3  4  4  0  0  0  0
  3 25  4  0  0  0  0
  4  5  4  0  0  0  0
  5  6  1  0  0  0  0
  5 23  4  0  0  0  0
  6  7  1  0  0  0  0
  6 21  1  0  0  0  0
  7  8  1  0  0  0  0
  8  9  1  0  0  0  0
  9 10  1  0  0  0  0
  9 21  1  0  0  0  0
 10 11  1  0  0  0  0
 11 12  1  0  0  0  0
 12 13  1  0  0  0  0
 12 16  1  0  0  0  0
 13 14  1  0  0  0  0
 14 15  4  0  0  0  0
 14 20  4  0  0  0  0
 15 16  1  0  0  0  0
 15 17  4  0  0  0  0
 17 18  4  0  0  0  0
 18 19  4  0  0  0  0
 19 20  4  0  0  0  0
 21 22  2  0  0  0  0
 23 24  4  0  0  0  0
 25 26  4  0  0  0  0
M  END
>  <Name_Molregno>
558374

>  <DOPAMINE D2>
6

>  <DOPAMINE D3>
6.9

$$$$
558406
  Marvin  02231216192D 0   1.00000     0.00000     0

 25 27  0  0  0  0  0  0  0  0999 V2000
    6.8967    4.2915    0.0000 I   0  0  0  0  0  0  0  0  0
    6.1822    3.8790    0.0000 C   0  0  0  0  0  0  0  0  0
    6.1822    3.0540    0.0000 C   0  0  0  0  0  0  0  0  0
    5.4678    2.6415    0.0000 C   0  0  0  0  0  0  0  0  0
    5.4678    1.8165    0.0000 N   0  0  0  0  0  0  0  0  0
    6.1352    1.3316    0.0000 C   0  0  0  0  0  0  0  0  0
    5.8803    0.5470    0.0000 C   0  0  0  0  0  0  0  0  0
    5.0553    0.5470    0.0000 N   0  0  0  0  0  0  0  0  0
    4.5703   -0.1205    0.0000 C   0  0  0  0  0  0  0  0  0
    4.9059   -0.8742    0.0000 C   0  0  0  0  0  0  0  0  0
    4.4210   -1.5416    0.0000 N   0  0  0  0  0  0  0  0  0
    4.7565   -2.2953    0.0000 C   0  0  0  0  0  0  0  0  0
    4.2716   -2.9627    0.0000 C   0  0  0  0  0  0  0  0  0
    3.4511   -2.8765    0.0000 C   0  0  0  0  0  0  0  0  0
    3.1156   -2.1228    0.0000 C   0  0  0  0  0  0  0  0  0
    3.6005   -1.4554    0.0000 C   0  0  0  0  0  0  0  0  0
    2.9662   -3.5439    0.0000 C   0  0  0  0  0  0  0  0  0
    2.4813   -4.2114    0.0000 F   0  0  0  0  0  0  0  0  0
    2.2988   -3.0590    0.0000 F   0  0  0  0  0  0  0  0  0
    3.6336   -4.0288    0.0000 F   0  0  0  0  0  0  0  0  0
    4.8003    1.3316    0.0000 C   0  0  0  0  0  0  0  0  0
    4.0157    1.5865    0.0000 O   0  0  0  0  0  0  0  0  0
    4.7533    3.0540    0.0000 C   0  0  0  0  0  0  0  0  0
    4.7533    3.8790    0.0000 C   0  0  0  0  0  0  0  0  0
    5.4678    4.2915    0.0000 C   0  0  0  0  0  0  0  0  0
  1  2  1  0  0  0  0
  2  3  4  0  0  0  0
  2 25  4  0  0  0  0
  3  4  4  0  0  0  0
  4  5  1  0  0  0  0
  4 23  4  0  0  0  0
  5  6  1  0  0  0  0
  5 21  1  0  0  0  0
  6  7  1  0  0  0  0
  7  8  1  0  0  0  0
  8  9  1  0  0  0  0
  8 21  1  0  0  0  0
  9 10  1  0  0  0  0
 10 11  1  0  0  0  0
 11 12  1  0  0  0  0
 11 16  1  0  0  0  0
 12 13  1  0  0  0  0
 13 14  1  0  0  0  0
 14 15  1  0  0  0  0
 14 17  1  0  0  0  0
 15 16  1  0  0  0  0
 17 18  1  0  0  0  0
 17 19  1  0  0  0  0
 17 20  1  0  0  0  0
 21 22  2  0  0  0  0
 23 24  4  0  0  0  0
 24 25  4  0  0  0  0
M  END
>  <Name_Molregno>
558406

>  <DOPAMINE D2>
7.9

>  <DOPAMINE D3>
9

$$$$
558477
  Marvin  02231216192D 0   1.00000     0.00000     0

 24 27  0  0  0  0  0  0  0  0999 V2000
   -0.0829   -0.6370    0.0000 Cl  0  0  0  0  0  0  0  0  0
    0.6708   -0.9726    0.0000 C   0  0  0  0  0  0  0  0  0
    1.3382   -0.4877    0.0000 C   0  0  0  0  0  0  0  0  0
    2.0919   -0.8232    0.0000 C   0  0  0  0  0  0  0  0  0
    2.7593   -0.3383    0.0000 N   0  0  0  0  0  0  0  0  0
    2.7593    0.4867    0.0000 C   0  0  0  0  0  0  0  0  0
    3.5440    0.7416    0.0000 C   0  0  0  0  0  0  0  0  0
    4.0289    0.0742    0.0000 N   0  0  0  0  0  0  0  0  0
    4.8539    0.0742    0.0000 C   0  0  0  0  0  0  0  0  0
    5.2664    0.7887    0.0000 C   0  0  0  0  0  0  0  0  0
    6.0914    0.7887    0.0000 N   0  0  0  0  0  0  0  0  0
    6.5763    0.1212    0.0000 C   0  0  0  0  0  0  0  0  0
    7.3609    0.3762    0.0000 C   0  0  0  0  0  0  0  0  0
    7.3609    1.2012    0.0000 C   0  0  0  0  0  0  0  0  0
    6.5763    1.4561    0.0000 C   0  0  0  0  0  0  0  0  0
    8.0754    1.6137    0.0000 C   0  0  0  0  0  0  0  0  0
    8.7899    1.2012    0.0000 C   0  0  0  0  0  0  0  0  0
    8.7899    0.3762    0.0000 C   0  0  0  0  0  0  0  0  0
    8.0754   -0.0363    0.0000 C   0  0  0  0  0  0  0  0  0
    3.5440   -0.5933    0.0000 C   0  0  0  0  0  0  0  0  0
    3.7989   -1.3779    0.0000 O   0  0  0  0  0  0  0  0  0
    2.1781   -1.6437    0.0000 C   0  0  0  0  0  0  0  0  0
    1.5107   -2.1286    0.0000 C   0  0  0  0  0  0  0  0  0
    0.7570   -1.7931    0.0000 C   0  0  0  0  0  0  0  0  0
  1  2  1  0  0  0  0
  2  3  4  0  0  0  0
  2 24  4  0  0  0  0
  3  4  4  0  0  0  0
  4  5  1  0  0  0  0
  4 22  4  0  0  0  0
  5  6  1  0  0  0  0
  5 20  1  0  0  0  0
  6  7  1  0  0  0  0
  7  8  1  0  0  0  0
  8  9  1  0  0  0  0
  8 20  1  0  0  0  0
  9 10  1  0  0  0  0
 10 11  1  0  0  0  0
 11 12  1  0  0  0  0
 11 15  1  0  0  0  0
 12 13  1  0  0  0  0
 13 14  4  0  0  0  0
 13 19  4  0  0  0  0
 14 15  1  0  0  0  0
 14 16  4  0  0  0  0
 16 17  4  0  0  0  0
 17 18  4  0  0  0  0
 18 19  4  0  0  0  0
 20 21  2  0  0  0  0
 22 23  4  0  0  0  0
 23 24  4  0  0  0  0
M  END
>  <Name_Molregno>
558477

>  <5-HT2A>
6.2

>  <DOPAMINE D2>
7

>  <DOPAMINE D3>
8.6

$$$$
558713
  Marvin  02231216192D 0   1.00000     0.00000     0

 25 28  0  0  0  0  0  0  0  0999 V2000
    3.6573    0.9771    0.0000 N   0  0  0  0  0  0  0  0  0
    3.6573    1.8021    0.0000 C   0  0  0  0  0  0  0  0  0
    2.8727    2.0570    0.0000 N   0  0  0  0  0  0  0  0  0
    2.3877    1.3896    0.0000 C   0  0  0  0  0  0  0  0  0
    1.5627    1.3896    0.0000 C   0  0  0  0  0  0  0  0  0
    2.8727    0.7222    0.0000 C   0  0  0  0  0  0  0  0  0
    2.6177   -0.0625    0.0000 C   0  0  0  0  0  0  0  0  0
    1.8108   -0.2340    0.0000 N   0  0  0  0  0  0  0  0  0
    1.5558   -1.0186    0.0000 C   0  0  0  0  0  0  0  0  0
    0.7488   -1.1901    0.0000 C   0  0  0  0  0  0  0  0  0
    0.1968   -0.5770    0.0000 N   0  0  0  0  0  0  0  0  0
    0.4517    0.2076    0.0000 C   0  0  0  0  0  0  0  0  0
    1.2587    0.3791    0.0000 C   0  0  0  0  0  0  0  0  0
   -0.6102   -0.7486    0.0000 C   0  0  0  0  0  0  0  0  0
   -0.8651   -1.5332    0.0000 N   0  0  0  0  0  0  0  0  0
   -1.6721   -1.7047    0.0000 C   0  0  0  0  0  0  0  0  0
   -2.2241   -1.0916    0.0000 C   0  0  0  0  0  0  0  0  0
   -1.9692   -0.3070    0.0000 C   0  0  0  0  0  0  0  0  0
   -1.1622   -0.1355    0.0000 C   0  0  0  0  0  0  0  0  0
    4.3718    2.2146    0.0000 C   0  0  0  0  0  0  0  0  0
    5.0862    1.8021    0.0000 C   0  0  0  0  0  0  0  0  0
    5.0862    0.9771    0.0000 N   0  0  0  0  0  0  0  0  0
    4.3718    0.5646    0.0000 C   0  0  0  0  0  0  0  0  0
    4.3718   -0.2604    0.0000 C   0  0  0  0  0  0  0  0  0
    5.8007    2.2146    0.0000 C   0  0  0  0  0  0  0  0  0
  1  2  4  0  0  0  0
  1  6  4  0  0  0  0
  1 23  4  0  0  0  0
  2  3  4  0  0  0  0
  2 20  4  0  0  0  0
  3  4  4  0  0  0  0
  4  5  1  0  0  0  0
  4  6  4  0  0  0  0
  6  7  1  0  0  0  0
  7  8  1  0  0  0  0
  8  9  1  0  0  0  0
  8 13  1  0  0  0  0
  9 10  1  0  0  0  0
 10 11  1  0  0  0  0
 11 12  1  0  0  0  0
 11 14  1  0  0  0  0
 12 13  1  0  0  0  0
 14 15  4  0  0  0  0
 14 19  4  0  0  0  0
 15 16  4  0  0  0  0
 16 17  4  0  0  0  0
 17 18  4  0  0  0  0
 18 19  4  0  0  0  0
 20 21  4  0  0  0  0
 21 22  4  0  0  0  0
 21 25  1  0  0  0  0
 22 23  4  0  0  0  0
 23 24  1  0  0  0  0
M  END
>  <Name_Molregno>
558713

>  <DOPAMINE D2>
4.94

>  <DOPAMINE D3>
6.19

$$$$
558721
  Marvin  02231216192D 0   1.00000     0.00000     0

 30 34  0  0  0  0  0  0  0  0999 V2000
    0.0615    1.9687    0.0000 F   0  0  0  0  0  0  0  0  0
    0.8685    1.7971    0.0000 C   0  0  0  0  0  0  0  0  0
    1.4205    2.4102    0.0000 C   0  0  0  0  0  0  0  0  0
    2.2275    2.2387    0.0000 C   0  0  0  0  0  0  0  0  0
    2.4824    1.4541    0.0000 C   0  0  0  0  0  0  0  0  0
    3.2894    1.2825    0.0000 N   0  0  0  0  0  0  0  0  0
    3.8414    1.8956    0.0000 C   0  0  0  0  0  0  0  0  0
    4.6484    1.7241    0.0000 C   0  0  0  0  0  0  0  0  0
    4.9034    0.9395    0.0000 N   0  0  0  0  0  0  0  0  0
    4.3513    0.3264    0.0000 C   0  0  0  0  0  0  0  0  0
    3.5444    0.4979    0.0000 C   0  0  0  0  0  0  0  0  0
    5.7103    0.7680    0.0000 C   0  0  0  0  0  0  0  0  0
    5.9653   -0.0167    0.0000 C   0  0  0  0  0  0  0  0  0
    6.7499   -0.2716    0.0000 C   0  0  0  0  0  0  0  0  0
    7.4644    0.1409    0.0000 N   0  0  0  0  0  0  0  0  0
    8.1788   -0.2716    0.0000 C   0  0  0  0  0  0  0  0  0
    8.1788   -1.0966    0.0000 N   0  0  0  0  0  0  0  0  0
    8.8933   -1.5091    0.0000 C   0  0  0  0  0  0  0  0  0
    7.4644   -1.5091    0.0000 C   0  0  0  0  0  0  0  0  0
    7.4644   -2.3341    0.0000 O   0  0  0  0  0  0  0  0  0
    6.7499   -1.0966    0.0000 C   0  0  0  0  0  0  0  0  0
    5.9653   -1.3515    0.0000 N   0  0  0  0  0  0  0  0  0
    5.4803   -0.6841    0.0000 C   0  0  0  0  0  0  0  0  0
    8.8933    0.1409    0.0000 N   0  0  0  0  0  0  0  0  0
    8.9795    0.9614    0.0000 C   0  0  0  0  0  0  0  0  0
    9.7865    1.1329    0.0000 C   0  0  0  0  0  0  0  0  0
   10.1990    0.4184    0.0000 C   0  0  0  0  0  0  0  0  0
    9.6470   -0.1947    0.0000 C   0  0  0  0  0  0  0  0  0
    1.9304    0.8410    0.0000 C   0  0  0  0  0  0  0  0  0
    1.1234    1.0125    0.0000 C   0  0  0  0  0  0  0  0  0
  1  2  1  0  0  0  0
  2  3  4  0  0  0  0
  2 30  4  0  0  0  0
  3  4  4  0  0  0  0
  4  5  4  0  0  0  0
  5  6  1  0  0  0  0
  5 29  4  0  0  0  0
  6  7  1  0  0  0  0
  6 11  1  0  0  0  0
  7  8  1  0  0  0  0
  8  9  1  0  0  0  0
  9 10  1  0  0  0  0
  9 12  1  0  0  0  0
 10 11  1  0  0  0  0
 12 13  1  0  0  0  0
 13 14  4  0  0  0  0
 13 23  4  0  0  0  0
 14 15  1  0  0  0  0
 14 21  4  0  0  0  0
 15 16  2  0  0  0  0
 16 17  1  0  0  0  0
 16 24  1  0  0  0  0
 17 18  1  0  0  0  0
 17 19  1  0  0  0  0
 19 20  2  0  0  0  0
 19 21  1  0  0  0  0
 21 22  4  0  0  0  0
 22 23  4  0  0  0  0
 24 25  1  0  0  0  0
 24 28  1  0  0  0  0
 25 26  1  0  0  0  0
 26 27  1  0  0  0  0
 27 28  1  0  0  0  0
 29 30  4  0  0  0  0
M  STY  1   1 DAT
M  SAL   1  1  22
M  SDT   1 MRV_IMPLICIT_H                                        
M  SDD   1     0.0000    0.0000    DR    ALL  0       0  
M  SED   1 IMPL_H1
M  END
>  <Name_Molregno>
558721

>  <DOPAMINE D2>
6.24

>  <DOPAMINE D3>
6.2

$$$$
558820
  Marvin  02231216192D 0   1.00000     0.00000     0

 27 30  0  0  0  0  0  0  0  0999 V2000
    6.2947   -4.1016    0.0000 F   0  0  0  0  0  0  0  0  0
    5.8107   -3.4335    0.0000 C   0  0  0  0  0  0  0  0  0
    4.9901   -3.5185    0.0000 C   0  0  0  0  0  0  0  0  0
    4.5062   -2.8504    0.0000 C   0  0  0  0  0  0  0  0  0
    4.8428   -2.0972    0.0000 C   0  0  0  0  0  0  0  0  0
    4.3589   -1.4291    0.0000 N   0  0  0  0  0  0  0  0  0
    3.5339   -1.4279    0.0000 C   0  0  0  0  0  0  0  0  0
    3.2801   -0.6429    0.0000 C   0  0  0  0  0  0  0  0  0
    3.9482   -0.1589    0.0000 N   0  0  0  0  0  0  0  0  0
    3.9494    0.6661    0.0000 C   0  0  0  0  0  0  0  0  0
    4.6645    1.0775    0.0000 C   0  0  0  0  0  0  0  0  0
    4.6657    1.9025    0.0000 N   0  0  0  0  0  0  0  0  0
    5.3807    2.3140    0.0000 C   0  0  0  0  0  0  0  0  0
    5.3819    3.1390    0.0000 C   0  0  0  0  0  0  0  0  0
    4.6064    2.7487    0.0000 C   0  0  0  0  0  0  0  0  0
    4.9717    3.4092    0.0000 C   0  0  0  0  0  0  0  0  0
    5.6120    3.8594    0.0000 C   0  0  0  0  0  0  0  0  0
    6.4075    3.3941    0.0000 C   0  0  0  0  0  0  0  0  0
    6.1124    2.7687    0.0000 C   0  0  0  0  0  0  0  0  0
    5.4520    4.6748    0.0000 C   0  0  0  0  0  0  0  0  0
    4.8723    5.2618    0.0000 C   0  0  0  0  0  0  0  0  0
    5.9387    5.3409    0.0000 C   0  0  0  0  0  0  0  0  0
    3.9518    2.3161    0.0000 C   0  0  0  0  0  0  0  0  0
    4.6149   -0.6448    0.0000 C   0  0  0  0  0  0  0  0  0
    5.3999   -0.3910    0.0000 O   0  0  0  0  0  0  0  0  0
    5.6634   -2.0122    0.0000 C   0  0  0  0  0  0  0  0  0
    6.1474   -2.6803    0.0000 C   0  0  0  0  0  0  0  0  0
  1  2  1  0  0  0  0
  2  3  4  0  0  0  0
  2 27  4  0  0  0  0
  3  4  4  0  0  0  0
  4  5  4  0  0  0  0
  5  6  1  0  0  0  0
  5 26  4  0  0  0  0
  6  7  1  0  0  0  0
  6 24  1  0  0  0  0
  7  8  1  0  0  0  0
  8  9  1  0  0  0  0
  9 10  1  0  0  0  0
  9 24  1  0  0  0  0
 10 11  1  0  0  0  0
 11 12  1  0  0  0  0
 12 13  1  0  0  0  0
 12 23  1  0  0  0  0
 13 14  1  0  0  0  0
 14 15  1  0  0  0  0
 14 19  1  0  0  0  0
 14 20  1  0  0  0  0
 15 16  1  0  0  0  0
 16 17  1  0  0  0  0
 17 18  1  0  0  0  0
 17 20  1  0  0  0  0
 18 19  1  0  0  0  0
 20 21  1  0  0  0  0
 20 22  1  0  0  0  0
 24 25  2  0  0  0  0
 26 27  4  0  0  0  0
M  END
>  <Name_Molregno>
558820

>  <DOPAMINE D2>
6.2

>  <DOPAMINE D3>
7.4

$$$$
559708
  Marvin  02231216192D 0   1.00000     0.00000     0

 27 30  0  0  0  0  0  0  0  0999 V2000
   -0.0199   -0.5175    0.0000 Cl  0  0  0  0  0  0  0  0  0
    0.6946   -0.1050    0.0000 C   0  0  0  0  0  0  0  0  0
    0.6946    0.7200    0.0000 C   0  0  0  0  0  0  0  0  0
    1.4091    1.1325    0.0000 C   0  0  0  0  0  0  0  0  0
    2.1235    0.7200    0.0000 C   0  0  0  0  0  0  0  0  0
    2.8380    1.1325    0.0000 N   0  0  0  0  0  0  0  0  0
    2.8380    1.9575    0.0000 C   0  0  0  0  0  0  0  0  0
    3.5525    2.3700    0.0000 C   0  0  0  0  0  0  0  0  0
    4.2670    1.9575    0.0000 N   0  0  0  0  0  0  0  0  0
    4.2670    1.1325    0.0000 C   0  0  0  0  0  0  0  0  0
    3.5525    0.7200    0.0000 C   0  0  0  0  0  0  0  0  0
    4.9814    2.3700    0.0000 C   0  0  0  0  0  0  0  0  0
    5.6959    1.9575    0.0000 C   0  0  0  0  0  0  0  0  0
    6.4104    2.3700    0.0000 C   0  0  0  0  0  0  0  0  0
    7.1248    1.9575    0.0000 C   0  0  0  0  0  0  0  0  0
    7.8393    2.3700    0.0000 C   0  0  0  0  0  0  0  0  0
    8.5538    1.9575    0.0000 C   0  0  0  0  0  0  0  0  0
    8.6400    1.1370    0.0000 N   0  0  0  0  0  0  0  0  0
    9.4470    0.9655    0.0000 N   0  0  0  0  0  0  0  0  0
    9.8595    1.6800    0.0000 C   0  0  0  0  0  0  0  0  0
    9.3075    2.2931    0.0000 C   0  0  0  0  0  0  0  0  0
   10.6845    1.6800    0.0000 C   0  0  0  0  0  0  0  0  0
   11.0970    0.9655    0.0000 C   0  0  0  0  0  0  0  0  0
   10.6845    0.2510    0.0000 C   0  0  0  0  0  0  0  0  0
    9.8595    0.2510    0.0000 C   0  0  0  0  0  0  0  0  0
    2.1235   -0.1050    0.0000 C   0  0  0  0  0  0  0  0  0
    1.4091   -0.5175    0.0000 C   0  0  0  0  0  0  0  0  0
  1  2  1  0  0  0  0
  2  3  4  0  0  0  0
  2 27  4  0  0  0  0
  3  4  4  0  0  0  0
  4  5  4  0  0  0  0
  5  6  1  0  0  0  0
  5 26  4  0  0  0  0
  6  7  1  0  0  0  0
  6 11  1  0  0  0  0
  7  8  1  0  0  0  0
  8  9  1  0  0  0  0
  9 10  1  0  0  0  0
  9 12  1  0  0  0  0
 10 11  1  0  0  0  0
 12 13  1  0  0  0  0
 13 14  1  0  0  0  0
 14 15  1  0  0  0  0
 15 16  1  0  0  0  0
 16 17  1  0  0  0  0
 17 18  4  0  0  0  0
 17 21  4  0  0  0  0
 18 19  4  0  0  0  0
 19 20  4  0  0  0  0
 19 25  4  0  0  0  0
 20 21  4  0  0  0  0
 20 22  4  0  0  0  0
 22 23  4  0  0  0  0
 23 24  4  0  0  0  0
 24 25  4  0  0  0  0
 26 27  4  0  0  0  0
M  END
>  <Name_Molregno>
559708

>  <DOPAMINE D2>
6.73

>  <DOPAMINE D3>
6.54

>  <DOPAMINE D4>
7.34

$$$$
560191
  Marvin  02231216192D 0   1.00000     0.00000     0

 25 28  0  0  0  0  0  0  0  0999 V2000
   -7.2311   -1.4732    0.0000 Cl  0  0  0  0  0  0  0  0  0
   -7.3174   -0.6527    0.0000 C   0  0  0  0  0  0  0  0  0
   -8.0711   -0.3171    0.0000 C   0  0  0  0  0  0  0  0  0
   -8.1573    0.5033    0.0000 C   0  0  0  0  0  0  0  0  0
   -7.4898    0.9883    0.0000 C   0  0  0  0  0  0  0  0  0
   -6.7362    0.6527    0.0000 C   0  0  0  0  0  0  0  0  0
   -6.6499   -0.1678    0.0000 C   0  0  0  0  0  0  0  0  0
   -5.8963   -0.5033    0.0000 C   0  0  0  0  0  0  0  0  0
   -5.2288   -0.0184    0.0000 N   0  0  0  0  0  0  0  0  0
   -5.2288    0.8066    0.0000 C   0  0  0  0  0  0  0  0  0
   -4.4442    1.0615    0.0000 C   0  0  0  0  0  0  0  0  0
   -3.9593    0.3941    0.0000 N   0  0  0  0  0  0  0  0  0
   -3.1343    0.3941    0.0000 C   0  0  0  0  0  0  0  0  0
   -2.7218    1.1086    0.0000 C   0  0  0  0  0  0  0  0  0
   -1.8968    1.1086    0.0000 N   0  0  0  0  0  0  0  0  0
   -1.4119    0.4411    0.0000 C   0  0  0  0  0  0  0  0  0
   -0.6272    0.6961    0.0000 C   0  0  0  0  0  0  0  0  0
   -0.6272    1.5211    0.0000 C   0  0  0  0  0  0  0  0  0
   -1.4119    1.7760    0.0000 C   0  0  0  0  0  0  0  0  0
    0.0872    1.9336    0.0000 C   0  0  0  0  0  0  0  0  0
    0.8017    1.5211    0.0000 C   0  0  0  0  0  0  0  0  0
    0.8017    0.6961    0.0000 C   0  0  0  0  0  0  0  0  0
    0.0872    0.2836    0.0000 C   0  0  0  0  0  0  0  0  0
   -4.4442   -0.2733    0.0000 C   0  0  0  0  0  0  0  0  0
   -4.1893   -1.0580    0.0000 O   0  0  0  0  0  0  0  0  0
  1  2  1  0  0  0  0
  2  3  4  0  0  0  0
  2  7  4  0  0  0  0
  3  4  4  0  0  0  0
  4  5  4  0  0  0  0
  5  6  4  0  0  0  0
  6  7  4  0  0  0  0
  7  8  1  0  0  0  0
  8  9  1  0  0  0  0
  9 10  1  0  0  0  0
  9 24  1  0  0  0  0
 10 11  1  0  0  0  0
 11 12  1  0  0  0  0
 12 13  1  0  0  0  0
 12 24  1  0  0  0  0
 13 14  1  0  0  0  0
 14 15  1  0  0  0  0
 15 16  1  0  0  0  0
 15 19  1  0  0  0  0
 16 17  1  0  0  0  0
 17 18  4  0  0  0  0
 17 23  4  0  0  0  0
 18 19  1  0  0  0  0
 18 20  4  0  0  0  0
 20 21  4  0  0  0  0
 21 22  4  0  0  0  0
 22 23  4  0  0  0  0
 24 25  2  0  0  0  0
M  END
>  <Name_Molregno>
560191

>  <DOPAMINE D2>
6.4

>  <DOPAMINE D3>
6.3

$$$$
560521
  Marvin  02231216192D 0   1.00000     0.00000     0

 25 28  0  0  0  0  0  0  0  0999 V2000
    3.6573    0.9771    0.0000 N   0  0  0  0  0  0  0  0  0
    3.6573    1.8021    0.0000 C   0  0  0  0  0  0  0  0  0
    2.8727    2.0570    0.0000 N   0  0  0  0  0  0  0  0  0
    2.3877    1.3896    0.0000 C   0  0  0  0  0  0  0  0  0
    1.5627    1.3896    0.0000 C   0  0  0  0  0  0  0  0  0
    2.8727    0.7222    0.0000 C   0  0  0  0  0  0  0  0  0
    2.6177   -0.0625    0.0000 C   0  0  0  0  0  0  0  0  0
    1.8108   -0.2340    0.0000 N   0  0  0  0  0  0  0  0  0
    1.5558   -1.0186    0.0000 C   0  0  0  0  0  0  0  0  0
    0.7488   -1.1901    0.0000 C   0  0  0  0  0  0  0  0  0
    0.1968   -0.5770    0.0000 N   0  0  0  0  0  0  0  0  0
    0.4517    0.2076    0.0000 C   0  0  0  0  0  0  0  0  0
    1.2587    0.3791    0.0000 C   0  0  0  0  0  0  0  0  0
   -0.6102   -0.7486    0.0000 C   0  0  0  0  0  0  0  0  0
   -0.8651   -1.5332    0.0000 C   0  0  0  0  0  0  0  0  0
   -1.6721   -1.7047    0.0000 C   0  0  0  0  0  0  0  0  0
   -2.2241   -1.0916    0.0000 C   0  0  0  0  0  0  0  0  0
   -1.9692   -0.3070    0.0000 C   0  0  0  0  0  0  0  0  0
   -1.1622   -0.1355    0.0000 C   0  0  0  0  0  0  0  0  0
    4.3718    2.2146    0.0000 C   0  0  0  0  0  0  0  0  0
    5.0862    1.8021    0.0000 C   0  0  0  0  0  0  0  0  0
    5.0862    0.9771    0.0000 N   0  0  0  0  0  0  0  0  0
    4.3718    0.5646    0.0000 C   0  0  0  0  0  0  0  0  0
    4.3718   -0.2604    0.0000 C   0  0  0  0  0  0  0  0  0
    5.8007    2.2146    0.0000 C   0  0  0  0  0  0  0  0  0
  1  2  4  0  0  0  0
  1  6  4  0  0  0  0
  1 23  4  0  0  0  0
  2  3  4  0  0  0  0
  2 20  4  0  0  0  0
  3  4  4  0  0  0  0
  4  5  1  0  0  0  0
  4  6  4  0  0  0  0
  6  7  1  0  0  0  0
  7  8  1  0  0  0  0
  8  9  1  0  0  0  0
  8 13  1  0  0  0  0
  9 10  1  0  0  0  0
 10 11  1  0  0  0  0
 11 12  1  0  0  0  0
 11 14  1  0  0  0  0
 12 13  1  0  0  0  0
 14 15  4  0  0  0  0
 14 19  4  0  0  0  0
 15 16  4  0  0  0  0
 16 17  4  0  0  0  0
 17 18  4  0  0  0  0
 18 19  4  0  0  0  0
 20 21  4  0  0  0  0
 21 22  4  0  0  0  0
 21 25  1  0  0  0  0
 22 23  4  0  0  0  0
 23 24  1  0  0  0  0
M  END
>  <Name_Molregno>
560521

>  <DOPAMINE D2>
5.03

>  <DOPAMINE D3>
5.38

$$$$
560546
  Marvin  02231216192D 0   1.00000     0.00000     0

 29 33  0  0  0  0  0  0  0  0999 V2000
    4.4835    1.2622    0.0000 O   0  0  0  0  0  0  0  0  0
    4.4835    0.4372    0.0000 C   0  0  0  0  0  0  0  0  0
    5.1980    0.0247    0.0000 N   0  0  0  0  0  0  0  0  0
    5.9125    0.4372    0.0000 C   0  0  0  0  0  0  0  0  0
    5.1980   -0.8003    0.0000 C   0  0  0  0  0  0  0  0  0
    4.4835   -1.2128    0.0000 N   0  0  0  0  0  0  0  0  0
    3.7690   -0.8003    0.0000 C   0  0  0  0  0  0  0  0  0
    3.7690    0.0247    0.0000 C   0  0  0  0  0  0  0  0  0
    2.9844    0.2797    0.0000 N   0  0  0  0  0  0  0  0  0
    2.4995   -0.3878    0.0000 C   0  0  0  0  0  0  0  0  0
    2.9844   -1.0552    0.0000 C   0  0  0  0  0  0  0  0  0
    2.7295   -1.8398    0.0000 C   0  0  0  0  0  0  0  0  0
    1.9225   -2.0113    0.0000 N   0  0  0  0  0  0  0  0  0
    1.6676   -2.7960    0.0000 C   0  0  0  0  0  0  0  0  0
    0.8606   -2.9675    0.0000 C   0  0  0  0  0  0  0  0  0
    0.3086   -2.3544    0.0000 N   0  0  0  0  0  0  0  0  0
    0.5635   -1.5698    0.0000 C   0  0  0  0  0  0  0  0  0
    1.3705   -1.3983    0.0000 C   0  0  0  0  0  0  0  0  0
   -0.4984   -2.5259    0.0000 C   0  0  0  0  0  0  0  0  0
   -0.7533   -3.3105    0.0000 N   0  0  0  0  0  0  0  0  0
   -1.5603   -3.4821    0.0000 C   0  0  0  0  0  0  0  0  0
   -2.1123   -2.8690    0.0000 C   0  0  0  0  0  0  0  0  0
   -1.8574   -2.0844    0.0000 C   0  0  0  0  0  0  0  0  0
   -1.0504   -1.9128    0.0000 C   0  0  0  0  0  0  0  0  0
    5.9125   -1.2128    0.0000 N   0  0  0  0  0  0  0  0  0
    6.6661   -0.8772    0.0000 C   0  0  0  0  0  0  0  0  0
    7.2182   -1.4903    0.0000 C   0  0  0  0  0  0  0  0  0
    6.8057   -2.2048    0.0000 C   0  0  0  0  0  0  0  0  0
    5.9987   -2.0332    0.0000 C   0  0  0  0  0  0  0  0  0
  1  2  2  0  0  0  0
  2  3  1  0  0  0  0
  2  8  1  0  0  0  0
  3  4  1  0  0  0  0
  3  5  1  0  0  0  0
  5  6  2  0  0  0  0
  5 25  1  0  0  0  0
  6  7  1  0  0  0  0
  7  8  4  0  0  0  0
  7 11  4  0  0  0  0
  8  9  4  0  0  0  0
  9 10  4  0  0  0  0
 10 11  4  0  0  0  0
 11 12  1  0  0  0  0
 12 13  1  0  0  0  0
 13 14  1  0  0  0  0
 13 18  1  0  0  0  0
 14 15  1  0  0  0  0
 15 16  1  0  0  0  0
 16 17  1  0  0  0  0
 16 19  1  0  0  0  0
 17 18  1  0  0  0  0
 19 20  4  0  0  0  0
 19 24  4  0  0  0  0
 20 21  4  0  0  0  0
 21 22  4  0  0  0  0
 22 23  4  0  0  0  0
 23 24  4  0  0  0  0
 25 26  1  0  0  0  0
 25 29  1  0  0  0  0
 26 27  1  0  0  0  0
 27 28  1  0  0  0  0
 28 29  1  0  0  0  0
M  STY  1   1 DAT
M  SAL   1  1   9
M  SDT   1 MRV_IMPLICIT_H                                        
M  SDD   1     0.0000    0.0000    DR    ALL  0       0  
M  SED   1 IMPL_H1
M  END
>  <Name_Molregno>
560546

>  <DOPAMINE D2>
6.7

>  <DOPAMINE D3>
6.51

$$$$
561544
  Marvin  02231216192D 0   1.00000     0.00000     0

 30 33  0  0  0  0  0  0  0  0999 V2000
   -8.7727   -0.1050    0.0000 S   0  0  0  0  0  0  0  0  0
   -9.4871   -0.5175    0.0000 C   0  0  0  0  0  0  0  0  0
   -8.7727    0.7200    0.0000 C   0  0  0  0  0  0  0  0  0
   -9.4871    1.1325    0.0000 C   0  0  0  0  0  0  0  0  0
   -9.4871    1.9575    0.0000 C   0  0  0  0  0  0  0  0  0
   -8.7727    2.3700    0.0000 C   0  0  0  0  0  0  0  0  0
   -8.0582    1.9575    0.0000 C   0  0  0  0  0  0  0  0  0
   -8.0582    1.1325    0.0000 C   0  0  0  0  0  0  0  0  0
   -7.3437    0.7200    0.0000 N   0  0  0  0  0  0  0  0  0
   -6.6292    1.1325    0.0000 C   0  0  0  0  0  0  0  0  0
   -5.9148    0.7200    0.0000 C   0  0  0  0  0  0  0  0  0
   -5.9148   -0.1050    0.0000 N   0  0  0  0  0  0  0  0  0
   -6.6292   -0.5175    0.0000 C   0  0  0  0  0  0  0  0  0
   -7.3437   -0.1050    0.0000 C   0  0  0  0  0  0  0  0  0
   -5.2003   -0.5175    0.0000 C   0  0  0  0  0  0  0  0  0
   -4.4858   -0.1050    0.0000 C   0  0  0  0  0  0  0  0  0
   -3.7714   -0.5175    0.0000 C   0  0  0  0  0  0  0  0  0
   -3.0569   -0.1050    0.0000 C   0  0  0  0  0  0  0  0  0
   -2.3424   -0.5175    0.0000 N   0  0  0  0  0  0  0  0  0
   -1.6279   -0.1050    0.0000 C   0  0  0  0  0  0  0  0  0
   -1.6279    0.7200    0.0000 O   0  0  0  0  0  0  0  0  0
   -0.9135   -0.5175    0.0000 C   0  0  0  0  0  0  0  0  0
   -0.8272   -1.3380    0.0000 N   0  0  0  0  0  0  0  0  0
   -0.0203   -1.5095    0.0000 N   0  0  0  0  0  0  0  0  0
    0.3922   -0.7951    0.0000 C   0  0  0  0  0  0  0  0  0
   -0.1598   -0.1820    0.0000 C   0  0  0  0  0  0  0  0  0
    1.2172   -0.7951    0.0000 C   0  0  0  0  0  0  0  0  0
    1.6297   -1.5095    0.0000 C   0  0  0  0  0  0  0  0  0
    1.2172   -2.2240    0.0000 C   0  0  0  0  0  0  0  0  0
    0.3922   -2.2240    0.0000 C   0  0  0  0  0  0  0  0  0
  1  2  1  0  0  0  0
  1  3  1  0  0  0  0
  3  4  4  0  0  0  0
  3  8  4  0  0  0  0
  4  5  4  0  0  0  0
  5  6  4  0  0  0  0
  6  7  4  0  0  0  0
  7  8  4  0  0  0  0
  8  9  1  0  0  0  0
  9 10  1  0  0  0  0
  9 14  1  0  0  0  0
 10 11  1  0  0  0  0
 11 12  1  0  0  0  0
 12 13  1  0  0  0  0
 12 15  1  0  0  0  0
 13 14  1  0  0  0  0
 15 16  1  0  0  0  0
 16 17  1  0  0  0  0
 17 18  1  0  0  0  0
 18 19  1  0  0  0  0
 19 20  1  0  0  0  0
 20 21  2  0  0  0  0
 20 22  1  0  0  0  0
 22 23  4  0  0  0  0
 22 26  4  0  0  0  0
 23 24  4  0  0  0  0
 24 25  4  0  0  0  0
 24 30  4  0  0  0  0
 25 26  4  0  0  0  0
 25 27  4  0  0  0  0
 27 28  4  0  0  0  0
 28 29  4  0  0  0  0
 29 30  4  0  0  0  0
M  END
>  <Name_Molregno>
561544

>  <DOPAMINE D2>
7.62

>  <DOPAMINE D3>
8.13

>  <DOPAMINE D4>
8.19

$$$$
561996
  Marvin  02231216192D 0   1.00000     0.00000     0

 23 26  0  0  0  0  0  0  0  0999 V2000
    0.6717   -1.1577    0.0000 S   0  0  0  0  0  0  0  0  0
   -0.1130   -1.4126    0.0000 C   0  0  0  0  0  0  0  0  0
   -0.5979   -0.7452    0.0000 C   0  0  0  0  0  0  0  0  0
   -0.1130   -0.0778    0.0000 C   0  0  0  0  0  0  0  0  0
    0.6717   -0.3327    0.0000 C   0  0  0  0  0  0  0  0  0
    1.3391    0.1522    0.0000 N   0  0  0  0  0  0  0  0  0
    1.3391    0.9772    0.0000 C   0  0  0  0  0  0  0  0  0
    2.1237    1.2322    0.0000 C   0  0  0  0  0  0  0  0  0
    2.6086    0.5647    0.0000 N   0  0  0  0  0  0  0  0  0
    3.4336    0.5647    0.0000 C   0  0  0  0  0  0  0  0  0
    3.8461    1.2792    0.0000 C   0  0  0  0  0  0  0  0  0
    4.6711    1.2792    0.0000 N   0  0  0  0  0  0  0  0  0
    5.1561    0.6118    0.0000 C   0  0  0  0  0  0  0  0  0
    5.9407    0.8667    0.0000 C   0  0  0  0  0  0  0  0  0
    5.9407    1.6917    0.0000 C   0  0  0  0  0  0  0  0  0
    5.1561    1.9466    0.0000 C   0  0  0  0  0  0  0  0  0
    6.6552    2.1042    0.0000 C   0  0  0  0  0  0  0  0  0
    7.3696    1.6917    0.0000 C   0  0  0  0  0  0  0  0  0
    7.3696    0.8667    0.0000 C   0  0  0  0  0  0  0  0  0
    6.6552    0.4542    0.0000 C   0  0  0  0  0  0  0  0  0
    2.1237   -0.1027    0.0000 C   0  0  0  0  0  0  0  0  0
    2.3787   -0.8873    0.0000 O   0  0  0  0  0  0  0  0  0
   -0.3679   -2.1973    0.0000 C   0  0  0  0  0  0  0  0  0
  1  2  4  0  0  0  0
  1  5  4  0  0  0  0
  2  3  4  0  0  0  0
  2 23  1  0  0  0  0
  3  4  4  0  0  0  0
  4  5  4  0  0  0  0
  5  6  1  0  0  0  0
  6  7  1  0  0  0  0
  6 21  1  0  0  0  0
  7  8  1  0  0  0  0
  8  9  1  0  0  0  0
  9 10  1  0  0  0  0
  9 21  1  0  0  0  0
 10 11  1  0  0  0  0
 11 12  1  0  0  0  0
 12 13  1  0  0  0  0
 12 16  1  0  0  0  0
 13 14  1  0  0  0  0
 14 15  4  0  0  0  0
 14 20  4  0  0  0  0
 15 16  1  0  0  0  0
 15 17  4  0  0  0  0
 17 18  4  0  0  0  0
 18 19  4  0  0  0  0
 19 20  4  0  0  0  0
 21 22  2  0  0  0  0
M  END
>  <Name_Molregno>
561996

>  <DOPAMINE D2>
6.3

>  <DOPAMINE D3>
6.7

$$$$
562035
  Marvin  02231216192D 0   1.00000     0.00000     0

 26 28  0  0  0  0  0  0  0  0999 V2000
    4.0466    3.9129    0.0000 Cl  0  0  0  0  0  0  0  0  0
    4.7611    3.5004    0.0000 C   0  0  0  0  0  0  0  0  0
    5.4756    3.9129    0.0000 C   0  0  0  0  0  0  0  0  0
    6.1900    3.5004    0.0000 C   0  0  0  0  0  0  0  0  0
    6.1900    2.6754    0.0000 C   0  0  0  0  0  0  0  0  0
    5.4756    2.2629    0.0000 C   0  0  0  0  0  0  0  0  0
    5.4756    1.4379    0.0000 N   0  0  0  0  0  0  0  0  0
    6.1430    0.9530    0.0000 C   0  0  0  0  0  0  0  0  0
    5.8881    0.1683    0.0000 C   0  0  0  0  0  0  0  0  0
    5.0631    0.1683    0.0000 N   0  0  0  0  0  0  0  0  0
    4.5782   -0.4991    0.0000 C   0  0  0  0  0  0  0  0  0
    4.9137   -1.2528    0.0000 C   0  0  0  0  0  0  0  0  0
    4.4288   -1.9202    0.0000 N   0  0  0  0  0  0  0  0  0
    4.7643   -2.6739    0.0000 C   0  0  0  0  0  0  0  0  0
    4.2794   -3.3413    0.0000 C   0  0  0  0  0  0  0  0  0
    3.4589   -3.2551    0.0000 C   0  0  0  0  0  0  0  0  0
    3.1234   -2.5014    0.0000 C   0  0  0  0  0  0  0  0  0
    3.6083   -1.8340    0.0000 C   0  0  0  0  0  0  0  0  0
    2.9740   -3.9225    0.0000 C   0  0  0  0  0  0  0  0  0
    2.4891   -4.5900    0.0000 F   0  0  0  0  0  0  0  0  0
    2.3066   -3.4376    0.0000 F   0  0  0  0  0  0  0  0  0
    3.6415   -4.4075    0.0000 F   0  0  0  0  0  0  0  0  0
    4.8081    0.9530    0.0000 C   0  0  0  0  0  0  0  0  0
    4.0235    1.2079    0.0000 O   0  0  0  0  0  0  0  0  0
    4.7611    2.6754    0.0000 C   0  0  0  0  0  0  0  0  0
    4.0466    2.2629    0.0000 F   0  0  0  0  0  0  0  0  0
  1  2  1  0  0  0  0
  2  3  4  0  0  0  0
  2 25  4  0  0  0  0
  3  4  4  0  0  0  0
  4  5  4  0  0  0  0
  5  6  4  0  0  0  0
  6  7  1  0  0  0  0
  6 25  4  0  0  0  0
  7  8  1  0  0  0  0
  7 23  1  0  0  0  0
  8  9  1  0  0  0  0
  9 10  1  0  0  0  0
 10 11  1  0  0  0  0
 10 23  1  0  0  0  0
 11 12  1  0  0  0  0
 12 13  1  0  0  0  0
 13 14  1  0  0  0  0
 13 18  1  0  0  0  0
 14 15  1  0  0  0  0
 15 16  1  0  0  0  0
 16 17  1  0  0  0  0
 16 19  1  0  0  0  0
 17 18  1  0  0  0  0
 19 20  1  0  0  0  0
 19 21  1  0  0  0  0
 19 22  1  0  0  0  0
 23 24  2  0  0  0  0
 25 26  1  0  0  0  0
M  END
>  <Name_Molregno>
562035

>  <DOPAMINE D2>
5

>  <DOPAMINE D3>
7.4

$$$$
562282
  Marvin  02231216192D 0   1.00000     0.00000     0

 27 30  0  0  0  0  0  0  0  0999 V2000
    0.0801   -1.0187    0.0000 O   0  0  0  0  0  0  0  0  0
   -0.1748   -1.8033    0.0000 C   0  0  0  0  0  0  0  0  0
    0.8871   -0.8471    0.0000 C   0  0  0  0  0  0  0  0  0
    1.1420   -0.0625    0.0000 C   0  0  0  0  0  0  0  0  0
    1.9490    0.1090    0.0000 C   0  0  0  0  0  0  0  0  0
    2.5010   -0.5041    0.0000 C   0  0  0  0  0  0  0  0  0
    3.3080   -0.3325    0.0000 N   0  0  0  0  0  0  0  0  0
    3.5630    0.4521    0.0000 C   0  0  0  0  0  0  0  0  0
    4.3699    0.6236    0.0000 C   0  0  0  0  0  0  0  0  0
    4.9220    0.0105    0.0000 N   0  0  0  0  0  0  0  0  0
    4.6670   -0.7741    0.0000 C   0  0  0  0  0  0  0  0  0
    3.8601   -0.9456    0.0000 C   0  0  0  0  0  0  0  0  0
    5.7289    0.1820    0.0000 C   0  0  0  0  0  0  0  0  0
    5.9839    0.9667    0.0000 C   0  0  0  0  0  0  0  0  0
    6.7685    1.2216    0.0000 N   0  0  0  0  0  0  0  0  0
    6.7685    2.0466    0.0000 C   0  0  0  0  0  0  0  0  0
    5.9839    2.3015    0.0000 N   0  0  0  0  0  0  0  0  0
    5.4990    1.6341    0.0000 C   0  0  0  0  0  0  0  0  0
    4.6740    1.6341    0.0000 C   0  0  0  0  0  0  0  0  0
    7.4830    2.4591    0.0000 C   0  0  0  0  0  0  0  0  0
    8.1974    2.0466    0.0000 C   0  0  0  0  0  0  0  0  0
    8.1974    1.2216    0.0000 N   0  0  0  0  0  0  0  0  0
    7.4830    0.8091    0.0000 C   0  0  0  0  0  0  0  0  0
    7.4830   -0.0159    0.0000 C   0  0  0  0  0  0  0  0  0
    8.9119    2.4591    0.0000 C   0  0  0  0  0  0  0  0  0
    2.2461   -1.2887    0.0000 C   0  0  0  0  0  0  0  0  0
    1.4391   -1.4602    0.0000 C   0  0  0  0  0  0  0  0  0
  1  2  1  0  0  0  0
  1  3  1  0  0  0  0
  3  4  4  0  0  0  0
  3 27  4  0  0  0  0
  4  5  4  0  0  0  0
  5  6  4  0  0  0  0
  6  7  1  0  0  0  0
  6 26  4  0  0  0  0
  7  8  1  0  0  0  0
  7 12  1  0  0  0  0
  8  9  1  0  0  0  0
  9 10  1  0  0  0  0
 10 11  1  0  0  0  0
 10 13  1  0  0  0  0
 11 12  1  0  0  0  0
 13 14  1  0  0  0  0
 14 15  4  0  0  0  0
 14 18  4  0  0  0  0
 15 16  4  0  0  0  0
 15 23  4  0  0  0  0
 16 17  4  0  0  0  0
 16 20  4  0  0  0  0
 17 18  4  0  0  0  0
 18 19  1  0  0  0  0
 20 21  4  0  0  0  0
 21 22  4  0  0  0  0
 21 25  1  0  0  0  0
 22 23  4  0  0  0  0
 23 24  1  0  0  0  0
 26 27  4  0  0  0  0
M  END
>  <Name_Molregno>
562282

>  <DOPAMINE D2>
6.7

>  <DOPAMINE D3>
8.07

$$$$
562330
  Marvin  02231216192D 0   1.00000     0.00000     0

 28 31  0  0  0  0  0  0  0  0999 V2000
   -4.3231   -1.3680    0.0000 O   0  0  0  0  0  0  0  0  0
   -3.9106   -2.0825    0.0000 C   0  0  0  0  0  0  0  0  0
   -5.1481   -1.3680    0.0000 C   0  0  0  0  0  0  0  0  0
   -5.5606   -2.0825    0.0000 C   0  0  0  0  0  0  0  0  0
   -6.3856   -2.0825    0.0000 C   0  0  0  0  0  0  0  0  0
   -6.7981   -1.3680    0.0000 C   0  0  0  0  0  0  0  0  0
   -6.3856   -0.6536    0.0000 C   0  0  0  0  0  0  0  0  0
   -5.5606   -0.6536    0.0000 C   0  0  0  0  0  0  0  0  0
   -5.1481    0.0609    0.0000 N   0  0  0  0  0  0  0  0  0
   -5.5606    0.7754    0.0000 C   0  0  0  0  0  0  0  0  0
   -5.1481    1.4898    0.0000 C   0  0  0  0  0  0  0  0  0
   -4.3231    1.4898    0.0000 N   0  0  0  0  0  0  0  0  0
   -3.9106    0.7754    0.0000 C   0  0  0  0  0  0  0  0  0
   -4.3231    0.0609    0.0000 C   0  0  0  0  0  0  0  0  0
   -3.9106    2.2043    0.0000 C   0  0  0  0  0  0  0  0  0
   -3.0856    2.2043    0.0000 C   0  0  0  0  0  0  0  0  0
   -2.6007    2.8718    0.0000 N   0  0  0  0  0  0  0  0  0
   -1.8160    2.6168    0.0000 C   0  0  0  0  0  0  0  0  0
   -1.1016    3.0293    0.0000 N   0  0  0  0  0  0  0  0  0
   -0.3871    2.6168    0.0000 C   0  0  0  0  0  0  0  0  0
   -0.3871    1.7918    0.0000 N   0  0  0  0  0  0  0  0  0
   -1.1016    1.3793    0.0000 C   0  0  0  0  0  0  0  0  0
   -1.1016    0.5543    0.0000 O   0  0  0  0  0  0  0  0  0
   -1.8160    1.7918    0.0000 C   0  0  0  0  0  0  0  0  0
   -2.6007    1.5369    0.0000 C   0  0  0  0  0  0  0  0  0
    0.3274    3.0293    0.0000 N   0  0  0  0  0  0  0  0  0
    0.3274    3.8543    0.0000 C   0  0  0  0  0  0  0  0  0
    1.0418    2.6168    0.0000 C   0  0  0  0  0  0  0  0  0
  1  2  1  0  0  0  0
  1  3  1  0  0  0  0
  3  4  4  0  0  0  0
  3  8  4  0  0  0  0
  4  5  4  0  0  0  0
  5  6  4  0  0  0  0
  6  7  4  0  0  0  0
  7  8  4  0  0  0  0
  8  9  1  0  0  0  0
  9 10  1  0  0  0  0
  9 14  1  0  0  0  0
 10 11  1  0  0  0  0
 11 12  1  0  0  0  0
 12 13  1  0  0  0  0
 12 15  1  0  0  0  0
 13 14  1  0  0  0  0
 15 16  1  0  0  0  0
 16 17  4  0  0  0  0
 16 25  4  0  0  0  0
 17 18  4  0  0  0  0
 18 19  1  0  0  0  0
 18 24  4  0  0  0  0
 19 20  2  0  0  0  0
 20 21  1  0  0  0  0
 20 26  1  0  0  0  0
 21 22  1  0  0  0  0
 22 23  2  0  0  0  0
 22 24  1  0  0  0  0
 24 25  4  0  0  0  0
 26 27  1  0  0  0  0
 26 28  1  0  0  0  0
M  STY  1   1 DAT
M  SAL   1  1  17
M  SDT   1 MRV_IMPLICIT_H                                        
M  SDD   1     0.0000    0.0000    DR    ALL  0       0  
M  SED   1 IMPL_H1
M  END
>  <Name_Molregno>
562330

>  <DOPAMINE D2>
6.83

>  <DOPAMINE D3>
6.02

$$$$
562344
  Marvin  02231216192D 0   1.00000     0.00000     0

 26 29  0  0  0  0  0  0  0  0999 V2000
    0.0857   -1.0270    0.0000 F   0  0  0  0  0  0  0  0  0
    0.8927   -0.8555    0.0000 C   0  0  0  0  0  0  0  0  0
    1.1476   -0.0709    0.0000 C   0  0  0  0  0  0  0  0  0
    1.9546    0.1007    0.0000 C   0  0  0  0  0  0  0  0  0
    2.5066   -0.5124    0.0000 C   0  0  0  0  0  0  0  0  0
    3.3136   -0.3409    0.0000 N   0  0  0  0  0  0  0  0  0
    3.5686    0.4437    0.0000 C   0  0  0  0  0  0  0  0  0
    4.3755    0.6152    0.0000 C   0  0  0  0  0  0  0  0  0
    4.9276    0.0021    0.0000 N   0  0  0  0  0  0  0  0  0
    4.6726   -0.7825    0.0000 C   0  0  0  0  0  0  0  0  0
    3.8656   -0.9540    0.0000 C   0  0  0  0  0  0  0  0  0
    5.7345    0.1737    0.0000 C   0  0  0  0  0  0  0  0  0
    5.9895    0.9583    0.0000 C   0  0  0  0  0  0  0  0  0
    6.7741    1.2132    0.0000 N   0  0  0  0  0  0  0  0  0
    6.7741    2.0382    0.0000 C   0  0  0  0  0  0  0  0  0
    5.9895    2.2932    0.0000 N   0  0  0  0  0  0  0  0  0
    5.5045    1.6257    0.0000 C   0  0  0  0  0  0  0  0  0
    4.6795    1.6257    0.0000 C   0  0  0  0  0  0  0  0  0
    7.4886    2.4507    0.0000 C   0  0  0  0  0  0  0  0  0
    8.2030    2.0382    0.0000 C   0  0  0  0  0  0  0  0  0
    8.2030    1.2132    0.0000 N   0  0  0  0  0  0  0  0  0
    7.4886    0.8007    0.0000 C   0  0  0  0  0  0  0  0  0
    7.4886   -0.0243    0.0000 C   0  0  0  0  0  0  0  0  0
    8.9175    2.4507    0.0000 C   0  0  0  0  0  0  0  0  0
    2.2517   -1.2971    0.0000 C   0  0  0  0  0  0  0  0  0
    1.4447   -1.4686    0.0000 C   0  0  0  0  0  0  0  0  0
  1  2  1  0  0  0  0
  2  3  4  0  0  0  0
  2 26  4  0  0  0  0
  3  4  4  0  0  0  0
  4  5  4  0  0  0  0
  5  6  1  0  0  0  0
  5 25  4  0  0  0  0
  6  7  1  0  0  0  0
  6 11  1  0  0  0  0
  7  8  1  0  0  0  0
  8  9  1  0  0  0  0
  9 10  1  0  0  0  0
  9 12  1  0  0  0  0
 10 11  1  0  0  0  0
 12 13  1  0  0  0  0
 13 14  4  0  0  0  0
 13 17  4  0  0  0  0
 14 15  4  0  0  0  0
 14 22  4  0  0  0  0
 15 16  4  0  0  0  0
 15 19  4  0  0  0  0
 16 17  4  0  0  0  0
 17 18  1  0  0  0  0
 19 20  4  0  0  0  0
 20 21  4  0  0  0  0
 20 24  1  0  0  0  0
 21 22  4  0  0  0  0
 22 23  1  0  0  0  0
 25 26  4  0  0  0  0
M  END
>  <Name_Molregno>
562344

>  <DOPAMINE D2>
5.39

>  <DOPAMINE D3>
4.83

$$$$
562416
  Marvin  02231216192D 0   1.00000     0.00000     0

 24 27  0  0  0  0  0  0  0  0999 V2000
    6.9133   -4.5029    0.0000 Cl  0  0  0  0  0  0  0  0  0
    6.7687   -3.6906    0.0000 C   0  0  0  0  0  0  0  0  0
    5.9930   -3.4097    0.0000 C   0  0  0  0  0  0  0  0  0
    5.8485   -2.5974    0.0000 C   0  0  0  0  0  0  0  0  0
    5.0728   -2.3165    0.0000 N   0  0  0  0  0  0  0  0  0
    4.3896   -2.7789    0.0000 C   0  0  0  0  0  0  0  0  0
    3.7387   -2.2720    0.0000 C   0  0  0  0  0  0  0  0  0
    4.0196   -1.4963    0.0000 N   0  0  0  0  0  0  0  0  0
    3.5572   -0.8131    0.0000 C   0  0  0  0  0  0  0  0  0
    3.9177   -0.0710    0.0000 C   0  0  0  0  0  0  0  0  0
    3.4553    0.6122    0.0000 N   0  0  0  0  0  0  0  0  0
    3.2464    1.4532    0.0000 C   0  0  0  0  0  0  0  0  0
    2.4415    1.8079    0.0000 C   0  0  0  0  0  0  0  0  0
    2.4026    2.6154    0.0000 C   0  0  0  0  0  0  0  0  0
    2.0503    1.9588    0.0000 C   0  0  0  0  0  0  0  0  0
    2.0941    0.9865    0.0000 C   0  0  0  0  0  0  0  0  0
    1.5299    0.5829    0.0000 C   0  0  0  0  0  0  0  0  0
    1.7003    1.4070    0.0000 C   0  0  0  0  0  0  0  0  0
    2.8816    1.0255    0.0000 C   0  0  0  0  0  0  0  0  0
    4.8442   -1.5238    0.0000 C   0  0  0  0  0  0  0  0  0
    5.3511   -0.8729    0.0000 O   0  0  0  0  0  0  0  0  0
    6.4796   -2.0661    0.0000 C   0  0  0  0  0  0  0  0  0
    7.2553   -2.3471    0.0000 C   0  0  0  0  0  0  0  0  0
    7.3999   -3.1593    0.0000 C   0  0  0  0  0  0  0  0  0
  1  2  1  0  0  0  0
  2  3  4  0  0  0  0
  2 24  4  0  0  0  0
  3  4  4  0  0  0  0
  4  5  1  0  0  0  0
  4 22  4  0  0  0  0
  5  6  1  0  0  0  0
  5 20  1  0  0  0  0
  6  7  1  0  0  0  0
  7  8  1  0  0  0  0
  8  9  1  0  0  0  0
  8 20  1  0  0  0  0
  9 10  1  0  0  0  0
 10 11  1  0  0  0  0
 11 12  1  0  0  0  0
 11 19  1  0  0  0  0
 12 13  1  0  0  0  0
 13 14  1  0  0  0  0
 13 18  1  0  0  0  0
 14 15  1  0  0  0  0
 15 16  1  0  0  0  0
 16 17  1  0  0  0  0
 16 19  1  0  0  0  0
 17 18  1  0  0  0  0
 20 21  2  0  0  0  0
 22 23  4  0  0  0  0
 23 24  4  0  0  0  0
M  END
>  <Name_Molregno>
562416

>  <DOPAMINE D2>
7.6

>  <DOPAMINE D3>
8.5

$$$$
562434
  Marvin  02231216192D 0   1.00000     0.00000     0

 24 26  0  0  0  0  0  0  0  0999 V2000
   -8.5711   -1.7571    0.0000 Cl  0  0  0  0  0  0  0  0  0
   -7.7506   -1.6709    0.0000 C   0  0  0  0  0  0  0  0  0
   -7.4150   -0.9172    0.0000 C   0  0  0  0  0  0  0  0  0
   -6.5946   -0.8310    0.0000 C   0  0  0  0  0  0  0  0  0
   -6.2590   -0.0773    0.0000 N   0  0  0  0  0  0  0  0  0
   -6.6715    0.6372    0.0000 C   0  0  0  0  0  0  0  0  0
   -6.1195    1.2503    0.0000 C   0  0  0  0  0  0  0  0  0
   -5.3658    0.9147    0.0000 N   0  0  0  0  0  0  0  0  0
   -4.6513    1.3272    0.0000 C   0  0  0  0  0  0  0  0  0
   -3.9369    0.9147    0.0000 C   0  0  0  0  0  0  0  0  0
   -3.2224    1.3272    0.0000 N   0  0  0  0  0  0  0  0  0
   -2.5079    0.9147    0.0000 C   0  0  0  0  0  0  0  0  0
   -1.7934    1.3272    0.0000 C   0  0  0  0  0  0  0  0  0
   -1.7072    2.1477    0.0000 O   0  0  0  0  0  0  0  0  0
   -0.9002    2.3192    0.0000 N   0  0  0  0  0  0  0  0  0
   -0.4877    1.6047    0.0000 C   0  0  0  0  0  0  0  0  0
   -1.0398    0.9917    0.0000 C   0  0  0  0  0  0  0  0  0
    0.3327    1.5185    0.0000 C   0  0  0  0  0  0  0  0  0
   -3.2224    2.1522    0.0000 C   0  0  0  0  0  0  0  0  0
   -5.4520    0.0942    0.0000 C   0  0  0  0  0  0  0  0  0
   -4.8389   -0.4578    0.0000 O   0  0  0  0  0  0  0  0  0
   -6.1096   -1.4984    0.0000 C   0  0  0  0  0  0  0  0  0
   -6.4452   -2.2521    0.0000 C   0  0  0  0  0  0  0  0  0
   -7.2657   -2.3383    0.0000 C   0  0  0  0  0  0  0  0  0
  1  2  1  0  0  0  0
  2  3  4  0  0  0  0
  2 24  4  0  0  0  0
  3  4  4  0  0  0  0
  4  5  1  0  0  0  0
  4 22  4  0  0  0  0
  5  6  1  0  0  0  0
  5 20  1  0  0  0  0
  6  7  1  0  0  0  0
  7  8  1  0  0  0  0
  8  9  1  0  0  0  0
  8 20  1  0  0  0  0
  9 10  1  0  0  0  0
 10 11  1  0  0  0  0
 11 12  1  0  0  0  0
 11 19  1  0  0  0  0
 12 13  1  0  0  0  0
 13 14  4  0  0  0  0
 13 17  4  0  0  0  0
 14 15  4  0  0  0  0
 15 16  4  0  0  0  0
 16 17  4  0  0  0  0
 16 18  1  0  0  0  0
 20 21  2  0  0  0  0
 22 23  4  0  0  0  0
 23 24  4  0  0  0  0
M  END
>  <Name_Molregno>
562434

>  <DOPAMINE D2>
6.8

>  <DOPAMINE D3>
6.9

$$$$
563638
  Marvin  02231216192D 0   1.00000     0.00000     0

 25 28  0  0  0  0  0  0  0  0999 V2000
   -0.0873   -0.5446    0.0000 Cl  0  0  0  0  0  0  0  0  0
    0.6664   -0.8802    0.0000 C   0  0  0  0  0  0  0  0  0
    1.3338   -0.3952    0.0000 C   0  0  0  0  0  0  0  0  0
    2.0875   -0.7308    0.0000 C   0  0  0  0  0  0  0  0  0
    2.7549   -0.2459    0.0000 N   0  0  0  0  0  0  0  0  0
    2.7549    0.5791    0.0000 C   0  0  0  0  0  0  0  0  0
    3.5395    0.8341    0.0000 C   0  0  0  0  0  0  0  0  0
    4.0245    0.1666    0.0000 N   0  0  0  0  0  0  0  0  0
    4.8495    0.1666    0.0000 C   0  0  0  0  0  0  0  0  0
    5.2620    0.8811    0.0000 C   0  0  0  0  0  0  0  0  0
    6.0870    0.8811    0.0000 N   0  0  0  0  0  0  0  0  0
    6.5719    0.2137    0.0000 C   0  0  0  0  0  0  0  0  0
    7.3565    0.4686    0.0000 C   0  0  0  0  0  0  0  0  0
    7.3565    1.2936    0.0000 C   0  0  0  0  0  0  0  0  0
    6.5719    1.5485    0.0000 C   0  0  0  0  0  0  0  0  0
    8.0710    1.7061    0.0000 C   0  0  0  0  0  0  0  0  0
    8.7854    1.2936    0.0000 C   0  0  0  0  0  0  0  0  0
    8.7854    0.4686    0.0000 C   0  0  0  0  0  0  0  0  0
    8.0710    0.0561    0.0000 C   0  0  0  0  0  0  0  0  0
    3.5395   -0.5008    0.0000 C   0  0  0  0  0  0  0  0  0
    3.7945   -1.2854    0.0000 O   0  0  0  0  0  0  0  0  0
    2.1737   -1.5513    0.0000 C   0  0  0  0  0  0  0  0  0
    1.5063   -2.0362    0.0000 C   0  0  0  0  0  0  0  0  0
    0.7526   -1.7006    0.0000 C   0  0  0  0  0  0  0  0  0
    0.0852   -2.1856    0.0000 Cl  0  0  0  0  0  0  0  0  0
  1  2  1  0  0  0  0
  2  3  4  0  0  0  0
  2 24  4  0  0  0  0
  3  4  4  0  0  0  0
  4  5  1  0  0  0  0
  4 22  4  0  0  0  0
  5  6  1  0  0  0  0
  5 20  1  0  0  0  0
  6  7  1  0  0  0  0
  7  8  1  0  0  0  0
  8  9  1  0  0  0  0
  8 20  1  0  0  0  0
  9 10  1  0  0  0  0
 10 11  1  0  0  0  0
 11 12  1  0  0  0  0
 11 15  1  0  0  0  0
 12 13  1  0  0  0  0
 13 14  4  0  0  0  0
 13 19  4  0  0  0  0
 14 15  1  0  0  0  0
 14 16  4  0  0  0  0
 16 17  4  0  0  0  0
 17 18  4  0  0  0  0
 18 19  4  0  0  0  0
 20 21  2  0  0  0  0
 22 23  4  0  0  0  0
 23 24  4  0  0  0  0
 24 25  1  0  0  0  0
M  END
>  <Name_Molregno>
563638

>  <DOPAMINE D2>
6.6

>  <DOPAMINE D3>
7.9

$$$$
563659
  Marvin  02231216192D 0   1.00000     0.00000     0

 25 28  0  0  0  0  0  0  0  0999 V2000
    1.1003    1.9294    0.0000 Cl  0  0  0  0  0  0  0  0  0
    1.1865    1.1089    0.0000 C   0  0  0  0  0  0  0  0  0
    1.9402    0.7734    0.0000 C   0  0  0  0  0  0  0  0  0
    2.0264   -0.0471    0.0000 C   0  0  0  0  0  0  0  0  0
    1.3590   -0.5320    0.0000 C   0  0  0  0  0  0  0  0  0
    0.6053   -0.1965    0.0000 C   0  0  0  0  0  0  0  0  0
    0.5191    0.6240    0.0000 C   0  0  0  0  0  0  0  0  0
    2.7801   -0.3827    0.0000 C   0  0  0  0  0  0  0  0  0
    3.4475    0.1023    0.0000 N   0  0  0  0  0  0  0  0  0
    3.4475    0.9273    0.0000 C   0  0  0  0  0  0  0  0  0
    4.2321    1.1822    0.0000 C   0  0  0  0  0  0  0  0  0
    4.7171    0.5148    0.0000 N   0  0  0  0  0  0  0  0  0
    5.5421    0.5148    0.0000 C   0  0  0  0  0  0  0  0  0
    5.9546    1.2292    0.0000 C   0  0  0  0  0  0  0  0  0
    6.7796    1.2292    0.0000 N   0  0  0  0  0  0  0  0  0
    7.2645    0.5618    0.0000 C   0  0  0  0  0  0  0  0  0
    8.0491    0.8167    0.0000 C   0  0  0  0  0  0  0  0  0
    8.0491    1.6417    0.0000 C   0  0  0  0  0  0  0  0  0
    7.2645    1.8967    0.0000 C   0  0  0  0  0  0  0  0  0
    8.7636    2.0542    0.0000 C   0  0  0  0  0  0  0  0  0
    9.4780    1.6417    0.0000 C   0  0  0  0  0  0  0  0  0
    9.4780    0.8167    0.0000 C   0  0  0  0  0  0  0  0  0
    8.7636    0.4042    0.0000 C   0  0  0  0  0  0  0  0  0
    4.2321   -0.1527    0.0000 C   0  0  0  0  0  0  0  0  0
    4.4871   -0.9373    0.0000 O   0  0  0  0  0  0  0  0  0
  1  2  1  0  0  0  0
  2  3  4  0  0  0  0
  2  7  4  0  0  0  0
  3  4  4  0  0  0  0
  4  5  4  0  0  0  0
  4  8  1  0  0  0  0
  5  6  4  0  0  0  0
  6  7  4  0  0  0  0
  8  9  1  0  0  0  0
  9 10  1  0  0  0  0
  9 24  1  0  0  0  0
 10 11  1  0  0  0  0
 11 12  1  0  0  0  0
 12 13  1  0  0  0  0
 12 24  1  0  0  0  0
 13 14  1  0  0  0  0
 14 15  1  0  0  0  0
 15 16  1  0  0  0  0
 15 19  1  0  0  0  0
 16 17  1  0  0  0  0
 17 18  4  0  0  0  0
 17 23  4  0  0  0  0
 18 19  1  0  0  0  0
 18 20  4  0  0  0  0
 20 21  4  0  0  0  0
 21 22  4  0  0  0  0
 22 23  4  0  0  0  0
 24 25  2  0  0  0  0
M  END
>  <Name_Molregno>
563659

>  <DOPAMINE D2>
6.3

>  <DOPAMINE D3>
6.9

$$$$
563679
  Marvin  02231216192D 0   1.00000     0.00000     0

 22 24  0  0  0  0  0  0  0  0999 V2000
    6.0808    3.7077    0.0000 Cl  0  0  0  0  0  0  0  0  0
    5.3663    3.2952    0.0000 C   0  0  0  0  0  0  0  0  0
    5.3663    2.4702    0.0000 C   0  0  0  0  0  0  0  0  0
    4.6518    2.0577    0.0000 C   0  0  0  0  0  0  0  0  0
    4.6518    1.2327    0.0000 N   0  0  0  0  0  0  0  0  0
    5.3193    0.7478    0.0000 C   0  0  0  0  0  0  0  0  0
    5.0643   -0.0368    0.0000 C   0  0  0  0  0  0  0  0  0
    4.2393   -0.0368    0.0000 N   0  0  0  0  0  0  0  0  0
    3.7544   -0.7043    0.0000 C   0  0  0  0  0  0  0  0  0
    4.0900   -1.4579    0.0000 C   0  0  0  0  0  0  0  0  0
    3.6050   -2.1254    0.0000 N   0  0  0  0  0  0  0  0  0
    3.9406   -2.8791    0.0000 C   0  0  0  0  0  0  0  0  0
    3.4557   -3.5465    0.0000 C   0  0  0  0  0  0  0  0  0
    2.6352   -3.4603    0.0000 C   0  0  0  0  0  0  0  0  0
    2.2996   -2.7066    0.0000 C   0  0  0  0  0  0  0  0  0
    2.7846   -2.0391    0.0000 C   0  0  0  0  0  0  0  0  0
    2.1503   -4.1277    0.0000 C   0  0  0  0  0  0  0  0  0
    3.9844    0.7478    0.0000 C   0  0  0  0  0  0  0  0  0
    3.1998    1.0027    0.0000 O   0  0  0  0  0  0  0  0  0
    3.9374    2.4702    0.0000 C   0  0  0  0  0  0  0  0  0
    3.9374    3.2952    0.0000 C   0  0  0  0  0  0  0  0  0
    4.6518    3.7077    0.0000 C   0  0  0  0  0  0  0  0  0
  1  2  1  0  0  0  0
  2  3  4  0  0  0  0
  2 22  4  0  0  0  0
  3  4  4  0  0  0  0
  4  5  1  0  0  0  0
  4 20  4  0  0  0  0
  5  6  1  0  0  0  0
  5 18  1  0  0  0  0
  6  7  1  0  0  0  0
  7  8  1  0  0  0  0
  8  9  1  0  0  0  0
  8 18  1  0  0  0  0
  9 10  1  0  0  0  0
 10 11  1  0  0  0  0
 11 12  1  0  0  0  0
 11 16  1  0  0  0  0
 12 13  1  0  0  0  0
 13 14  1  0  0  0  0
 14 15  1  0  0  0  0
 14 17  1  0  0  0  0
 15 16  1  0  0  0  0
 18 19  2  0  0  0  0
 20 21  4  0  0  0  0
 21 22  4  0  0  0  0
M  END
>  <Name_Molregno>
563679

>  <DOPAMINE D2>
7.8

>  <DOPAMINE D3>
8.6

$$$$
563680
  Marvin  02231216192D 0   1.00000     0.00000     0

 25 27  0  0  0  0  0  0  0  0999 V2000
   -2.9936    4.3071    0.0000 F   0  0  0  0  0  0  0  0  0
   -2.9936    3.4821    0.0000 C   0  0  0  0  0  0  0  0  0
   -3.8186    3.4821    0.0000 F   0  0  0  0  0  0  0  0  0
   -2.1686    3.4821    0.0000 F   0  0  0  0  0  0  0  0  0
   -2.9936    2.6571    0.0000 C   0  0  0  0  0  0  0  0  0
   -2.2792    2.2446    0.0000 C   0  0  0  0  0  0  0  0  0
   -2.2792    1.4196    0.0000 C   0  0  0  0  0  0  0  0  0
   -2.9936    1.0071    0.0000 N   0  0  0  0  0  0  0  0  0
   -3.7081    1.4196    0.0000 C   0  0  0  0  0  0  0  0  0
   -3.7081    2.2446    0.0000 C   0  0  0  0  0  0  0  0  0
   -2.9936    0.1821    0.0000 C   0  0  0  0  0  0  0  0  0
   -3.7081   -0.2304    0.0000 C   0  0  0  0  0  0  0  0  0
   -3.7081   -1.0554    0.0000 N   0  0  0  0  0  0  0  0  0
   -3.0407   -1.5404    0.0000 C   0  0  0  0  0  0  0  0  0
   -3.2956   -2.3250    0.0000 C   0  0  0  0  0  0  0  0  0
   -4.1206   -2.3250    0.0000 N   0  0  0  0  0  0  0  0  0
   -4.6055   -2.9924    0.0000 C   0  0  0  0  0  0  0  0  0
   -4.2700   -3.7461    0.0000 C   0  0  0  0  0  0  0  0  0
   -4.7549   -4.4135    0.0000 C   0  0  0  0  0  0  0  0  0
   -4.4193   -5.1672    0.0000 O   0  0  0  0  0  0  0  0  0
   -5.5754   -4.3273    0.0000 C   0  0  0  0  0  0  0  0  0
   -5.9109   -3.5736    0.0000 C   0  0  0  0  0  0  0  0  0
   -5.4260   -2.9062    0.0000 C   0  0  0  0  0  0  0  0  0
   -4.3755   -1.5404    0.0000 C   0  0  0  0  0  0  0  0  0
   -5.1602   -1.2854    0.0000 O   0  0  0  0  0  0  0  0  0
  1  2  1  0  0  0  0
  2  3  1  0  0  0  0
  2  4  1  0  0  0  0
  2  5  1  0  0  0  0
  5  6  1  0  0  0  0
  5 10  1  0  0  0  0
  6  7  1  0  0  0  0
  7  8  1  0  0  0  0
  8  9  1  0  0  0  0
  8 11  1  0  0  0  0
  9 10  1  0  0  0  0
 11 12  1  0  0  0  0
 12 13  1  0  0  0  0
 13 14  1  0  0  0  0
 13 24  1  0  0  0  0
 14 15  1  0  0  0  0
 15 16  1  0  0  0  0
 16 17  1  0  0  0  0
 16 24  1  0  0  0  0
 17 18  4  0  0  0  0
 17 23  4  0  0  0  0
 18 19  4  0  0  0  0
 19 20  1  0  0  0  0
 19 21  4  0  0  0  0
 21 22  4  0  0  0  0
 22 23  4  0  0  0  0
 24 25  2  0  0  0  0
M  END
>  <Name_Molregno>
563680

>  <DOPAMINE D2>
7.4

>  <DOPAMINE D3>
8.9

$$$$
563691
  Marvin  02231216192D 0   1.00000     0.00000     0

 27 29  0  0  0  0  0  0  0  0999 V2000
    5.4799    5.3517    0.0000 F   0  0  0  0  0  0  0  0  0
    5.4799    4.5267    0.0000 C   0  0  0  0  0  0  0  0  0
    6.1943    4.1142    0.0000 C   0  0  0  0  0  0  0  0  0
    6.1943    3.2892    0.0000 C   0  0  0  0  0  0  0  0  0
    5.4799    2.8767    0.0000 C   0  0  0  0  0  0  0  0  0
    5.4799    2.0517    0.0000 N   0  0  0  0  0  0  0  0  0
    6.1473    1.5667    0.0000 C   0  0  0  0  0  0  0  0  0
    5.8924    0.7821    0.0000 C   0  0  0  0  0  0  0  0  0
    5.0674    0.7821    0.0000 N   0  0  0  0  0  0  0  0  0
    4.5824    0.1147    0.0000 C   0  0  0  0  0  0  0  0  0
    4.9180   -0.6390    0.0000 C   0  0  0  0  0  0  0  0  0
    4.4331   -1.3064    0.0000 N   0  0  0  0  0  0  0  0  0
    4.7686   -2.0601    0.0000 C   0  0  0  0  0  0  0  0  0
    4.2837   -2.7275    0.0000 C   0  0  0  0  0  0  0  0  0
    3.4632   -2.6413    0.0000 C   0  0  0  0  0  0  0  0  0
    3.1277   -1.8876    0.0000 C   0  0  0  0  0  0  0  0  0
    3.6126   -1.2202    0.0000 C   0  0  0  0  0  0  0  0  0
    2.9783   -3.3087    0.0000 C   0  0  0  0  0  0  0  0  0
    2.4934   -3.9762    0.0000 F   0  0  0  0  0  0  0  0  0
    2.3109   -2.8238    0.0000 F   0  0  0  0  0  0  0  0  0
    3.6457   -3.7937    0.0000 F   0  0  0  0  0  0  0  0  0
    4.8124    1.5667    0.0000 C   0  0  0  0  0  0  0  0  0
    4.0278    1.8217    0.0000 O   0  0  0  0  0  0  0  0  0
    4.7654    3.2892    0.0000 C   0  0  0  0  0  0  0  0  0
    4.7654    4.1142    0.0000 C   0  0  0  0  0  0  0  0  0
    4.0509    4.5267    0.0000 C   0  0  0  0  0  0  0  0  0
    3.3364    4.9392    0.0000 N   0  0  0  0  0  0  0  0  0
  1  2  1  0  0  0  0
  2  3  4  0  0  0  0
  2 25  4  0  0  0  0
  3  4  4  0  0  0  0
  4  5  4  0  0  0  0
  5  6  1  0  0  0  0
  5 24  4  0  0  0  0
  6  7  1  0  0  0  0
  6 22  1  0  0  0  0
  7  8  1  0  0  0  0
  8  9  1  0  0  0  0
  9 10  1  0  0  0  0
  9 22  1  0  0  0  0
 10 11  1  0  0  0  0
 11 12  1  0  0  0  0
 12 13  1  0  0  0  0
 12 17  1  0  0  0  0
 13 14  1  0  0  0  0
 14 15  1  0  0  0  0
 15 16  1  0  0  0  0
 15 18  1  0  0  0  0
 16 17  1  0  0  0  0
 18 19  1  0  0  0  0
 18 20  1  0  0  0  0
 18 21  1  0  0  0  0
 22 23  2  0  0  0  0
 24 25  4  0  0  0  0
 25 26  1  0  0  0  0
 26 27  3  0  0  0  0
M  END
>  <Name_Molregno>
563691

>  <DOPAMINE D2>
6

>  <DOPAMINE D3>
8.1

$$$$
563700
  Marvin  02231216192D 0   1.00000     0.00000     0

 28 30  0  0  0  0  0  0  0  0999 V2000
   -2.8219    4.0119    0.0000 F   0  0  0  0  0  0  0  0  0
   -2.8219    3.1869    0.0000 C   0  0  0  0  0  0  0  0  0
   -3.6469    3.1869    0.0000 F   0  0  0  0  0  0  0  0  0
   -1.9969    3.1869    0.0000 F   0  0  0  0  0  0  0  0  0
   -2.8219    2.3619    0.0000 O   0  0  0  0  0  0  0  0  0
   -3.5364    1.9494    0.0000 C   0  0  0  0  0  0  0  0  0
   -3.5364    1.1244    0.0000 C   0  0  0  0  0  0  0  0  0
   -4.2508    0.7119    0.0000 C   0  0  0  0  0  0  0  0  0
   -4.2508   -0.1131    0.0000 N   0  0  0  0  0  0  0  0  0
   -3.5834   -0.5980    0.0000 C   0  0  0  0  0  0  0  0  0
   -3.8383   -1.3826    0.0000 C   0  0  0  0  0  0  0  0  0
   -4.6633   -1.3826    0.0000 N   0  0  0  0  0  0  0  0  0
   -5.1483   -2.0501    0.0000 C   0  0  0  0  0  0  0  0  0
   -4.8127   -2.8038    0.0000 C   0  0  0  0  0  0  0  0  0
   -5.2976   -3.4712    0.0000 N   0  0  0  0  0  0  0  0  0
   -4.9621   -4.2249    0.0000 C   0  0  0  0  0  0  0  0  0
   -5.4470   -4.8923    0.0000 C   0  0  0  0  0  0  0  0  0
   -6.2675   -4.8061    0.0000 N   0  0  0  0  0  0  0  0  0
   -6.6030   -4.0524    0.0000 C   0  0  0  0  0  0  0  0  0
   -6.1181   -3.3850    0.0000 C   0  0  0  0  0  0  0  0  0
   -6.7524   -5.4735    0.0000 C   0  0  0  0  0  0  0  0  0
   -6.4168   -6.2272    0.0000 C   0  0  0  0  0  0  0  0  0
   -7.5729   -5.3873    0.0000 C   0  0  0  0  0  0  0  0  0
   -4.9183   -0.5980    0.0000 C   0  0  0  0  0  0  0  0  0
   -5.7029   -0.3431    0.0000 O   0  0  0  0  0  0  0  0  0
   -4.9653    1.1244    0.0000 C   0  0  0  0  0  0  0  0  0
   -4.9653    1.9494    0.0000 C   0  0  0  0  0  0  0  0  0
   -4.2508    2.3619    0.0000 C   0  0  0  0  0  0  0  0  0
  1  2  1  0  0  0  0
  2  3  1  0  0  0  0
  2  4  1  0  0  0  0
  2  5  1  0  0  0  0
  5  6  1  0  0  0  0
  6  7  4  0  0  0  0
  6 28  4  0  0  0  0
  7  8  4  0  0  0  0
  8  9  1  0  0  0  0
  8 26  4  0  0  0  0
  9 10  1  0  0  0  0
  9 24  1  0  0  0  0
 10 11  1  0  0  0  0
 11 12  1  0  0  0  0
 12 13  1  0  0  0  0
 12 24  1  0  0  0  0
 13 14  1  0  0  0  0
 14 15  1  0  0  0  0
 15 16  1  0  0  0  0
 15 20  1  0  0  0  0
 16 17  1  0  0  0  0
 17 18  1  0  0  0  0
 18 19  1  0  0  0  0
 18 21  1  0  0  0  0
 19 20  1  0  0  0  0
 21 22  1  0  0  0  0
 21 23  1  0  0  0  0
 24 25  2  0  0  0  0
 26 27  4  0  0  0  0
 27 28  4  0  0  0  0
M  END
>  <Name_Molregno>
563700

>  <DOPAMINE D2>
6.6

>  <DOPAMINE D3>
8.5

$$$$
563761
  Marvin  02231216192D 0   1.00000     0.00000     0

 27 30  0  0  0  0  0  0  0  0999 V2000
   -9.1483   -0.0034    0.0000 F   0  0  0  0  0  0  0  0  0
   -8.3946   -0.3390    0.0000 C   0  0  0  0  0  0  0  0  0
   -8.7302   -1.0927    0.0000 F   0  0  0  0  0  0  0  0  0
   -8.0590    0.4147    0.0000 F   0  0  0  0  0  0  0  0  0
   -7.6409   -0.6745    0.0000 C   0  0  0  0  0  0  0  0  0
   -6.9735   -0.1896    0.0000 C   0  0  0  0  0  0  0  0  0
   -6.2198   -0.5252    0.0000 C   0  0  0  0  0  0  0  0  0
   -5.5524   -0.0403    0.0000 N   0  0  0  0  0  0  0  0  0
   -5.5524    0.7847    0.0000 C   0  0  0  0  0  0  0  0  0
   -4.7677    1.0397    0.0000 C   0  0  0  0  0  0  0  0  0
   -4.2828    0.3722    0.0000 N   0  0  0  0  0  0  0  0  0
   -3.4578    0.3722    0.0000 C   0  0  0  0  0  0  0  0  0
   -3.0453    1.0867    0.0000 C   0  0  0  0  0  0  0  0  0
   -2.2203    1.0867    0.0000 N   0  0  0  0  0  0  0  0  0
   -1.7354    0.4193    0.0000 C   0  0  0  0  0  0  0  0  0
   -0.9508    0.6742    0.0000 C   0  0  0  0  0  0  0  0  0
   -0.9508    1.4992    0.0000 C   0  0  0  0  0  0  0  0  0
   -1.7354    1.7542    0.0000 C   0  0  0  0  0  0  0  0  0
   -0.2363    1.9117    0.0000 C   0  0  0  0  0  0  0  0  0
    0.4782    1.4992    0.0000 C   0  0  0  0  0  0  0  0  0
    0.4782    0.6742    0.0000 C   0  0  0  0  0  0  0  0  0
   -0.2363    0.2617    0.0000 C   0  0  0  0  0  0  0  0  0
   -4.7677   -0.2952    0.0000 C   0  0  0  0  0  0  0  0  0
   -4.5128   -1.0798    0.0000 O   0  0  0  0  0  0  0  0  0
   -6.1336   -1.3457    0.0000 C   0  0  0  0  0  0  0  0  0
   -6.8010   -1.8306    0.0000 C   0  0  0  0  0  0  0  0  0
   -7.5547   -1.4950    0.0000 C   0  0  0  0  0  0  0  0  0
  1  2  1  0  0  0  0
  2  3  1  0  0  0  0
  2  4  1  0  0  0  0
  2  5  1  0  0  0  0
  5  6  4  0  0  0  0
  5 27  4  0  0  0  0
  6  7  4  0  0  0  0
  7  8  1  0  0  0  0
  7 25  4  0  0  0  0
  8  9  1  0  0  0  0
  8 23  1  0  0  0  0
  9 10  1  0  0  0  0
 10 11  1  0  0  0  0
 11 12  1  0  0  0  0
 11 23  1  0  0  0  0
 12 13  1  0  0  0  0
 13 14  1  0  0  0  0
 14 15  1  0  0  0  0
 14 18  1  0  0  0  0
 15 16  1  0  0  0  0
 16 17  4  0  0  0  0
 16 22  4  0  0  0  0
 17 18  1  0  0  0  0
 17 19  4  0  0  0  0
 19 20  4  0  0  0  0
 20 21  4  0  0  0  0
 21 22  4  0  0  0  0
 23 24  2  0  0  0  0
 25 26  4  0  0  0  0
 26 27  4  0  0  0  0
M  END
>  <Name_Molregno>
563761

>  <DOPAMINE D2>
7.3

>  <DOPAMINE D3>
8.6

$$$$
563978
  Marvin  02231216192D 0   1.00000     0.00000     0

 26 29  0  0  0  0  0  0  0  0999 V2000
    0.0819   -0.9290    0.0000 O   0  0  0  0  0  0  0  0  0
   -0.1731   -1.7136    0.0000 C   0  0  0  0  0  0  0  0  0
    0.8889   -0.7575    0.0000 C   0  0  0  0  0  0  0  0  0
    1.1438    0.0272    0.0000 C   0  0  0  0  0  0  0  0  0
    1.9508    0.1987    0.0000 C   0  0  0  0  0  0  0  0  0
    2.5028   -0.4144    0.0000 C   0  0  0  0  0  0  0  0  0
    3.3098   -0.2429    0.0000 N   0  0  0  0  0  0  0  0  0
    3.5647    0.5417    0.0000 C   0  0  0  0  0  0  0  0  0
    4.3717    0.7133    0.0000 C   0  0  0  0  0  0  0  0  0
    4.9237    0.1002    0.0000 N   0  0  0  0  0  0  0  0  0
    4.6688   -0.6845    0.0000 C   0  0  0  0  0  0  0  0  0
    3.8618   -0.8560    0.0000 C   0  0  0  0  0  0  0  0  0
    5.7307    0.2717    0.0000 C   0  0  0  0  0  0  0  0  0
    5.9856    1.0563    0.0000 C   0  0  0  0  0  0  0  0  0
    6.7703    1.3113    0.0000 N   0  0  0  0  0  0  0  0  0
    6.7703    2.1363    0.0000 C   0  0  0  0  0  0  0  0  0
    5.9856    2.3912    0.0000 N   0  0  0  0  0  0  0  0  0
    5.5007    1.7238    0.0000 C   0  0  0  0  0  0  0  0  0
    4.6757    1.7238    0.0000 C   0  0  0  0  0  0  0  0  0
    7.4847    2.5488    0.0000 C   0  0  0  0  0  0  0  0  0
    8.1992    2.1363    0.0000 C   0  0  0  0  0  0  0  0  0
    8.1992    1.3113    0.0000 N   0  0  0  0  0  0  0  0  0
    7.4847    0.8988    0.0000 C   0  0  0  0  0  0  0  0  0
    8.9137    2.5488    0.0000 C   0  0  0  0  0  0  0  0  0
    2.2479   -1.1990    0.0000 C   0  0  0  0  0  0  0  0  0
    1.4409   -1.3706    0.0000 C   0  0  0  0  0  0  0  0  0
  1  2  1  0  0  0  0
  1  3  1  0  0  0  0
  3  4  4  0  0  0  0
  3 26  4  0  0  0  0
  4  5  4  0  0  0  0
  5  6  4  0  0  0  0
  6  7  1  0  0  0  0
  6 25  4  0  0  0  0
  7  8  1  0  0  0  0
  7 12  1  0  0  0  0
  8  9  1  0  0  0  0
  9 10  1  0  0  0  0
 10 11  1  0  0  0  0
 10 13  1  0  0  0  0
 11 12  1  0  0  0  0
 13 14  1  0  0  0  0
 14 15  4  0  0  0  0
 14 18  4  0  0  0  0
 15 16  4  0  0  0  0
 15 23  4  0  0  0  0
 16 17  4  0  0  0  0
 16 20  4  0  0  0  0
 17 18  4  0  0  0  0
 18 19  1  0  0  0  0
 20 21  4  0  0  0  0
 21 22  4  0  0  0  0
 21 24  1  0  0  0  0
 22 23  4  0  0  0  0
 25 26  4  0  0  0  0
M  END
>  <Name_Molregno>
563978

>  <DOPAMINE D2>
4.99

>  <DOPAMINE D3>
4.94

$$$$
564021
  Marvin  02231216192D 0   1.00000     0.00000     0

 26 29  0  0  0  0  0  0  0  0999 V2000
    0.0857   -1.0270    0.0000 Cl  0  0  0  0  0  0  0  0  0
    0.8927   -0.8555    0.0000 C   0  0  0  0  0  0  0  0  0
    1.1476   -0.0709    0.0000 C   0  0  0  0  0  0  0  0  0
    1.9546    0.1007    0.0000 C   0  0  0  0  0  0  0  0  0
    2.5066   -0.5124    0.0000 C   0  0  0  0  0  0  0  0  0
    3.3136   -0.3409    0.0000 N   0  0  0  0  0  0  0  0  0
    3.5686    0.4437    0.0000 C   0  0  0  0  0  0  0  0  0
    4.3755    0.6152    0.0000 C   0  0  0  0  0  0  0  0  0
    4.9276    0.0021    0.0000 N   0  0  0  0  0  0  0  0  0
    4.6726   -0.7825    0.0000 C   0  0  0  0  0  0  0  0  0
    3.8656   -0.9540    0.0000 C   0  0  0  0  0  0  0  0  0
    5.7345    0.1737    0.0000 C   0  0  0  0  0  0  0  0  0
    5.9895    0.9583    0.0000 C   0  0  0  0  0  0  0  0  0
    6.7741    1.2132    0.0000 N   0  0  0  0  0  0  0  0  0
    6.7741    2.0382    0.0000 C   0  0  0  0  0  0  0  0  0
    5.9895    2.2932    0.0000 N   0  0  0  0  0  0  0  0  0
    5.5045    1.6257    0.0000 C   0  0  0  0  0  0  0  0  0
    4.6795    1.6257    0.0000 C   0  0  0  0  0  0  0  0  0
    7.4886    2.4507    0.0000 C   0  0  0  0  0  0  0  0  0
    8.2030    2.0382    0.0000 C   0  0  0  0  0  0  0  0  0
    8.2030    1.2132    0.0000 N   0  0  0  0  0  0  0  0  0
    7.4886    0.8007    0.0000 C   0  0  0  0  0  0  0  0  0
    7.4886   -0.0243    0.0000 C   0  0  0  0  0  0  0  0  0
    8.9175    2.4507    0.0000 C   0  0  0  0  0  0  0  0  0
    2.2517   -1.2971    0.0000 C   0  0  0  0  0  0  0  0  0
    1.4447   -1.4686    0.0000 C   0  0  0  0  0  0  0  0  0
  1  2  1  0  0  0  0
  2  3  4  0  0  0  0
  2 26  4  0  0  0  0
  3  4  4  0  0  0  0
  4  5  4  0  0  0  0
  5  6  1  0  0  0  0
  5 25  4  0  0  0  0
  6  7  1  0  0  0  0
  6 11  1  0  0  0  0
  7  8  1  0  0  0  0
  8  9  1  0  0  0  0
  9 10  1  0  0  0  0
  9 12  1  0  0  0  0
 10 11  1  0  0  0  0
 12 13  1  0  0  0  0
 13 14  4  0  0  0  0
 13 17  4  0  0  0  0
 14 15  4  0  0  0  0
 14 22  4  0  0  0  0
 15 16  4  0  0  0  0
 15 19  4  0  0  0  0
 16 17  4  0  0  0  0
 17 18  1  0  0  0  0
 19 20  4  0  0  0  0
 20 21  4  0  0  0  0
 20 24  1  0  0  0  0
 21 22  4  0  0  0  0
 22 23  1  0  0  0  0
 25 26  4  0  0  0  0
M  END
>  <Name_Molregno>
564021

>  <DOPAMINE D2>
4.71

>  <DOPAMINE D3>
5.51

$$$$
564087
  Marvin  02231216192D 0   1.00000     0.00000     0

 26 29  0  0  1  0  0  0  0  0999 V2000
   -6.2335    3.4775    0.0000 Cl  0  0  0  0  0  0  0  0  0
   -6.3969    2.6688    0.0000 C   0  0  0  0  0  0  0  0  0
   -5.7782    2.1230    0.0000 C   0  0  0  0  0  0  0  0  0
   -5.9416    1.3144    0.0000 C   0  0  0  0  0  0  0  0  0
   -5.3230    0.7686    0.0000 N   0  0  0  0  0  0  0  0  0
   -4.5178    0.9482    0.0000 C   0  0  0  0  0  0  0  0  0
   -4.0981    0.2380    0.0000 C   0  0  0  0  0  0  0  0  0
   -4.6439   -0.3807    0.0000 N   0  0  0  0  0  0  0  0  0
   -4.4642   -1.1859    0.0000 C   0  0  0  0  0  0  0  0  0
   -3.6770   -1.4329    0.0000 C   0  0  0  0  0  0  0  0  0
   -3.0696   -0.8747    0.0000 N   0  0  0  0  0  0  0  0  0
   -2.4493   -0.4978    0.0000 C   0  0  0  0  0  0  0  0  0
   -2.1288    0.2108    0.0000 C   0  0  0  0  0  0  0  0  0
   -1.2000    0.2263    0.0000 C   0  0  0  0  0  0  0  0  0
   -1.0618   -0.5911    0.0000 C   0  0  0  0  0  0  0  0  0
   -1.5780   -0.1624    0.0000 C   0  0  0  0  0  0  0  0  0
   -2.5497   -0.1624    0.0000 C   0  0  0  0  0  0  0  0  0
   -2.6894    0.6507    0.0000 C   0  0  0  0  0  0  0  0  0
   -0.3012   -0.9108    0.0000 C   0  0  0  0  0  0  0  0  0
   -1.1667   -1.4094    0.0000 C   0  0  0  0  0  0  0  0  0
   -2.3466    1.0066    0.0000 C   0  0  0  0  0  0  0  0  0
   -5.4009   -0.0528    0.0000 C   0  0  0  0  0  0  0  0  0
   -6.1112   -0.4725    0.0000 O   0  0  0  0  0  0  0  0  0
   -6.7236    1.0515    0.0000 C   0  0  0  0  0  0  0  0  0
   -7.3422    1.5973    0.0000 C   0  0  0  0  0  0  0  0  0
   -7.1789    2.4060    0.0000 C   0  0  0  0  0  0  0  0  0
  1  2  1  0  0  0  0
  2  3  4  0  0  0  0
  2 26  4  0  0  0  0
  3  4  4  0  0  0  0
  4  5  1  0  0  0  0
  4 24  4  0  0  0  0
  5  6  1  0  0  0  0
  5 22  1  0  0  0  0
  6  7  1  0  0  0  0
  7  8  1  0  0  0  0
  8  9  1  0  0  0  0
  8 22  1  0  0  0  0
  9 10  1  0  0  0  0
 10 11  1  0  0  0  0
 11 12  1  0  0  0  0
 11 17  1  0  0  0  0
 12 13  1  0  0  0  0
 13 14  1  0  0  0  0
 13 18  1  0  0  0  0
 13 21  1  0  0  0  0
 14 15  1  0  0  0  0
 15 16  1  0  0  0  0
 15 19  1  0  0  0  0
 15 20  1  0  0  0  0
 16 17  1  0  0  0  0
 17 18  1  0  0  0  0
 22 23  2  0  0  0  0
 24 25  4  0  0  0  0
 25 26  4  0  0  0  0
M  END
>  <Name_Molregno>
564087

>  <DOPAMINE D2>
7

>  <DOPAMINE D3>
7.9

$$$$
564088
  Marvin  02231216192D 0   1.00000     0.00000     0

 30 34  0  0  1  0  0  0  0  0999 V2000
    1.3577    2.6414    0.0000 Cl  0  0  0  0  0  0  0  0  0
    1.1944    1.8327    0.0000 C   0  0  0  0  0  0  0  0  0
    1.8130    1.2869    0.0000 C   0  0  0  0  0  0  0  0  0
    1.6497    0.4782    0.0000 C   0  0  0  0  0  0  0  0  0
    2.2683   -0.0676    0.0000 N   0  0  0  0  0  0  0  0  0
    3.0735    0.1121    0.0000 C   0  0  0  0  0  0  0  0  0
    3.4932   -0.5982    0.0000 C   0  0  0  0  0  0  0  0  0
    2.9474   -1.2168    0.0000 N   0  0  0  0  0  0  0  0  0
    3.1271   -2.0220    0.0000 C   0  0  0  0  0  0  0  0  0
    3.9142   -2.2690    0.0000 C   0  0  0  0  0  0  0  0  0
    4.5217   -1.7108    0.0000 N   0  0  0  0  0  0  0  0  0
    5.1420   -1.3339    0.0000 C   0  0  0  0  0  0  0  0  0
    5.4625   -0.6253    0.0000 C   0  0  0  0  0  0  0  0  0
    6.3913   -0.6098    0.0000 C   0  0  0  0  0  0  0  0  0
    6.5295   -1.4272    0.0000 C   0  0  0  0  0  0  0  0  0
    6.0133   -0.9985    0.0000 C   0  0  0  0  0  0  0  0  0
    5.0416   -0.9985    0.0000 C   0  0  0  0  0  0  0  0  0
    4.9019   -0.1854    0.0000 C   0  0  0  0  0  0  0  0  0
    6.9413   -2.1421    0.0000 C   0  0  0  0  0  0  0  0  0
    7.7663   -2.1429    0.0000 C   0  0  0  0  0  0  0  0  0
    8.1781   -2.8578    0.0000 C   0  0  0  0  0  0  0  0  0
    7.7649   -3.5718    0.0000 C   0  0  0  0  0  0  0  0  0
    6.9399   -3.5710    0.0000 C   0  0  0  0  0  0  0  0  0
    6.5281   -2.8561    0.0000 C   0  0  0  0  0  0  0  0  0
    5.2447    0.1704    0.0000 C   0  0  0  0  0  0  0  0  0
    2.1904   -0.8889    0.0000 C   0  0  0  0  0  0  0  0  0
    1.4801   -1.3086    0.0000 O   0  0  0  0  0  0  0  0  0
    0.8677    0.2154    0.0000 C   0  0  0  0  0  0  0  0  0
    0.2490    0.7612    0.0000 C   0  0  0  0  0  0  0  0  0
    0.4124    1.5699    0.0000 C   0  0  0  0  0  0  0  0  0
  1  2  1  0  0  0  0
  2  3  4  0  0  0  0
  2 30  4  0  0  0  0
  3  4  4  0  0  0  0
  4  5  1  0  0  0  0
  4 28  4  0  0  0  0
  5  6  1  0  0  0  0
  5 26  1  0  0  0  0
  6  7  1  0  0  0  0
  7  8  1  0  0  0  0
  8  9  1  0  0  0  0
  8 26  1  0  0  0  0
  9 10  1  0  0  0  0
 10 11  1  0  0  0  0
 11 12  1  0  0  0  0
 11 17  1  0  0  0  0
 12 13  1  0  0  0  0
 13 14  1  0  0  0  0
 13 18  1  0  0  0  0
 13 25  1  0  0  0  0
 14 15  1  0  0  0  0
 15 16  1  0  0  0  0
 15 19  1  0  0  0  0
 16 17  1  0  0  0  0
 17 18  1  0  0  0  0
 19 20  4  0  0  0  0
 19 24  4  0  0  0  0
 20 21  4  0  0  0  0
 21 22  4  0  0  0  0
 22 23  4  0  0  0  0
 23 24  4  0  0  0  0
 26 27  2  0  0  0  0
 28 29  4  0  0  0  0
 29 30  4  0  0  0  0
M  END
>  <Name_Molregno>
564088

>  <DOPAMINE D2>
7.8

>  <DOPAMINE D3>
7.7

$$$$
564110
  Marvin  02231216192D 0   1.00000     0.00000     0

 29 31  0  0  0  0  0  0  0  0999 V2000
    0.2111   -0.8726    0.0000 Cl  0  0  0  0  0  0  0  0  0
    1.0316   -0.7864    0.0000 C   0  0  0  0  0  0  0  0  0
    1.3672   -0.0327    0.0000 C   0  0  0  0  0  0  0  0  0
    2.1877    0.0535    0.0000 C   0  0  0  0  0  0  0  0  0
    2.5232    0.8072    0.0000 N   0  0  0  0  0  0  0  0  0
    2.1107    1.5217    0.0000 C   0  0  0  0  0  0  0  0  0
    2.6627    2.1348    0.0000 C   0  0  0  0  0  0  0  0  0
    3.4164    1.7992    0.0000 N   0  0  0  0  0  0  0  0  0
    4.1309    2.2117    0.0000 C   0  0  0  0  0  0  0  0  0
    4.8454    1.7992    0.0000 C   0  0  0  0  0  0  0  0  0
    5.5598    2.2117    0.0000 N   0  0  0  0  0  0  0  0  0
    6.2743    1.7992    0.0000 C   0  0  0  0  0  0  0  0  0
    6.9888    2.2117    0.0000 C   0  0  0  0  0  0  0  0  0
    7.7032    1.7992    0.0000 C   0  0  0  0  0  0  0  0  0
    8.4177    2.2117    0.0000 C   0  0  0  0  0  0  0  0  0
    9.1322    1.7992    0.0000 C   0  0  0  0  0  0  0  0  0
    9.8467    2.2117    0.0000 O   0  0  0  0  0  0  0  0  0
   10.5611    1.7992    0.0000 C   0  0  0  0  0  0  0  0  0
    9.1322    0.9742    0.0000 C   0  0  0  0  0  0  0  0  0
    9.8467    0.5617    0.0000 O   0  0  0  0  0  0  0  0  0
   10.5611    0.9742    0.0000 C   0  0  0  0  0  0  0  0  0
    8.4177    0.5617    0.0000 C   0  0  0  0  0  0  0  0  0
    7.7032    0.9742    0.0000 C   0  0  0  0  0  0  0  0  0
    5.5598    3.0367    0.0000 C   0  0  0  0  0  0  0  0  0
    3.3302    0.9787    0.0000 C   0  0  0  0  0  0  0  0  0
    3.9433    0.4267    0.0000 O   0  0  0  0  0  0  0  0  0
    2.6726   -0.6139    0.0000 C   0  0  0  0  0  0  0  0  0
    2.3370   -1.3676    0.0000 C   0  0  0  0  0  0  0  0  0
    1.5165   -1.4538    0.0000 C   0  0  0  0  0  0  0  0  0
  1  2  1  0  0  0  0
  2  3  4  0  0  0  0
  2 29  4  0  0  0  0
  3  4  4  0  0  0  0
  4  5  1  0  0  0  0
  4 27  4  0  0  0  0
  5  6  1  0  0  0  0
  5 25  1  0  0  0  0
  6  7  1  0  0  0  0
  7  8  1  0  0  0  0
  8  9  1  0  0  0  0
  8 25  1  0  0  0  0
  9 10  1  0  0  0  0
 10 11  1  0  0  0  0
 11 12  1  0  0  0  0
 11 24  1  0  0  0  0
 12 13  1  0  0  0  0
 13 14  1  0  0  0  0
 14 15  4  0  0  0  0
 14 23  4  0  0  0  0
 15 16  4  0  0  0  0
 16 17  1  0  0  0  0
 16 19  4  0  0  0  0
 17 18  1  0  0  0  0
 19 20  1  0  0  0  0
 19 22  4  0  0  0  0
 20 21  1  0  0  0  0
 22 23  4  0  0  0  0
 25 26  2  0  0  0  0
 27 28  4  0  0  0  0
 28 29  4  0  0  0  0
M  END
>  <Name_Molregno>
564110

>  <DOPAMINE D2>
7

>  <DOPAMINE D3>
6.9

$$$$
564120
  Marvin  02231216192D 0   1.00000     0.00000     0

 27 30  0  0  0  0  0  0  0  0999 V2000
   -0.0694   -1.2630    0.0000 Cl  0  0  0  0  0  0  0  0  0
    0.6843   -1.5985    0.0000 C   0  0  0  0  0  0  0  0  0
    1.3517   -1.1136    0.0000 C   0  0  0  0  0  0  0  0  0
    2.1054   -1.4492    0.0000 C   0  0  0  0  0  0  0  0  0
    2.7728   -0.9642    0.0000 N   0  0  0  0  0  0  0  0  0
    2.7728   -0.1392    0.0000 C   0  0  0  0  0  0  0  0  0
    3.5574    0.1157    0.0000 C   0  0  0  0  0  0  0  0  0
    4.0424   -0.5517    0.0000 N   0  0  0  0  0  0  0  0  0
    4.8674   -0.5517    0.0000 C   0  0  0  0  0  0  0  0  0
    5.2799    0.1627    0.0000 C   0  0  0  0  0  0  0  0  0
    6.1049    0.1627    0.0000 N   0  0  0  0  0  0  0  0  0
    6.5174    0.8772    0.0000 C   0  0  0  0  0  0  0  0  0
    7.3424    0.8772    0.0000 C   0  0  0  0  0  0  0  0  0
    7.8273    0.2098    0.0000 S   0  0  0  0  0  0  0  0  0
    8.6119    0.4647    0.0000 C   0  0  0  0  0  0  0  0  0
    8.6119    1.2897    0.0000 C   0  0  0  0  0  0  0  0  0
    7.8273    1.5446    0.0000 C   0  0  0  0  0  0  0  0  0
    9.3264    1.7022    0.0000 C   0  0  0  0  0  0  0  0  0
   10.0408    1.2897    0.0000 C   0  0  0  0  0  0  0  0  0
   10.0408    0.4647    0.0000 C   0  0  0  0  0  0  0  0  0
    9.3264    0.0522    0.0000 C   0  0  0  0  0  0  0  0  0
    6.5174   -0.5517    0.0000 C   0  0  0  0  0  0  0  0  0
    3.5574   -1.2192    0.0000 C   0  0  0  0  0  0  0  0  0
    3.8124   -2.0038    0.0000 O   0  0  0  0  0  0  0  0  0
    2.1916   -2.2696    0.0000 C   0  0  0  0  0  0  0  0  0
    1.5242   -2.7546    0.0000 C   0  0  0  0  0  0  0  0  0
    0.7705   -2.4190    0.0000 C   0  0  0  0  0  0  0  0  0
  1  2  1  0  0  0  0
  2  3  4  0  0  0  0
  2 27  4  0  0  0  0
  3  4  4  0  0  0  0
  4  5  1  0  0  0  0
  4 25  4  0  0  0  0
  5  6  1  0  0  0  0
  5 23  1  0  0  0  0
  6  7  1  0  0  0  0
  7  8  1  0  0  0  0
  8  9  1  0  0  0  0
  8 23  1  0  0  0  0
  9 10  1  0  0  0  0
 10 11  1  0  0  0  0
 11 12  1  0  0  0  0
 11 22  1  0  0  0  0
 12 13  1  0  0  0  0
 13 14  4  0  0  0  0
 13 17  4  0  0  0  0
 14 15  4  0  0  0  0
 15 16  4  0  0  0  0
 15 21  4  0  0  0  0
 16 17  4  0  0  0  0
 16 18  4  0  0  0  0
 18 19  4  0  0  0  0
 19 20  4  0  0  0  0
 20 21  4  0  0  0  0
 23 24  2  0  0  0  0
 25 26  4  0  0  0  0
 26 27  4  0  0  0  0
M  END
>  <Name_Molregno>
564120

>  <DOPAMINE D2>
7.3

>  <DOPAMINE D3>
7.5

$$$$
565343
  Marvin  02231216192D 0   1.00000     0.00000     0

 34 39  0  0  1  0  0  0  0  0999 V2000
    0.1810   -1.2147    0.0000 O   0  0  0  0  0  0  0  0  0
    0.1810   -2.0397    0.0000 C   0  0  0  0  0  0  0  0  0
   -0.5335   -2.4522    0.0000 C   0  0  0  0  0  0  0  0  0
   -0.5335   -3.2772    0.0000 C   0  0  0  0  0  0  0  0  0
   -1.2480   -3.6897    0.0000 N   0  0  0  0  0  0  0  0  0
   -1.9624   -3.2772    0.0000 C   0  0  0  0  0  0  0  0  0
   -1.9624   -2.4522    0.0000 C   0  0  0  0  0  0  0  0  0
   -1.2480   -2.0397    0.0000 C   0  0  0  0  0  0  0  0  0
   -2.6769   -3.6897    0.0000 C   0  0  0  0  0  0  0  0  0
    0.1810   -3.6897    0.0000 C   0  0  0  0  0  0  0  0  0
    0.8954   -3.2772    0.0000 C   0  0  0  0  0  0  0  0  0
    0.8954   -2.4522    0.0000 C   0  0  0  0  0  0  0  0  0
    1.6099   -2.0397    0.0000 O   0  0  0  0  0  0  0  0  0
    1.6099   -1.2147    0.0000 C   0  0  0  0  0  0  0  0  0
    0.8954   -0.8022    0.0000 C   0  0  0  0  0  0  0  0  0
    0.8954    0.0228    0.0000 C   0  0  0  0  0  0  0  0  0
    1.6099    0.4353    0.0000 N   0  0  0  0  0  0  0  0  0
    1.6099    1.2603    0.0000 C   0  0  0  0  0  0  0  0  0
    2.3244    1.6728    0.0000 C   0  0  0  0  0  0  0  0  0
    3.0389    1.2603    0.0000 N   0  0  0  0  0  0  0  0  0
    3.0389    0.4353    0.0000 C   0  0  0  0  0  0  0  0  0
    2.3244    0.0228    0.0000 C   0  0  0  0  0  0  0  0  0
    3.7533    1.6728    0.0000 C   0  0  0  0  0  0  0  0  0
    4.4678    1.2603    0.0000 N   0  0  0  0  0  0  0  0  0
    5.1823    1.6728    0.0000 C   0  0  0  0  0  0  0  0  0
    5.1823    2.4978    0.0000 C   0  0  0  0  0  0  0  0  0
    5.8967    2.9103    0.0000 C   0  0  0  0  0  0  0  0  0
    6.6112    2.4978    0.0000 C   0  0  0  0  0  0  0  0  0
    6.6112    1.6728    0.0000 C   0  0  0  0  0  0  0  0  0
    5.8967    1.2603    0.0000 C   0  0  0  0  0  0  0  0  0
    7.3257    2.9103    0.0000 C   0  0  0  0  0  0  0  0  0
    8.0401    3.3228    0.0000 N   0  0  0  0  0  0  0  0  0
    4.4678    2.9103    0.0000 C   0  0  0  0  0  0  0  0  0
    3.7533    2.4978    0.0000 C   0  0  0  0  0  0  0  0  0
  1  2  1  0  0  0  0
  1 15  1  0  0  0  0
  2  3  4  0  0  0  0
  2 12  4  0  0  0  0
  3  4  4  0  0  0  0
  3  8  4  0  0  0  0
  4  5  4  0  0  0  0
  4 10  4  0  0  0  0
  5  6  4  0  0  0  0
  6  7  4  0  0  0  0
  6  9  1  0  0  0  0
  7  8  4  0  0  0  0
 10 11  4  0  0  0  0
 11 12  4  0  0  0  0
 12 13  1  0  0  0  0
 13 14  1  0  0  0  0
 14 15  1  0  0  0  0
 15 16  1  0  0  0  0
 16 17  1  0  0  0  0
 17 18  1  0  0  0  0
 17 22  1  0  0  0  0
 18 19  1  0  0  0  0
 19 20  1  0  0  0  0
 20 21  1  0  0  0  0
 20 23  1  0  0  0  0
 21 22  1  0  0  0  0
 23 24  4  0  0  0  0
 23 34  4  0  0  0  0
 24 25  4  0  0  0  0
 25 26  4  0  0  0  0
 25 30  4  0  0  0  0
 26 27  4  0  0  0  0
 26 33  4  0  0  0  0
 27 28  4  0  0  0  0
 28 29  4  0  0  0  0
 28 31  1  0  0  0  0
 29 30  4  0  0  0  0
 31 32  3  0  0  0  0
 33 34  4  0  0  0  0
M  END
>  <Name_Molregno>
565343

>  <5-HT1A>
8.43

>  <DOPAMINE D2>
5.88

>  <DOPAMINE D3>
5.88

>  <DOPAMINE D4>
5.85

$$$$
565492
  Marvin  02231216192D 0   1.00000     0.00000     0

 29 33  0  0  0  0  0  0  0  0999 V2000
   -0.8522   -1.2919    0.0000 O   0  0  0  0  0  0  0  0  0
   -0.2391   -0.7399    0.0000 C   0  0  0  0  0  0  0  0  0
   -0.3254    0.0806    0.0000 N   0  0  0  0  0  0  0  0  0
    0.4283    0.4162    0.0000 C   0  0  0  0  0  0  0  0  0
    0.9803   -0.1969    0.0000 C   0  0  0  0  0  0  0  0  0
    0.5678   -0.9114    0.0000 N   0  0  0  0  0  0  0  0  0
    0.9034   -1.6651    0.0000 C   0  0  0  0  0  0  0  0  0
    1.7239   -1.7513    0.0000 C   0  0  0  0  0  0  0  0  0
    2.0594   -2.5050    0.0000 N   0  0  0  0  0  0  0  0  0
    1.6469   -3.2195    0.0000 C   0  0  0  0  0  0  0  0  0
    2.1990   -3.8325    0.0000 C   0  0  0  0  0  0  0  0  0
    2.9526   -3.4970    0.0000 C   0  0  0  0  0  0  0  0  0
    2.8664   -2.6765    0.0000 C   0  0  0  0  0  0  0  0  0
    3.6201   -3.9819    0.0000 C   0  0  0  0  0  0  0  0  0
    3.5338   -4.8024    0.0000 C   0  0  0  0  0  0  0  0  0
    2.7802   -5.1380    0.0000 C   0  0  0  0  0  0  0  0  0
    2.1127   -4.6530    0.0000 C   0  0  0  0  0  0  0  0  0
   -1.0399    0.4931    0.0000 C   0  0  0  0  0  0  0  0  0
   -1.7543    0.0806    0.0000 C   0  0  0  0  0  0  0  0  0
   -2.4688    0.4931    0.0000 C   0  0  0  0  0  0  0  0  0
   -2.4688    1.3181    0.0000 C   0  0  0  0  0  0  0  0  0
   -3.2534    1.5731    0.0000 N   0  0  0  0  0  0  0  0  0
   -3.7383    0.9056    0.0000 C   0  0  0  0  0  0  0  0  0
   -3.2534    0.2382    0.0000 C   0  0  0  0  0  0  0  0  0
   -3.5084    2.3577    0.0000 C   0  0  0  0  0  0  0  0  0
   -4.3153    2.5292    0.0000 O   0  0  0  0  0  0  0  0  0
   -2.9563    2.9708    0.0000 C   0  0  0  0  0  0  0  0  0
   -1.7543    1.7306    0.0000 C   0  0  0  0  0  0  0  0  0
   -1.0399    1.3181    0.0000 C   0  0  0  0  0  0  0  0  0
  1  2  2  0  0  0  0
  2  3  1  0  0  0  0
  2  6  1  0  0  0  0
  3  4  1  0  0  0  0
  3 18  1  0  0  0  0
  4  5  1  0  0  0  0
  5  6  1  0  0  0  0
  6  7  1  0  0  0  0
  7  8  1  0  0  0  0
  8  9  1  0  0  0  0
  9 10  1  0  0  0  0
  9 13  1  0  0  0  0
 10 11  1  0  0  0  0
 11 12  4  0  0  0  0
 11 17  4  0  0  0  0
 12 13  1  0  0  0  0
 12 14  4  0  0  0  0
 14 15  4  0  0  0  0
 15 16  4  0  0  0  0
 16 17  4  0  0  0  0
 18 19  4  0  0  0  0
 18 29  4  0  0  0  0
 19 20  4  0  0  0  0
 20 21  4  0  0  0  0
 20 24  4  0  0  0  0
 21 22  4  0  0  0  0
 21 28  4  0  0  0  0
 22 23  4  0  0  0  0
 22 25  1  0  0  0  0
 23 24  4  0  0  0  0
 25 26  2  0  0  0  0
 25 27  1  0  0  0  0
 28 29  4  0  0  0  0
M  END
>  <Name_Molregno>
565492

>  <DOPAMINE D2>
5

>  <DOPAMINE D3>
6.3

$$$$
565493
  Marvin  02231216192D 0   1.00000     0.00000     0

 24 27  0  0  0  0  0  0  0  0999 V2000
   -1.6668   -2.7712    0.0000 O   0  0  0  0  0  0  0  0  0
   -1.9218   -1.9866    0.0000 C   0  0  0  0  0  0  0  0  0
   -2.7064   -1.7317    0.0000 N   0  0  0  0  0  0  0  0  0
   -2.7064   -0.9067    0.0000 C   0  0  0  0  0  0  0  0  0
   -1.9218   -0.6517    0.0000 C   0  0  0  0  0  0  0  0  0
   -1.4368   -1.3192    0.0000 N   0  0  0  0  0  0  0  0  0
   -0.6118   -1.3192    0.0000 C   0  0  0  0  0  0  0  0  0
   -0.1993   -0.6047    0.0000 C   0  0  0  0  0  0  0  0  0
    0.6257   -0.6047    0.0000 N   0  0  0  0  0  0  0  0  0
    1.1106   -1.2721    0.0000 C   0  0  0  0  0  0  0  0  0
    1.8952   -1.0172    0.0000 C   0  0  0  0  0  0  0  0  0
    1.8952   -0.1922    0.0000 C   0  0  0  0  0  0  0  0  0
    1.1106    0.0627    0.0000 C   0  0  0  0  0  0  0  0  0
    2.6097    0.2203    0.0000 C   0  0  0  0  0  0  0  0  0
    3.3241   -0.1922    0.0000 C   0  0  0  0  0  0  0  0  0
    3.3241   -1.0172    0.0000 C   0  0  0  0  0  0  0  0  0
    2.6097   -1.4297    0.0000 C   0  0  0  0  0  0  0  0  0
   -3.3738   -2.2166    0.0000 C   0  0  0  0  0  0  0  0  0
   -4.1275   -1.8810    0.0000 C   0  0  0  0  0  0  0  0  0
   -4.7949   -2.3659    0.0000 C   0  0  0  0  0  0  0  0  0
   -5.5486   -2.0304    0.0000 C   0  0  0  0  0  0  0  0  0
   -5.6349   -1.2099    0.0000 C   0  0  0  0  0  0  0  0  0
   -4.9674   -0.7250    0.0000 C   0  0  0  0  0  0  0  0  0
   -4.2137   -1.0605    0.0000 C   0  0  0  0  0  0  0  0  0
  1  2  2  0  0  0  0
  2  3  1  0  0  0  0
  2  6  1  0  0  0  0
  3  4  1  0  0  0  0
  3 18  1  0  0  0  0
  4  5  1  0  0  0  0
  5  6  1  0  0  0  0
  6  7  1  0  0  0  0
  7  8  1  0  0  0  0
  8  9  1  0  0  0  0
  9 10  1  0  0  0  0
  9 13  1  0  0  0  0
 10 11  1  0  0  0  0
 11 12  4  0  0  0  0
 11 17  4  0  0  0  0
 12 13  1  0  0  0  0
 12 14  4  0  0  0  0
 14 15  4  0  0  0  0
 15 16  4  0  0  0  0
 16 17  4  0  0  0  0
 18 19  1  0  0  0  0
 19 20  4  0  0  0  0
 19 24  4  0  0  0  0
 20 21  4  0  0  0  0
 21 22  4  0  0  0  0
 22 23  4  0  0  0  0
 23 24  4  0  0  0  0
M  END
>  <Name_Molregno>
565493

>  <DOPAMINE D2>
5

>  <DOPAMINE D3>
6.2

$$$$
565501
  Marvin  02231216192D 0   1.00000     0.00000     0

 28 31  0  0  0  0  0  0  0  0999 V2000
   -7.3457    0.5327    0.0000 F   0  0  0  0  0  0  0  0  0
   -7.2594   -0.2878    0.0000 C   0  0  0  0  0  0  0  0  0
   -8.0799   -0.3740    0.0000 F   0  0  0  0  0  0  0  0  0
   -6.4390   -0.2015    0.0000 F   0  0  0  0  0  0  0  0  0
   -7.1732   -1.1082    0.0000 C   0  0  0  0  0  0  0  0  0
   -6.4195   -1.4438    0.0000 C   0  0  0  0  0  0  0  0  0
   -6.3333   -2.2643    0.0000 C   0  0  0  0  0  0  0  0  0
   -7.0007   -2.7492    0.0000 C   0  0  0  0  0  0  0  0  0
   -7.7544   -2.4136    0.0000 C   0  0  0  0  0  0  0  0  0
   -7.8406   -1.5932    0.0000 C   0  0  0  0  0  0  0  0  0
   -5.5796   -2.5998    0.0000 C   0  0  0  0  0  0  0  0  0
   -4.9122   -2.1149    0.0000 N   0  0  0  0  0  0  0  0  0
   -4.9122   -1.2899    0.0000 C   0  0  0  0  0  0  0  0  0
   -4.1276   -1.0350    0.0000 C   0  0  0  0  0  0  0  0  0
   -3.6426   -1.7024    0.0000 N   0  0  0  0  0  0  0  0  0
   -2.8176   -1.7024    0.0000 C   0  0  0  0  0  0  0  0  0
   -2.4051   -0.9879    0.0000 C   0  0  0  0  0  0  0  0  0
   -1.5801   -0.9879    0.0000 N   0  0  0  0  0  0  0  0  0
   -1.0952   -1.6554    0.0000 C   0  0  0  0  0  0  0  0  0
   -0.3106   -1.4004    0.0000 C   0  0  0  0  0  0  0  0  0
   -0.3106   -0.5754    0.0000 C   0  0  0  0  0  0  0  0  0
   -1.0952   -0.3205    0.0000 C   0  0  0  0  0  0  0  0  0
    0.4039   -0.1629    0.0000 C   0  0  0  0  0  0  0  0  0
    1.1184   -0.5754    0.0000 C   0  0  0  0  0  0  0  0  0
    1.1184   -1.4004    0.0000 C   0  0  0  0  0  0  0  0  0
    0.4039   -1.8129    0.0000 C   0  0  0  0  0  0  0  0  0
   -4.1276   -2.3699    0.0000 C   0  0  0  0  0  0  0  0  0
   -3.8726   -3.1545    0.0000 O   0  0  0  0  0  0  0  0  0
  1  2  1  0  0  0  0
  2  3  1  0  0  0  0
  2  4  1  0  0  0  0
  2  5  1  0  0  0  0
  5  6  4  0  0  0  0
  5 10  4  0  0  0  0
  6  7  4  0  0  0  0
  7  8  4  0  0  0  0
  7 11  1  0  0  0  0
  8  9  4  0  0  0  0
  9 10  4  0  0  0  0
 11 12  1  0  0  0  0
 12 13  1  0  0  0  0
 12 27  1  0  0  0  0
 13 14  1  0  0  0  0
 14 15  1  0  0  0  0
 15 16  1  0  0  0  0
 15 27  1  0  0  0  0
 16 17  1  0  0  0  0
 17 18  1  0  0  0  0
 18 19  1  0  0  0  0
 18 22  1  0  0  0  0
 19 20  1  0  0  0  0
 20 21  4  0  0  0  0
 20 26  4  0  0  0  0
 21 22  1  0  0  0  0
 21 23  4  0  0  0  0
 23 24  4  0  0  0  0
 24 25  4  0  0  0  0
 25 26  4  0  0  0  0
 27 28  2  0  0  0  0
M  END
>  <Name_Molregno>
565501

>  <DOPAMINE D2>
6.6

>  <DOPAMINE D3>
7.9

$$$$
565502
  Marvin  02231216192D 0   1.00000     0.00000     0

 26 29  0  0  0  0  0  0  0  0999 V2000
   -7.0007   -1.6360    0.0000 Cl  0  0  0  0  0  0  0  0  0
   -7.0870   -0.8155    0.0000 C   0  0  0  0  0  0  0  0  0
   -7.8407   -0.4799    0.0000 C   0  0  0  0  0  0  0  0  0
   -7.9269    0.3405    0.0000 C   0  0  0  0  0  0  0  0  0
   -7.2594    0.8255    0.0000 C   0  0  0  0  0  0  0  0  0
   -7.3457    1.6459    0.0000 Cl  0  0  0  0  0  0  0  0  0
   -6.5058    0.4899    0.0000 C   0  0  0  0  0  0  0  0  0
   -6.4195   -0.3306    0.0000 C   0  0  0  0  0  0  0  0  0
   -5.6659   -0.6661    0.0000 C   0  0  0  0  0  0  0  0  0
   -4.9984   -0.1812    0.0000 N   0  0  0  0  0  0  0  0  0
   -4.9984    0.6438    0.0000 C   0  0  0  0  0  0  0  0  0
   -4.2138    0.8987    0.0000 C   0  0  0  0  0  0  0  0  0
   -3.7289    0.2313    0.0000 N   0  0  0  0  0  0  0  0  0
   -2.9039    0.2313    0.0000 C   0  0  0  0  0  0  0  0  0
   -2.4914    0.9458    0.0000 C   0  0  0  0  0  0  0  0  0
   -1.6664    0.9458    0.0000 N   0  0  0  0  0  0  0  0  0
   -1.1815    0.2783    0.0000 C   0  0  0  0  0  0  0  0  0
   -0.3968    0.5333    0.0000 C   0  0  0  0  0  0  0  0  0
   -0.3968    1.3583    0.0000 C   0  0  0  0  0  0  0  0  0
   -1.1815    1.6132    0.0000 C   0  0  0  0  0  0  0  0  0
    0.3176    1.7708    0.0000 C   0  0  0  0  0  0  0  0  0
    1.0321    1.3583    0.0000 C   0  0  0  0  0  0  0  0  0
    1.0321    0.5333    0.0000 C   0  0  0  0  0  0  0  0  0
    0.3176    0.1208    0.0000 C   0  0  0  0  0  0  0  0  0
   -4.2138   -0.4361    0.0000 C   0  0  0  0  0  0  0  0  0
   -3.9589   -1.2208    0.0000 O   0  0  0  0  0  0  0  0  0
  1  2  1  0  0  0  0
  2  3  4  0  0  0  0
  2  8  4  0  0  0  0
  3  4  4  0  0  0  0
  4  5  4  0  0  0  0
  5  6  1  0  0  0  0
  5  7  4  0  0  0  0
  7  8  4  0  0  0  0
  8  9  1  0  0  0  0
  9 10  1  0  0  0  0
 10 11  1  0  0  0  0
 10 25  1  0  0  0  0
 11 12  1  0  0  0  0
 12 13  1  0  0  0  0
 13 14  1  0  0  0  0
 13 25  1  0  0  0  0
 14 15  1  0  0  0  0
 15 16  1  0  0  0  0
 16 17  1  0  0  0  0
 16 20  1  0  0  0  0
 17 18  1  0  0  0  0
 18 19  4  0  0  0  0
 18 24  4  0  0  0  0
 19 20  1  0  0  0  0
 19 21  4  0  0  0  0
 21 22  4  0  0  0  0
 22 23  4  0  0  0  0
 23 24  4  0  0  0  0
 25 26  2  0  0  0  0
M  END
>  <Name_Molregno>
565502

>  <DOPAMINE D2>
6.1

>  <DOPAMINE D3>
6.8

$$$$
565514
  Marvin  02231216192D 0   1.00000     0.00000     0

 29 32  0  0  1  0  0  0  0  0999 V2000
   -7.4482    1.7976    0.0000 F   0  0  0  0  0  0  0  0  0
   -7.3620    0.9771    0.0000 C   0  0  0  0  0  0  0  0  0
   -8.1824    0.8909    0.0000 F   0  0  0  0  0  0  0  0  0
   -6.5415    1.0634    0.0000 F   0  0  0  0  0  0  0  0  0
   -7.2757    0.1567    0.0000 C   0  0  0  0  0  0  0  0  0
   -6.5220   -0.1789    0.0000 C   0  0  0  0  0  0  0  0  0
   -6.4358   -0.9994    0.0000 C   0  0  0  0  0  0  0  0  0
   -7.1033   -1.4843    0.0000 C   0  0  0  0  0  0  0  0  0
   -7.8569   -1.1487    0.0000 C   0  0  0  0  0  0  0  0  0
   -7.9432   -0.3283    0.0000 C   0  0  0  0  0  0  0  0  0
   -5.6821   -1.3349    0.0000 C   0  0  0  0  0  0  0  0  0
   -5.0147   -0.8500    0.0000 N   0  0  0  0  0  0  0  0  0
   -5.0147   -0.0250    0.0000 C   0  0  0  0  0  0  0  0  0
   -4.2301    0.2299    0.0000 C   0  0  0  0  0  0  0  0  0
   -3.7452   -0.4375    0.0000 N   0  0  0  0  0  0  0  0  0
   -2.9202   -0.4375    0.0000 C   0  0  0  0  0  0  0  0  0
   -2.5077    0.2770    0.0000 C   0  0  0  0  0  0  0  0  0
   -1.6827    0.2770    0.0000 N   0  0  0  0  0  0  0  0  0
   -1.1977   -0.3905    0.0000 C   0  0  0  0  0  0  0  0  0
   -0.4131   -0.1355    0.0000 C   0  0  0  0  0  0  0  0  0
   -0.4131    0.6895    0.0000 C   0  0  0  0  0  0  0  0  0
   -1.1977    0.9444    0.0000 C   0  0  0  0  0  0  0  0  0
    0.3014    1.1020    0.0000 C   0  0  0  0  0  0  0  0  0
    1.0158    0.6895    0.0000 C   0  0  0  0  0  0  0  0  0
    1.0158   -0.1355    0.0000 C   0  0  0  0  0  0  0  0  0
    0.3014   -0.5480    0.0000 C   0  0  0  0  0  0  0  0  0
   -4.2301   -1.1050    0.0000 C   0  0  0  0  0  0  0  0  0
   -3.9751   -1.8896    0.0000 O   0  0  0  0  0  0  0  0  0
   -5.5959   -2.1554    0.0000 C   0  0  0  0  0  0  0  0  0
  1  2  1  0  0  0  0
  2  3  1  0  0  0  0
  2  4  1  0  0  0  0
  2  5  1  0  0  0  0
  5  6  4  0  0  0  0
  5 10  4  0  0  0  0
  6  7  4  0  0  0  0
  7  8  4  0  0  0  0
  7 11  1  0  0  0  0
  8  9  4  0  0  0  0
  9 10  4  0  0  0  0
 11 12  1  0  0  0  0
 11 29  1  0  0  0  0
 12 13  1  0  0  0  0
 12 27  1  0  0  0  0
 13 14  1  0  0  0  0
 14 15  1  0  0  0  0
 15 16  1  0  0  0  0
 15 27  1  0  0  0  0
 16 17  1  0  0  0  0
 17 18  1  0  0  0  0
 18 19  1  0  0  0  0
 18 22  1  0  0  0  0
 19 20  1  0  0  0  0
 20 21  4  0  0  0  0
 20 26  4  0  0  0  0
 21 22  1  0  0  0  0
 21 23  4  0  0  0  0
 23 24  4  0  0  0  0
 24 25  4  0  0  0  0
 25 26  4  0  0  0  0
 27 28  2  0  0  0  0
M  END
>  <Name_Molregno>
565514

>  <DOPAMINE D2>
5

>  <DOPAMINE D3>
6.3

$$$$
565515
  Marvin  02231216192D 0   1.00000     0.00000     0

 22 24  0  0  1  0  0  0  0  0999 V2000
    5.9760    3.4950    0.0000 Cl  0  0  0  0  0  0  0  0  0
    5.2615    3.0825    0.0000 C   0  0  0  0  0  0  0  0  0
    5.2615    2.2575    0.0000 C   0  0  0  0  0  0  0  0  0
    4.5470    1.8450    0.0000 C   0  0  0  0  0  0  0  0  0
    4.5470    1.0200    0.0000 N   0  0  0  0  0  0  0  0  0
    5.2145    0.5351    0.0000 C   0  0  0  0  0  0  0  0  0
    4.9595   -0.2495    0.0000 C   0  0  0  0  0  0  0  0  0
    4.1345   -0.2495    0.0000 N   0  0  0  0  0  0  0  0  0
    3.6496   -0.9169    0.0000 C   0  0  0  0  0  0  0  0  0
    3.9852   -1.6706    0.0000 C   0  0  0  0  0  0  0  0  0
    3.5003   -2.3381    0.0000 N   0  0  0  0  0  0  0  0  0
    3.8358   -3.0917    0.0000 C   0  0  0  0  0  0  0  0  0
    3.3509   -3.7592    0.0000 C   0  0  0  0  0  0  0  0  0
    2.5304   -3.6729    0.0000 C   0  0  0  0  0  0  0  0  0
    2.1948   -2.9193    0.0000 C   0  0  0  0  0  0  0  0  0
    2.6798   -2.2518    0.0000 C   0  0  0  0  0  0  0  0  0
    3.6864   -4.5128    0.0000 C   0  0  0  0  0  0  0  0  0
    3.8796    0.5351    0.0000 C   0  0  0  0  0  0  0  0  0
    3.0950    0.7901    0.0000 O   0  0  0  0  0  0  0  0  0
    3.8326    2.2575    0.0000 C   0  0  0  0  0  0  0  0  0
    3.8326    3.0825    0.0000 C   0  0  0  0  0  0  0  0  0
    4.5470    3.4950    0.0000 C   0  0  0  0  0  0  0  0  0
  1  2  1  0  0  0  0
  2  3  4  0  0  0  0
  2 22  4  0  0  0  0
  3  4  4  0  0  0  0
  4  5  1  0  0  0  0
  4 20  4  0  0  0  0
  5  6  1  0  0  0  0
  5 18  1  0  0  0  0
  6  7  1  0  0  0  0
  7  8  1  0  0  0  0
  8  9  1  0  0  0  0
  8 18  1  0  0  0  0
  9 10  1  0  0  0  0
 10 11  1  0  0  0  0
 11 12  1  0  0  0  0
 11 16  1  0  0  0  0
 12 13  1  0  0  0  0
 13 14  1  0  0  0  0
 13 17  1  0  0  0  0
 14 15  1  0  0  0  0
 15 16  1  0  0  0  0
 18 19  2  0  0  0  0
 20 21  4  0  0  0  0
 21 22  4  0  0  0  0
M  END
>  <Name_Molregno>
565515

>  <DOPAMINE D2>
7.7

>  <DOPAMINE D3>
8.2

$$$$
565522
  Marvin  02231216192D 0   1.00000     0.00000     0

 26 28  0  0  0  0  0  0  0  0999 V2000
   -3.0925    3.9874    0.0000 F   0  0  0  0  0  0  0  0  0
   -3.0925    3.1624    0.0000 C   0  0  0  0  0  0  0  0  0
   -3.9175    3.1624    0.0000 F   0  0  0  0  0  0  0  0  0
   -2.2675    3.1624    0.0000 F   0  0  0  0  0  0  0  0  0
   -3.0925    2.3374    0.0000 C   0  0  0  0  0  0  0  0  0
   -2.3780    1.9249    0.0000 C   0  0  0  0  0  0  0  0  0
   -2.3780    1.0999    0.0000 C   0  0  0  0  0  0  0  0  0
   -3.0925    0.6874    0.0000 N   0  0  0  0  0  0  0  0  0
   -3.8070    1.0999    0.0000 C   0  0  0  0  0  0  0  0  0
   -3.8070    1.9249    0.0000 C   0  0  0  0  0  0  0  0  0
   -3.0925   -0.1376    0.0000 C   0  0  0  0  0  0  0  0  0
   -3.8070   -0.5501    0.0000 C   0  0  0  0  0  0  0  0  0
   -3.8070   -1.3751    0.0000 N   0  0  0  0  0  0  0  0  0
   -3.1395   -1.8600    0.0000 C   0  0  0  0  0  0  0  0  0
   -3.3945   -2.6446    0.0000 C   0  0  0  0  0  0  0  0  0
   -4.2195   -2.6446    0.0000 N   0  0  0  0  0  0  0  0  0
   -4.7044   -3.3121    0.0000 C   0  0  0  0  0  0  0  0  0
   -4.3689   -4.0657    0.0000 C   0  0  0  0  0  0  0  0  0
   -4.8538   -4.7332    0.0000 C   0  0  0  0  0  0  0  0  0
   -5.6743   -4.6470    0.0000 C   0  0  0  0  0  0  0  0  0
   -6.0098   -3.8933    0.0000 C   0  0  0  0  0  0  0  0  0
   -5.5249   -3.2258    0.0000 C   0  0  0  0  0  0  0  0  0
   -4.5182   -5.4869    0.0000 C   0  0  0  0  0  0  0  0  0
   -4.1827   -6.2405    0.0000 N   0  0  0  0  0  0  0  0  0
   -4.4744   -1.8600    0.0000 C   0  0  0  0  0  0  0  0  0
   -5.2590   -1.6051    0.0000 O   0  0  0  0  0  0  0  0  0
  1  2  1  0  0  0  0
  2  3  1  0  0  0  0
  2  4  1  0  0  0  0
  2  5  1  0  0  0  0
  5  6  1  0  0  0  0
  5 10  1  0  0  0  0
  6  7  1  0  0  0  0
  7  8  1  0  0  0  0
  8  9  1  0  0  0  0
  8 11  1  0  0  0  0
  9 10  1  0  0  0  0
 11 12  1  0  0  0  0
 12 13  1  0  0  0  0
 13 14  1  0  0  0  0
 13 25  1  0  0  0  0
 14 15  1  0  0  0  0
 15 16  1  0  0  0  0
 16 17  1  0  0  0  0
 16 25  1  0  0  0  0
 17 18  4  0  0  0  0
 17 22  4  0  0  0  0
 18 19  4  0  0  0  0
 19 20  4  0  0  0  0
 19 23  1  0  0  0  0
 20 21  4  0  0  0  0
 21 22  4  0  0  0  0
 23 24  3  0  0  0  0
 25 26  2  0  0  0  0
M  END
>  <Name_Molregno>
565522

>  <DOPAMINE D2>
6.87

>  <DOPAMINE D3>
9.07

$$$$
565530
  Marvin  02231216192D 0   1.00000     0.00000     0

 25 27  0  0  0  0  0  0  0  0999 V2000
    0.1579   -0.2778    0.0000 O   0  0  0  0  0  0  0  0  0
    0.1579   -1.1028    0.0000 C   0  0  0  0  0  0  0  0  0
    0.8254   -1.5877    0.0000 N   0  0  0  0  0  0  0  0  0
    0.5704   -2.3723    0.0000 C   0  0  0  0  0  0  0  0  0
   -0.2546   -2.3723    0.0000 C   0  0  0  0  0  0  0  0  0
   -0.5095   -1.5877    0.0000 N   0  0  0  0  0  0  0  0  0
   -1.2941   -1.3328    0.0000 C   0  0  0  0  0  0  0  0  0
   -1.9072   -1.8848    0.0000 C   0  0  0  0  0  0  0  0  0
   -2.6919   -1.6298    0.0000 N   0  0  0  0  0  0  0  0  0
   -3.3049   -2.1819    0.0000 C   0  0  0  0  0  0  0  0  0
   -4.0896   -1.9269    0.0000 C   0  0  0  0  0  0  0  0  0
   -4.2611   -1.1200    0.0000 N   0  0  0  0  0  0  0  0  0
   -3.6480   -0.5679    0.0000 C   0  0  0  0  0  0  0  0  0
   -2.8634   -0.8229    0.0000 C   0  0  0  0  0  0  0  0  0
   -5.0457   -0.8650    0.0000 C   0  0  0  0  0  0  0  0  0
   -5.2172   -0.0581    0.0000 C   0  0  0  0  0  0  0  0  0
   -5.6588   -1.4171    0.0000 C   0  0  0  0  0  0  0  0  0
    1.6100   -1.3328    0.0000 C   0  0  0  0  0  0  0  0  0
    1.7815   -0.5258    0.0000 C   0  0  0  0  0  0  0  0  0
    2.5661   -0.2708    0.0000 C   0  0  0  0  0  0  0  0  0
    3.1792   -0.8229    0.0000 C   0  0  0  0  0  0  0  0  0
    3.0077   -1.6298    0.0000 C   0  0  0  0  0  0  0  0  0
    2.2231   -1.8848    0.0000 C   0  0  0  0  0  0  0  0  0
    2.7377    0.5361    0.0000 C   0  0  0  0  0  0  0  0  0
    2.9092    1.3431    0.0000 N   0  0  0  0  0  0  0  0  0
  1  2  2  0  0  0  0
  2  3  1  0  0  0  0
  2  6  1  0  0  0  0
  3  4  1  0  0  0  0
  3 18  1  0  0  0  0
  4  5  1  0  0  0  0
  5  6  1  0  0  0  0
  6  7  1  0  0  0  0
  7  8  1  0  0  0  0
  8  9  1  0  0  0  0
  9 10  1  0  0  0  0
  9 14  1  0  0  0  0
 10 11  1  0  0  0  0
 11 12  1  0  0  0  0
 12 13  1  0  0  0  0
 12 15  1  0  0  0  0
 13 14  1  0  0  0  0
 15 16  1  0  0  0  0
 15 17  1  0  0  0  0
 18 19  4  0  0  0  0
 18 23  4  0  0  0  0
 19 20  4  0  0  0  0
 20 21  4  0  0  0  0
 20 24  1  0  0  0  0
 21 22  4  0  0  0  0
 22 23  4  0  0  0  0
 24 25  3  0  0  0  0
M  END
>  <Name_Molregno>
565530

>  <DOPAMINE D2>
6.5

>  <DOPAMINE D3>
8.4

$$$$
565531
  Marvin  02231216192D 0   1.00000     0.00000     0

 25 27  0  0  0  0  0  0  0  0999 V2000
    3.8255    4.0331    0.0000 Cl  0  0  0  0  0  0  0  0  0
    4.5400    3.6206    0.0000 C   0  0  0  0  0  0  0  0  0
    5.2545    4.0331    0.0000 C   0  0  0  0  0  0  0  0  0
    5.9690    3.6206    0.0000 C   0  0  0  0  0  0  0  0  0
    5.9690    2.7956    0.0000 C   0  0  0  0  0  0  0  0  0
    5.2545    2.3831    0.0000 C   0  0  0  0  0  0  0  0  0
    5.2545    1.5581    0.0000 N   0  0  0  0  0  0  0  0  0
    5.9219    1.0732    0.0000 C   0  0  0  0  0  0  0  0  0
    5.6670    0.2886    0.0000 C   0  0  0  0  0  0  0  0  0
    4.8420    0.2886    0.0000 N   0  0  0  0  0  0  0  0  0
    4.3571   -0.3789    0.0000 C   0  0  0  0  0  0  0  0  0
    4.6926   -1.1325    0.0000 C   0  0  0  0  0  0  0  0  0
    4.2077   -1.8000    0.0000 N   0  0  0  0  0  0  0  0  0
    4.5433   -2.5536    0.0000 C   0  0  0  0  0  0  0  0  0
    4.0583   -3.2211    0.0000 C   0  0  0  0  0  0  0  0  0
    3.2379   -3.1348    0.0000 N   0  0  0  0  0  0  0  0  0
    2.9023   -2.3812    0.0000 C   0  0  0  0  0  0  0  0  0
    3.3872   -1.7137    0.0000 C   0  0  0  0  0  0  0  0  0
    2.7529   -3.8023    0.0000 C   0  0  0  0  0  0  0  0  0
    3.0885   -4.5560    0.0000 C   0  0  0  0  0  0  0  0  0
    1.9324   -3.7160    0.0000 C   0  0  0  0  0  0  0  0  0
    4.5870    1.0732    0.0000 C   0  0  0  0  0  0  0  0  0
    3.8024    1.3281    0.0000 O   0  0  0  0  0  0  0  0  0
    4.5400    2.7956    0.0000 C   0  0  0  0  0  0  0  0  0
    3.8255    2.3831    0.0000 F   0  0  0  0  0  0  0  0  0
  1  2  1  0  0  0  0
  2  3  4  0  0  0  0
  2 24  4  0  0  0  0
  3  4  4  0  0  0  0
  4  5  4  0  0  0  0
  5  6  4  0  0  0  0
  6  7  1  0  0  0  0
  6 24  4  0  0  0  0
  7  8  1  0  0  0  0
  7 22  1  0  0  0  0
  8  9  1  0  0  0  0
  9 10  1  0  0  0  0
 10 11  1  0  0  0  0
 10 22  1  0  0  0  0
 11 12  1  0  0  0  0
 12 13  1  0  0  0  0
 13 14  1  0  0  0  0
 13 18  1  0  0  0  0
 14 15  1  0  0  0  0
 15 16  1  0  0  0  0
 16 17  1  0  0  0  0
 16 19  1  0  0  0  0
 17 18  1  0  0  0  0
 19 20  1  0  0  0  0
 19 21  1  0  0  0  0
 22 23  2  0  0  0  0
 24 25  1  0  0  0  0
M  END
>  <Name_Molregno>
565531

>  <DOPAMINE D2>
5

>  <DOPAMINE D3>
6.8

$$$$
565536
  Marvin  02231216192D 0   1.00000     0.00000     0

 25 27  0  0  0  0  0  0  0  0999 V2000
   -2.1339    3.9244    0.0000 O   0  0  0  0  0  0  0  0  0
   -2.1339    4.7494    0.0000 C   0  0  0  0  0  0  0  0  0
   -2.8484    3.5119    0.0000 C   0  0  0  0  0  0  0  0  0
   -2.8484    2.6869    0.0000 C   0  0  0  0  0  0  0  0  0
   -3.5628    2.2744    0.0000 C   0  0  0  0  0  0  0  0  0
   -3.5628    1.4494    0.0000 N   0  0  0  0  0  0  0  0  0
   -2.8954    0.9644    0.0000 C   0  0  0  0  0  0  0  0  0
   -3.1503    0.1798    0.0000 C   0  0  0  0  0  0  0  0  0
   -3.9753    0.1798    0.0000 N   0  0  0  0  0  0  0  0  0
   -4.4602   -0.4876    0.0000 C   0  0  0  0  0  0  0  0  0
   -4.1247   -1.2413    0.0000 C   0  0  0  0  0  0  0  0  0
   -4.6096   -1.9087    0.0000 N   0  0  0  0  0  0  0  0  0
   -4.2741   -2.6624    0.0000 C   0  0  0  0  0  0  0  0  0
   -4.7590   -3.3299    0.0000 C   0  0  0  0  0  0  0  0  0
   -5.5795   -3.2436    0.0000 N   0  0  0  0  0  0  0  0  0
   -5.9150   -2.4899    0.0000 C   0  0  0  0  0  0  0  0  0
   -5.4301   -1.8225    0.0000 C   0  0  0  0  0  0  0  0  0
   -6.0644   -3.9111    0.0000 C   0  0  0  0  0  0  0  0  0
   -5.7288   -4.6647    0.0000 C   0  0  0  0  0  0  0  0  0
   -6.8849   -3.8248    0.0000 C   0  0  0  0  0  0  0  0  0
   -4.2303    0.9644    0.0000 C   0  0  0  0  0  0  0  0  0
   -5.0149    1.2194    0.0000 O   0  0  0  0  0  0  0  0  0
   -4.2773    2.6869    0.0000 C   0  0  0  0  0  0  0  0  0
   -4.2773    3.5119    0.0000 C   0  0  0  0  0  0  0  0  0
   -3.5628    3.9244    0.0000 C   0  0  0  0  0  0  0  0  0
  1  2  1  0  0  0  0
  1  3  1  0  0  0  0
  3  4  4  0  0  0  0
  3 25  4  0  0  0  0
  4  5  4  0  0  0  0
  5  6  1  0  0  0  0
  5 23  4  0  0  0  0
  6  7  1  0  0  0  0
  6 21  1  0  0  0  0
  7  8  1  0  0  0  0
  8  9  1  0  0  0  0
  9 10  1  0  0  0  0
  9 21  1  0  0  0  0
 10 11  1  0  0  0  0
 11 12  1  0  0  0  0
 12 13  1  0  0  0  0
 12 17  1  0  0  0  0
 13 14  1  0  0  0  0
 14 15  1  0  0  0  0
 15 16  1  0  0  0  0
 15 18  1  0  0  0  0
 16 17  1  0  0  0  0
 18 19  1  0  0  0  0
 18 20  1  0  0  0  0
 21 22  2  0  0  0  0
 23 24  4  0  0  0  0
 24 25  4  0  0  0  0
M  END
>  <Name_Molregno>
565536

>  <DOPAMINE D2>
5.6

>  <DOPAMINE D3>
6.8

$$$$
565537
  Marvin  02231216192D 0   1.00000     0.00000     0

 22 24  0  0  0  0  0  0  0  0999 V2000
    6.0808    3.7077    0.0000 Cl  0  0  0  0  0  0  0  0  0
    5.3663    3.2952    0.0000 C   0  0  0  0  0  0  0  0  0
    5.3663    2.4702    0.0000 C   0  0  0  0  0  0  0  0  0
    4.6518    2.0577    0.0000 C   0  0  0  0  0  0  0  0  0
    4.6518    1.2327    0.0000 N   0  0  0  0  0  0  0  0  0
    5.3193    0.7478    0.0000 C   0  0  0  0  0  0  0  0  0
    5.0643   -0.0368    0.0000 C   0  0  0  0  0  0  0  0  0
    4.2393   -0.0368    0.0000 N   0  0  0  0  0  0  0  0  0
    3.7544   -0.7043    0.0000 C   0  0  0  0  0  0  0  0  0
    4.0900   -1.4579    0.0000 C   0  0  0  0  0  0  0  0  0
    3.6050   -2.1254    0.0000 N   0  0  0  0  0  0  0  0  0
    3.9406   -2.8791    0.0000 C   0  0  0  0  0  0  0  0  0
    3.4557   -3.5465    0.0000 C   0  0  0  0  0  0  0  0  0
    2.6352   -3.4603    0.0000 N   0  0  0  0  0  0  0  0  0
    2.2996   -2.7066    0.0000 C   0  0  0  0  0  0  0  0  0
    2.7846   -2.0391    0.0000 C   0  0  0  0  0  0  0  0  0
    2.1503   -4.1277    0.0000 C   0  0  0  0  0  0  0  0  0
    3.9844    0.7478    0.0000 C   0  0  0  0  0  0  0  0  0
    3.1998    1.0027    0.0000 O   0  0  0  0  0  0  0  0  0
    3.9374    2.4702    0.0000 C   0  0  0  0  0  0  0  0  0
    3.9374    3.2952    0.0000 C   0  0  0  0  0  0  0  0  0
    4.6518    3.7077    0.0000 C   0  0  0  0  0  0  0  0  0
  1  2  1  0  0  0  0
  2  3  4  0  0  0  0
  2 22  4  0  0  0  0
  3  4  4  0  0  0  0
  4  5  1  0  0  0  0
  4 20  4  0  0  0  0
  5  6  1  0  0  0  0
  5 18  1  0  0  0  0
  6  7  1  0  0  0  0
  7  8  1  0  0  0  0
  8  9  1  0  0  0  0
  8 18  1  0  0  0  0
  9 10  1  0  0  0  0
 10 11  1  0  0  0  0
 11 12  1  0  0  0  0
 11 16  1  0  0  0  0
 12 13  1  0  0  0  0
 13 14  1  0  0  0  0
 14 15  1  0  0  0  0
 14 17  1  0  0  0  0
 15 16  1  0  0  0  0
 18 19  2  0  0  0  0
 20 21  4  0  0  0  0
 21 22  4  0  0  0  0
M  END
>  <Name_Molregno>
565537

>  <DOPAMINE D2>
6.3

>  <DOPAMINE D3>
6.8

$$$$
565770
  Marvin  02231216192D 0   1.00000     0.00000     0

 28 31  0  0  0  0  0  0  0  0999 V2000
   -5.4003   -2.7646    0.0000 O   0  0  0  0  0  0  0  0  0
   -5.6552   -3.5492    0.0000 C   0  0  0  0  0  0  0  0  0
   -5.9523   -2.1515    0.0000 C   0  0  0  0  0  0  0  0  0
   -6.7593   -2.3230    0.0000 C   0  0  0  0  0  0  0  0  0
   -7.3113   -1.7100    0.0000 C   0  0  0  0  0  0  0  0  0
   -7.0564   -0.9253    0.0000 C   0  0  0  0  0  0  0  0  0
   -6.2494   -0.7538    0.0000 C   0  0  0  0  0  0  0  0  0
   -5.6974   -1.3669    0.0000 C   0  0  0  0  0  0  0  0  0
   -4.8904   -1.1954    0.0000 N   0  0  0  0  0  0  0  0  0
   -4.6355   -0.4108    0.0000 C   0  0  0  0  0  0  0  0  0
   -3.8285   -0.2392    0.0000 C   0  0  0  0  0  0  0  0  0
   -3.2765   -0.8523    0.0000 N   0  0  0  0  0  0  0  0  0
   -3.5314   -1.6369    0.0000 C   0  0  0  0  0  0  0  0  0
   -4.3384   -1.8085    0.0000 C   0  0  0  0  0  0  0  0  0
   -2.4695   -0.6808    0.0000 C   0  0  0  0  0  0  0  0  0
   -2.2146    0.1038    0.0000 C   0  0  0  0  0  0  0  0  0
   -1.4299    0.3588    0.0000 C   0  0  0  0  0  0  0  0  0
   -1.4299    1.1838    0.0000 C   0  0  0  0  0  0  0  0  0
   -2.2146    1.4387    0.0000 N   0  0  0  0  0  0  0  0  0
   -2.6995    0.7713    0.0000 C   0  0  0  0  0  0  0  0  0
   -3.5245    0.7713    0.0000 C   0  0  0  0  0  0  0  0  0
   -0.7155    1.5963    0.0000 N   0  0  0  0  0  0  0  0  0
   -0.0010    1.1838    0.0000 C   0  0  0  0  0  0  0  0  0
   -0.0010    0.3588    0.0000 N   0  0  0  0  0  0  0  0  0
   -0.7155   -0.0537    0.0000 C   0  0  0  0  0  0  0  0  0
    0.7135    1.5963    0.0000 N   0  0  0  0  0  0  0  0  0
    0.7135    2.4213    0.0000 C   0  0  0  0  0  0  0  0  0
    1.4279    1.1838    0.0000 C   0  0  0  0  0  0  0  0  0
  1  2  1  0  0  0  0
  1  3  1  0  0  0  0
  3  4  4  0  0  0  0
  3  8  4  0  0  0  0
  4  5  4  0  0  0  0
  5  6  4  0  0  0  0
  6  7  4  0  0  0  0
  7  8  4  0  0  0  0
  8  9  1  0  0  0  0
  9 10  1  0  0  0  0
  9 14  1  0  0  0  0
 10 11  1  0  0  0  0
 11 12  1  0  0  0  0
 12 13  1  0  0  0  0
 12 15  1  0  0  0  0
 13 14  1  0  0  0  0
 15 16  1  0  0  0  0
 16 17  4  0  0  0  0
 16 20  4  0  0  0  0
 17 18  4  0  0  0  0
 17 25  4  0  0  0  0
 18 19  4  0  0  0  0
 18 22  4  0  0  0  0
 19 20  4  0  0  0  0
 20 21  1  0  0  0  0
 22 23  4  0  0  0  0
 23 24  4  0  0  0  0
 23 26  1  0  0  0  0
 24 25  4  0  0  0  0
 26 27  1  0  0  0  0
 26 28  1  0  0  0  0
M  STY  1   1 DAT
M  SAL   1  1  19
M  SDT   1 MRV_IMPLICIT_H                                        
M  SDD   1     0.0000    0.0000    DR    ALL  0       0  
M  SED   1 IMPL_H1
M  END
>  <Name_Molregno>
565770

>  <DOPAMINE D2>
5.57

>  <DOPAMINE D3>
5.21

$$$$
565771
  Marvin  02231216192D 0   1.00000     0.00000     0

 27 30  0  0  0  0  0  0  0  0999 V2000
   -4.8980   -1.8958    0.0000 O   0  0  0  0  0  0  0  0  0
   -5.1529   -2.6804    0.0000 C   0  0  0  0  0  0  0  0  0
   -5.4500   -1.2827    0.0000 C   0  0  0  0  0  0  0  0  0
   -6.2570   -1.4542    0.0000 C   0  0  0  0  0  0  0  0  0
   -6.8090   -0.8411    0.0000 C   0  0  0  0  0  0  0  0  0
   -6.5541   -0.0565    0.0000 C   0  0  0  0  0  0  0  0  0
   -5.7471    0.1150    0.0000 C   0  0  0  0  0  0  0  0  0
   -5.1951   -0.4981    0.0000 C   0  0  0  0  0  0  0  0  0
   -4.3881   -0.3265    0.0000 N   0  0  0  0  0  0  0  0  0
   -4.1332    0.4581    0.0000 C   0  0  0  0  0  0  0  0  0
   -3.3262    0.6296    0.0000 C   0  0  0  0  0  0  0  0  0
   -2.7742    0.0165    0.0000 N   0  0  0  0  0  0  0  0  0
   -3.0291   -0.7681    0.0000 C   0  0  0  0  0  0  0  0  0
   -3.8361   -0.9396    0.0000 C   0  0  0  0  0  0  0  0  0
   -1.9672    0.1880    0.0000 C   0  0  0  0  0  0  0  0  0
   -1.7123    0.9727    0.0000 C   0  0  0  0  0  0  0  0  0
   -0.9276    1.2276    0.0000 N   0  0  0  0  0  0  0  0  0
   -0.9276    2.0526    0.0000 C   0  0  0  0  0  0  0  0  0
   -1.7123    2.3075    0.0000 N   0  0  0  0  0  0  0  0  0
   -2.1972    1.6401    0.0000 C   0  0  0  0  0  0  0  0  0
   -3.0222    1.6401    0.0000 C   0  0  0  0  0  0  0  0  0
   -0.2132    2.4651    0.0000 C   0  0  0  0  0  0  0  0  0
    0.5013    2.0526    0.0000 C   0  0  0  0  0  0  0  0  0
    0.5013    1.2276    0.0000 N   0  0  0  0  0  0  0  0  0
   -0.2132    0.8151    0.0000 C   0  0  0  0  0  0  0  0  0
   -0.2132   -0.0099    0.0000 C   0  0  0  0  0  0  0  0  0
    1.2158    2.4651    0.0000 C   0  0  0  0  0  0  0  0  0
  1  2  1  0  0  0  0
  1  3  1  0  0  0  0
  3  4  4  0  0  0  0
  3  8  4  0  0  0  0
  4  5  4  0  0  0  0
  5  6  4  0  0  0  0
  6  7  4  0  0  0  0
  7  8  4  0  0  0  0
  8  9  1  0  0  0  0
  9 10  1  0  0  0  0
  9 14  1  0  0  0  0
 10 11  1  0  0  0  0
 11 12  1  0  0  0  0
 12 13  1  0  0  0  0
 12 15  1  0  0  0  0
 13 14  1  0  0  0  0
 15 16  1  0  0  0  0
 16 17  4  0  0  0  0
 16 20  4  0  0  0  0
 17 18  4  0  0  0  0
 17 25  4  0  0  0  0
 18 19  4  0  0  0  0
 18 22  4  0  0  0  0
 19 20  4  0  0  0  0
 20 21  1  0  0  0  0
 22 23  4  0  0  0  0
 23 24  4  0  0  0  0
 23 27  1  0  0  0  0
 24 25  4  0  0  0  0
 25 26  1  0  0  0  0
M  END
>  <Name_Molregno>
565771

>  <DOPAMINE D2>
5.59

>  <DOPAMINE D3>
5.47

$$$$
565830
  Marvin  02231216192D 0   1.00000     0.00000     0

 26 29  0  0  0  0  0  0  0  0999 V2000
   -4.3551   -0.5215    0.0000 O   0  0  0  0  0  0  0  0  0
   -4.6100   -1.3061    0.0000 C   0  0  0  0  0  0  0  0  0
   -4.9071    0.0916    0.0000 C   0  0  0  0  0  0  0  0  0
   -5.7141   -0.0799    0.0000 C   0  0  0  0  0  0  0  0  0
   -6.2661    0.5332    0.0000 C   0  0  0  0  0  0  0  0  0
   -6.0112    1.3178    0.0000 C   0  0  0  0  0  0  0  0  0
   -5.2042    1.4893    0.0000 C   0  0  0  0  0  0  0  0  0
   -4.6522    0.8762    0.0000 C   0  0  0  0  0  0  0  0  0
   -3.8452    1.0478    0.0000 N   0  0  0  0  0  0  0  0  0
   -3.5902    1.8324    0.0000 C   0  0  0  0  0  0  0  0  0
   -2.7833    2.0039    0.0000 C   0  0  0  0  0  0  0  0  0
   -2.2312    1.3908    0.0000 N   0  0  0  0  0  0  0  0  0
   -2.4862    0.6062    0.0000 C   0  0  0  0  0  0  0  0  0
   -3.2931    0.4347    0.0000 C   0  0  0  0  0  0  0  0  0
   -1.4243    1.5623    0.0000 C   0  0  0  0  0  0  0  0  0
   -1.1693    2.3470    0.0000 C   0  0  0  0  0  0  0  0  0
   -0.3847    2.6019    0.0000 N   0  0  0  0  0  0  0  0  0
   -0.3847    3.4269    0.0000 C   0  0  0  0  0  0  0  0  0
   -1.1693    3.6818    0.0000 N   0  0  0  0  0  0  0  0  0
   -1.6542    3.0144    0.0000 C   0  0  0  0  0  0  0  0  0
    0.3298    3.8394    0.0000 C   0  0  0  0  0  0  0  0  0
    1.0442    3.4269    0.0000 C   0  0  0  0  0  0  0  0  0
    1.0442    2.6019    0.0000 N   0  0  0  0  0  0  0  0  0
    0.3298    2.1894    0.0000 C   0  0  0  0  0  0  0  0  0
    0.3298    1.3644    0.0000 C   0  0  0  0  0  0  0  0  0
    1.7587    3.8394    0.0000 C   0  0  0  0  0  0  0  0  0
  1  2  1  0  0  0  0
  1  3  1  0  0  0  0
  3  4  4  0  0  0  0
  3  8  4  0  0  0  0
  4  5  4  0  0  0  0
  5  6  4  0  0  0  0
  6  7  4  0  0  0  0
  7  8  4  0  0  0  0
  8  9  1  0  0  0  0
  9 10  1  0  0  0  0
  9 14  1  0  0  0  0
 10 11  1  0  0  0  0
 11 12  1  0  0  0  0
 12 13  1  0  0  0  0
 12 15  1  0  0  0  0
 13 14  1  0  0  0  0
 15 16  1  0  0  0  0
 16 17  4  0  0  0  0
 16 20  4  0  0  0  0
 17 18  4  0  0  0  0
 17 24  4  0  0  0  0
 18 19  4  0  0  0  0
 18 21  4  0  0  0  0
 19 20  4  0  0  0  0
 21 22  4  0  0  0  0
 22 23  4  0  0  0  0
 22 26  1  0  0  0  0
 23 24  4  0  0  0  0
 24 25  1  0  0  0  0
M  END
>  <Name_Molregno>
565830

>  <DOPAMINE D2>
6.06

>  <DOPAMINE D3>
5.82

$$$$
565897
  Marvin  02231216192D 0   1.00000     0.00000     0

 26 29  0  0  1  0  0  0  0  0999 V2000
   -1.4360   -4.3710    0.0000 Cl  0  0  0  0  0  0  0  0  0
   -1.5214   -3.5504    0.0000 C   0  0  0  0  0  0  0  0  0
   -2.2747   -3.2141    0.0000 C   0  0  0  0  0  0  0  0  0
   -2.3602   -2.3936    0.0000 C   0  0  0  0  0  0  0  0  0
   -3.1135   -2.0573    0.0000 N   0  0  0  0  0  0  0  0  0
   -3.8284   -2.4690    0.0000 C   0  0  0  0  0  0  0  0  0
   -4.4409   -1.9164    0.0000 C   0  0  0  0  0  0  0  0  0
   -4.1046   -1.1631    0.0000 N   0  0  0  0  0  0  0  0  0
   -4.5164   -0.4482    0.0000 C   0  0  0  0  0  0  0  0  0
   -5.3414   -0.4474    0.0000 C   0  0  0  0  0  0  0  0  0
   -5.7532    0.2675    0.0000 N   0  0  0  0  0  0  0  0  0
   -6.2694    0.6962    0.0000 C   0  0  0  0  0  0  0  0  0
   -7.2411    0.6962    0.0000 C   0  0  0  0  0  0  0  0  0
   -7.7610   -0.0161    0.0000 C   0  0  0  0  0  0  0  0  0
   -7.1407    0.3608    0.0000 C   0  0  0  0  0  0  0  0  0
   -6.8202    1.0694    0.0000 C   0  0  0  0  0  0  0  0  0
   -5.8914    1.0849    0.0000 C   0  0  0  0  0  0  0  0  0
   -7.3808    1.5093    0.0000 C   0  0  0  0  0  0  0  0  0
   -8.1452    1.8197    0.0000 C   0  0  0  0  0  0  0  0  0
   -7.2907    2.3294    0.0000 C   0  0  0  0  0  0  0  0  0
   -7.8238    1.2802    0.0000 C   0  0  0  0  0  0  0  0  0
   -3.2842   -1.2501    0.0000 C   0  0  0  0  0  0  0  0  0
   -2.7316   -0.6376    0.0000 O   0  0  0  0  0  0  0  0  0
   -1.6922   -1.9093    0.0000 C   0  0  0  0  0  0  0  0  0
   -0.9389   -2.2456    0.0000 C   0  0  0  0  0  0  0  0  0
   -0.8535   -3.0662    0.0000 C   0  0  0  0  0  0  0  0  0
  1  2  1  0  0  0  0
  2  3  4  0  0  0  0
  2 26  4  0  0  0  0
  3  4  4  0  0  0  0
  4  5  1  0  0  0  0
  4 24  4  0  0  0  0
  5  6  1  0  0  0  0
  5 22  1  0  0  0  0
  6  7  1  0  0  0  0
  7  8  1  0  0  0  0
  8  9  1  0  0  0  0
  8 22  1  0  0  0  0
  9 10  1  0  0  0  0
 10 11  1  0  0  0  0
 11 12  1  0  0  0  0
 11 17  1  0  0  0  0
 12 13  1  0  0  0  0
 13 14  1  0  0  0  0
 13 18  1  0  0  0  0
 13 21  1  0  0  0  0
 14 15  1  0  0  0  0
 15 16  1  0  0  0  0
 16 17  1  0  0  0  0
 16 18  1  0  0  0  0
 18 19  1  0  0  0  0
 18 20  1  0  0  0  0
 22 23  2  0  0  0  0
 24 25  4  0  0  0  0
 25 26  4  0  0  0  0
M  END
>  <Name_Molregno>
565897

>  <DOPAMINE D2>
7.5

>  <DOPAMINE D3>
7.8

$$$$
565923
  Marvin  02231216192D 0   1.00000     0.00000     0

 27 30  0  0  0  0  0  0  0  0999 V2000
   -4.9564   -4.5007    0.0000 Cl  0  0  0  0  0  0  0  0  0
   -4.6197   -3.7475    0.0000 C   0  0  0  0  0  0  0  0  0
   -5.1037   -3.0794    0.0000 C   0  0  0  0  0  0  0  0  0
   -4.7671   -2.3262    0.0000 C   0  0  0  0  0  0  0  0  0
   -5.2510   -1.6581    0.0000 N   0  0  0  0  0  0  0  0  0
   -6.0760   -1.6569    0.0000 C   0  0  0  0  0  0  0  0  0
   -6.3298   -0.8719    0.0000 C   0  0  0  0  0  0  0  0  0
   -5.6617   -0.3879    0.0000 N   0  0  0  0  0  0  0  0  0
   -5.6605    0.4371    0.0000 C   0  0  0  0  0  0  0  0  0
   -4.9454    0.8485    0.0000 C   0  0  0  0  0  0  0  0  0
   -4.9442    1.6735    0.0000 N   0  0  0  0  0  0  0  0  0
   -4.2292    2.0850    0.0000 C   0  0  0  0  0  0  0  0  0
   -4.2280    2.9100    0.0000 C   0  0  0  0  0  0  0  0  0
   -5.0035    2.5197    0.0000 C   0  0  0  0  0  0  0  0  0
   -4.6382    3.1802    0.0000 C   0  0  0  0  0  0  0  0  0
   -3.9979    3.6304    0.0000 C   0  0  0  0  0  0  0  0  0
   -3.2024    3.1651    0.0000 C   0  0  0  0  0  0  0  0  0
   -3.4975    2.5397    0.0000 C   0  0  0  0  0  0  0  0  0
   -4.1579    4.4458    0.0000 C   0  0  0  0  0  0  0  0  0
   -4.7376    5.0328    0.0000 C   0  0  0  0  0  0  0  0  0
   -3.6711    5.1119    0.0000 C   0  0  0  0  0  0  0  0  0
   -5.6581    2.0871    0.0000 C   0  0  0  0  0  0  0  0  0
   -4.9949   -0.8738    0.0000 C   0  0  0  0  0  0  0  0  0
   -4.2100   -0.6200    0.0000 O   0  0  0  0  0  0  0  0  0
   -3.9465   -2.2412    0.0000 C   0  0  0  0  0  0  0  0  0
   -3.4625   -2.9093    0.0000 C   0  0  0  0  0  0  0  0  0
   -3.7991   -3.6625    0.0000 C   0  0  0  0  0  0  0  0  0
  1  2  1  0  0  0  0
  2  3  4  0  0  0  0
  2 27  4  0  0  0  0
  3  4  4  0  0  0  0
  4  5  1  0  0  0  0
  4 25  4  0  0  0  0
  5  6  1  0  0  0  0
  5 23  1  0  0  0  0
  6  7  1  0  0  0  0
  7  8  1  0  0  0  0
  8  9  1  0  0  0  0
  8 23  1  0  0  0  0
  9 10  1  0  0  0  0
 10 11  1  0  0  0  0
 11 12  1  0  0  0  0
 11 22  1  0  0  0  0
 12 13  1  0  0  0  0
 13 14  1  0  0  0  0
 13 18  1  0  0  0  0
 13 19  1  0  0  0  0
 14 15  1  0  0  0  0
 15 16  1  0  0  0  0
 16 17  1  0  0  0  0
 16 19  1  0  0  0  0
 17 18  1  0  0  0  0
 19 20  1  0  0  0  0
 19 21  1  0  0  0  0
 23 24  2  0  0  0  0
 25 26  4  0  0  0  0
 26 27  4  0  0  0  0
M  END
>  <Name_Molregno>
565923

>  <DOPAMINE D2>
6.9

>  <DOPAMINE D3>
8.2

$$$$
565924
  Marvin  02231216192D 0   1.00000     0.00000     0

 30 33  0  0  0  0  0  0  0  0999 V2000
    4.2586   -4.8261    0.0000 F   0  0  0  0  0  0  0  0  0
    4.5952   -4.0730    0.0000 C   0  0  0  0  0  0  0  0  0
    5.3484   -4.4096    0.0000 F   0  0  0  0  0  0  0  0  0
    3.8420   -3.7363    0.0000 F   0  0  0  0  0  0  0  0  0
    4.9318   -3.3198    0.0000 C   0  0  0  0  0  0  0  0  0
    4.4479   -2.6516    0.0000 C   0  0  0  0  0  0  0  0  0
    4.7845   -1.8984    0.0000 C   0  0  0  0  0  0  0  0  0
    4.3006   -1.2303    0.0000 N   0  0  0  0  0  0  0  0  0
    3.4756   -1.2291    0.0000 C   0  0  0  0  0  0  0  0  0
    3.2218   -0.4441    0.0000 C   0  0  0  0  0  0  0  0  0
    3.8899    0.0398    0.0000 N   0  0  0  0  0  0  0  0  0
    3.8911    0.8648    0.0000 C   0  0  0  0  0  0  0  0  0
    4.6062    1.2763    0.0000 C   0  0  0  0  0  0  0  0  0
    4.6074    2.1013    0.0000 N   0  0  0  0  0  0  0  0  0
    5.3224    2.5128    0.0000 C   0  0  0  0  0  0  0  0  0
    5.3236    3.3378    0.0000 C   0  0  0  0  0  0  0  0  0
    4.5481    2.9475    0.0000 C   0  0  0  0  0  0  0  0  0
    4.9134    3.6080    0.0000 C   0  0  0  0  0  0  0  0  0
    5.5537    4.0582    0.0000 C   0  0  0  0  0  0  0  0  0
    6.3492    3.5929    0.0000 C   0  0  0  0  0  0  0  0  0
    6.0541    2.9675    0.0000 C   0  0  0  0  0  0  0  0  0
    5.3937    4.8736    0.0000 C   0  0  0  0  0  0  0  0  0
    4.8140    5.4606    0.0000 C   0  0  0  0  0  0  0  0  0
    5.8805    5.5397    0.0000 C   0  0  0  0  0  0  0  0  0
    3.8935    2.5148    0.0000 C   0  0  0  0  0  0  0  0  0
    4.5566   -0.4460    0.0000 C   0  0  0  0  0  0  0  0  0
    5.3416   -0.1922    0.0000 O   0  0  0  0  0  0  0  0  0
    5.6051   -1.8134    0.0000 C   0  0  0  0  0  0  0  0  0
    6.0891   -2.4815    0.0000 C   0  0  0  0  0  0  0  0  0
    5.7525   -3.2347    0.0000 C   0  0  0  0  0  0  0  0  0
  1  2  1  0  0  0  0
  2  3  1  0  0  0  0
  2  4  1  0  0  0  0
  2  5  1  0  0  0  0
  5  6  4  0  0  0  0
  5 30  4  0  0  0  0
  6  7  4  0  0  0  0
  7  8  1  0  0  0  0
  7 28  4  0  0  0  0
  8  9  1  0  0  0  0
  8 26  1  0  0  0  0
  9 10  1  0  0  0  0
 10 11  1  0  0  0  0
 11 12  1  0  0  0  0
 11 26  1  0  0  0  0
 12 13  1  0  0  0  0
 13 14  1  0  0  0  0
 14 15  1  0  0  0  0
 14 25  1  0  0  0  0
 15 16  1  0  0  0  0
 16 17  1  0  0  0  0
 16 21  1  0  0  0  0
 16 22  1  0  0  0  0
 17 18  1  0  0  0  0
 18 19  1  0  0  0  0
 19 20  1  0  0  0  0
 19 22  1  0  0  0  0
 20 21  1  0  0  0  0
 22 23  1  0  0  0  0
 22 24  1  0  0  0  0
 26 27  2  0  0  0  0
 28 29  4  0  0  0  0
 29 30  4  0  0  0  0
M  END
>  <Name_Molregno>
565924

>  <DOPAMINE D2>
7.7

>  <DOPAMINE D3>
8.8

$$$$
566839
  Marvin  02231216192D 0   1.00000     0.00000     0

 24 27  0  0  0  0  0  0  0  0999 V2000
   -3.1731   -1.2562    0.0000 O   0  0  0  0  0  0  0  0  0
   -2.7606   -1.9707    0.0000 C   0  0  0  0  0  0  0  0  0
   -3.9981   -1.2562    0.0000 C   0  0  0  0  0  0  0  0  0
   -4.4106   -1.9707    0.0000 C   0  0  0  0  0  0  0  0  0
   -5.2356   -1.9707    0.0000 C   0  0  0  0  0  0  0  0  0
   -5.6481   -1.2562    0.0000 C   0  0  0  0  0  0  0  0  0
   -5.2356   -0.5418    0.0000 C   0  0  0  0  0  0  0  0  0
   -4.4106   -0.5418    0.0000 C   0  0  0  0  0  0  0  0  0
   -3.9981    0.1727    0.0000 N   0  0  0  0  0  0  0  0  0
   -4.4106    0.8872    0.0000 C   0  0  0  0  0  0  0  0  0
   -3.9981    1.6016    0.0000 C   0  0  0  0  0  0  0  0  0
   -3.1731    1.6016    0.0000 N   0  0  0  0  0  0  0  0  0
   -2.7606    0.8872    0.0000 C   0  0  0  0  0  0  0  0  0
   -3.1731    0.1727    0.0000 C   0  0  0  0  0  0  0  0  0
   -2.7606    2.3161    0.0000 C   0  0  0  0  0  0  0  0  0
   -1.9356    2.3161    0.0000 C   0  0  0  0  0  0  0  0  0
   -1.4506    1.6487    0.0000 N   0  0  0  0  0  0  0  0  0
   -0.6660    1.9036    0.0000 N   0  0  0  0  0  0  0  0  0
   -0.6660    2.7286    0.0000 C   0  0  0  0  0  0  0  0  0
   -1.4506    2.9836    0.0000 C   0  0  0  0  0  0  0  0  0
    0.0484    3.1411    0.0000 C   0  0  0  0  0  0  0  0  0
    0.7629    2.7286    0.0000 C   0  0  0  0  0  0  0  0  0
    0.7629    1.9036    0.0000 C   0  0  0  0  0  0  0  0  0
    0.0484    1.4911    0.0000 C   0  0  0  0  0  0  0  0  0
  1  2  1  0  0  0  0
  1  3  1  0  0  0  0
  3  4  4  0  0  0  0
  3  8  4  0  0  0  0
  4  5  4  0  0  0  0
  5  6  4  0  0  0  0
  6  7  4  0  0  0  0
  7  8  4  0  0  0  0
  8  9  1  0  0  0  0
  9 10  1  0  0  0  0
  9 14  1  0  0  0  0
 10 11  1  0  0  0  0
 11 12  1  0  0  0  0
 12 13  1  0  0  0  0
 12 15  1  0  0  0  0
 13 14  1  0  0  0  0
 15 16  1  0  0  0  0
 16 17  4  0  0  0  0
 16 20  4  0  0  0  0
 17 18  4  0  0  0  0
 18 19  4  0  0  0  0
 18 24  4  0  0  0  0
 19 20  4  0  0  0  0
 19 21  4  0  0  0  0
 21 22  4  0  0  0  0
 22 23  4  0  0  0  0
 23 24  4  0  0  0  0
M  END
>  <Name_Molregno>
566839

>  <DOPAMINE D2>
6.51

>  <DOPAMINE D3>
6.02

>  <DOPAMINE D4>
8.78

$$$$
567270
  Marvin  02231216192D 0   1.00000     0.00000     0

 25 28  0  0  0  0  0  0  0  0999 V2000
   -7.3634   -2.8426    0.0000 Cl  0  0  0  0  0  0  0  0  0
   -6.6097   -3.1781    0.0000 C   0  0  0  0  0  0  0  0  0
   -5.9423   -2.6932    0.0000 C   0  0  0  0  0  0  0  0  0
   -5.1886   -3.0288    0.0000 C   0  0  0  0  0  0  0  0  0
   -4.5212   -2.5438    0.0000 N   0  0  0  0  0  0  0  0  0
   -4.5212   -1.7188    0.0000 C   0  0  0  0  0  0  0  0  0
   -3.7366   -1.4639    0.0000 C   0  0  0  0  0  0  0  0  0
   -3.2516   -2.1313    0.0000 N   0  0  0  0  0  0  0  0  0
   -2.4266   -2.1313    0.0000 C   0  0  0  0  0  0  0  0  0
   -2.0141   -1.4169    0.0000 C   0  0  0  0  0  0  0  0  0
   -1.1891   -1.4169    0.0000 N   0  0  0  0  0  0  0  0  0
   -0.7042   -2.0843    0.0000 C   0  0  0  0  0  0  0  0  0
    0.0804   -1.8294    0.0000 C   0  0  0  0  0  0  0  0  0
    0.0804   -1.0044    0.0000 C   0  0  0  0  0  0  0  0  0
   -0.7042   -0.7494    0.0000 C   0  0  0  0  0  0  0  0  0
    0.7949   -0.5919    0.0000 C   0  0  0  0  0  0  0  0  0
    1.5093   -1.0044    0.0000 C   0  0  0  0  0  0  0  0  0
    1.5093   -1.8294    0.0000 C   0  0  0  0  0  0  0  0  0
    0.7949   -2.2419    0.0000 C   0  0  0  0  0  0  0  0  0
   -3.7366   -2.7988    0.0000 C   0  0  0  0  0  0  0  0  0
   -3.4816   -3.5834    0.0000 O   0  0  0  0  0  0  0  0  0
   -5.1024   -3.8493    0.0000 C   0  0  0  0  0  0  0  0  0
   -5.7698   -4.3342    0.0000 C   0  0  0  0  0  0  0  0  0
   -5.6836   -5.1547    0.0000 F   0  0  0  0  0  0  0  0  0
   -6.5235   -3.9986    0.0000 C   0  0  0  0  0  0  0  0  0
  1  2  1  0  0  0  0
  2  3  4  0  0  0  0
  2 25  4  0  0  0  0
  3  4  4  0  0  0  0
  4  5  1  0  0  0  0
  4 22  4  0  0  0  0
  5  6  1  0  0  0  0
  5 20  1  0  0  0  0
  6  7  1  0  0  0  0
  7  8  1  0  0  0  0
  8  9  1  0  0  0  0
  8 20  1  0  0  0  0
  9 10  1  0  0  0  0
 10 11  1  0  0  0  0
 11 12  1  0  0  0  0
 11 15  1  0  0  0  0
 12 13  1  0  0  0  0
 13 14  4  0  0  0  0
 13 19  4  0  0  0  0
 14 15  1  0  0  0  0
 14 16  4  0  0  0  0
 16 17  4  0  0  0  0
 17 18  4  0  0  0  0
 18 19  4  0  0  0  0
 20 21  2  0  0  0  0
 22 23  4  0  0  0  0
 23 24  1  0  0  0  0
 23 25  4  0  0  0  0
M  END
>  <Name_Molregno>
567270

>  <DOPAMINE D2>
7.5

>  <DOPAMINE D3>
8.8

$$$$
567279
  Marvin  02231216192D 0   1.00000     0.00000     0

 26 30  0  0  0  0  0  0  0  0999 V2000
    0.3130   -1.8510    0.0000 S   0  0  0  0  0  0  0  0  0
    1.0667   -1.5155    0.0000 C   0  0  0  0  0  0  0  0  0
    0.9805   -0.6950    0.0000 C   0  0  0  0  0  0  0  0  0
    1.6479   -0.2101    0.0000 C   0  0  0  0  0  0  0  0  0
    2.4016   -0.5456    0.0000 C   0  0  0  0  0  0  0  0  0
    3.0690   -0.0607    0.0000 N   0  0  0  0  0  0  0  0  0
    3.0690    0.7643    0.0000 C   0  0  0  0  0  0  0  0  0
    3.8537    1.0192    0.0000 C   0  0  0  0  0  0  0  0  0
    4.3386    0.3518    0.0000 N   0  0  0  0  0  0  0  0  0
    5.1636    0.3518    0.0000 C   0  0  0  0  0  0  0  0  0
    5.5761    1.0663    0.0000 C   0  0  0  0  0  0  0  0  0
    6.4011    1.0663    0.0000 N   0  0  0  0  0  0  0  0  0
    6.8860    0.3988    0.0000 C   0  0  0  0  0  0  0  0  0
    7.6706    0.6538    0.0000 C   0  0  0  0  0  0  0  0  0
    7.6706    1.4788    0.0000 C   0  0  0  0  0  0  0  0  0
    6.8860    1.7337    0.0000 C   0  0  0  0  0  0  0  0  0
    8.3851    1.8913    0.0000 C   0  0  0  0  0  0  0  0  0
    9.0996    1.4788    0.0000 C   0  0  0  0  0  0  0  0  0
    9.0996    0.6538    0.0000 C   0  0  0  0  0  0  0  0  0
    8.3851    0.2413    0.0000 C   0  0  0  0  0  0  0  0  0
    3.8537   -0.3156    0.0000 C   0  0  0  0  0  0  0  0  0
    4.1086   -1.1003    0.0000 O   0  0  0  0  0  0  0  0  0
    2.4878   -1.3661    0.0000 C   0  0  0  0  0  0  0  0  0
    1.8204   -1.8510    0.0000 C   0  0  0  0  0  0  0  0  0
    0.1735   -0.5235    0.0000 C   0  0  0  0  0  0  0  0  0
   -0.2390   -1.2379    0.0000 C   0  0  0  0  0  0  0  0  0
  1  2  4  0  0  0  0
  1 26  4  0  0  0  0
  2  3  4  0  0  0  0
  2 24  4  0  0  0  0
  3  4  4  0  0  0  0
  3 25  4  0  0  0  0
  4  5  4  0  0  0  0
  5  6  1  0  0  0  0
  5 23  4  0  0  0  0
  6  7  1  0  0  0  0
  6 21  1  0  0  0  0
  7  8  1  0  0  0  0
  8  9  1  0  0  0  0
  9 10  1  0  0  0  0
  9 21  1  0  0  0  0
 10 11  1  0  0  0  0
 11 12  1  0  0  0  0
 12 13  1  0  0  0  0
 12 16  1  0  0  0  0
 13 14  1  0  0  0  0
 14 15  4  0  0  0  0
 14 20  4  0  0  0  0
 15 16  1  0  0  0  0
 15 17  4  0  0  0  0
 17 18  4  0  0  0  0
 18 19  4  0  0  0  0
 19 20  4  0  0  0  0
 21 22  2  0  0  0  0
 23 24  4  0  0  0  0
 25 26  4  0  0  0  0
M  END
>  <Name_Molregno>
567279

>  <DOPAMINE D2>
6.6

>  <DOPAMINE D3>
7.2

$$$$
567280
  Marvin  02231216192D 0   1.00000     0.00000     0

 26 30  0  0  0  0  0  0  0  0999 V2000
    4.4276    2.9266    0.0000 S   0  0  0  0  0  0  0  0  0
    3.9427    2.2591    0.0000 C   0  0  0  0  0  0  0  0  0
    4.4276    1.5917    0.0000 C   0  0  0  0  0  0  0  0  0
    4.1727    0.8071    0.0000 N   0  0  0  0  0  0  0  0  0
    4.6576    0.1396    0.0000 C   0  0  0  0  0  0  0  0  0
    4.1727   -0.5278    0.0000 C   0  0  0  0  0  0  0  0  0
    3.3880   -0.2729    0.0000 N   0  0  0  0  0  0  0  0  0
    2.7206   -0.7578    0.0000 C   0  0  0  0  0  0  0  0  0
    2.8068   -1.5783    0.0000 C   0  0  0  0  0  0  0  0  0
    2.1394   -2.0632    0.0000 N   0  0  0  0  0  0  0  0  0
    1.3548   -1.8083    0.0000 C   0  0  0  0  0  0  0  0  0
    0.8699   -2.4757    0.0000 C   0  0  0  0  0  0  0  0  0
    1.3548   -3.1431    0.0000 C   0  0  0  0  0  0  0  0  0
    2.1394   -2.8882    0.0000 C   0  0  0  0  0  0  0  0  0
    1.0192   -3.8968    0.0000 C   0  0  0  0  0  0  0  0  0
    0.1987   -3.9830    0.0000 C   0  0  0  0  0  0  0  0  0
   -0.2862   -3.3156    0.0000 C   0  0  0  0  0  0  0  0  0
    0.0494   -2.5619    0.0000 C   0  0  0  0  0  0  0  0  0
    3.3880    0.5521    0.0000 C   0  0  0  0  0  0  0  0  0
    2.7206    1.0371    0.0000 O   0  0  0  0  0  0  0  0  0
    5.2122    1.8466    0.0000 C   0  0  0  0  0  0  0  0  0
    5.2122    2.6716    0.0000 C   0  0  0  0  0  0  0  0  0
    5.9267    3.0841    0.0000 C   0  0  0  0  0  0  0  0  0
    6.6412    2.6716    0.0000 C   0  0  0  0  0  0  0  0  0
    6.6412    1.8466    0.0000 C   0  0  0  0  0  0  0  0  0
    5.9267    1.4341    0.0000 C   0  0  0  0  0  0  0  0  0
  1  2  4  0  0  0  0
  1 22  4  0  0  0  0
  2  3  4  0  0  0  0
  3  4  1  0  0  0  0
  3 21  4  0  0  0  0
  4  5  1  0  0  0  0
  4 19  1  0  0  0  0
  5  6  1  0  0  0  0
  6  7  1  0  0  0  0
  7  8  1  0  0  0  0
  7 19  1  0  0  0  0
  8  9  1  0  0  0  0
  9 10  1  0  0  0  0
 10 11  1  0  0  0  0
 10 14  1  0  0  0  0
 11 12  1  0  0  0  0
 12 13  4  0  0  0  0
 12 18  4  0  0  0  0
 13 14  1  0  0  0  0
 13 15  4  0  0  0  0
 15 16  4  0  0  0  0
 16 17  4  0  0  0  0
 17 18  4  0  0  0  0
 19 20  2  0  0  0  0
 21 22  4  0  0  0  0
 21 26  4  0  0  0  0
 22 23  4  0  0  0  0
 23 24  4  0  0  0  0
 24 25  4  0  0  0  0
 25 26  4  0  0  0  0
M  END
>  <Name_Molregno>
567280

>  <DOPAMINE D2>
5.9

>  <DOPAMINE D3>
6.9

$$$$
567291
  Marvin  02231216192D 0   1.00000     0.00000     0

 28 32  0  0  0  0  0  0  0  0999 V2000
    0.6269   -2.6924    0.0000 S   0  0  0  0  0  0  0  0  0
    0.1420   -2.0250    0.0000 C   0  0  0  0  0  0  0  0  0
    0.6269   -1.3576    0.0000 C   0  0  0  0  0  0  0  0  0
    0.3720   -0.5729    0.0000 C   0  0  0  0  0  0  0  0  0
   -0.4350   -0.4014    0.0000 N   0  0  0  0  0  0  0  0  0
   -0.6899    0.3832    0.0000 C   0  0  0  0  0  0  0  0  0
   -0.1379    0.9963    0.0000 C   0  0  0  0  0  0  0  0  0
    0.6691    0.8248    0.0000 C   0  0  0  0  0  0  0  0  0
    0.9240    0.0401    0.0000 C   0  0  0  0  0  0  0  0  0
    1.4115   -1.6125    0.0000 C   0  0  0  0  0  0  0  0  0
    2.0790   -1.1276    0.0000 N   0  0  0  0  0  0  0  0  0
    2.0790   -0.3026    0.0000 C   0  0  0  0  0  0  0  0  0
    2.8636   -0.0476    0.0000 C   0  0  0  0  0  0  0  0  0
    3.3485   -0.7151    0.0000 N   0  0  0  0  0  0  0  0  0
    4.1735   -0.7151    0.0000 C   0  0  0  0  0  0  0  0  0
    4.5860   -0.0006    0.0000 C   0  0  0  0  0  0  0  0  0
    5.4110   -0.0006    0.0000 N   0  0  0  0  0  0  0  0  0
    5.8959   -0.6681    0.0000 C   0  0  0  0  0  0  0  0  0
    6.6806   -0.4131    0.0000 C   0  0  0  0  0  0  0  0  0
    6.6806    0.4119    0.0000 C   0  0  0  0  0  0  0  0  0
    5.8959    0.6668    0.0000 C   0  0  0  0  0  0  0  0  0
    7.3950    0.8244    0.0000 C   0  0  0  0  0  0  0  0  0
    8.1095    0.4119    0.0000 C   0  0  0  0  0  0  0  0  0
    8.1095   -0.4131    0.0000 C   0  0  0  0  0  0  0  0  0
    7.3950   -0.8256    0.0000 C   0  0  0  0  0  0  0  0  0
    2.8636   -1.3825    0.0000 C   0  0  0  0  0  0  0  0  0
    3.1185   -2.1671    0.0000 O   0  0  0  0  0  0  0  0  0
    1.4115   -2.4375    0.0000 C   0  0  0  0  0  0  0  0  0
  1  2  4  0  0  0  0
  1 28  4  0  0  0  0
  2  3  4  0  0  0  0
  3  4  1  0  0  0  0
  3 10  4  0  0  0  0
  4  5  4  0  0  0  0
  4  9  4  0  0  0  0
  5  6  4  0  0  0  0
  6  7  4  0  0  0  0
  7  8  4  0  0  0  0
  8  9  4  0  0  0  0
 10 11  1  0  0  0  0
 10 28  4  0  0  0  0
 11 12  1  0  0  0  0
 11 26  1  0  0  0  0
 12 13  1  0  0  0  0
 13 14  1  0  0  0  0
 14 15  1  0  0  0  0
 14 26  1  0  0  0  0
 15 16  1  0  0  0  0
 16 17  1  0  0  0  0
 17 18  1  0  0  0  0
 17 21  1  0  0  0  0
 18 19  1  0  0  0  0
 19 20  4  0  0  0  0
 19 25  4  0  0  0  0
 20 21  1  0  0  0  0
 20 22  4  0  0  0  0
 22 23  4  0  0  0  0
 23 24  4  0  0  0  0
 24 25  4  0  0  0  0
 26 27  2  0  0  0  0
M  END
>  <Name_Molregno>
567291

>  <DOPAMINE D2>
5

>  <DOPAMINE D3>
6.7

$$$$
567318
  Marvin  02231216192D 0   1.00000     0.00000     0

 25 27  0  0  0  0  0  0  0  0999 V2000
    6.8967    4.2915    0.0000 Cl  0  0  0  0  0  0  0  0  0
    6.1822    3.8790    0.0000 C   0  0  0  0  0  0  0  0  0
    6.1822    3.0540    0.0000 C   0  0  0  0  0  0  0  0  0
    5.4678    2.6415    0.0000 C   0  0  0  0  0  0  0  0  0
    5.4678    1.8165    0.0000 N   0  0  0  0  0  0  0  0  0
    6.1352    1.3316    0.0000 C   0  0  0  0  0  0  0  0  0
    5.8803    0.5470    0.0000 C   0  0  0  0  0  0  0  0  0
    5.0553    0.5470    0.0000 N   0  0  0  0  0  0  0  0  0
    4.5703   -0.1205    0.0000 C   0  0  0  0  0  0  0  0  0
    4.9059   -0.8742    0.0000 C   0  0  0  0  0  0  0  0  0
    4.4210   -1.5416    0.0000 N   0  0  0  0  0  0  0  0  0
    4.7565   -2.2953    0.0000 C   0  0  0  0  0  0  0  0  0
    4.2716   -2.9627    0.0000 C   0  0  0  0  0  0  0  0  0
    3.4511   -2.8765    0.0000 C   0  0  0  0  0  0  0  0  0
    3.1156   -2.1228    0.0000 C   0  0  0  0  0  0  0  0  0
    3.6005   -1.4554    0.0000 C   0  0  0  0  0  0  0  0  0
    2.9662   -3.5439    0.0000 C   0  0  0  0  0  0  0  0  0
    2.4813   -4.2114    0.0000 F   0  0  0  0  0  0  0  0  0
    2.2988   -3.0590    0.0000 F   0  0  0  0  0  0  0  0  0
    3.6336   -4.0288    0.0000 F   0  0  0  0  0  0  0  0  0
    4.8003    1.3316    0.0000 C   0  0  0  0  0  0  0  0  0
    4.0157    1.5865    0.0000 O   0  0  0  0  0  0  0  0  0
    4.7533    3.0540    0.0000 C   0  0  0  0  0  0  0  0  0
    4.7533    3.8790    0.0000 C   0  0  0  0  0  0  0  0  0
    5.4678    4.2915    0.0000 C   0  0  0  0  0  0  0  0  0
  1  2  1  0  0  0  0
  2  3  4  0  0  0  0
  2 25  4  0  0  0  0
  3  4  4  0  0  0  0
  4  5  1  0  0  0  0
  4 23  4  0  0  0  0
  5  6  1  0  0  0  0
  5 21  1  0  0  0  0
  6  7  1  0  0  0  0
  7  8  1  0  0  0  0
  8  9  1  0  0  0  0
  8 21  1  0  0  0  0
  9 10  1  0  0  0  0
 10 11  1  0  0  0  0
 11 12  1  0  0  0  0
 11 16  1  0  0  0  0
 12 13  1  0  0  0  0
 13 14  1  0  0  0  0
 14 15  1  0  0  0  0
 14 17  1  0  0  0  0
 15 16  1  0  0  0  0
 17 18  1  0  0  0  0
 17 19  1  0  0  0  0
 17 20  1  0  0  0  0
 21 22  2  0  0  0  0
 23 24  4  0  0  0  0
 24 25  4  0  0  0  0
M  END
>  <Name_Molregno>
567318

>  <DOPAMINE D2>
7

>  <DOPAMINE D3>
8.8

$$$$
567326
  Marvin  02231216192D 0   1.00000     0.00000     0

 26 28  0  0  0  0  0  0  0  0999 V2000
    5.2781    5.0753    0.0000 F   0  0  0  0  0  0  0  0  0
    5.2781    4.2503    0.0000 C   0  0  0  0  0  0  0  0  0
    5.9926    3.8378    0.0000 C   0  0  0  0  0  0  0  0  0
    5.9926    3.0128    0.0000 C   0  0  0  0  0  0  0  0  0
    5.2781    2.6003    0.0000 C   0  0  0  0  0  0  0  0  0
    5.2781    1.7753    0.0000 N   0  0  0  0  0  0  0  0  0
    5.9456    1.2904    0.0000 C   0  0  0  0  0  0  0  0  0
    5.6906    0.5057    0.0000 C   0  0  0  0  0  0  0  0  0
    4.8656    0.5057    0.0000 N   0  0  0  0  0  0  0  0  0
    4.3807   -0.1617    0.0000 C   0  0  0  0  0  0  0  0  0
    4.7163   -0.9154    0.0000 C   0  0  0  0  0  0  0  0  0
    4.2314   -1.5828    0.0000 N   0  0  0  0  0  0  0  0  0
    4.5669   -2.3365    0.0000 C   0  0  0  0  0  0  0  0  0
    4.0820   -3.0039    0.0000 C   0  0  0  0  0  0  0  0  0
    3.2615   -2.9177    0.0000 N   0  0  0  0  0  0  0  0  0
    2.9260   -2.1640    0.0000 C   0  0  0  0  0  0  0  0  0
    3.4109   -1.4966    0.0000 C   0  0  0  0  0  0  0  0  0
    2.7766   -3.5851    0.0000 C   0  0  0  0  0  0  0  0  0
    3.1121   -4.3388    0.0000 C   0  0  0  0  0  0  0  0  0
    1.9561   -3.4989    0.0000 C   0  0  0  0  0  0  0  0  0
    4.6107    1.2904    0.0000 C   0  0  0  0  0  0  0  0  0
    3.8261    1.5453    0.0000 O   0  0  0  0  0  0  0  0  0
    4.5637    3.0128    0.0000 C   0  0  0  0  0  0  0  0  0
    4.5637    3.8378    0.0000 C   0  0  0  0  0  0  0  0  0
    3.8492    4.2503    0.0000 C   0  0  0  0  0  0  0  0  0
    3.1347    4.6628    0.0000 N   0  0  0  0  0  0  0  0  0
  1  2  1  0  0  0  0
  2  3  4  0  0  0  0
  2 24  4  0  0  0  0
  3  4  4  0  0  0  0
  4  5  4  0  0  0  0
  5  6  1  0  0  0  0
  5 23  4  0  0  0  0
  6  7  1  0  0  0  0
  6 21  1  0  0  0  0
  7  8  1  0  0  0  0
  8  9  1  0  0  0  0
  9 10  1  0  0  0  0
  9 21  1  0  0  0  0
 10 11  1  0  0  0  0
 11 12  1  0  0  0  0
 12 13  1  0  0  0  0
 12 17  1  0  0  0  0
 13 14  1  0  0  0  0
 14 15  1  0  0  0  0
 15 16  1  0  0  0  0
 15 18  1  0  0  0  0
 16 17  1  0  0  0  0
 18 19  1  0  0  0  0
 18 20  1  0  0  0  0
 21 22  2  0  0  0  0
 23 24  4  0  0  0  0
 24 25  1  0  0  0  0
 25 26  3  0  0  0  0
M  END
>  <Name_Molregno>
567326

>  <DOPAMINE D2>
5

>  <DOPAMINE D3>
6.9

$$$$
567397
  Marvin  02231216192D 0   1.00000     0.00000     0

 26 29  0  0  0  0  0  0  0  0999 V2000
   -1.0591   -2.1178    0.0000 O   0  0  0  0  0  0  0  0  0
   -1.3140   -1.3332    0.0000 C   0  0  0  0  0  0  0  0  0
   -2.0986   -1.0783    0.0000 N   0  0  0  0  0  0  0  0  0
   -2.0986   -0.2533    0.0000 C   0  0  0  0  0  0  0  0  0
   -1.3140    0.0017    0.0000 C   0  0  0  0  0  0  0  0  0
   -0.8291   -0.6658    0.0000 N   0  0  0  0  0  0  0  0  0
   -0.0041   -0.6658    0.0000 C   0  0  0  0  0  0  0  0  0
    0.4084    0.0487    0.0000 C   0  0  0  0  0  0  0  0  0
    1.2334    0.0487    0.0000 N   0  0  0  0  0  0  0  0  0
    1.7184   -0.6188    0.0000 C   0  0  0  0  0  0  0  0  0
    2.5030   -0.3638    0.0000 C   0  0  0  0  0  0  0  0  0
    2.5030    0.4612    0.0000 C   0  0  0  0  0  0  0  0  0
    1.7184    0.7161    0.0000 C   0  0  0  0  0  0  0  0  0
    3.2174    0.8737    0.0000 C   0  0  0  0  0  0  0  0  0
    3.9319    0.4612    0.0000 C   0  0  0  0  0  0  0  0  0
    3.9319   -0.3638    0.0000 C   0  0  0  0  0  0  0  0  0
    3.2174   -0.7763    0.0000 C   0  0  0  0  0  0  0  0  0
   -2.7661   -1.5632    0.0000 C   0  0  0  0  0  0  0  0  0
   -2.6798   -2.3837    0.0000 C   0  0  0  0  0  0  0  0  0
   -3.3473   -2.8686    0.0000 C   0  0  0  0  0  0  0  0  0
   -4.1009   -2.5331    0.0000 C   0  0  0  0  0  0  0  0  0
   -4.1872   -1.7126    0.0000 C   0  0  0  0  0  0  0  0  0
   -3.5197   -1.2277    0.0000 C   0  0  0  0  0  0  0  0  0
   -3.2610   -3.6891    0.0000 C   0  0  0  0  0  0  0  0  0
   -2.5073   -4.0247    0.0000 C   0  0  0  0  0  0  0  0  0
   -3.9285   -4.1740    0.0000 C   0  0  0  0  0  0  0  0  0
  1  2  2  0  0  0  0
  2  3  1  0  0  0  0
  2  6  1  0  0  0  0
  3  4  1  0  0  0  0
  3 18  1  0  0  0  0
  4  5  1  0  0  0  0
  5  6  1  0  0  0  0
  6  7  1  0  0  0  0
  7  8  1  0  0  0  0
  8  9  1  0  0  0  0
  9 10  1  0  0  0  0
  9 13  1  0  0  0  0
 10 11  1  0  0  0  0
 11 12  4  0  0  0  0
 11 17  4  0  0  0  0
 12 13  1  0  0  0  0
 12 14  4  0  0  0  0
 14 15  4  0  0  0  0
 15 16  4  0  0  0  0
 16 17  4  0  0  0  0
 18 19  4  0  0  0  0
 18 23  4  0  0  0  0
 19 20  4  0  0  0  0
 20 21  4  0  0  0  0
 20 24  1  0  0  0  0
 21 22  4  0  0  0  0
 22 23  4  0  0  0  0
 24 25  1  0  0  0  0
 24 26  1  0  0  0  0
M  END
>  <Name_Molregno>
567397

>  <DOPAMINE D2>
7.1

>  <DOPAMINE D3>
8.2

$$$$
567625
  Marvin  02231216192D 0   1.00000     0.00000     0

 27 30  0  0  0  0  0  0  0  0999 V2000
    4.8357   -4.3935    0.0000 Cl  0  0  0  0  0  0  0  0  0
    5.0906   -3.6089    0.0000 C   0  0  0  0  0  0  0  0  0
    4.5386   -2.9958    0.0000 C   0  0  0  0  0  0  0  0  0
    4.7935   -2.2112    0.0000 C   0  0  0  0  0  0  0  0  0
    4.2415   -1.5981    0.0000 N   0  0  0  0  0  0  0  0  0
    3.4345   -1.7696    0.0000 C   0  0  0  0  0  0  0  0  0
    2.8825   -1.1565    0.0000 C   0  0  0  0  0  0  0  0  0
    3.1374   -0.3719    0.0000 N   0  0  0  0  0  0  0  0  0
    3.9444   -0.2004    0.0000 C   0  0  0  0  0  0  0  0  0
    4.4964   -0.8135    0.0000 C   0  0  0  0  0  0  0  0  0
    2.5854    0.2412    0.0000 C   0  0  0  0  0  0  0  0  0
    2.8403    1.0258    0.0000 C   0  0  0  0  0  0  0  0  0
    3.6249    1.2808    0.0000 N   0  0  0  0  0  0  0  0  0
    3.6249    2.1058    0.0000 C   0  0  0  0  0  0  0  0  0
    2.8403    2.3607    0.0000 N   0  0  0  0  0  0  0  0  0
    2.3554    1.6933    0.0000 C   0  0  0  0  0  0  0  0  0
    1.5304    1.6933    0.0000 C   0  0  0  0  0  0  0  0  0
    4.3394    2.5183    0.0000 C   0  0  0  0  0  0  0  0  0
    5.0539    2.1058    0.0000 C   0  0  0  0  0  0  0  0  0
    5.0539    1.2808    0.0000 N   0  0  0  0  0  0  0  0  0
    4.3394    0.8683    0.0000 C   0  0  0  0  0  0  0  0  0
    4.3394    0.0433    0.0000 C   0  0  0  0  0  0  0  0  0
    5.7683    2.5183    0.0000 C   0  0  0  0  0  0  0  0  0
    5.6005   -2.0396    0.0000 C   0  0  0  0  0  0  0  0  0
    6.1525   -2.6527    0.0000 C   0  0  0  0  0  0  0  0  0
    5.8976   -3.4374    0.0000 C   0  0  0  0  0  0  0  0  0
    6.4496   -4.0505    0.0000 Cl  0  0  0  0  0  0  0  0  0
  1  2  1  0  0  0  0
  2  3  4  0  0  0  0
  2 26  4  0  0  0  0
  3  4  4  0  0  0  0
  4  5  1  0  0  0  0
  4 24  4  0  0  0  0
  5  6  1  0  0  0  0
  5 10  1  0  0  0  0
  6  7  1  0  0  0  0
  7  8  1  0  0  0  0
  8  9  1  0  0  0  0
  8 11  1  0  0  0  0
  9 10  1  0  0  0  0
 11 12  1  0  0  0  0
 12 13  4  0  0  0  0
 12 16  4  0  0  0  0
 13 14  4  0  0  0  0
 13 21  4  0  0  0  0
 14 15  4  0  0  0  0
 14 18  4  0  0  0  0
 15 16  4  0  0  0  0
 16 17  1  0  0  0  0
 18 19  4  0  0  0  0
 19 20  4  0  0  0  0
 19 23  1  0  0  0  0
 20 21  4  0  0  0  0
 21 22  1  0  0  0  0
 24 25  4  0  0  0  0
 25 26  4  0  0  0  0
 26 27  1  0  0  0  0
M  END
>  <Name_Molregno>
567625

>  <DOPAMINE D2>
5.37

>  <DOPAMINE D3>
5.89

$$$$
567626
  Marvin  02231216192D 0   1.00000     0.00000     0

 29 33  0  0  0  0  0  0  0  0999 V2000
    4.4835    1.2622    0.0000 O   0  0  0  0  0  0  0  0  0
    4.4835    0.4372    0.0000 C   0  0  0  0  0  0  0  0  0
    5.1980    0.0247    0.0000 N   0  0  0  0  0  0  0  0  0
    5.9125    0.4372    0.0000 C   0  0  0  0  0  0  0  0  0
    5.1980   -0.8003    0.0000 C   0  0  0  0  0  0  0  0  0
    4.4835   -1.2128    0.0000 N   0  0  0  0  0  0  0  0  0
    3.7690   -0.8003    0.0000 C   0  0  0  0  0  0  0  0  0
    3.7690    0.0247    0.0000 C   0  0  0  0  0  0  0  0  0
    2.9844    0.2797    0.0000 N   0  0  0  0  0  0  0  0  0
    2.4995   -0.3878    0.0000 C   0  0  0  0  0  0  0  0  0
    2.9844   -1.0552    0.0000 C   0  0  0  0  0  0  0  0  0
    2.7295   -1.8398    0.0000 C   0  0  0  0  0  0  0  0  0
    1.9225   -2.0113    0.0000 N   0  0  0  0  0  0  0  0  0
    1.6676   -2.7960    0.0000 C   0  0  0  0  0  0  0  0  0
    0.8606   -2.9675    0.0000 C   0  0  0  0  0  0  0  0  0
    0.3086   -2.3544    0.0000 N   0  0  0  0  0  0  0  0  0
    0.5635   -1.5698    0.0000 C   0  0  0  0  0  0  0  0  0
    1.3705   -1.3983    0.0000 C   0  0  0  0  0  0  0  0  0
   -0.4984   -2.5259    0.0000 C   0  0  0  0  0  0  0  0  0
   -0.7533   -3.3105    0.0000 C   0  0  0  0  0  0  0  0  0
   -1.5603   -3.4821    0.0000 C   0  0  0  0  0  0  0  0  0
   -2.1123   -2.8690    0.0000 C   0  0  0  0  0  0  0  0  0
   -1.8574   -2.0844    0.0000 C   0  0  0  0  0  0  0  0  0
   -1.0504   -1.9128    0.0000 C   0  0  0  0  0  0  0  0  0
    5.9125   -1.2128    0.0000 N   0  0  0  0  0  0  0  0  0
    6.6661   -0.8772    0.0000 C   0  0  0  0  0  0  0  0  0
    7.2182   -1.4903    0.0000 C   0  0  0  0  0  0  0  0  0
    6.8057   -2.2048    0.0000 C   0  0  0  0  0  0  0  0  0
    5.9987   -2.0332    0.0000 C   0  0  0  0  0  0  0  0  0
  1  2  2  0  0  0  0
  2  3  1  0  0  0  0
  2  8  1  0  0  0  0
  3  4  1  0  0  0  0
  3  5  1  0  0  0  0
  5  6  2  0  0  0  0
  5 25  1  0  0  0  0
  6  7  1  0  0  0  0
  7  8  4  0  0  0  0
  7 11  4  0  0  0  0
  8  9  4  0  0  0  0
  9 10  4  0  0  0  0
 10 11  4  0  0  0  0
 11 12  1  0  0  0  0
 12 13  1  0  0  0  0
 13 14  1  0  0  0  0
 13 18  1  0  0  0  0
 14 15  1  0  0  0  0
 15 16  1  0  0  0  0
 16 17  1  0  0  0  0
 16 19  1  0  0  0  0
 17 18  1  0  0  0  0
 19 20  4  0  0  0  0
 19 24  4  0  0  0  0
 20 21  4  0  0  0  0
 21 22  4  0  0  0  0
 22 23  4  0  0  0  0
 23 24  4  0  0  0  0
 25 26  1  0  0  0  0
 25 29  1  0  0  0  0
 26 27  1  0  0  0  0
 27 28  1  0  0  0  0
 28 29  1  0  0  0  0
M  STY  1   1 DAT
M  SAL   1  1   9
M  SDT   1 MRV_IMPLICIT_H                                        
M  SDD   1     0.0000    0.0000    DR    ALL  0       0  
M  SED   1 IMPL_H1
M  END
>  <Name_Molregno>
567626

>  <DOPAMINE D2>
6.57

>  <DOPAMINE D3>
6.48

$$$$
567713
  Marvin  02231216192D 0   1.00000     0.00000     0

 21 23  0  0  1  0  0  0  0  0999 V2000
    5.5378    2.8901    0.0000 Cl  0  0  0  0  0  0  0  0  0
    4.8233    2.4776    0.0000 C   0  0  0  0  0  0  0  0  0
    4.8233    1.6526    0.0000 C   0  0  0  0  0  0  0  0  0
    4.1089    1.2401    0.0000 C   0  0  0  0  0  0  0  0  0
    4.1089    0.4151    0.0000 N   0  0  0  0  0  0  0  0  0
    4.7763   -0.0698    0.0000 C   0  0  0  0  0  0  0  0  0
    4.5214   -0.8544    0.0000 C   0  0  0  0  0  0  0  0  0
    3.6964   -0.8544    0.0000 N   0  0  0  0  0  0  0  0  0
    3.2114   -1.5219    0.0000 N   0  0  0  0  0  0  0  0  0
    3.4664   -2.3065    0.0000 C   0  0  0  0  0  0  0  0  0
    2.7989   -2.7914    0.0000 C   0  0  0  0  0  0  0  0  0
    2.1315   -2.3065    0.0000 C   0  0  0  0  0  0  0  0  0
    2.3864   -1.5219    0.0000 C   0  0  0  0  0  0  0  0  0
    1.9015   -0.8544    0.0000 C   0  0  0  0  0  0  0  0  0
    2.2371   -0.1008    0.0000 O   0  0  0  0  0  0  0  0  0
    1.7522    0.5667    0.0000 C   0  0  0  0  0  0  0  0  0
    3.4414   -0.0698    0.0000 C   0  0  0  0  0  0  0  0  0
    2.6568    0.1851    0.0000 O   0  0  0  0  0  0  0  0  0
    3.3944    1.6526    0.0000 C   0  0  0  0  0  0  0  0  0
    3.3944    2.4776    0.0000 C   0  0  0  0  0  0  0  0  0
    4.1089    2.8901    0.0000 C   0  0  0  0  0  0  0  0  0
  1  2  1  0  0  0  0
  2  3  4  0  0  0  0
  2 21  4  0  0  0  0
  3  4  4  0  0  0  0
  4  5  1  0  0  0  0
  4 19  4  0  0  0  0
  5  6  1  0  0  0  0
  5 17  1  0  0  0  0
  6  7  1  0  0  0  0
  7  8  1  0  0  0  0
  8  9  1  0  0  0  0
  8 17  1  0  0  0  0
  9 10  1  0  0  0  0
  9 13  1  0  0  0  0
 10 11  1  0  0  0  0
 11 12  1  0  0  0  0
 12 13  1  0  0  0  0
 13 14  1  0  0  0  0
 14 15  1  0  0  0  0
 15 16  1  0  0  0  0
 17 18  2  0  0  0  0
 19 20  4  0  0  0  0
 20 21  4  0  0  0  0
M  END
>  <Name_Molregno>
567713

>  <DOPAMINE D2>
7.1

>  <DOPAMINE D3>
7.1

$$$$
567728
  Marvin  02231216192D 0   1.00000     0.00000     0

 23 26  0  0  1  0  0  0  0  0999 V2000
    1.9874    3.7968    0.0000 Cl  0  0  0  0  0  0  0  0  0
    2.0853    2.9776    0.0000 C   0  0  0  0  0  0  0  0  0
    2.8437    2.6528    0.0000 C   0  0  0  0  0  0  0  0  0
    2.9416    1.8336    0.0000 C   0  0  0  0  0  0  0  0  0
    3.6999    1.5088    0.0000 N   0  0  0  0  0  0  0  0  0
    4.4085    1.9314    0.0000 C   0  0  0  0  0  0  0  0  0
    5.0294    1.3881    0.0000 C   0  0  0  0  0  0  0  0  0
    4.7045    0.6298    0.0000 N   0  0  0  0  0  0  0  0  0
    5.1271   -0.0788    0.0000 C   0  0  0  0  0  0  0  0  0
    4.7248   -0.7990    0.0000 C   0  0  0  0  0  0  0  0  0
    5.1474   -1.5076    0.0000 N   0  0  0  0  0  0  0  0  0
    5.7080   -1.9475    0.0000 C   0  0  0  0  0  0  0  0  0
    5.3875   -2.6561    0.0000 C   0  0  0  0  0  0  0  0  0
    4.7672   -3.0330    0.0000 C   0  0  0  0  0  0  0  0  0
    5.2871   -2.3207    0.0000 C   0  0  0  0  0  0  0  0  0
    6.2588   -2.3207    0.0000 C   0  0  0  0  0  0  0  0  0
    6.7750   -2.7494    0.0000 C   0  0  0  0  0  0  0  0  0
    6.6368   -1.9320    0.0000 C   0  0  0  0  0  0  0  0  0
    3.8829    0.7043    0.0000 C   0  0  0  0  0  0  0  0  0
    3.3396    0.0835    0.0000 O   0  0  0  0  0  0  0  0  0
    2.2811    1.3393    0.0000 C   0  0  0  0  0  0  0  0  0
    1.5227    1.6641    0.0000 C   0  0  0  0  0  0  0  0  0
    1.4248    2.4833    0.0000 C   0  0  0  0  0  0  0  0  0
  1  2  1  0  0  0  0
  2  3  4  0  0  0  0
  2 23  4  0  0  0  0
  3  4  4  0  0  0  0
  4  5  1  0  0  0  0
  4 21  4  0  0  0  0
  5  6  1  0  0  0  0
  5 19  1  0  0  0  0
  6  7  1  0  0  0  0
  7  8  1  0  0  0  0
  8  9  1  0  0  0  0
  8 19  1  0  0  0  0
  9 10  1  0  0  0  0
 10 11  1  0  0  0  0
 11 12  1  0  0  0  0
 11 15  1  0  0  0  0
 12 13  1  0  0  0  0
 12 18  1  0  0  0  0
 13 14  1  0  0  0  0
 14 15  1  0  0  0  0
 15 16  1  0  0  0  0
 16 17  1  0  0  0  0
 17 18  1  0  0  0  0
 19 20  2  0  0  0  0
 21 22  4  0  0  0  0
 22 23  4  0  0  0  0
M  END
>  <Name_Molregno>
567728

>  <DOPAMINE D2>
8.3

>  <DOPAMINE D3>
8.9

$$$$
567729
  Marvin  02231216192D 0   1.00000     0.00000     0

 29 32  0  0  1  0  0  0  0  0999 V2000
    7.0189    5.6658    0.0000 Cl  0  0  0  0  0  0  0  0  0
    6.3044    5.2533    0.0000 C   0  0  0  0  0  0  0  0  0
    6.3044    4.4283    0.0000 C   0  0  0  0  0  0  0  0  0
    5.5900    4.0158    0.0000 C   0  0  0  0  0  0  0  0  0
    5.5900    3.1908    0.0000 N   0  0  0  0  0  0  0  0  0
    6.2574    2.7058    0.0000 C   0  0  0  0  0  0  0  0  0
    6.0025    1.9212    0.0000 C   0  0  0  0  0  0  0  0  0
    5.1775    1.9212    0.0000 N   0  0  0  0  0  0  0  0  0
    4.6925    1.2538    0.0000 C   0  0  0  0  0  0  0  0  0
    5.0281    0.5001    0.0000 C   0  0  0  0  0  0  0  0  0
    4.5432   -0.1673    0.0000 N   0  0  0  0  0  0  0  0  0
    4.8787   -0.9210    0.0000 C   0  0  0  0  0  0  0  0  0
    4.3938   -1.5884    0.0000 C   0  0  0  0  0  0  0  0  0
    3.5733   -1.5022    0.0000 C   0  0  0  0  0  0  0  0  0
    3.2378   -0.7485    0.0000 C   0  0  0  0  0  0  0  0  0
    3.7227   -0.0811    0.0000 C   0  0  0  0  0  0  0  0  0
    4.7294   -2.3421    0.0000 C   0  0  0  0  0  0  0  0  0
    5.5499   -2.4284    0.0000 C   0  0  0  0  0  0  0  0  0
    5.8854   -3.1820    0.0000 C   0  0  0  0  0  0  0  0  0
    6.7059   -3.2683    0.0000 O   0  0  0  0  0  0  0  0  0
    7.1908   -2.6008    0.0000 C   0  0  0  0  0  0  0  0  0
    5.4005   -3.8495    0.0000 C   0  0  0  0  0  0  0  0  0
    4.5800   -3.7632    0.0000 C   0  0  0  0  0  0  0  0  0
    4.2444   -3.0096    0.0000 C   0  0  0  0  0  0  0  0  0
    4.9225    2.7058    0.0000 C   0  0  0  0  0  0  0  0  0
    4.1379    2.9608    0.0000 O   0  0  0  0  0  0  0  0  0
    4.8755    4.4283    0.0000 C   0  0  0  0  0  0  0  0  0
    4.8755    5.2533    0.0000 C   0  0  0  0  0  0  0  0  0
    5.5900    5.6658    0.0000 C   0  0  0  0  0  0  0  0  0
  1  2  1  0  0  0  0
  2  3  4  0  0  0  0
  2 29  4  0  0  0  0
  3  4  4  0  0  0  0
  4  5  1  0  0  0  0
  4 27  4  0  0  0  0
  5  6  1  0  0  0  0
  5 25  1  0  0  0  0
  6  7  1  0  0  0  0
  7  8  1  0  0  0  0
  8  9  1  0  0  0  0
  8 25  1  0  0  0  0
  9 10  1  0  0  0  0
 10 11  1  0  0  0  0
 11 12  1  0  0  0  0
 11 16  1  0  0  0  0
 12 13  1  0  0  0  0
 13 14  1  0  0  0  0
 13 17  1  0  0  0  0
 14 15  1  0  0  0  0
 15 16  1  0  0  0  0
 17 18  4  0  0  0  0
 17 24  4  0  0  0  0
 18 19  4  0  0  0  0
 19 20  1  0  0  0  0
 19 22  4  0  0  0  0
 20 21  1  0  0  0  0
 22 23  4  0  0  0  0
 23 24  4  0  0  0  0
 25 26  2  0  0  0  0
 27 28  4  0  0  0  0
 28 29  4  0  0  0  0
M  END
>  <Name_Molregno>
567729

>  <DOPAMINE D2>
7.6

>  <DOPAMINE D3>
6.2

$$$$
567741
  Marvin  02231216192D 0   1.00000     0.00000     0

 29 32  0  0  1  0  0  0  0  0999 V2000
    7.0349    5.8669    0.0000 Cl  0  0  0  0  0  0  0  0  0
    6.3204    5.4544    0.0000 C   0  0  0  0  0  0  0  0  0
    6.3204    4.6294    0.0000 C   0  0  0  0  0  0  0  0  0
    5.6060    4.2169    0.0000 C   0  0  0  0  0  0  0  0  0
    5.6060    3.3919    0.0000 N   0  0  0  0  0  0  0  0  0
    6.2734    2.9070    0.0000 C   0  0  0  0  0  0  0  0  0
    6.0185    2.1224    0.0000 C   0  0  0  0  0  0  0  0  0
    5.1935    2.1224    0.0000 N   0  0  0  0  0  0  0  0  0
    4.7085    1.4550    0.0000 C   0  0  0  0  0  0  0  0  0
    5.0441    0.7013    0.0000 C   0  0  0  0  0  0  0  0  0
    4.5592    0.0338    0.0000 N   0  0  0  0  0  0  0  0  0
    4.8947   -0.7198    0.0000 C   0  0  0  0  0  0  0  0  0
    4.4098   -1.3873    0.0000 C   0  0  0  0  0  0  0  0  0
    4.7454   -2.1409    0.0000 O   0  0  0  0  0  0  0  0  0
    5.5658   -2.2272    0.0000 C   0  0  0  0  0  0  0  0  0
    5.9014   -2.9809    0.0000 C   0  0  0  0  0  0  0  0  0
    6.7219   -3.0671    0.0000 C   0  0  0  0  0  0  0  0  0
    7.0574   -3.8208    0.0000 C   0  0  0  0  0  0  0  0  0
    6.5725   -4.4882    0.0000 C   0  0  0  0  0  0  0  0  0
    5.7520   -4.4020    0.0000 C   0  0  0  0  0  0  0  0  0
    5.4165   -3.6483    0.0000 C   0  0  0  0  0  0  0  0  0
    3.5893   -1.3010    0.0000 C   0  0  0  0  0  0  0  0  0
    3.2538   -0.5474    0.0000 C   0  0  0  0  0  0  0  0  0
    3.7387    0.1201    0.0000 C   0  0  0  0  0  0  0  0  0
    4.9385    2.9070    0.0000 C   0  0  0  0  0  0  0  0  0
    4.1539    3.1620    0.0000 O   0  0  0  0  0  0  0  0  0
    4.8915    4.6294    0.0000 C   0  0  0  0  0  0  0  0  0
    4.8915    5.4544    0.0000 C   0  0  0  0  0  0  0  0  0
    5.6060    5.8669    0.0000 C   0  0  0  0  0  0  0  0  0
  1  2  1  0  0  0  0
  2  3  4  0  0  0  0
  2 29  4  0  0  0  0
  3  4  4  0  0  0  0
  4  5  1  0  0  0  0
  4 27  4  0  0  0  0
  5  6  1  0  0  0  0
  5 25  1  0  0  0  0
  6  7  1  0  0  0  0
  7  8  1  0  0  0  0
  8  9  1  0  0  0  0
  8 25  1  0  0  0  0
  9 10  1  0  0  0  0
 10 11  1  0  0  0  0
 11 12  1  0  0  0  0
 11 24  1  0  0  0  0
 12 13  1  0  0  0  0
 13 14  1  0  0  0  0
 13 22  1  0  0  0  0
 14 15  1  0  0  0  0
 15 16  1  0  0  0  0
 16 17  4  0  0  0  0
 16 21  4  0  0  0  0
 17 18  4  0  0  0  0
 18 19  4  0  0  0  0
 19 20  4  0  0  0  0
 20 21  4  0  0  0  0
 22 23  1  0  0  0  0
 23 24  1  0  0  0  0
 25 26  2  0  0  0  0
 27 28  4  0  0  0  0
 28 29  4  0  0  0  0
M  END
>  <Name_Molregno>
567741

>  <DOPAMINE D2>
7.1

>  <DOPAMINE D3>
7

$$$$
567742
  Marvin  02231216192D 0   1.00000     0.00000     0

 27 29  0  0  0  0  0  0  0  0999 V2000
   -9.7488   -1.1579    0.0000 Cl  0  0  0  0  0  0  0  0  0
   -8.9284   -1.0717    0.0000 C   0  0  0  0  0  0  0  0  0
   -8.5928   -0.3180    0.0000 C   0  0  0  0  0  0  0  0  0
   -7.7723   -0.2318    0.0000 C   0  0  0  0  0  0  0  0  0
   -7.4368    0.5219    0.0000 N   0  0  0  0  0  0  0  0  0
   -7.8493    1.2364    0.0000 C   0  0  0  0  0  0  0  0  0
   -7.2972    1.8495    0.0000 C   0  0  0  0  0  0  0  0  0
   -6.5436    1.5139    0.0000 N   0  0  0  0  0  0  0  0  0
   -5.8291    1.9264    0.0000 C   0  0  0  0  0  0  0  0  0
   -5.1146    1.5139    0.0000 C   0  0  0  0  0  0  0  0  0
   -4.4001    1.9264    0.0000 N   0  0  0  0  0  0  0  0  0
   -3.6857    1.5139    0.0000 C   0  0  0  0  0  0  0  0  0
   -2.9712    1.9264    0.0000 C   0  0  0  0  0  0  0  0  0
   -2.2567    1.5139    0.0000 C   0  0  0  0  0  0  0  0  0
   -1.5423    1.9264    0.0000 C   0  0  0  0  0  0  0  0  0
   -0.8278    1.5139    0.0000 C   0  0  0  0  0  0  0  0  0
   -0.1133    1.9264    0.0000 O   0  0  0  0  0  0  0  0  0
   -0.1133    2.7514    0.0000 C   0  0  0  0  0  0  0  0  0
   -0.8278    0.6889    0.0000 C   0  0  0  0  0  0  0  0  0
   -1.5423    0.2764    0.0000 C   0  0  0  0  0  0  0  0  0
   -2.2567    0.6889    0.0000 C   0  0  0  0  0  0  0  0  0
   -4.4001    2.7514    0.0000 C   0  0  0  0  0  0  0  0  0
   -6.6298    0.6934    0.0000 C   0  0  0  0  0  0  0  0  0
   -6.0167    0.1414    0.0000 O   0  0  0  0  0  0  0  0  0
   -7.2874   -0.8992    0.0000 C   0  0  0  0  0  0  0  0  0
   -7.6230   -1.6529    0.0000 C   0  0  0  0  0  0  0  0  0
   -8.4434   -1.7391    0.0000 C   0  0  0  0  0  0  0  0  0
  1  2  1  0  0  0  0
  2  3  4  0  0  0  0
  2 27  4  0  0  0  0
  3  4  4  0  0  0  0
  4  5  1  0  0  0  0
  4 25  4  0  0  0  0
  5  6  1  0  0  0  0
  5 23  1  0  0  0  0
  6  7  1  0  0  0  0
  7  8  1  0  0  0  0
  8  9  1  0  0  0  0
  8 23  1  0  0  0  0
  9 10  1  0  0  0  0
 10 11  1  0  0  0  0
 11 12  1  0  0  0  0
 11 22  1  0  0  0  0
 12 13  1  0  0  0  0
 13 14  1  0  0  0  0
 14 15  4  0  0  0  0
 14 21  4  0  0  0  0
 15 16  4  0  0  0  0
 16 17  1  0  0  0  0
 16 19  4  0  0  0  0
 17 18  1  0  0  0  0
 19 20  4  0  0  0  0
 20 21  4  0  0  0  0
 23 24  2  0  0  0  0
 25 26  4  0  0  0  0
 26 27  4  0  0  0  0
M  END
>  <Name_Molregno>
567742

>  <DOPAMINE D2>
7.3

>  <DOPAMINE D3>
6.9

$$$$
567761
  Marvin  02231216192D 0   1.00000     0.00000     0

 28 31  0  0  0  0  0  0  0  0999 V2000
   -4.7712   -4.3231    0.0000 O   0  0  0  0  0  0  0  0  0
   -4.2872   -4.9913    0.0000 C   0  0  0  0  0  0  0  0  0
   -4.4345   -3.5699    0.0000 C   0  0  0  0  0  0  0  0  0
   -4.9185   -2.9018    0.0000 C   0  0  0  0  0  0  0  0  0
   -4.5818   -2.1486    0.0000 C   0  0  0  0  0  0  0  0  0
   -5.0658   -1.4805    0.0000 N   0  0  0  0  0  0  0  0  0
   -5.8908   -1.4793    0.0000 C   0  0  0  0  0  0  0  0  0
   -6.1446   -0.6943    0.0000 C   0  0  0  0  0  0  0  0  0
   -5.4764   -0.2103    0.0000 N   0  0  0  0  0  0  0  0  0
   -5.4753    0.6147    0.0000 C   0  0  0  0  0  0  0  0  0
   -4.7602    1.0261    0.0000 C   0  0  0  0  0  0  0  0  0
   -4.7590    1.8511    0.0000 N   0  0  0  0  0  0  0  0  0
   -4.0439    2.2626    0.0000 C   0  0  0  0  0  0  0  0  0
   -4.0427    3.0876    0.0000 C   0  0  0  0  0  0  0  0  0
   -4.8182    2.6973    0.0000 C   0  0  0  0  0  0  0  0  0
   -4.4529    3.3578    0.0000 C   0  0  0  0  0  0  0  0  0
   -3.8126    3.8080    0.0000 C   0  0  0  0  0  0  0  0  0
   -3.0171    3.3427    0.0000 C   0  0  0  0  0  0  0  0  0
   -3.3122    2.7173    0.0000 C   0  0  0  0  0  0  0  0  0
   -3.9726    4.6234    0.0000 C   0  0  0  0  0  0  0  0  0
   -4.5524    5.2104    0.0000 C   0  0  0  0  0  0  0  0  0
   -3.4859    5.2895    0.0000 C   0  0  0  0  0  0  0  0  0
   -5.4729    2.2647    0.0000 C   0  0  0  0  0  0  0  0  0
   -4.8097   -0.6962    0.0000 C   0  0  0  0  0  0  0  0  0
   -4.0247   -0.4424    0.0000 O   0  0  0  0  0  0  0  0  0
   -3.7612   -2.0636    0.0000 C   0  0  0  0  0  0  0  0  0
   -3.2773   -2.7317    0.0000 C   0  0  0  0  0  0  0  0  0
   -3.6139   -3.4849    0.0000 C   0  0  0  0  0  0  0  0  0
  1  2  1  0  0  0  0
  1  3  1  0  0  0  0
  3  4  4  0  0  0  0
  3 28  4  0  0  0  0
  4  5  4  0  0  0  0
  5  6  1  0  0  0  0
  5 26  4  0  0  0  0
  6  7  1  0  0  0  0
  6 24  1  0  0  0  0
  7  8  1  0  0  0  0
  8  9  1  0  0  0  0
  9 10  1  0  0  0  0
  9 24  1  0  0  0  0
 10 11  1  0  0  0  0
 11 12  1  0  0  0  0
 12 13  1  0  0  0  0
 12 23  1  0  0  0  0
 13 14  1  0  0  0  0
 14 15  1  0  0  0  0
 14 19  1  0  0  0  0
 14 20  1  0  0  0  0
 15 16  1  0  0  0  0
 16 17  1  0  0  0  0
 17 18  1  0  0  0  0
 17 20  1  0  0  0  0
 18 19  1  0  0  0  0
 20 21  1  0  0  0  0
 20 22  1  0  0  0  0
 24 25  2  0  0  0  0
 26 27  4  0  0  0  0
 27 28  4  0  0  0  0
M  END
>  <Name_Molregno>
567761

>  <DOPAMINE D2>
6.9

>  <DOPAMINE D3>
8.3

$$$$
567770
  Marvin  02231216192D 0   1.00000     0.00000     0

 26 29  0  0  0  0  0  0  0  0999 V2000
    3.3037   -2.2073    0.0000 O   0  0  0  0  0  0  0  0  0
    2.5187   -2.4611    0.0000 C   0  0  0  0  0  0  0  0  0
    2.2626   -3.2454    0.0000 N   0  0  0  0  0  0  0  0  0
    1.4376   -3.2442    0.0000 C   0  0  0  0  0  0  0  0  0
    1.1838   -2.4592    0.0000 C   0  0  0  0  0  0  0  0  0
    1.8519   -1.9752    0.0000 N   0  0  0  0  0  0  0  0  0
    1.8531   -1.1502    0.0000 C   0  0  0  0  0  0  0  0  0
    1.1393   -0.7367    0.0000 C   0  0  0  0  0  0  0  0  0
    1.1404    0.0883    0.0000 N   0  0  0  0  0  0  0  0  0
    0.4266    0.5018    0.0000 C   0  0  0  0  0  0  0  0  0
    0.4278    1.3268    0.0000 C   0  0  0  0  0  0  0  0  0
   -0.3477    0.9365    0.0000 C   0  0  0  0  0  0  0  0  0
    0.0176    1.5970    0.0000 C   0  0  0  0  0  0  0  0  0
    0.6579    2.0472    0.0000 C   0  0  0  0  0  0  0  0  0
    1.4534    1.5819    0.0000 C   0  0  0  0  0  0  0  0  0
    1.1583    0.9565    0.0000 C   0  0  0  0  0  0  0  0  0
    0.4979    2.8626    0.0000 C   0  0  0  0  0  0  0  0  0
   -0.0819    3.4496    0.0000 C   0  0  0  0  0  0  0  0  0
    0.9846    3.5288    0.0000 C   0  0  0  0  0  0  0  0  0
    1.8555    0.4998    0.0000 C   0  0  0  0  0  0  0  0  0
    2.7466   -3.9135    0.0000 C   0  0  0  0  0  0  0  0  0
    3.5672   -3.8285    0.0000 C   0  0  0  0  0  0  0  0  0
    4.0511   -4.4966    0.0000 C   0  0  0  0  0  0  0  0  0
    3.7145   -5.2498    0.0000 C   0  0  0  0  0  0  0  0  0
    2.8939   -5.3348    0.0000 C   0  0  0  0  0  0  0  0  0
    2.4099   -4.6667    0.0000 C   0  0  0  0  0  0  0  0  0
  1  2  2  0  0  0  0
  2  3  1  0  0  0  0
  2  6  1  0  0  0  0
  3  4  1  0  0  0  0
  3 21  1  0  0  0  0
  4  5  1  0  0  0  0
  5  6  1  0  0  0  0
  6  7  1  0  0  0  0
  7  8  1  0  0  0  0
  8  9  1  0  0  0  0
  9 10  1  0  0  0  0
  9 20  1  0  0  0  0
 10 11  1  0  0  0  0
 11 12  1  0  0  0  0
 11 16  1  0  0  0  0
 11 17  1  0  0  0  0
 12 13  1  0  0  0  0
 13 14  1  0  0  0  0
 14 15  1  0  0  0  0
 14 17  1  0  0  0  0
 15 16  1  0  0  0  0
 17 18  1  0  0  0  0
 17 19  1  0  0  0  0
 21 22  4  0  0  0  0
 21 26  4  0  0  0  0
 22 23  4  0  0  0  0
 23 24  4  0  0  0  0
 24 25  4  0  0  0  0
 25 26  4  0  0  0  0
M  END
>  <Name_Molregno>
567770

>  <DOPAMINE D2>
6.7

>  <DOPAMINE D3>
8

$$$$
569817
  Marvin  02231216192D 0   1.00000     0.00000     0

 33 36  0  0  0  0  0  0  0  0999 V2000
   -4.8575    4.0592    0.0000 O   0  0  0  0  0  0  0  0  0
   -5.5720    4.4717    0.0000 C   0  0  0  0  0  0  0  0  0
   -4.1431    4.4717    0.0000 C   0  0  0  0  0  0  0  0  0
   -4.1431    5.2967    0.0000 C   0  0  0  0  0  0  0  0  0
   -3.4286    5.7092    0.0000 C   0  0  0  0  0  0  0  0  0
   -2.7141    5.2967    0.0000 C   0  0  0  0  0  0  0  0  0
   -2.7141    4.4717    0.0000 C   0  0  0  0  0  0  0  0  0
   -3.4286    4.0592    0.0000 C   0  0  0  0  0  0  0  0  0
   -3.4286    3.2342    0.0000 N   0  0  0  0  0  0  0  0  0
   -2.7141    2.8217    0.0000 C   0  0  0  0  0  0  0  0  0
   -2.7141    1.9967    0.0000 C   0  0  0  0  0  0  0  0  0
   -3.4286    1.5842    0.0000 N   0  0  0  0  0  0  0  0  0
   -4.1431    1.9967    0.0000 C   0  0  0  0  0  0  0  0  0
   -4.1431    2.8217    0.0000 C   0  0  0  0  0  0  0  0  0
   -3.4286    0.7592    0.0000 C   0  0  0  0  0  0  0  0  0
   -4.1431    0.3467    0.0000 C   0  0  0  0  0  0  0  0  0
   -4.1431   -0.4783    0.0000 N   0  0  0  0  0  0  0  0  0
   -4.8575   -0.8908    0.0000 C   0  0  0  0  0  0  0  0  0
   -5.5720   -0.4783    0.0000 O   0  0  0  0  0  0  0  0  0
   -4.8575   -1.7158    0.0000 C   0  0  0  0  0  0  0  0  0
   -4.1901   -2.2007    0.0000 N   0  0  0  0  0  0  0  0  0
   -4.4450   -2.9853    0.0000 N   0  0  0  0  0  0  0  0  0
   -5.2700   -2.9853    0.0000 N   0  0  0  0  0  0  0  0  0
   -5.5250   -2.2007    0.0000 C   0  0  0  0  0  0  0  0  0
   -5.7550   -3.6528    0.0000 C   0  0  0  0  0  0  0  0  0
   -5.4194   -4.4065    0.0000 C   0  0  0  0  0  0  0  0  0
   -5.9043   -5.0739    0.0000 C   0  0  0  0  0  0  0  0  0
   -6.7248   -4.9877    0.0000 C   0  0  0  0  0  0  0  0  0
   -7.2097   -5.6551    0.0000 N   0  3  0  0  0  0  0  0  0
   -6.8742   -6.4088    0.0000 O   0  5  0  0  0  0  0  0  0
   -8.0302   -5.5689    0.0000 O   0  5  0  0  0  0  0  0  0
   -7.0604   -4.2340    0.0000 C   0  0  0  0  0  0  0  0  0
   -6.5755   -3.5666    0.0000 C   0  0  0  0  0  0  0  0  0
  1  2  1  0  0  0  0
  1  3  1  0  0  0  0
  3  4  4  0  0  0  0
  3  8  4  0  0  0  0
  4  5  4  0  0  0  0
  5  6  4  0  0  0  0
  6  7  4  0  0  0  0
  7  8  4  0  0  0  0
  8  9  1  0  0  0  0
  9 10  1  0  0  0  0
  9 14  1  0  0  0  0
 10 11  1  0  0  0  0
 11 12  1  0  0  0  0
 12 13  1  0  0  0  0
 12 15  1  0  0  0  0
 13 14  1  0  0  0  0
 15 16  1  0  0  0  0
 16 17  1  0  0  0  0
 17 18  1  0  0  0  0
 18 19  2  0  0  0  0
 18 20  1  0  0  0  0
 20 21  4  0  0  0  0
 20 24  4  0  0  0  0
 21 22  4  0  0  0  0
 22 23  4  0  0  0  0
 23 24  4  0  0  0  0
 23 25  1  0  0  0  0
 25 26  4  0  0  0  0
 25 33  4  0  0  0  0
 26 27  4  0  0  0  0
 27 28  4  0  0  0  0
 28 29  1  0  0  0  0
 28 32  4  0  0  0  0
 29 30  1  0  0  0  0
 29 31  1  0  0  0  0
 32 33  4  0  0  0  0
M  CHG  3  29   1  30  -1  31  -1
M  END
>  <Name_Molregno>
569817

>  <DOPAMINE D2>
7.37

>  <DOPAMINE D3>
8.31

$$$$
569818
  Marvin  02231216192D 0   1.00000     0.00000     0

 35 38  0  0  0  0  0  0  0  0999 V2000
   -0.1463   -0.0235    0.0000 Cl  0  0  0  0  0  0  0  0  0
   -0.1463   -0.8485    0.0000 C   0  0  0  0  0  0  0  0  0
    0.5682   -1.2610    0.0000 C   0  0  0  0  0  0  0  0  0
    1.2827   -0.8485    0.0000 N   0  0  0  0  0  0  0  0  0
    1.2827   -0.0235    0.0000 C   0  0  0  0  0  0  0  0  0
    1.9972    0.3890    0.0000 C   0  0  0  0  0  0  0  0  0
    2.7116   -0.0235    0.0000 N   0  0  0  0  0  0  0  0  0
    2.7116   -0.8485    0.0000 C   0  0  0  0  0  0  0  0  0
    1.9972   -1.2610    0.0000 C   0  0  0  0  0  0  0  0  0
    3.4261    0.3890    0.0000 C   0  0  0  0  0  0  0  0  0
    4.1406   -0.0235    0.0000 C   0  0  0  0  0  0  0  0  0
    4.8550    0.3890    0.0000 C   0  0  0  0  0  0  0  0  0
    5.5695   -0.0235    0.0000 C   0  0  0  0  0  0  0  0  0
    6.2840    0.3890    0.0000 N   0  0  0  0  0  0  0  0  0
    6.9985   -0.0235    0.0000 C   0  0  0  0  0  0  0  0  0
    6.9985   -0.8485    0.0000 O   0  0  0  0  0  0  0  0  0
    7.7129    0.3890    0.0000 C   0  0  0  0  0  0  0  0  0
    7.7992    1.2095    0.0000 N   0  0  0  0  0  0  0  0  0
    8.6061    1.3810    0.0000 N   0  0  0  0  0  0  0  0  0
    9.0186    0.6665    0.0000 N   0  0  0  0  0  0  0  0  0
    8.4666    0.0534    0.0000 C   0  0  0  0  0  0  0  0  0
    9.8391    0.5803    0.0000 C   0  0  0  0  0  0  0  0  0
   10.3240    1.2477    0.0000 C   0  0  0  0  0  0  0  0  0
   11.1445    1.1615    0.0000 C   0  0  0  0  0  0  0  0  0
   11.4801    0.4078    0.0000 C   0  0  0  0  0  0  0  0  0
   12.3006    0.3216    0.0000 N   0  3  0  0  0  0  0  0  0
   12.6361   -0.4321    0.0000 O   0  5  0  0  0  0  0  0  0
   12.7855    0.9890    0.0000 O   0  5  0  0  0  0  0  0  0
   10.9952   -0.2596    0.0000 C   0  0  0  0  0  0  0  0  0
   10.1747   -0.1734    0.0000 C   0  0  0  0  0  0  0  0  0
    0.5682   -2.0860    0.0000 C   0  0  0  0  0  0  0  0  0
   -0.1463   -2.4985    0.0000 C   0  0  0  0  0  0  0  0  0
   -0.8607   -2.0860    0.0000 C   0  0  0  0  0  0  0  0  0
   -0.8607   -1.2610    0.0000 C   0  0  0  0  0  0  0  0  0
   -1.5752   -0.8485    0.0000 Cl  0  0  0  0  0  0  0  0  0
  1  2  1  0  0  0  0
  2  3  4  0  0  0  0
  2 34  4  0  0  0  0
  3  4  1  0  0  0  0
  3 31  4  0  0  0  0
  4  5  1  0  0  0  0
  4  9  1  0  0  0  0
  5  6  1  0  0  0  0
  6  7  1  0  0  0  0
  7  8  1  0  0  0  0
  7 10  1  0  0  0  0
  8  9  1  0  0  0  0
 10 11  1  0  0  0  0
 11 12  1  0  0  0  0
 12 13  1  0  0  0  0
 13 14  1  0  0  0  0
 14 15  1  0  0  0  0
 15 16  2  0  0  0  0
 15 17  1  0  0  0  0
 17 18  4  0  0  0  0
 17 21  4  0  0  0  0
 18 19  4  0  0  0  0
 19 20  4  0  0  0  0
 20 21  4  0  0  0  0
 20 22  1  0  0  0  0
 22 23  4  0  0  0  0
 22 30  4  0  0  0  0
 23 24  4  0  0  0  0
 24 25  4  0  0  0  0
 25 26  1  0  0  0  0
 25 29  4  0  0  0  0
 26 27  1  0  0  0  0
 26 28  1  0  0  0  0
 29 30  4  0  0  0  0
 31 32  4  0  0  0  0
 32 33  4  0  0  0  0
 33 34  4  0  0  0  0
 34 35  1  0  0  0  0
M  CHG  3  26   1  27  -1  28  -1
M  END
>  <Name_Molregno>
569818

>  <DOPAMINE D2>
6.93

>  <DOPAMINE D3>
6.49

$$$$
569819
  Marvin  02231216192D 0   1.00000     0.00000     0

 34 37  0  0  0  0  0  0  0  0999 V2000
   -0.1359    0.0359    0.0000 Cl  0  0  0  0  0  0  0  0  0
   -0.1359   -0.7891    0.0000 C   0  0  0  0  0  0  0  0  0
    0.5786   -1.2016    0.0000 C   0  0  0  0  0  0  0  0  0
    1.2930   -0.7891    0.0000 N   0  0  0  0  0  0  0  0  0
    1.2930    0.0359    0.0000 C   0  0  0  0  0  0  0  0  0
    2.0075    0.4484    0.0000 C   0  0  0  0  0  0  0  0  0
    2.7220    0.0359    0.0000 N   0  0  0  0  0  0  0  0  0
    2.7220   -0.7891    0.0000 C   0  0  0  0  0  0  0  0  0
    2.0075   -1.2016    0.0000 C   0  0  0  0  0  0  0  0  0
    3.4365    0.4484    0.0000 C   0  0  0  0  0  0  0  0  0
    4.1509    0.0359    0.0000 C   0  0  0  0  0  0  0  0  0
    4.8654    0.4484    0.0000 C   0  0  0  0  0  0  0  0  0
    5.5799    0.0359    0.0000 C   0  0  0  0  0  0  0  0  0
    6.2943    0.4484    0.0000 N   0  0  0  0  0  0  0  0  0
    7.0088    0.0359    0.0000 C   0  0  0  0  0  0  0  0  0
    7.0088   -0.7891    0.0000 O   0  0  0  0  0  0  0  0  0
    7.7233    0.4484    0.0000 C   0  0  0  0  0  0  0  0  0
    7.8095    1.2689    0.0000 N   0  0  0  0  0  0  0  0  0
    8.6165    1.4404    0.0000 N   0  0  0  0  0  0  0  0  0
    9.0290    0.7259    0.0000 N   0  0  0  0  0  0  0  0  0
    8.4770    0.1128    0.0000 C   0  0  0  0  0  0  0  0  0
    9.8495    0.6397    0.0000 C   0  0  0  0  0  0  0  0  0
   10.3344    1.3071    0.0000 C   0  0  0  0  0  0  0  0  0
   11.1549    1.2209    0.0000 C   0  0  0  0  0  0  0  0  0
   11.4904    0.4672    0.0000 C   0  0  0  0  0  0  0  0  0
   12.3109    0.3810    0.0000 O   0  0  0  0  0  0  0  0  0
   12.6465   -0.3727    0.0000 C   0  0  0  0  0  0  0  0  0
   11.0055   -0.2002    0.0000 C   0  0  0  0  0  0  0  0  0
   10.1850   -0.1140    0.0000 C   0  0  0  0  0  0  0  0  0
    0.5786   -2.0266    0.0000 C   0  0  0  0  0  0  0  0  0
   -0.1359   -2.4391    0.0000 C   0  0  0  0  0  0  0  0  0
   -0.8504   -2.0266    0.0000 C   0  0  0  0  0  0  0  0  0
   -0.8504   -1.2016    0.0000 C   0  0  0  0  0  0  0  0  0
   -1.5648   -0.7891    0.0000 Cl  0  0  0  0  0  0  0  0  0
  1  2  1  0  0  0  0
  2  3  4  0  0  0  0
  2 33  4  0  0  0  0
  3  4  1  0  0  0  0
  3 30  4  0  0  0  0
  4  5  1  0  0  0  0
  4  9  1  0  0  0  0
  5  6  1  0  0  0  0
  6  7  1  0  0  0  0
  7  8  1  0  0  0  0
  7 10  1  0  0  0  0
  8  9  1  0  0  0  0
 10 11  1  0  0  0  0
 11 12  1  0  0  0  0
 12 13  1  0  0  0  0
 13 14  1  0  0  0  0
 14 15  1  0  0  0  0
 15 16  2  0  0  0  0
 15 17  1  0  0  0  0
 17 18  4  0  0  0  0
 17 21  4  0  0  0  0
 18 19  4  0  0  0  0
 19 20  4  0  0  0  0
 20 21  4  0  0  0  0
 20 22  1  0  0  0  0
 22 23  4  0  0  0  0
 22 29  4  0  0  0  0
 23 24  4  0  0  0  0
 24 25  4  0  0  0  0
 25 26  1  0  0  0  0
 25 28  4  0  0  0  0
 26 27  1  0  0  0  0
 28 29  4  0  0  0  0
 30 31  4  0  0  0  0
 31 32  4  0  0  0  0
 32 33  4  0  0  0  0
 33 34  1  0  0  0  0
M  END
>  <Name_Molregno>
569819

>  <DOPAMINE D2>
6.54

>  <DOPAMINE D3>
7.34

$$$$
569835
  Marvin  02231216192D 0   1.00000     0.00000     0

 38 41  0  0  0  0  0  0  0  0999 V2000
  -11.6534   -0.1488    0.0000 Cl  0  0  0  0  0  0  0  0  0
  -11.9235   -0.9284    0.0000 C   0  0  0  0  0  0  0  0  0
  -11.3834   -1.5520    0.0000 C   0  0  0  0  0  0  0  0  0
  -10.5732   -1.3961    0.0000 N   0  0  0  0  0  0  0  0  0
  -10.3032   -0.6166    0.0000 C   0  0  0  0  0  0  0  0  0
   -9.4931   -0.4606    0.0000 C   0  0  0  0  0  0  0  0  0
   -8.9530   -1.0843    0.0000 N   0  0  0  0  0  0  0  0  0
   -9.2230   -1.8638    0.0000 C   0  0  0  0  0  0  0  0  0
  -10.0331   -2.0197    0.0000 C   0  0  0  0  0  0  0  0  0
   -8.1428   -0.9284    0.0000 C   0  0  0  0  0  0  0  0  0
   -7.6027   -1.5520    0.0000 C   0  0  0  0  0  0  0  0  0
   -6.7926   -1.3961    0.0000 C   0  0  0  0  0  0  0  0  0
   -6.2525   -2.0197    0.0000 C   0  0  0  0  0  0  0  0  0
   -5.4424   -1.8638    0.0000 N   0  0  0  0  0  0  0  0  0
   -4.9023   -2.4875    0.0000 C   0  0  0  0  0  0  0  0  0
   -5.1723   -3.2670    0.0000 O   0  0  0  0  0  0  0  0  0
   -4.0922   -2.3316    0.0000 C   0  0  0  0  0  0  0  0  0
   -3.8221   -1.5520    0.0000 C   0  0  0  0  0  0  0  0  0
   -4.3622   -0.9284    0.0000 C   0  0  0  0  0  0  0  0  0
   -4.0922   -0.1488    0.0000 C   0  0  0  0  0  0  0  0  0
   -4.5641    0.5279    0.0000 N   0  0  0  0  0  0  0  0  0
   -4.0664    1.1858    0.0000 N   0  0  0  0  0  0  0  0  0
   -3.2868    0.9158    0.0000 N   0  0  0  0  0  0  0  0  0
   -3.3028    0.0909    0.0000 C   0  0  0  0  0  0  0  0  0
   -2.6101    1.3877    0.0000 C   0  0  0  0  0  0  0  0  0
   -2.6805    2.2097    0.0000 C   0  0  0  0  0  0  0  0  0
   -2.0038    2.6816    0.0000 C   0  0  0  0  0  0  0  0  0
   -1.2568    2.3316    0.0000 C   0  0  0  0  0  0  0  0  0
   -0.5801    2.8035    0.0000 N   0  3  0  0  0  0  0  0  0
    0.1669    2.4535    0.0000 O   0  5  0  0  0  0  0  0  0
   -0.6505    3.6255    0.0000 O   0  5  0  0  0  0  0  0  0
   -1.1864    1.5096    0.0000 C   0  0  0  0  0  0  0  0  0
   -1.8631    1.0377    0.0000 C   0  0  0  0  0  0  0  0  0
  -11.6534   -2.3316    0.0000 C   0  0  0  0  0  0  0  0  0
  -12.4635   -2.4875    0.0000 C   0  0  0  0  0  0  0  0  0
  -13.0036   -1.8638    0.0000 C   0  0  0  0  0  0  0  0  0
  -12.7336   -1.0843    0.0000 C   0  0  0  0  0  0  0  0  0
  -13.2737   -0.4606    0.0000 Cl  0  0  0  0  0  0  0  0  0
  1  2  1  0  0  0  0
  2  3  4  0  0  0  0
  2 37  4  0  0  0  0
  3  4  1  0  0  0  0
  3 34  4  0  0  0  0
  4  5  1  0  0  0  0
  4  9  1  0  0  0  0
  5  6  1  0  0  0  0
  6  7  1  0  0  0  0
  7  8  1  0  0  0  0
  7 10  1  0  0  0  0
  8  9  1  0  0  0  0
 10 11  1  0  0  0  0
 11 12  1  0  0  0  0
 12 13  1  0  0  0  0
 13 14  1  0  0  0  0
 14 15  1  0  0  0  0
 15 16  2  0  0  0  0
 15 17  1  0  0  0  0
 17 18  1  0  0  0  0
 18 19  1  0  0  0  0
 19 20  1  0  0  0  0
 20 21  4  0  0  0  0
 20 24  4  0  0  0  0
 21 22  4  0  0  0  0
 22 23  4  0  0  0  0
 23 24  4  0  0  0  0
 23 25  1  0  0  0  0
 25 26  4  0  0  0  0
 25 33  4  0  0  0  0
 26 27  4  0  0  0  0
 27 28  4  0  0  0  0
 28 29  1  0  0  0  0
 28 32  4  0  0  0  0
 29 30  1  0  0  0  0
 29 31  1  0  0  0  0
 32 33  4  0  0  0  0
 34 35  4  0  0  0  0
 35 36  4  0  0  0  0
 36 37  4  0  0  0  0
 37 38  1  0  0  0  0
M  CHG  3  29   1  30  -1  31  -1
M  END
>  <Name_Molregno>
569835

>  <DOPAMINE D2>
7.32

>  <DOPAMINE D3>
5.66

$$$$
569846
  Marvin  02231216192D 0   1.00000     0.00000     0

 37 40  0  0  0  0  0  0  0  0999 V2000
  -11.2800   -0.0389    0.0000 Cl  0  0  0  0  0  0  0  0  0
  -11.5501   -0.8184    0.0000 C   0  0  0  0  0  0  0  0  0
  -11.0100   -1.4421    0.0000 C   0  0  0  0  0  0  0  0  0
  -10.1999   -1.2862    0.0000 N   0  0  0  0  0  0  0  0  0
   -9.9298   -0.5066    0.0000 C   0  0  0  0  0  0  0  0  0
   -9.1197   -0.3507    0.0000 C   0  0  0  0  0  0  0  0  0
   -8.5796   -0.9743    0.0000 N   0  0  0  0  0  0  0  0  0
   -8.8496   -1.7539    0.0000 C   0  0  0  0  0  0  0  0  0
   -9.6598   -1.9098    0.0000 C   0  0  0  0  0  0  0  0  0
   -7.7695   -0.8184    0.0000 C   0  0  0  0  0  0  0  0  0
   -7.2294   -1.4421    0.0000 C   0  0  0  0  0  0  0  0  0
   -6.4192   -1.2862    0.0000 C   0  0  0  0  0  0  0  0  0
   -5.8792   -1.9098    0.0000 C   0  0  0  0  0  0  0  0  0
   -5.0690   -1.7539    0.0000 N   0  0  0  0  0  0  0  0  0
   -4.5289   -2.3775    0.0000 C   0  0  0  0  0  0  0  0  0
   -4.7990   -3.1571    0.0000 O   0  0  0  0  0  0  0  0  0
   -3.7188   -2.2216    0.0000 C   0  0  0  0  0  0  0  0  0
   -3.4488   -1.4421    0.0000 C   0  0  0  0  0  0  0  0  0
   -3.9888   -0.8184    0.0000 C   0  0  0  0  0  0  0  0  0
   -3.7188   -0.0389    0.0000 C   0  0  0  0  0  0  0  0  0
   -4.1907    0.6378    0.0000 N   0  0  0  0  0  0  0  0  0
   -3.6930    1.2958    0.0000 N   0  0  0  0  0  0  0  0  0
   -2.9135    1.0257    0.0000 N   0  0  0  0  0  0  0  0  0
   -2.9294    0.2009    0.0000 C   0  0  0  0  0  0  0  0  0
   -2.2368    1.4977    0.0000 C   0  0  0  0  0  0  0  0  0
   -2.3072    2.3196    0.0000 C   0  0  0  0  0  0  0  0  0
   -1.6305    2.7916    0.0000 C   0  0  0  0  0  0  0  0  0
   -0.8834    2.4415    0.0000 C   0  0  0  0  0  0  0  0  0
   -0.2067    2.9135    0.0000 O   0  0  0  0  0  0  0  0  0
    0.5403    2.5634    0.0000 C   0  0  0  0  0  0  0  0  0
   -0.8131    1.6195    0.0000 C   0  0  0  0  0  0  0  0  0
   -1.4897    1.1476    0.0000 C   0  0  0  0  0  0  0  0  0
  -11.2800   -2.2216    0.0000 C   0  0  0  0  0  0  0  0  0
  -12.0902   -2.3775    0.0000 C   0  0  0  0  0  0  0  0  0
  -12.6303   -1.7539    0.0000 C   0  0  0  0  0  0  0  0  0
  -12.3602   -0.9743    0.0000 C   0  0  0  0  0  0  0  0  0
  -12.9003   -0.3507    0.0000 Cl  0  0  0  0  0  0  0  0  0
  1  2  1  0  0  0  0
  2  3  4  0  0  0  0
  2 36  4  0  0  0  0
  3  4  1  0  0  0  0
  3 33  4  0  0  0  0
  4  5  1  0  0  0  0
  4  9  1  0  0  0  0
  5  6  1  0  0  0  0
  6  7  1  0  0  0  0
  7  8  1  0  0  0  0
  7 10  1  0  0  0  0
  8  9  1  0  0  0  0
 10 11  1  0  0  0  0
 11 12  1  0  0  0  0
 12 13  1  0  0  0  0
 13 14  1  0  0  0  0
 14 15  1  0  0  0  0
 15 16  2  0  0  0  0
 15 17  1  0  0  0  0
 17 18  1  0  0  0  0
 18 19  1  0  0  0  0
 19 20  1  0  0  0  0
 20 21  4  0  0  0  0
 20 24  4  0  0  0  0
 21 22  4  0  0  0  0
 22 23  4  0  0  0  0
 23 24  4  0  0  0  0
 23 25  1  0  0  0  0
 25 26  4  0  0  0  0
 25 32  4  0  0  0  0
 26 27  4  0  0  0  0
 27 28  4  0  0  0  0
 28 29  1  0  0  0  0
 28 31  4  0  0  0  0
 29 30  1  0  0  0  0
 31 32  4  0  0  0  0
 33 34  4  0  0  0  0
 34 35  4  0  0  0  0
 35 36  4  0  0  0  0
 36 37  1  0  0  0  0
M  END
>  <Name_Molregno>
569846

>  <DOPAMINE D2>
8.09

>  <DOPAMINE D3>
7.08

$$$$
572290
  Marvin  02231216192D 0   1.00000     0.00000     0

 28 32  0  0  1  0  0  0  0  0999 V2000
    2.0491    4.6570    0.0000 F   0  0  0  0  0  0  0  0  0
    2.6011    4.0439    0.0000 C   0  0  0  0  0  0  0  0  0
    3.4081    4.2154    0.0000 C   0  0  0  0  0  0  0  0  0
    3.9601    3.6023    0.0000 C   0  0  0  0  0  0  0  0  0
    4.7851    3.6023    0.0000 O   0  0  0  0  0  0  0  0  0
    5.0401    2.8177    0.0000 N   0  0  0  0  0  0  0  0  0
    4.3726    2.3328    0.0000 C   0  0  0  0  0  0  0  0  0
    3.7052    2.8177    0.0000 C   0  0  0  0  0  0  0  0  0
    2.8982    2.6462    0.0000 C   0  0  0  0  0  0  0  0  0
    2.3462    3.2593    0.0000 C   0  0  0  0  0  0  0  0  0
    4.3726    1.5078    0.0000 C   0  0  0  0  0  0  0  0  0
    5.0871    1.0953    0.0000 C   0  0  0  0  0  0  0  0  0
    5.0871    0.2703    0.0000 C   0  0  0  0  0  0  0  0  0
    4.3726   -0.1422    0.0000 N   0  0  0  0  0  0  0  0  0
    3.6582    0.2703    0.0000 C   0  0  0  0  0  0  0  0  0
    3.6582    1.0953    0.0000 C   0  0  0  0  0  0  0  0  0
    4.3726   -0.9672    0.0000 C   0  0  0  0  0  0  0  0  0
    5.0871   -1.3797    0.0000 C   0  0  0  0  0  0  0  0  0
    5.0871   -2.2047    0.0000 C   0  0  0  0  0  0  0  0  0
    5.8016   -2.6172    0.0000 C   0  0  0  0  0  0  0  0  0
    5.8016   -3.4422    0.0000 O   0  0  0  0  0  0  0  0  0
    6.5161   -2.2047    0.0000 C   0  0  0  0  0  0  0  0  0
    6.5161   -1.3797    0.0000 C   0  0  0  0  0  0  0  0  0
    7.2305   -0.9672    0.0000 N   0  0  0  0  0  0  0  0  0
    7.9450   -1.3797    0.0000 C   0  0  0  0  0  0  0  0  0
    7.9450   -2.2047    0.0000 N   0  0  0  0  0  0  0  0  0
    7.2305   -2.6172    0.0000 C   0  0  0  0  0  0  0  0  0
    5.8016   -0.9672    0.0000 C   0  0  0  0  0  0  0  0  0
  1  2  1  0  0  0  0
  2  3  4  0  0  0  0
  2 10  4  0  0  0  0
  3  4  4  0  0  0  0
  4  5  4  0  0  0  0
  4  8  4  0  0  0  0
  5  6  4  0  0  0  0
  6  7  4  0  0  0  0
  7  8  4  0  0  0  0
  7 11  1  0  0  0  0
  8  9  4  0  0  0  0
  9 10  4  0  0  0  0
 11 12  1  0  0  0  0
 11 16  1  0  0  0  0
 12 13  1  0  0  0  0
 13 14  1  0  0  0  0
 14 15  1  0  0  0  0
 14 17  1  0  0  0  0
 15 16  1  0  0  0  0
 17 18  1  0  0  0  0
 18 19  1  0  0  0  0
 18 28  1  0  0  0  0
 19 20  1  0  0  0  0
 20 21  2  0  0  0  0
 20 22  1  0  0  0  0
 22 23  4  0  0  0  0
 22 27  4  0  0  0  0
 23 24  4  0  0  0  0
 23 28  1  0  0  0  0
 24 25  4  0  0  0  0
 25 26  4  0  0  0  0
 26 27  4  0  0  0  0
M  END
>  <Name_Molregno>
572290

>  <5-HT2A>
7.63

>  <5-HT2C>
6.3

>  <DOPAMINE D1>
6.87

>  <DOPAMINE D2>
6.8

>  <DOPAMINE D3>
6.55

$$$$
572298
  Marvin  02231216192D 0   1.00000     0.00000     0

 30 34  0  0  1  0  0  0  0  0999 V2000
   -7.7335    3.0117    0.0000 S   0  0  0  0  0  0  0  0  0
   -8.5405    3.1832    0.0000 C   0  0  0  0  0  0  0  0  0
   -7.4785    2.2271    0.0000 C   0  0  0  0  0  0  0  0  0
   -6.6716    2.0555    0.0000 N   0  0  0  0  0  0  0  0  0
   -6.4166    1.2709    0.0000 C   0  0  0  0  0  0  0  0  0
   -5.6097    1.0994    0.0000 C   0  0  0  0  0  0  0  0  0
   -5.3547    0.3148    0.0000 C   0  0  0  0  0  0  0  0  0
   -5.9068   -0.2983    0.0000 C   0  0  0  0  0  0  0  0  0
   -6.7137   -0.1268    0.0000 C   0  0  0  0  0  0  0  0  0
   -7.2658   -0.7399    0.0000 O   0  0  0  0  0  0  0  0  0
   -6.9687    0.6578    0.0000 C   0  0  0  0  0  0  0  0  0
   -7.7756    0.8293    0.0000 C   0  0  0  0  0  0  0  0  0
   -8.0306    1.6140    0.0000 N   0  0  0  0  0  0  0  0  0
   -4.5477    0.1432    0.0000 C   0  0  0  0  0  0  0  0  0
   -4.2928   -0.6414    0.0000 N   0  0  0  0  0  0  0  0  0
   -3.4858   -0.8129    0.0000 C   0  0  0  0  0  0  0  0  0
   -3.2309   -1.5975    0.0000 C   0  0  0  0  0  0  0  0  0
   -3.7829   -2.2106    0.0000 C   0  0  0  0  0  0  0  0  0
   -4.5899   -2.0391    0.0000 C   0  0  0  0  0  0  0  0  0
   -4.8448   -1.2545    0.0000 C   0  0  0  0  0  0  0  0  0
   -3.5280   -2.9953    0.0000 C   0  0  0  0  0  0  0  0  0
   -4.0129   -3.6627    0.0000 N   0  0  0  0  0  0  0  0  0
   -3.5280   -4.3301    0.0000 O   0  0  0  0  0  0  0  0  0
   -2.7434   -4.0752    0.0000 C   0  0  0  0  0  0  0  0  0
   -2.7434   -3.2502    0.0000 C   0  0  0  0  0  0  0  0  0
   -2.0289   -2.8377    0.0000 C   0  0  0  0  0  0  0  0  0
   -1.3144   -3.2502    0.0000 C   0  0  0  0  0  0  0  0  0
   -1.3144   -4.0752    0.0000 C   0  0  0  0  0  0  0  0  0
   -0.6000   -4.4877    0.0000 F   0  0  0  0  0  0  0  0  0
   -2.0289   -4.4877    0.0000 C   0  0  0  0  0  0  0  0  0
  1  2  1  0  0  0  0
  1  3  1  0  0  0  0
  3  4  4  0  0  0  0
  3 13  4  0  0  0  0
  4  5  4  0  0  0  0
  5  6  1  0  0  0  0
  5 11  4  0  0  0  0
  6  7  1  0  0  0  0
  7  8  1  0  0  0  0
  7 14  1  0  0  0  0
  8  9  1  0  0  0  0
  9 10  2  0  0  0  0
  9 11  1  0  0  0  0
 11 12  4  0  0  0  0
 12 13  4  0  0  0  0
 14 15  1  0  0  0  0
 15 16  1  0  0  0  0
 15 20  1  0  0  0  0
 16 17  1  0  0  0  0
 17 18  1  0  0  0  0
 18 19  1  0  0  0  0
 18 21  1  0  0  0  0
 19 20  1  0  0  0  0
 21 22  4  0  0  0  0
 21 25  4  0  0  0  0
 22 23  4  0  0  0  0
 23 24  4  0  0  0  0
 24 25  4  0  0  0  0
 24 30  4  0  0  0  0
 25 26  4  0  0  0  0
 26 27  4  0  0  0  0
 27 28  4  0  0  0  0
 28 29  1  0  0  0  0
 28 30  4  0  0  0  0
M  END
>  <Name_Molregno>
572298

>  <5-HT2A>
8.34

>  <5-HT2C>
5

>  <DOPAMINE D1>
7.48

>  <DOPAMINE D2>
7.49

>  <DOPAMINE D3>
7.35

$$$$
572334
  Marvin  02231216192D 0   1.00000     0.00000     0

 30 34  0  0  1  0  0  0  0  0999 V2000
    1.8876   -2.7225    0.0000 F   0  0  0  0  0  0  0  0  0
    2.1426   -1.9379    0.0000 C   0  0  0  0  0  0  0  0  0
    1.5905   -1.3248    0.0000 C   0  0  0  0  0  0  0  0  0
    1.8455   -0.5402    0.0000 C   0  0  0  0  0  0  0  0  0
    1.4330    0.1743    0.0000 O   0  0  0  0  0  0  0  0  0
    1.9850    0.7874    0.0000 N   0  0  0  0  0  0  0  0  0
    2.7387    0.4518    0.0000 C   0  0  0  0  0  0  0  0  0
    2.6524   -0.3686    0.0000 C   0  0  0  0  0  0  0  0  0
    3.2045   -0.9817    0.0000 C   0  0  0  0  0  0  0  0  0
    2.9495   -1.7664    0.0000 C   0  0  0  0  0  0  0  0  0
    3.4531    0.8643    0.0000 C   0  0  0  0  0  0  0  0  0
    3.4531    1.6893    0.0000 C   0  0  0  0  0  0  0  0  0
    4.1676    2.1018    0.0000 C   0  0  0  0  0  0  0  0  0
    4.8821    1.6893    0.0000 N   0  0  0  0  0  0  0  0  0
    4.8821    0.8643    0.0000 C   0  0  0  0  0  0  0  0  0
    4.1676    0.4518    0.0000 C   0  0  0  0  0  0  0  0  0
    5.5966    2.1018    0.0000 C   0  0  0  0  0  0  0  0  0
    6.3110    1.6893    0.0000 C   0  0  0  0  0  0  0  0  0
    6.3110    0.8643    0.0000 C   0  0  0  0  0  0  0  0  0
    7.0255    0.4518    0.0000 C   0  0  0  0  0  0  0  0  0
    7.0255   -0.3732    0.0000 O   0  0  0  0  0  0  0  0  0
    7.7400    0.8643    0.0000 C   0  0  0  0  0  0  0  0  0
    7.7400    1.6893    0.0000 C   0  0  0  0  0  0  0  0  0
    8.4544    2.1018    0.0000 N   0  0  0  0  0  0  0  0  0
    9.1689    1.6893    0.0000 C   0  0  0  0  0  0  0  0  0
    9.1689    0.8643    0.0000 N   0  0  0  0  0  0  0  0  0
    8.4544    0.4518    0.0000 C   0  0  0  0  0  0  0  0  0
    9.8834    2.1018    0.0000 N   0  0  0  0  0  0  0  0  0
    9.8834    2.9268    0.0000 C   0  0  0  0  0  0  0  0  0
    7.0255    2.1018    0.0000 C   0  0  0  0  0  0  0  0  0
  1  2  1  0  0  0  0
  2  3  4  0  0  0  0
  2 10  4  0  0  0  0
  3  4  4  0  0  0  0
  4  5  4  0  0  0  0
  4  8  4  0  0  0  0
  5  6  4  0  0  0  0
  6  7  4  0  0  0  0
  7  8  4  0  0  0  0
  7 11  1  0  0  0  0
  8  9  4  0  0  0  0
  9 10  4  0  0  0  0
 11 12  1  0  0  0  0
 11 16  1  0  0  0  0
 12 13  1  0  0  0  0
 13 14  1  0  0  0  0
 14 15  1  0  0  0  0
 14 17  1  0  0  0  0
 15 16  1  0  0  0  0
 17 18  1  0  0  0  0
 18 19  1  0  0  0  0
 18 30  1  0  0  0  0
 19 20  1  0  0  0  0
 20 21  2  0  0  0  0
 20 22  1  0  0  0  0
 22 23  4  0  0  0  0
 22 27  4  0  0  0  0
 23 24  4  0  0  0  0
 23 30  1  0  0  0  0
 24 25  4  0  0  0  0
 25 26  4  0  0  0  0
 25 28  1  0  0  0  0
 26 27  4  0  0  0  0
 28 29  1  0  0  0  0
M  END
>  <Name_Molregno>
572334

>  <5-HT2A>
8.62

>  <5-HT2C>
5

>  <DOPAMINE D1>
7.37

>  <DOPAMINE D2>
7.31

>  <DOPAMINE D3>
6.7

$$$$
573274
  Marvin  02231216192D 0   1.00000     0.00000     0

 78 87  0  0  0  0  0  0  0  0999 V2000
   18.8180   13.8198    0.0000 O   0  0  0  0  0  0  0  0  0
   18.8180   14.6448    0.0000 C   0  0  0  0  0  0  0  0  0
   19.5325   13.4073    0.0000 C   0  0  0  0  0  0  0  0  0
   20.2469   13.8198    0.0000 C   0  0  0  0  0  0  0  0  0
   20.9614   13.4073    0.0000 C   0  0  0  0  0  0  0  0  0
   20.9614   12.5823    0.0000 C   0  0  0  0  0  0  0  0  0
   20.2469   12.1698    0.0000 C   0  0  0  0  0  0  0  0  0
   19.5325   12.5823    0.0000 C   0  0  0  0  0  0  0  0  0
   18.8180   12.1698    0.0000 N   0  0  0  0  0  0  0  0  0
   18.8180   11.3448    0.0000 C   0  0  0  0  0  0  0  0  0
   18.1035   10.9323    0.0000 C   0  0  0  0  0  0  0  0  0
   17.3891   11.3448    0.0000 N   0  0  0  0  0  0  0  0  0
   17.3891   12.1698    0.0000 C   0  0  0  0  0  0  0  0  0
   18.1035   12.5823    0.0000 C   0  0  0  0  0  0  0  0  0
   16.6746   10.9323    0.0000 C   0  0  0  0  0  0  0  0  0
   16.6746   10.1073    0.0000 C   0  0  0  0  0  0  0  0  0
   15.9601    9.6948    0.0000 C   0  0  0  0  0  0  0  0  0
   15.9601    8.8698    0.0000 C   0  0  0  0  0  0  0  0  0
   15.2456    8.4573    0.0000 N   0  0  0  0  0  0  0  0  0
   15.2456    7.6323    0.0000 C   0  0  0  0  0  0  0  0  0
   15.9601    7.2198    0.0000 O   0  0  0  0  0  0  0  0  0
   14.5312    7.2198    0.0000 C   0  0  0  0  0  0  0  0  0
   14.5312    6.3948    0.0000 C   0  0  0  0  0  0  0  0  0
   13.8167    5.9823    0.0000 C   0  0  0  0  0  0  0  0  0
   13.1022    6.3948    0.0000 C   0  0  0  0  0  0  0  0  0
   13.1022    7.2198    0.0000 C   0  0  0  0  0  0  0  0  0
   13.8167    7.6323    0.0000 C   0  0  0  0  0  0  0  0  0
   13.8167    5.1573    0.0000 C   0  0  0  0  0  0  0  0  0
   14.4841    4.6724    0.0000 N   0  0  0  0  0  0  0  0  0
   14.2292    3.8878    0.0000 N   0  0  0  0  0  0  0  0  0
   13.4042    3.8878    0.0000 N   0  0  0  0  0  0  0  0  0
   13.1493    4.6724    0.0000 C   0  0  0  0  0  0  0  0  0
   12.9193    3.2204    0.0000 C   0  0  0  0  0  0  0  0  0
   12.0988    3.3066    0.0000 C   0  0  0  0  0  0  0  0  0
   11.6139    2.6392    0.0000 C   0  0  0  0  0  0  0  0  0
   10.7934    2.7254    0.0000 C   0  0  0  0  0  0  0  0  0
   10.4578    3.4791    0.0000 C   0  0  0  0  0  0  0  0  0
   10.9428    4.1465    0.0000 C   0  0  0  0  0  0  0  0  0
   11.7632    4.0603    0.0000 C   0  0  0  0  0  0  0  0  0
    9.6374    3.5653    0.0000 C   0  0  0  0  0  0  0  0  0
    9.1524    2.8979    0.0000 C   0  0  0  0  0  0  0  0  0
    8.3320    2.9841    0.0000 C   0  0  0  0  0  0  0  0  0
    7.9964    3.7378    0.0000 C   0  0  0  0  0  0  0  0  0
    8.4813    4.4052    0.0000 C   0  0  0  0  0  0  0  0  0
    9.3018    4.3190    0.0000 C   0  0  0  0  0  0  0  0  0
    7.1759    3.8240    0.0000 C   0  0  0  0  0  0  0  0  0
    6.6910    3.1566    0.0000 N   0  0  0  0  0  0  0  0  0
    6.9459    2.3720    0.0000 N   0  0  0  0  0  0  0  0  0
    6.2785    1.8870    0.0000 N   0  0  0  0  0  0  0  0  0
    5.6111    2.3720    0.0000 C   0  0  0  0  0  0  0  0  0
    5.8660    3.1566    0.0000 C   0  0  0  0  0  0  0  0  0
    4.8264    2.1170    0.0000 C   0  0  0  0  0  0  0  0  0
    4.6549    1.3100    0.0000 C   0  0  0  0  0  0  0  0  0
    3.8703    1.0551    0.0000 C   0  0  0  0  0  0  0  0  0
    3.2572    1.6071    0.0000 C   0  0  0  0  0  0  0  0  0
    3.4287    2.4141    0.0000 C   0  0  0  0  0  0  0  0  0
    4.2133    2.6690    0.0000 C   0  0  0  0  0  0  0  0  0
    3.6988    0.2481    0.0000 C   0  0  0  0  0  0  0  0  0
    2.9141   -0.0068    0.0000 O   0  0  0  0  0  0  0  0  0
    4.3119   -0.3039    0.0000 N   0  0  0  0  0  0  0  0  0
    4.1403   -1.1109    0.0000 C   0  0  0  0  0  0  0  0  0
    4.7534   -1.6629    0.0000 C   0  0  0  0  0  0  0  0  0
    4.5819   -2.4699    0.0000 C   0  0  0  0  0  0  0  0  0
    5.1950   -3.0219    0.0000 C   0  0  0  0  0  0  0  0  0
    5.0235   -3.8289    0.0000 N   0  0  0  0  0  0  0  0  0
    5.6366   -4.3809    0.0000 C   0  0  0  0  0  0  0  0  0
    5.4650   -5.1879    0.0000 C   0  0  0  0  0  0  0  0  0
    4.6804   -5.4428    0.0000 N   0  0  0  0  0  0  0  0  0
    4.0673   -4.8908    0.0000 C   0  0  0  0  0  0  0  0  0
    4.2388   -4.0838    0.0000 C   0  0  0  0  0  0  0  0  0
    4.5089   -6.2498    0.0000 C   0  0  0  0  0  0  0  0  0
    5.1220   -6.8018    0.0000 C   0  0  0  0  0  0  0  0  0
    4.9504   -7.6088    0.0000 C   0  0  0  0  0  0  0  0  0
    4.1658   -7.8637    0.0000 C   0  0  0  0  0  0  0  0  0
    3.5527   -7.3117    0.0000 C   0  0  0  0  0  0  0  0  0
    3.7243   -6.5047    0.0000 C   0  0  0  0  0  0  0  0  0
    3.1112   -5.9527    0.0000 O   0  0  0  0  0  0  0  0  0
    2.3265   -6.2076    0.0000 C   0  0  0  0  0  0  0  0  0
  1  2  1  0  0  0  0
  1  3  1  0  0  0  0
  3  4  4  0  0  0  0
  3  8  4  0  0  0  0
  4  5  4  0  0  0  0
  5  6  4  0  0  0  0
  6  7  4  0  0  0  0
  7  8  4  0  0  0  0
  8  9  1  0  0  0  0
  9 10  1  0  0  0  0
  9 14  1  0  0  0  0
 10 11  1  0  0  0  0
 11 12  1  0  0  0  0
 12 13  1  0  0  0  0
 12 15  1  0  0  0  0
 13 14  1  0  0  0  0
 15 16  1  0  0  0  0
 16 17  1  0  0  0  0
 17 18  1  0  0  0  0
 18 19  1  0  0  0  0
 19 20  1  0  0  0  0
 20 21  2  0  0  0  0
 20 22  1  0  0  0  0
 22 23  4  0  0  0  0
 22 27  4  0  0  0  0
 23 24  4  0  0  0  0
 24 25  4  0  0  0  0
 24 28  1  0  0  0  0
 25 26  4  0  0  0  0
 26 27  4  0  0  0  0
 28 29  4  0  0  0  0
 28 32  4  0  0  0  0
 29 30  4  0  0  0  0
 30 31  4  0  0  0  0
 31 32  4  0  0  0  0
 31 33  1  0  0  0  0
 33 34  1  0  0  0  0
 34 35  4  0  0  0  0
 34 39  4  0  0  0  0
 35 36  4  0  0  0  0
 36 37  4  0  0  0  0
 37 38  4  0  0  0  0
 37 40  1  0  0  0  0
 38 39  4  0  0  0  0
 40 41  4  0  0  0  0
 40 45  4  0  0  0  0
 41 42  4  0  0  0  0
 42 43  4  0  0  0  0
 43 44  4  0  0  0  0
 43 46  1  0  0  0  0
 44 45  4  0  0  0  0
 46 47  1  0  0  0  0
 47 48  4  0  0  0  0
 47 51  4  0  0  0  0
 48 49  4  0  0  0  0
 49 50  4  0  0  0  0
 50 51  4  0  0  0  0
 50 52  1  0  0  0  0
 52 53  4  0  0  0  0
 52 57  4  0  0  0  0
 53 54  4  0  0  0  0
 54 55  4  0  0  0  0
 54 58  1  0  0  0  0
 55 56  4  0  0  0  0
 56 57  4  0  0  0  0
 58 59  2  0  0  0  0
 58 60  1  0  0  0  0
 60 61  1  0  0  0  0
 61 62  1  0  0  0  0
 62 63  1  0  0  0  0
 63 64  1  0  0  0  0
 64 65  1  0  0  0  0
 65 66  1  0  0  0  0
 65 70  1  0  0  0  0
 66 67  1  0  0  0  0
 67 68  1  0  0  0  0
 68 69  1  0  0  0  0
 68 71  1  0  0  0  0
 69 70  1  0  0  0  0
 71 72  4  0  0  0  0
 71 76  4  0  0  0  0
 72 73  4  0  0  0  0
 73 74  4  0  0  0  0
 74 75  4  0  0  0  0
 75 76  4  0  0  0  0
 76 77  1  0  0  0  0
 77 78  1  0  0  0  0
M  END
>  <Name_Molregno>
573274

>  <DOPAMINE D2>
4.91

>  <DOPAMINE D3>
6.64

$$$$
573275
  Marvin  02231216192D 0   1.00000     0.00000     0

 78 87  0  0  0  0  0  0  0  0999 V2000
  -20.0672   11.9113    0.0000 O   0  0  0  0  0  0  0  0  0
  -20.7817   12.3238    0.0000 C   0  0  0  0  0  0  0  0  0
  -19.3527   12.3238    0.0000 C   0  0  0  0  0  0  0  0  0
  -19.3527   13.1488    0.0000 C   0  0  0  0  0  0  0  0  0
  -18.6383   13.5613    0.0000 C   0  0  0  0  0  0  0  0  0
  -17.9238   13.1488    0.0000 C   0  0  0  0  0  0  0  0  0
  -17.9238   12.3238    0.0000 C   0  0  0  0  0  0  0  0  0
  -18.6383   11.9113    0.0000 C   0  0  0  0  0  0  0  0  0
  -18.6383   11.0863    0.0000 N   0  0  0  0  0  0  0  0  0
  -17.9238   10.6738    0.0000 C   0  0  0  0  0  0  0  0  0
  -17.9238    9.8488    0.0000 C   0  0  0  0  0  0  0  0  0
  -18.6383    9.4363    0.0000 N   0  0  0  0  0  0  0  0  0
  -19.3527    9.8488    0.0000 C   0  0  0  0  0  0  0  0  0
  -19.3527   10.6738    0.0000 C   0  0  0  0  0  0  0  0  0
  -18.6383    8.6113    0.0000 C   0  0  0  0  0  0  0  0  0
  -17.9238    8.1988    0.0000 C   0  0  0  0  0  0  0  0  0
  -17.9238    7.3738    0.0000 C   0  0  0  0  0  0  0  0  0
  -17.2093    6.9613    0.0000 C   0  0  0  0  0  0  0  0  0
  -17.2093    6.1363    0.0000 N   0  0  0  0  0  0  0  0  0
  -16.4949    5.7238    0.0000 C   0  0  0  0  0  0  0  0  0
  -15.7804    6.1363    0.0000 O   0  0  0  0  0  0  0  0  0
  -16.4949    4.8988    0.0000 C   0  0  0  0  0  0  0  0  0
  -15.7804    4.4863    0.0000 C   0  0  0  0  0  0  0  0  0
  -15.7804    3.6613    0.0000 C   0  0  0  0  0  0  0  0  0
  -16.4949    3.2488    0.0000 C   0  0  0  0  0  0  0  0  0
  -17.2093    3.6613    0.0000 C   0  0  0  0  0  0  0  0  0
  -17.2093    4.4863    0.0000 C   0  0  0  0  0  0  0  0  0
  -16.4949    2.4238    0.0000 C   0  0  0  0  0  0  0  0  0
  -15.8274    1.9389    0.0000 N   0  0  0  0  0  0  0  0  0
  -16.0824    1.1543    0.0000 N   0  0  0  0  0  0  0  0  0
  -16.9074    1.1543    0.0000 N   0  0  0  0  0  0  0  0  0
  -17.1623    1.9389    0.0000 C   0  0  0  0  0  0  0  0  0
  -17.3923    0.4868    0.0000 C   0  0  0  0  0  0  0  0  0
  -17.0567   -0.2668    0.0000 C   0  0  0  0  0  0  0  0  0
  -16.2362   -0.3531    0.0000 C   0  0  0  0  0  0  0  0  0
  -15.9007   -1.1067    0.0000 C   0  0  0  0  0  0  0  0  0
  -16.3856   -1.7742    0.0000 C   0  0  0  0  0  0  0  0  0
  -17.2061   -1.6879    0.0000 C   0  0  0  0  0  0  0  0  0
  -17.5416   -0.9343    0.0000 C   0  0  0  0  0  0  0  0  0
  -16.0500   -2.5279    0.0000 C   0  0  0  0  0  0  0  0  0
  -15.2296   -2.6141    0.0000 C   0  0  0  0  0  0  0  0  0
  -14.8940   -3.3678    0.0000 C   0  0  0  0  0  0  0  0  0
  -15.3789   -4.0352    0.0000 C   0  0  0  0  0  0  0  0  0
  -16.1994   -3.9490    0.0000 C   0  0  0  0  0  0  0  0  0
  -16.5350   -3.1953    0.0000 C   0  0  0  0  0  0  0  0  0
  -15.0434   -4.7889    0.0000 C   0  0  0  0  0  0  0  0  0
  -14.2229   -4.8751    0.0000 N   0  0  0  0  0  0  0  0  0
  -13.6709   -4.2620    0.0000 N   0  0  0  0  0  0  0  0  0
  -12.9172   -4.5976    0.0000 N   0  0  0  0  0  0  0  0  0
  -13.0034   -5.4181    0.0000 C   0  0  0  0  0  0  0  0  0
  -13.8104   -5.5896    0.0000 C   0  0  0  0  0  0  0  0  0
  -12.3903   -5.9701    0.0000 C   0  0  0  0  0  0  0  0  0
  -11.6057   -5.7152    0.0000 C   0  0  0  0  0  0  0  0  0
  -10.9926   -6.2672    0.0000 C   0  0  0  0  0  0  0  0  0
  -11.1641   -7.0742    0.0000 C   0  0  0  0  0  0  0  0  0
  -11.9488   -7.3291    0.0000 C   0  0  0  0  0  0  0  0  0
  -12.5619   -6.7771    0.0000 C   0  0  0  0  0  0  0  0  0
  -10.5510   -7.6262    0.0000 C   0  0  0  0  0  0  0  0  0
  -10.7226   -8.4332    0.0000 O   0  0  0  0  0  0  0  0  0
   -9.7664   -7.3713    0.0000 N   0  0  0  0  0  0  0  0  0
   -9.1533   -7.9233    0.0000 C   0  0  0  0  0  0  0  0  0
   -8.3687   -7.6683    0.0000 C   0  0  0  0  0  0  0  0  0
   -7.7556   -8.2204    0.0000 C   0  0  0  0  0  0  0  0  0
   -6.9710   -7.9654    0.0000 C   0  0  0  0  0  0  0  0  0
   -6.3579   -8.5175    0.0000 N   0  0  0  0  0  0  0  0  0
   -5.5733   -8.2625    0.0000 C   0  0  0  0  0  0  0  0  0
   -4.9602   -8.8146    0.0000 C   0  0  0  0  0  0  0  0  0
   -5.1317   -9.6215    0.0000 N   0  0  0  0  0  0  0  0  0
   -5.9163   -9.8765    0.0000 C   0  0  0  0  0  0  0  0  0
   -6.5294   -9.3244    0.0000 C   0  0  0  0  0  0  0  0  0
   -4.5186  -10.1736    0.0000 C   0  0  0  0  0  0  0  0  0
   -3.7340   -9.9186    0.0000 C   0  0  0  0  0  0  0  0  0
   -3.1209  -10.4707    0.0000 C   0  0  0  0  0  0  0  0  0
   -3.2924  -11.2776    0.0000 C   0  0  0  0  0  0  0  0  0
   -4.0770  -11.5326    0.0000 C   0  0  0  0  0  0  0  0  0
   -4.6901  -10.9805    0.0000 C   0  0  0  0  0  0  0  0  0
   -5.4748  -11.2355    0.0000 O   0  0  0  0  0  0  0  0  0
   -5.6463  -12.0425    0.0000 C   0  0  0  0  0  0  0  0  0
  1  2  1  0  0  0  0
  1  3  1  0  0  0  0
  3  4  4  0  0  0  0
  3  8  4  0  0  0  0
  4  5  4  0  0  0  0
  5  6  4  0  0  0  0
  6  7  4  0  0  0  0
  7  8  4  0  0  0  0
  8  9  1  0  0  0  0
  9 10  1  0  0  0  0
  9 14  1  0  0  0  0
 10 11  1  0  0  0  0
 11 12  1  0  0  0  0
 12 13  1  0  0  0  0
 12 15  1  0  0  0  0
 13 14  1  0  0  0  0
 15 16  1  0  0  0  0
 16 17  1  0  0  0  0
 17 18  1  0  0  0  0
 18 19  1  0  0  0  0
 19 20  1  0  0  0  0
 20 21  2  0  0  0  0
 20 22  1  0  0  0  0
 22 23  4  0  0  0  0
 22 27  4  0  0  0  0
 23 24  4  0  0  0  0
 24 25  4  0  0  0  0
 25 26  4  0  0  0  0
 25 28  1  0  0  0  0
 26 27  4  0  0  0  0
 28 29  4  0  0  0  0
 28 32  4  0  0  0  0
 29 30  4  0  0  0  0
 30 31  4  0  0  0  0
 31 32  4  0  0  0  0
 31 33  1  0  0  0  0
 33 34  1  0  0  0  0
 34 35  4  0  0  0  0
 34 39  4  0  0  0  0
 35 36  4  0  0  0  0
 36 37  4  0  0  0  0
 37 38  4  0  0  0  0
 37 40  1  0  0  0  0
 38 39  4  0  0  0  0
 40 41  4  0  0  0  0
 40 45  4  0  0  0  0
 41 42  4  0  0  0  0
 42 43  4  0  0  0  0
 43 44  4  0  0  0  0
 43 46  1  0  0  0  0
 44 45  4  0  0  0  0
 46 47  1  0  0  0  0
 47 48  4  0  0  0  0
 47 51  4  0  0  0  0
 48 49  4  0  0  0  0
 49 50  4  0  0  0  0
 50 51  4  0  0  0  0
 50 52  1  0  0  0  0
 52 53  4  0  0  0  0
 52 57  4  0  0  0  0
 53 54  4  0  0  0  0
 54 55  4  0  0  0  0
 55 56  4  0  0  0  0
 55 58  1  0  0  0  0
 56 57  4  0  0  0  0
 58 59  2  0  0  0  0
 58 60  1  0  0  0  0
 60 61  1  0  0  0  0
 61 62  1  0  0  0  0
 62 63  1  0  0  0  0
 63 64  1  0  0  0  0
 64 65  1  0  0  0  0
 65 66  1  0  0  0  0
 65 70  1  0  0  0  0
 66 67  1  0  0  0  0
 67 68  1  0  0  0  0
 68 69  1  0  0  0  0
 68 71  1  0  0  0  0
 69 70  1  0  0  0  0
 71 72  4  0  0  0  0
 71 76  4  0  0  0  0
 72 73  4  0  0  0  0
 73 74  4  0  0  0  0
 74 75  4  0  0  0  0
 75 76  4  0  0  0  0
 76 77  1  0  0  0  0
 77 78  1  0  0  0  0
M  END
>  <Name_Molregno>
573275

>  <DOPAMINE D2>
5.9

>  <DOPAMINE D3>
7.15

$$$$
579828
  Marvin  02231216192D 0   1.00000     0.00000     0

 32 36  0  0  1  0  0  0  0  0999 V2000
   -8.6395    0.9244    0.0000 S   0  0  0  0  0  0  0  0  0
   -7.8549    0.6695    0.0000 C   0  0  0  0  0  0  0  0  0
   -7.1404    1.0820    0.0000 C   0  0  0  0  0  0  0  0  0
   -6.4260    0.6695    0.0000 C   0  0  0  0  0  0  0  0  0
   -5.7115    1.0820    0.0000 N   0  0  0  0  0  0  0  0  0
   -5.7115    1.9070    0.0000 C   0  0  0  0  0  0  0  0  0
   -6.4260    2.3195    0.0000 C   0  0  0  0  0  0  0  0  0
   -6.4260    3.1445    0.0000 C   0  0  0  0  0  0  0  0  0
   -4.9970    0.6695    0.0000 C   0  0  0  0  0  0  0  0  0
   -4.2826    1.0820    0.0000 C   0  0  0  0  0  0  0  0  0
   -3.5681    0.6695    0.0000 N   0  0  0  0  0  0  0  0  0
   -2.8536    1.0820    0.0000 C   0  0  0  0  0  0  0  0  0
   -2.1391    0.6695    0.0000 C   0  0  0  0  0  0  0  0  0
   -2.1391   -0.1555    0.0000 N   0  0  0  0  0  0  0  0  0
   -2.8536   -0.5680    0.0000 C   0  0  0  0  0  0  0  0  0
   -3.5681   -0.1555    0.0000 C   0  0  0  0  0  0  0  0  0
   -1.4247   -0.5680    0.0000 C   0  0  0  0  0  0  0  0  0
   -1.4247   -1.3930    0.0000 C   0  0  0  0  0  0  0  0  0
   -0.7102   -1.8055    0.0000 C   0  0  0  0  0  0  0  0  0
    0.0043   -1.3930    0.0000 N   0  0  0  0  0  0  0  0  0
    0.0043   -0.5680    0.0000 C   0  0  0  0  0  0  0  0  0
   -0.7102   -0.1555    0.0000 C   0  0  0  0  0  0  0  0  0
   -0.7102   -2.6305    0.0000 C   0  0  0  0  0  0  0  0  0
   -1.4247   -3.0430    0.0000 C   0  0  0  0  0  0  0  0  0
   -2.1391   -2.6305    0.0000 C   0  0  0  0  0  0  0  0  0
   -2.1391   -1.8055    0.0000 C   0  0  0  0  0  0  0  0  0
   -6.4260   -0.1555    0.0000 C   0  0  0  0  0  0  0  0  0
   -7.1404   -0.5680    0.0000 C   0  0  0  0  0  0  0  0  0
   -7.8549   -0.1555    0.0000 C   0  0  0  0  0  0  0  0  0
   -8.6395   -0.4105    0.0000 N   0  0  0  0  0  0  0  0  0
   -9.1245    0.2570    0.0000 C   0  0  0  0  0  0  0  0  0
   -9.9495    0.2570    0.0000 N   0  0  0  0  0  0  0  0  0
  1  2  4  0  0  0  0
  1 31  4  0  0  0  0
  2  3  1  0  0  0  0
  2 29  4  0  0  0  0
  3  4  1  0  0  0  0
  4  5  1  0  0  0  0
  4 27  1  0  0  0  0
  5  6  1  0  0  0  0
  5  9  1  0  0  0  0
  6  7  1  0  0  0  0
  7  8  1  0  0  0  0
  9 10  1  0  0  0  0
 10 11  1  0  0  0  0
 11 12  1  0  0  0  0
 11 16  1  0  0  0  0
 12 13  1  0  0  0  0
 13 14  1  0  0  0  0
 14 15  1  0  0  0  0
 14 17  1  0  0  0  0
 15 16  1  0  0  0  0
 17 18  4  0  0  0  0
 17 22  4  0  0  0  0
 18 19  4  0  0  0  0
 18 26  4  0  0  0  0
 19 20  4  0  0  0  0
 19 23  4  0  0  0  0
 20 21  4  0  0  0  0
 21 22  4  0  0  0  0
 23 24  4  0  0  0  0
 24 25  4  0  0  0  0
 25 26  4  0  0  0  0
 27 28  1  0  0  0  0
 28 29  1  0  0  0  0
 29 30  4  0  0  0  0
 30 31  4  0  0  0  0
 31 32  1  0  0  0  0
M  STY  1   1 DAT
M  SAL   1  1  20
M  SDT   1 MRV_IMPLICIT_H                                        
M  SDD   1     0.0000    0.0000    DR    ALL  0       0  
M  SED   1 IMPL_H1
M  END
>  <Name_Molregno>
579828

>  <DOPAMINE D2>
6.96

>  <DOPAMINE D3>
8.58

$$$$
579857
  Marvin  02231216192D 0   1.00000     0.00000     0

 32 36  0  0  1  0  0  0  0  0999 V2000
   -8.6395    0.9244    0.0000 S   0  0  0  0  0  0  0  0  0
   -7.8549    0.6695    0.0000 C   0  0  0  0  0  0  0  0  0
   -7.1404    1.0820    0.0000 C   0  0  0  0  0  0  0  0  0
   -6.4260    0.6695    0.0000 C   0  0  0  0  0  0  0  0  0
   -5.7115    1.0820    0.0000 N   0  0  0  0  0  0  0  0  0
   -5.7115    1.9070    0.0000 C   0  0  0  0  0  0  0  0  0
   -6.4260    2.3195    0.0000 C   0  0  0  0  0  0  0  0  0
   -6.4260    3.1445    0.0000 C   0  0  0  0  0  0  0  0  0
   -4.9970    0.6695    0.0000 C   0  0  0  0  0  0  0  0  0
   -4.2826    1.0820    0.0000 C   0  0  0  0  0  0  0  0  0
   -3.5681    0.6695    0.0000 N   0  0  0  0  0  0  0  0  0
   -2.8536    1.0820    0.0000 C   0  0  0  0  0  0  0  0  0
   -2.1391    0.6695    0.0000 C   0  0  0  0  0  0  0  0  0
   -2.1391   -0.1555    0.0000 N   0  0  0  0  0  0  0  0  0
   -2.8536   -0.5680    0.0000 C   0  0  0  0  0  0  0  0  0
   -3.5681   -0.1555    0.0000 C   0  0  0  0  0  0  0  0  0
   -1.4247   -0.5680    0.0000 C   0  0  0  0  0  0  0  0  0
   -1.4247   -1.3930    0.0000 C   0  0  0  0  0  0  0  0  0
   -0.7102   -1.8055    0.0000 C   0  0  0  0  0  0  0  0  0
   -0.7102   -2.6305    0.0000 N   0  0  0  0  0  0  0  0  0
   -1.4247   -3.0430    0.0000 C   0  0  0  0  0  0  0  0  0
   -2.1391   -2.6305    0.0000 C   0  0  0  0  0  0  0  0  0
   -2.1391   -1.8055    0.0000 C   0  0  0  0  0  0  0  0  0
    0.0043   -1.3930    0.0000 C   0  0  0  0  0  0  0  0  0
    0.0043   -0.5680    0.0000 C   0  0  0  0  0  0  0  0  0
   -0.7102   -0.1555    0.0000 C   0  0  0  0  0  0  0  0  0
   -6.4260   -0.1555    0.0000 C   0  0  0  0  0  0  0  0  0
   -7.1404   -0.5680    0.0000 C   0  0  0  0  0  0  0  0  0
   -7.8549   -0.1555    0.0000 C   0  0  0  0  0  0  0  0  0
   -8.6395   -0.4105    0.0000 N   0  0  0  0  0  0  0  0  0
   -9.1245    0.2570    0.0000 C   0  0  0  0  0  0  0  0  0
   -9.9495    0.2570    0.0000 N   0  0  0  0  0  0  0  0  0
  1  2  4  0  0  0  0
  1 31  4  0  0  0  0
  2  3  1  0  0  0  0
  2 29  4  0  0  0  0
  3  4  1  0  0  0  0
  4  5  1  0  0  0  0
  4 27  1  0  0  0  0
  5  6  1  0  0  0  0
  5  9  1  0  0  0  0
  6  7  1  0  0  0  0
  7  8  1  0  0  0  0
  9 10  1  0  0  0  0
 10 11  1  0  0  0  0
 11 12  1  0  0  0  0
 11 16  1  0  0  0  0
 12 13  1  0  0  0  0
 13 14  1  0  0  0  0
 14 15  1  0  0  0  0
 14 17  1  0  0  0  0
 15 16  1  0  0  0  0
 17 18  4  0  0  0  0
 17 26  4  0  0  0  0
 18 19  4  0  0  0  0
 18 23  4  0  0  0  0
 19 20  4  0  0  0  0
 19 24  4  0  0  0  0
 20 21  4  0  0  0  0
 21 22  4  0  0  0  0
 22 23  4  0  0  0  0
 24 25  4  0  0  0  0
 25 26  4  0  0  0  0
 27 28  1  0  0  0  0
 28 29  1  0  0  0  0
 29 30  4  0  0  0  0
 30 31  4  0  0  0  0
 31 32  1  0  0  0  0
M  END
>  <Name_Molregno>
579857

>  <DOPAMINE D2>
7.24

>  <DOPAMINE D3>
8.92

$$$$
579863
  Marvin  02231216192D 0   1.00000     0.00000     0

 33 37  0  0  1  0  0  0  0  0999 V2000
   -0.0392    0.2285    0.0000 O   0  0  0  0  0  0  0  0  0
    0.6753   -0.1840    0.0000 C   0  0  0  0  0  0  0  0  0
    1.3897    0.2285    0.0000 C   0  0  0  0  0  0  0  0  0
    2.1042   -0.1840    0.0000 C   0  0  0  0  0  0  0  0  0
    2.8187    0.2285    0.0000 C   0  0  0  0  0  0  0  0  0
    3.5332   -0.1840    0.0000 C   0  0  0  0  0  0  0  0  0
    4.2476    0.2285    0.0000 N   0  0  0  0  0  0  0  0  0
    4.2476    1.0535    0.0000 C   0  0  0  0  0  0  0  0  0
    3.5332    1.4660    0.0000 C   0  0  0  0  0  0  0  0  0
    3.5332    2.2910    0.0000 C   0  0  0  0  0  0  0  0  0
    4.9621   -0.1840    0.0000 C   0  0  0  0  0  0  0  0  0
    5.6766    0.2285    0.0000 C   0  0  0  0  0  0  0  0  0
    6.3910   -0.1840    0.0000 N   0  0  0  0  0  0  0  0  0
    7.1055    0.2285    0.0000 C   0  0  0  0  0  0  0  0  0
    7.8200   -0.1840    0.0000 C   0  0  0  0  0  0  0  0  0
    7.8200   -1.0090    0.0000 N   0  0  0  0  0  0  0  0  0
    7.1055   -1.4215    0.0000 C   0  0  0  0  0  0  0  0  0
    6.3910   -1.0090    0.0000 C   0  0  0  0  0  0  0  0  0
    8.5344   -1.4215    0.0000 C   0  0  0  0  0  0  0  0  0
    8.5344   -2.2465    0.0000 C   0  0  0  0  0  0  0  0  0
    9.2489   -2.6590    0.0000 C   0  0  0  0  0  0  0  0  0
    9.9634   -2.2465    0.0000 C   0  0  0  0  0  0  0  0  0
    9.9634   -1.4215    0.0000 C   0  0  0  0  0  0  0  0  0
    9.2489   -1.0090    0.0000 C   0  0  0  0  0  0  0  0  0
   10.6779   -2.6590    0.0000 C   0  0  0  0  0  0  0  0  0
   10.6779   -3.4840    0.0000 C   0  0  0  0  0  0  0  0  0
    9.9634   -3.8965    0.0000 C   0  0  0  0  0  0  0  0  0
    9.2489   -3.4840    0.0000 C   0  0  0  0  0  0  0  0  0
    3.5332   -1.0090    0.0000 C   0  0  0  0  0  0  0  0  0
    2.8187   -1.4215    0.0000 C   0  0  0  0  0  0  0  0  0
    2.1042   -1.0090    0.0000 C   0  0  0  0  0  0  0  0  0
    1.3897   -1.4215    0.0000 C   0  0  0  0  0  0  0  0  0
    0.6753   -1.0090    0.0000 C   0  0  0  0  0  0  0  0  0
  1  2  1  0  0  0  0
  2  3  4  0  0  0  0
  2 33  4  0  0  0  0
  3  4  4  0  0  0  0
  4  5  1  0  0  0  0
  4 31  4  0  0  0  0
  5  6  1  0  0  0  0
  6  7  1  0  0  0  0
  6 29  1  0  0  0  0
  7  8  1  0  0  0  0
  7 11  1  0  0  0  0
  8  9  1  0  0  0  0
  9 10  1  0  0  0  0
 11 12  1  0  0  0  0
 12 13  1  0  0  0  0
 13 14  1  0  0  0  0
 13 18  1  0  0  0  0
 14 15  1  0  0  0  0
 15 16  1  0  0  0  0
 16 17  1  0  0  0  0
 16 19  1  0  0  0  0
 17 18  1  0  0  0  0
 19 20  4  0  0  0  0
 19 24  4  0  0  0  0
 20 21  4  0  0  0  0
 21 22  4  0  0  0  0
 21 28  4  0  0  0  0
 22 23  4  0  0  0  0
 22 25  4  0  0  0  0
 23 24  4  0  0  0  0
 25 26  4  0  0  0  0
 26 27  4  0  0  0  0
 27 28  4  0  0  0  0
 29 30  1  0  0  0  0
 30 31  1  0  0  0  0
 31 32  4  0  0  0  0
 32 33  4  0  0  0  0
M  END
>  <Name_Molregno>
579863

>  <DOPAMINE D2>
8.05

>  <DOPAMINE D3>
9.16

$$$$
579864
  Marvin  02231216192D 0   1.00000     0.00000     0

 32 36  0  0  1  0  0  0  0  0999 V2000
   -8.8628    0.5377    0.0000 S   0  0  0  0  0  0  0  0  0
   -8.0782    0.2827    0.0000 C   0  0  0  0  0  0  0  0  0
   -7.3637    0.6952    0.0000 C   0  0  0  0  0  0  0  0  0
   -6.6492    0.2827    0.0000 C   0  0  0  0  0  0  0  0  0
   -5.9348    0.6952    0.0000 N   0  0  0  0  0  0  0  0  0
   -5.9348    1.5202    0.0000 C   0  0  0  0  0  0  0  0  0
   -6.6492    1.9327    0.0000 C   0  0  0  0  0  0  0  0  0
   -6.6492    2.7577    0.0000 C   0  0  0  0  0  0  0  0  0
   -5.2203    0.2827    0.0000 C   0  0  0  0  0  0  0  0  0
   -4.5058    0.6952    0.0000 C   0  0  0  0  0  0  0  0  0
   -3.7914    0.2827    0.0000 N   0  0  0  0  0  0  0  0  0
   -3.0769    0.6952    0.0000 C   0  0  0  0  0  0  0  0  0
   -2.3624    0.2827    0.0000 C   0  0  0  0  0  0  0  0  0
   -2.3624   -0.5423    0.0000 N   0  0  0  0  0  0  0  0  0
   -3.0769   -0.9548    0.0000 C   0  0  0  0  0  0  0  0  0
   -3.7914   -0.5423    0.0000 C   0  0  0  0  0  0  0  0  0
   -1.6479   -0.9548    0.0000 C   0  0  0  0  0  0  0  0  0
   -1.6479   -1.7798    0.0000 N   0  0  0  0  0  0  0  0  0
   -0.9335   -2.1923    0.0000 C   0  0  0  0  0  0  0  0  0
   -0.2190   -1.7798    0.0000 C   0  0  0  0  0  0  0  0  0
   -0.2190   -0.9548    0.0000 C   0  0  0  0  0  0  0  0  0
   -0.9335   -0.5423    0.0000 C   0  0  0  0  0  0  0  0  0
   -0.9335    0.2827    0.0000 C   0  0  0  0  0  0  0  0  0
   -0.2190    0.6952    0.0000 C   0  0  0  0  0  0  0  0  0
    0.4955    0.2827    0.0000 C   0  0  0  0  0  0  0  0  0
    0.4955   -0.5423    0.0000 C   0  0  0  0  0  0  0  0  0
   -6.6492   -0.5423    0.0000 C   0  0  0  0  0  0  0  0  0
   -7.3637   -0.9548    0.0000 C   0  0  0  0  0  0  0  0  0
   -8.0782   -0.5423    0.0000 C   0  0  0  0  0  0  0  0  0
   -8.8628   -0.7972    0.0000 N   0  0  0  0  0  0  0  0  0
   -9.3477   -0.1298    0.0000 C   0  0  0  0  0  0  0  0  0
  -10.1727   -0.1298    0.0000 N   0  0  0  0  0  0  0  0  0
  1  2  4  0  0  0  0
  1 31  4  0  0  0  0
  2  3  1  0  0  0  0
  2 29  4  0  0  0  0
  3  4  1  0  0  0  0
  4  5  1  0  0  0  0
  4 27  1  0  0  0  0
  5  6  1  0  0  0  0
  5  9  1  0  0  0  0
  6  7  1  0  0  0  0
  7  8  1  0  0  0  0
  9 10  1  0  0  0  0
 10 11  1  0  0  0  0
 11 12  1  0  0  0  0
 11 16  1  0  0  0  0
 12 13  1  0  0  0  0
 13 14  1  0  0  0  0
 14 15  1  0  0  0  0
 14 17  1  0  0  0  0
 15 16  1  0  0  0  0
 17 18  4  0  0  0  0
 17 22  4  0  0  0  0
 18 19  4  0  0  0  0
 19 20  4  0  0  0  0
 20 21  4  0  0  0  0
 21 22  4  0  0  0  0
 21 26  4  0  0  0  0
 22 23  4  0  0  0  0
 23 24  4  0  0  0  0
 24 25  4  0  0  0  0
 25 26  4  0  0  0  0
 27 28  1  0  0  0  0
 28 29  1  0  0  0  0
 29 30  4  0  0  0  0
 30 31  4  0  0  0  0
 31 32  1  0  0  0  0
M  END
>  <Name_Molregno>
579864

>  <DOPAMINE D2>
6.57

>  <DOPAMINE D3>
8.65

$$$$
579873
  Marvin  02231216192D 0   1.00000     0.00000     0

 33 37  0  0  1  0  0  0  0  0999 V2000
    0.0697    0.3983    0.0000 O   0  0  0  0  0  0  0  0  0
    0.7842   -0.0142    0.0000 C   0  0  0  0  0  0  0  0  0
    1.4987    0.3983    0.0000 C   0  0  0  0  0  0  0  0  0
    2.2131   -0.0142    0.0000 C   0  0  0  0  0  0  0  0  0
    2.9276    0.3983    0.0000 C   0  0  0  0  0  0  0  0  0
    3.6421   -0.0142    0.0000 C   0  0  0  0  0  0  0  0  0
    4.3565    0.3983    0.0000 N   0  0  0  0  0  0  0  0  0
    4.3565    1.2233    0.0000 C   0  0  0  0  0  0  0  0  0
    3.6421    1.6358    0.0000 C   0  0  0  0  0  0  0  0  0
    3.6421    2.4608    0.0000 C   0  0  0  0  0  0  0  0  0
    5.0710   -0.0142    0.0000 C   0  0  0  0  0  0  0  0  0
    5.7855    0.3983    0.0000 C   0  0  0  0  0  0  0  0  0
    6.5000   -0.0142    0.0000 N   0  0  0  0  0  0  0  0  0
    7.2144    0.3983    0.0000 C   0  0  0  0  0  0  0  0  0
    7.9289   -0.0142    0.0000 C   0  0  0  0  0  0  0  0  0
    7.9289   -0.8392    0.0000 N   0  0  0  0  0  0  0  0  0
    7.2144   -1.2517    0.0000 C   0  0  0  0  0  0  0  0  0
    6.5000   -0.8392    0.0000 C   0  0  0  0  0  0  0  0  0
    8.6434   -1.2517    0.0000 C   0  0  0  0  0  0  0  0  0
    8.6434   -2.0767    0.0000 C   0  0  0  0  0  0  0  0  0
    9.3578   -2.4892    0.0000 C   0  0  0  0  0  0  0  0  0
   10.0723   -2.0767    0.0000 N   0  0  0  0  0  0  0  0  0
   10.0723   -1.2517    0.0000 C   0  0  0  0  0  0  0  0  0
    9.3578   -0.8392    0.0000 C   0  0  0  0  0  0  0  0  0
    9.3578   -3.3142    0.0000 C   0  0  0  0  0  0  0  0  0
    8.6434   -3.7267    0.0000 C   0  0  0  0  0  0  0  0  0
    7.9289   -3.3142    0.0000 C   0  0  0  0  0  0  0  0  0
    7.9289   -2.4892    0.0000 C   0  0  0  0  0  0  0  0  0
    3.6421   -0.8392    0.0000 C   0  0  0  0  0  0  0  0  0
    2.9276   -1.2517    0.0000 C   0  0  0  0  0  0  0  0  0
    2.2131   -0.8392    0.0000 C   0  0  0  0  0  0  0  0  0
    1.4987   -1.2517    0.0000 C   0  0  0  0  0  0  0  0  0
    0.7842   -0.8392    0.0000 C   0  0  0  0  0  0  0  0  0
  1  2  1  0  0  0  0
  2  3  4  0  0  0  0
  2 33  4  0  0  0  0
  3  4  4  0  0  0  0
  4  5  1  0  0  0  0
  4 31  4  0  0  0  0
  5  6  1  0  0  0  0
  6  7  1  0  0  0  0
  6 29  1  0  0  0  0
  7  8  1  0  0  0  0
  7 11  1  0  0  0  0
  8  9  1  0  0  0  0
  9 10  1  0  0  0  0
 11 12  1  0  0  0  0
 12 13  1  0  0  0  0
 13 14  1  0  0  0  0
 13 18  1  0  0  0  0
 14 15  1  0  0  0  0
 15 16  1  0  0  0  0
 16 17  1  0  0  0  0
 16 19  1  0  0  0  0
 17 18  1  0  0  0  0
 19 20  4  0  0  0  0
 19 24  4  0  0  0  0
 20 21  4  0  0  0  0
 20 28  4  0  0  0  0
 21 22  4  0  0  0  0
 21 25  4  0  0  0  0
 22 23  4  0  0  0  0
 23 24  4  0  0  0  0
 25 26  4  0  0  0  0
 26 27  4  0  0  0  0
 27 28  4  0  0  0  0
 29 30  1  0  0  0  0
 30 31  1  0  0  0  0
 31 32  4  0  0  0  0
 32 33  4  0  0  0  0
M  STY  1   1 DAT
M  SAL   1  1  22
M  SDT   1 MRV_IMPLICIT_H                                        
M  SDD   1     0.0000    0.0000    DR    ALL  0       0  
M  SED   1 IMPL_H1
M  END
>  <Name_Molregno>
579873

>  <DOPAMINE D2>
8.15

>  <DOPAMINE D3>
8.58

$$$$
579874
  Marvin  02231216192D 0   1.00000     0.00000     0

 34 38  0  0  1  0  0  0  0  0999 V2000
   -0.0447    1.5854    0.0000 S   0  0  0  0  0  0  0  0  0
    0.7399    1.3305    0.0000 C   0  0  0  0  0  0  0  0  0
    1.4544    1.7430    0.0000 C   0  0  0  0  0  0  0  0  0
    2.1689    1.3305    0.0000 C   0  0  0  0  0  0  0  0  0
    2.8833    1.7430    0.0000 N   0  0  0  0  0  0  0  0  0
    2.8833    2.5680    0.0000 C   0  0  0  0  0  0  0  0  0
    2.1689    2.9805    0.0000 C   0  0  0  0  0  0  0  0  0
    2.1689    3.8055    0.0000 C   0  0  0  0  0  0  0  0  0
    3.5978    1.3305    0.0000 C   0  0  0  0  0  0  0  0  0
    4.3123    1.7430    0.0000 C   0  0  0  0  0  0  0  0  0
    5.0267    1.3305    0.0000 N   0  0  0  0  0  0  0  0  0
    5.7412    1.7430    0.0000 C   0  0  0  0  0  0  0  0  0
    6.4557    1.3305    0.0000 C   0  0  0  0  0  0  0  0  0
    6.4557    0.5055    0.0000 N   0  0  0  0  0  0  0  0  0
    5.7412    0.0930    0.0000 C   0  0  0  0  0  0  0  0  0
    5.0267    0.5055    0.0000 C   0  0  0  0  0  0  0  0  0
    7.1701    0.0930    0.0000 C   0  0  0  0  0  0  0  0  0
    7.8846    0.5055    0.0000 C   0  0  0  0  0  0  0  0  0
    8.5991    0.0930    0.0000 C   0  0  0  0  0  0  0  0  0
    8.5991   -0.7320    0.0000 C   0  0  0  0  0  0  0  0  0
    7.8846   -1.1445    0.0000 C   0  0  0  0  0  0  0  0  0
    7.1701   -0.7320    0.0000 C   0  0  0  0  0  0  0  0  0
    9.3136   -1.1445    0.0000 C   0  0  0  0  0  0  0  0  0
   10.0280   -0.7320    0.0000 C   0  0  0  0  0  0  0  0  0
   10.7425   -1.1445    0.0000 C   0  0  0  0  0  0  0  0  0
   10.7425   -1.9695    0.0000 N   0  0  0  0  0  0  0  0  0
   10.0280   -2.3820    0.0000 C   0  0  0  0  0  0  0  0  0
    9.3136   -1.9695    0.0000 C   0  0  0  0  0  0  0  0  0
    2.1689    0.5055    0.0000 C   0  0  0  0  0  0  0  0  0
    1.4544    0.0930    0.0000 C   0  0  0  0  0  0  0  0  0
    0.7399    0.5055    0.0000 C   0  0  0  0  0  0  0  0  0
   -0.0447    0.2506    0.0000 N   0  0  0  0  0  0  0  0  0
   -0.5296    0.9180    0.0000 C   0  0  0  0  0  0  0  0  0
   -1.3546    0.9180    0.0000 N   0  0  0  0  0  0  0  0  0
  1  2  4  0  0  0  0
  1 33  4  0  0  0  0
  2  3  1  0  0  0  0
  2 31  4  0  0  0  0
  3  4  1  0  0  0  0
  4  5  1  0  0  0  0
  4 29  1  0  0  0  0
  5  6  1  0  0  0  0
  5  9  1  0  0  0  0
  6  7  1  0  0  0  0
  7  8  1  0  0  0  0
  9 10  1  0  0  0  0
 10 11  1  0  0  0  0
 11 12  1  0  0  0  0
 11 16  1  0  0  0  0
 12 13  1  0  0  0  0
 13 14  1  0  0  0  0
 14 15  1  0  0  0  0
 14 17  1  0  0  0  0
 15 16  1  0  0  0  0
 17 18  4  0  0  0  0
 17 22  4  0  0  0  0
 18 19  4  0  0  0  0
 19 20  4  0  0  0  0
 20 21  4  0  0  0  0
 20 23  1  0  0  0  0
 21 22  4  0  0  0  0
 23 24  4  0  0  0  0
 23 28  4  0  0  0  0
 24 25  4  0  0  0  0
 25 26  4  0  0  0  0
 26 27  4  0  0  0  0
 27 28  4  0  0  0  0
 29 30  1  0  0  0  0
 30 31  1  0  0  0  0
 31 32  4  0  0  0  0
 32 33  4  0  0  0  0
 33 34  1  0  0  0  0
M  END
>  <Name_Molregno>
579874

>  <DOPAMINE D2>
6.57

>  <DOPAMINE D3>
8.32

$$$$
579887
  Marvin  02231216192D 0   1.00000     0.00000     0

 33 37  0  0  1  0  0  0  0  0999 V2000
    0.0697    0.3983    0.0000 O   0  0  0  0  0  0  0  0  0
    0.7842   -0.0142    0.0000 C   0  0  0  0  0  0  0  0  0
    1.4987    0.3983    0.0000 C   0  0  0  0  0  0  0  0  0
    2.2131   -0.0142    0.0000 C   0  0  0  0  0  0  0  0  0
    2.9276    0.3983    0.0000 C   0  0  0  0  0  0  0  0  0
    3.6421   -0.0142    0.0000 C   0  0  0  0  0  0  0  0  0
    4.3565    0.3983    0.0000 N   0  0  0  0  0  0  0  0  0
    4.3565    1.2233    0.0000 C   0  0  0  0  0  0  0  0  0
    3.6421    1.6358    0.0000 C   0  0  0  0  0  0  0  0  0
    3.6421    2.4608    0.0000 C   0  0  0  0  0  0  0  0  0
    5.0710   -0.0142    0.0000 C   0  0  0  0  0  0  0  0  0
    5.7855    0.3983    0.0000 C   0  0  0  0  0  0  0  0  0
    6.5000   -0.0142    0.0000 N   0  0  0  0  0  0  0  0  0
    7.2144    0.3983    0.0000 C   0  0  0  0  0  0  0  0  0
    7.9289   -0.0142    0.0000 C   0  0  0  0  0  0  0  0  0
    7.9289   -0.8392    0.0000 N   0  0  0  0  0  0  0  0  0
    7.2144   -1.2517    0.0000 C   0  0  0  0  0  0  0  0  0
    6.5000   -0.8392    0.0000 C   0  0  0  0  0  0  0  0  0
    8.6434   -1.2517    0.0000 C   0  0  0  0  0  0  0  0  0
    8.6434   -2.0767    0.0000 C   0  0  0  0  0  0  0  0  0
    9.3578   -2.4892    0.0000 C   0  0  0  0  0  0  0  0  0
    9.3578   -3.3142    0.0000 N   0  0  0  0  0  0  0  0  0
    8.6434   -3.7267    0.0000 C   0  0  0  0  0  0  0  0  0
    7.9289   -3.3142    0.0000 C   0  0  0  0  0  0  0  0  0
    7.9289   -2.4892    0.0000 C   0  0  0  0  0  0  0  0  0
   10.0723   -2.0767    0.0000 C   0  0  0  0  0  0  0  0  0
   10.0723   -1.2517    0.0000 C   0  0  0  0  0  0  0  0  0
    9.3578   -0.8392    0.0000 C   0  0  0  0  0  0  0  0  0
    3.6421   -0.8392    0.0000 C   0  0  0  0  0  0  0  0  0
    2.9276   -1.2517    0.0000 C   0  0  0  0  0  0  0  0  0
    2.2131   -0.8392    0.0000 C   0  0  0  0  0  0  0  0  0
    1.4987   -1.2517    0.0000 C   0  0  0  0  0  0  0  0  0
    0.7842   -0.8392    0.0000 C   0  0  0  0  0  0  0  0  0
  1  2  1  0  0  0  0
  2  3  4  0  0  0  0
  2 33  4  0  0  0  0
  3  4  4  0  0  0  0
  4  5  1  0  0  0  0
  4 31  4  0  0  0  0
  5  6  1  0  0  0  0
  6  7  1  0  0  0  0
  6 29  1  0  0  0  0
  7  8  1  0  0  0  0
  7 11  1  0  0  0  0
  8  9  1  0  0  0  0
  9 10  1  0  0  0  0
 11 12  1  0  0  0  0
 12 13  1  0  0  0  0
 13 14  1  0  0  0  0
 13 18  1  0  0  0  0
 14 15  1  0  0  0  0
 15 16  1  0  0  0  0
 16 17  1  0  0  0  0
 16 19  1  0  0  0  0
 17 18  1  0  0  0  0
 19 20  4  0  0  0  0
 19 28  4  0  0  0  0
 20 21  4  0  0  0  0
 20 25  4  0  0  0  0
 21 22  4  0  0  0  0
 21 26  4  0  0  0  0
 22 23  4  0  0  0  0
 23 24  4  0  0  0  0
 24 25  4  0  0  0  0
 26 27  4  0  0  0  0
 27 28  4  0  0  0  0
 29 30  1  0  0  0  0
 30 31  1  0  0  0  0
 31 32  4  0  0  0  0
 32 33  4  0  0  0  0
M  END
>  <Name_Molregno>
579887

>  <DOPAMINE D2>
8.28

>  <DOPAMINE D3>
8.9

$$$$
579914
  Marvin  02231216192D 0   1.00000     0.00000     0

 33 37  0  0  1  0  0  0  0  0999 V2000
   -0.1468    0.0233    0.0000 O   0  0  0  0  0  0  0  0  0
    0.5677   -0.3892    0.0000 C   0  0  0  0  0  0  0  0  0
    1.2822    0.0233    0.0000 C   0  0  0  0  0  0  0  0  0
    1.9966   -0.3892    0.0000 C   0  0  0  0  0  0  0  0  0
    2.7111    0.0233    0.0000 C   0  0  0  0  0  0  0  0  0
    3.4256   -0.3892    0.0000 C   0  0  0  0  0  0  0  0  0
    4.1400    0.0233    0.0000 N   0  0  0  0  0  0  0  0  0
    4.1400    0.8483    0.0000 C   0  0  0  0  0  0  0  0  0
    3.4256    1.2608    0.0000 C   0  0  0  0  0  0  0  0  0
    3.4256    2.0858    0.0000 C   0  0  0  0  0  0  0  0  0
    4.8545   -0.3892    0.0000 C   0  0  0  0  0  0  0  0  0
    5.5690    0.0233    0.0000 C   0  0  0  0  0  0  0  0  0
    6.2835   -0.3892    0.0000 N   0  0  0  0  0  0  0  0  0
    6.9979    0.0233    0.0000 C   0  0  0  0  0  0  0  0  0
    7.7124   -0.3892    0.0000 C   0  0  0  0  0  0  0  0  0
    7.7124   -1.2142    0.0000 N   0  0  0  0  0  0  0  0  0
    6.9979   -1.6267    0.0000 C   0  0  0  0  0  0  0  0  0
    6.2835   -1.2142    0.0000 C   0  0  0  0  0  0  0  0  0
    8.4269   -1.6267    0.0000 C   0  0  0  0  0  0  0  0  0
    8.4269   -2.4517    0.0000 N   0  0  0  0  0  0  0  0  0
    9.1413   -2.8642    0.0000 C   0  0  0  0  0  0  0  0  0
    9.8558   -2.4517    0.0000 C   0  0  0  0  0  0  0  0  0
    9.8558   -1.6267    0.0000 C   0  0  0  0  0  0  0  0  0
    9.1413   -1.2142    0.0000 C   0  0  0  0  0  0  0  0  0
    9.1413   -0.3892    0.0000 C   0  0  0  0  0  0  0  0  0
    9.8558    0.0233    0.0000 C   0  0  0  0  0  0  0  0  0
   10.5703   -0.3892    0.0000 C   0  0  0  0  0  0  0  0  0
   10.5703   -1.2142    0.0000 C   0  0  0  0  0  0  0  0  0
    3.4256   -1.2142    0.0000 C   0  0  0  0  0  0  0  0  0
    2.7111   -1.6267    0.0000 C   0  0  0  0  0  0  0  0  0
    1.9966   -1.2142    0.0000 C   0  0  0  0  0  0  0  0  0
    1.2822   -1.6267    0.0000 C   0  0  0  0  0  0  0  0  0
    0.5677   -1.2142    0.0000 C   0  0  0  0  0  0  0  0  0
  1  2  1  0  0  0  0
  2  3  4  0  0  0  0
  2 33  4  0  0  0  0
  3  4  4  0  0  0  0
  4  5  1  0  0  0  0
  4 31  4  0  0  0  0
  5  6  1  0  0  0  0
  6  7  1  0  0  0  0
  6 29  1  0  0  0  0
  7  8  1  0  0  0  0
  7 11  1  0  0  0  0
  8  9  1  0  0  0  0
  9 10  1  0  0  0  0
 11 12  1  0  0  0  0
 12 13  1  0  0  0  0
 13 14  1  0  0  0  0
 13 18  1  0  0  0  0
 14 15  1  0  0  0  0
 15 16  1  0  0  0  0
 16 17  1  0  0  0  0
 16 19  1  0  0  0  0
 17 18  1  0  0  0  0
 19 20  4  0  0  0  0
 19 24  4  0  0  0  0
 20 21  4  0  0  0  0
 21 22  4  0  0  0  0
 22 23  4  0  0  0  0
 23 24  4  0  0  0  0
 23 28  4  0  0  0  0
 24 25  4  0  0  0  0
 25 26  4  0  0  0  0
 26 27  4  0  0  0  0
 27 28  4  0  0  0  0
 29 30  1  0  0  0  0
 30 31  1  0  0  0  0
 31 32  4  0  0  0  0
 32 33  4  0  0  0  0
M  END
>  <Name_Molregno>
579914

>  <DOPAMINE D2>
7.66

>  <DOPAMINE D3>
9.36

$$$$
579943
  Marvin  02231216192D 0   1.00000     0.00000     0

 34 38  0  0  1  0  0  0  0  0999 V2000
   -4.9592    0.7347    0.0000 O   0  0  0  0  0  0  0  0  0
   -5.6737    1.1472    0.0000 C   0  0  0  0  0  0  0  0  0
   -4.9592   -0.0903    0.0000 C   0  0  0  0  0  0  0  0  0
   -4.2448   -0.5028    0.0000 C   0  0  0  0  0  0  0  0  0
   -3.5303   -0.0903    0.0000 C   0  0  0  0  0  0  0  0  0
   -2.8158   -0.5028    0.0000 C   0  0  0  0  0  0  0  0  0
   -2.8158   -1.3278    0.0000 C   0  0  0  0  0  0  0  0  0
   -2.1013   -1.7403    0.0000 N   0  0  0  0  0  0  0  0  0
   -1.3869   -1.3278    0.0000 C   0  0  0  0  0  0  0  0  0
   -1.3869   -0.5028    0.0000 C   0  0  0  0  0  0  0  0  0
   -0.6724   -0.0903    0.0000 C   0  0  0  0  0  0  0  0  0
   -2.1013   -2.5653    0.0000 C   0  0  0  0  0  0  0  0  0
   -1.3869   -2.9778    0.0000 C   0  0  0  0  0  0  0  0  0
   -1.3869   -3.8028    0.0000 N   0  0  0  0  0  0  0  0  0
   -0.6724   -4.2153    0.0000 C   0  0  0  0  0  0  0  0  0
   -0.6724   -5.0403    0.0000 C   0  0  0  0  0  0  0  0  0
   -1.3869   -5.4528    0.0000 N   0  0  0  0  0  0  0  0  0
   -2.1013   -5.0403    0.0000 C   0  0  0  0  0  0  0  0  0
   -2.1013   -4.2153    0.0000 C   0  0  0  0  0  0  0  0  0
   -1.3869   -6.2778    0.0000 C   0  0  0  0  0  0  0  0  0
   -2.1013   -6.6903    0.0000 C   0  0  0  0  0  0  0  0  0
   -2.1013   -7.5153    0.0000 C   0  0  0  0  0  0  0  0  0
   -1.3869   -7.9278    0.0000 N   0  0  0  0  0  0  0  0  0
   -0.6724   -7.5153    0.0000 C   0  0  0  0  0  0  0  0  0
   -0.6724   -6.6903    0.0000 C   0  0  0  0  0  0  0  0  0
   -2.8158   -7.9278    0.0000 C   0  0  0  0  0  0  0  0  0
   -3.5303   -7.5153    0.0000 C   0  0  0  0  0  0  0  0  0
   -3.5303   -6.6903    0.0000 C   0  0  0  0  0  0  0  0  0
   -2.8158   -6.2778    0.0000 C   0  0  0  0  0  0  0  0  0
   -3.5303   -1.7403    0.0000 C   0  0  0  0  0  0  0  0  0
   -4.2448   -1.3278    0.0000 C   0  0  0  0  0  0  0  0  0
   -4.9592   -1.7403    0.0000 C   0  0  0  0  0  0  0  0  0
   -5.6737   -1.3278    0.0000 C   0  0  0  0  0  0  0  0  0
   -5.6737   -0.5028    0.0000 C   0  0  0  0  0  0  0  0  0
  1  2  1  0  0  0  0
  1  3  1  0  0  0  0
  3  4  4  0  0  0  0
  3 34  4  0  0  0  0
  4  5  1  0  0  0  0
  4 31  4  0  0  0  0
  5  6  1  0  0  0  0
  6  7  1  0  0  0  0
  7  8  1  0  0  0  0
  7 30  1  0  0  0  0
  8  9  1  0  0  0  0
  8 12  1  0  0  0  0
  9 10  1  0  0  0  0
 10 11  1  0  0  0  0
 12 13  1  0  0  0  0
 13 14  1  0  0  0  0
 14 15  1  0  0  0  0
 14 19  1  0  0  0  0
 15 16  1  0  0  0  0
 16 17  1  0  0  0  0
 17 18  1  0  0  0  0
 17 20  1  0  0  0  0
 18 19  1  0  0  0  0
 20 21  4  0  0  0  0
 20 25  4  0  0  0  0
 21 22  4  0  0  0  0
 21 29  4  0  0  0  0
 22 23  4  0  0  0  0
 22 26  4  0  0  0  0
 23 24  4  0  0  0  0
 24 25  4  0  0  0  0
 26 27  4  0  0  0  0
 27 28  4  0  0  0  0
 28 29  4  0  0  0  0
 30 31  1  0  0  0  0
 31 32  4  0  0  0  0
 32 33  4  0  0  0  0
 33 34  4  0  0  0  0
M  STY  1   1 DAT
M  SAL   1  1  23
M  SDT   1 MRV_IMPLICIT_H                                        
M  SDD   1     0.0000    0.0000    DR    ALL  0       0  
M  SED   1 IMPL_H1
M  END
>  <Name_Molregno>
579943

>  <DOPAMINE D2>
8.37

>  <DOPAMINE D3>
9.56

$$$$
579960
  Marvin  02231216192D 0   1.00000     0.00000     0

 34 38  0  0  1  0  0  0  0  0999 V2000
   -6.5572    2.5805    0.0000 O   0  0  0  0  0  0  0  0  0
   -6.5572    1.7555    0.0000 C   0  0  0  0  0  0  0  0  0
   -5.8427    1.3430    0.0000 C   0  0  0  0  0  0  0  0  0
   -5.1282    1.7555    0.0000 C   0  0  0  0  0  0  0  0  0
   -4.4138    1.3430    0.0000 C   0  0  0  0  0  0  0  0  0
   -4.4138    0.5180    0.0000 C   0  0  0  0  0  0  0  0  0
   -3.6993    0.1055    0.0000 N   0  0  0  0  0  0  0  0  0
   -2.9848    0.5180    0.0000 C   0  0  0  0  0  0  0  0  0
   -2.9848    1.3430    0.0000 C   0  0  0  0  0  0  0  0  0
   -2.2703    1.7555    0.0000 C   0  0  0  0  0  0  0  0  0
   -3.6993   -0.7195    0.0000 C   0  0  0  0  0  0  0  0  0
   -2.9848   -1.1320    0.0000 C   0  0  0  0  0  0  0  0  0
   -2.9848   -1.9570    0.0000 N   0  0  0  0  0  0  0  0  0
   -2.2703   -2.3695    0.0000 C   0  0  0  0  0  0  0  0  0
   -2.2703   -3.1945    0.0000 C   0  0  0  0  0  0  0  0  0
   -2.9848   -3.6070    0.0000 N   0  0  0  0  0  0  0  0  0
   -3.6993   -3.1945    0.0000 C   0  0  0  0  0  0  0  0  0
   -3.6993   -2.3695    0.0000 C   0  0  0  0  0  0  0  0  0
   -2.9848   -4.4320    0.0000 C   0  0  0  0  0  0  0  0  0
   -2.2703   -4.8445    0.0000 O   0  0  0  0  0  0  0  0  0
   -3.6993   -4.8445    0.0000 C   0  0  0  0  0  0  0  0  0
   -4.4530   -4.5089    0.0000 N   0  0  0  0  0  0  0  0  0
   -5.0050   -5.1220    0.0000 C   0  0  0  0  0  0  0  0  0
   -4.5925   -5.8365    0.0000 C   0  0  0  0  0  0  0  0  0
   -3.7855   -5.6650    0.0000 C   0  0  0  0  0  0  0  0  0
   -5.0050   -6.5510    0.0000 C   0  0  0  0  0  0  0  0  0
   -5.8300   -6.5510    0.0000 C   0  0  0  0  0  0  0  0  0
   -6.2425   -5.8365    0.0000 C   0  0  0  0  0  0  0  0  0
   -5.8300   -5.1220    0.0000 C   0  0  0  0  0  0  0  0  0
   -5.1282    0.1055    0.0000 C   0  0  0  0  0  0  0  0  0
   -5.8427    0.5180    0.0000 C   0  0  0  0  0  0  0  0  0
   -6.5572    0.1055    0.0000 C   0  0  0  0  0  0  0  0  0
   -7.2716    0.5180    0.0000 C   0  0  0  0  0  0  0  0  0
   -7.2716    1.3430    0.0000 C   0  0  0  0  0  0  0  0  0
  1  2  1  0  0  0  0
  2  3  4  0  0  0  0
  2 34  4  0  0  0  0
  3  4  1  0  0  0  0
  3 31  4  0  0  0  0
  4  5  1  0  0  0  0
  5  6  1  0  0  0  0
  6  7  1  0  0  0  0
  6 30  1  0  0  0  0
  7  8  1  0  0  0  0
  7 11  1  0  0  0  0
  8  9  1  0  0  0  0
  9 10  1  0  0  0  0
 11 12  1  0  0  0  0
 12 13  1  0  0  0  0
 13 14  1  0  0  0  0
 13 18  1  0  0  0  0
 14 15  1  0  0  0  0
 15 16  1  0  0  0  0
 16 17  1  0  0  0  0
 16 19  1  0  0  0  0
 17 18  1  0  0  0  0
 19 20  2  0  0  0  0
 19 21  1  0  0  0  0
 21 22  4  0  0  0  0
 21 25  4  0  0  0  0
 22 23  4  0  0  0  0
 23 24  4  0  0  0  0
 23 29  4  0  0  0  0
 24 25  4  0  0  0  0
 24 26  4  0  0  0  0
 26 27  4  0  0  0  0
 27 28  4  0  0  0  0
 28 29  4  0  0  0  0
 30 31  1  0  0  0  0
 31 32  4  0  0  0  0
 32 33  4  0  0  0  0
 33 34  4  0  0  0  0
M  STY  1   1 DAT
M  SAL   1  1  22
M  SDT   1 MRV_IMPLICIT_H                                        
M  SDD   1     0.0000    0.0000    DR    ALL  0       0  
M  SED   1 IMPL_H1
M  END
>  <Name_Molregno>
579960

>  <DOPAMINE D2>
7.32

>  <DOPAMINE D3>
9.24

$$$$
579961
  Marvin  02231216192D 0   1.00000     0.00000     0

 33 37  0  0  1  0  0  0  0  0999 V2000
    0.0697    0.3983    0.0000 O   0  0  0  0  0  0  0  0  0
    0.7842   -0.0142    0.0000 C   0  0  0  0  0  0  0  0  0
    1.4987    0.3983    0.0000 C   0  0  0  0  0  0  0  0  0
    2.2131   -0.0142    0.0000 C   0  0  0  0  0  0  0  0  0
    2.9276    0.3983    0.0000 C   0  0  0  0  0  0  0  0  0
    3.6421   -0.0142    0.0000 C   0  0  0  0  0  0  0  0  0
    4.3565    0.3983    0.0000 N   0  0  0  0  0  0  0  0  0
    4.3565    1.2233    0.0000 C   0  0  0  0  0  0  0  0  0
    3.6421    1.6358    0.0000 C   0  0  0  0  0  0  0  0  0
    3.6421    2.4608    0.0000 C   0  0  0  0  0  0  0  0  0
    5.0710   -0.0142    0.0000 C   0  0  0  0  0  0  0  0  0
    5.7855    0.3983    0.0000 C   0  0  0  0  0  0  0  0  0
    6.5000   -0.0142    0.0000 N   0  0  0  0  0  0  0  0  0
    7.2144    0.3983    0.0000 C   0  0  0  0  0  0  0  0  0
    7.9289   -0.0142    0.0000 C   0  0  0  0  0  0  0  0  0
    7.9289   -0.8392    0.0000 N   0  0  0  0  0  0  0  0  0
    7.2144   -1.2517    0.0000 C   0  0  0  0  0  0  0  0  0
    6.5000   -0.8392    0.0000 C   0  0  0  0  0  0  0  0  0
    8.6434   -1.2517    0.0000 C   0  0  0  0  0  0  0  0  0
    8.6434   -2.0767    0.0000 C   0  0  0  0  0  0  0  0  0
    9.3578   -2.4892    0.0000 C   0  0  0  0  0  0  0  0  0
   10.0723   -2.0767    0.0000 C   0  0  0  0  0  0  0  0  0
   10.0723   -1.2517    0.0000 C   0  0  0  0  0  0  0  0  0
    9.3578   -0.8392    0.0000 C   0  0  0  0  0  0  0  0  0
    9.3578   -3.3142    0.0000 C   0  0  0  0  0  0  0  0  0
    8.6434   -3.7267    0.0000 C   0  0  0  0  0  0  0  0  0
    7.9289   -3.3142    0.0000 C   0  0  0  0  0  0  0  0  0
    7.9289   -2.4892    0.0000 C   0  0  0  0  0  0  0  0  0
    3.6421   -0.8392    0.0000 C   0  0  0  0  0  0  0  0  0
    2.9276   -1.2517    0.0000 C   0  0  0  0  0  0  0  0  0
    2.2131   -0.8392    0.0000 C   0  0  0  0  0  0  0  0  0
    1.4987   -1.2517    0.0000 C   0  0  0  0  0  0  0  0  0
    0.7842   -0.8392    0.0000 C   0  0  0  0  0  0  0  0  0
  1  2  1  0  0  0  0
  2  3  4  0  0  0  0
  2 33  4  0  0  0  0
  3  4  4  0  0  0  0
  4  5  1  0  0  0  0
  4 31  4  0  0  0  0
  5  6  1  0  0  0  0
  6  7  1  0  0  0  0
  6 29  1  0  0  0  0
  7  8  1  0  0  0  0
  7 11  1  0  0  0  0
  8  9  1  0  0  0  0
  9 10  1  0  0  0  0
 11 12  1  0  0  0  0
 12 13  1  0  0  0  0
 13 14  1  0  0  0  0
 13 18  1  0  0  0  0
 14 15  1  0  0  0  0
 15 16  1  0  0  0  0
 16 17  1  0  0  0  0
 16 19  1  0  0  0  0
 17 18  1  0  0  0  0
 19 20  4  0  0  0  0
 19 24  4  0  0  0  0
 20 21  4  0  0  0  0
 20 28  4  0  0  0  0
 21 22  4  0  0  0  0
 21 25  4  0  0  0  0
 22 23  4  0  0  0  0
 23 24  4  0  0  0  0
 25 26  4  0  0  0  0
 26 27  4  0  0  0  0
 27 28  4  0  0  0  0
 29 30  1  0  0  0  0
 30 31  1  0  0  0  0
 31 32  4  0  0  0  0
 32 33  4  0  0  0  0
M  END
>  <Name_Molregno>
579961

>  <DOPAMINE D2>
7.87

>  <DOPAMINE D3>
9.36

$$$$
581926
  Marvin  02231216192D 0   1.00000     0.00000     0

 36 41  0  0  1  0  0  0  0  0999 V2000
   -1.3279    0.5757    0.0000 S   0  0  0  0  0  0  0  0  0
   -1.6635   -0.1780    0.0000 C   0  0  0  0  0  0  0  0  0
   -1.1785   -0.8454    0.0000 C   0  0  0  0  0  0  0  0  0
   -1.5141   -1.5991    0.0000 C   0  0  0  0  0  0  0  0  0
   -1.0292   -2.2665    0.0000 N   0  0  0  0  0  0  0  0  0
   -0.2174   -2.1192    0.0000 C   0  0  0  0  0  0  0  0  0
    0.4039   -2.6620    0.0000 C   0  0  0  0  0  0  0  0  0
    0.3668   -3.4862    0.0000 C   0  0  0  0  0  0  0  0  0
   -0.3006   -3.9711    0.0000 C   0  0  0  0  0  0  0  0  0
   -1.0959   -3.7516    0.0000 C   0  0  0  0  0  0  0  0  0
   -1.4201   -2.9930    0.0000 C   0  0  0  0  0  0  0  0  0
   -0.2144   -4.7916    0.0000 C   0  0  0  0  0  0  0  0  0
    0.5393   -5.1271    0.0000 C   0  0  0  0  0  0  0  0  0
    0.7942   -5.9118    0.0000 O   0  0  0  0  0  0  0  0  0
    1.6192   -5.9118    0.0000 C   0  0  0  0  0  0  0  0  0
    1.8742   -5.1271    0.0000 N   0  0  0  0  0  0  0  0  0
    1.2067   -4.6422    0.0000 C   0  0  0  0  0  0  0  0  0
    1.1205   -3.8217    0.0000 C   0  0  0  0  0  0  0  0  0
    2.1042   -6.5792    0.0000 C   0  0  0  0  0  0  0  0  0
   -1.8128    1.2432    0.0000 C   0  0  0  0  0  0  0  0  0
   -2.6378    1.2432    0.0000 N   0  0  0  0  0  0  0  0  0
   -2.8928    2.0278    0.0000 N   0  0  0  0  0  0  0  0  0
   -2.2253    2.5127    0.0000 C   0  0  0  0  0  0  0  0  0
   -1.5579    2.0278    0.0000 N   0  0  0  0  0  0  0  0  0
   -0.7733    2.2827    0.0000 C   0  0  0  0  0  0  0  0  0
   -2.2253    3.3377    0.0000 C   0  0  0  0  0  0  0  0  0
   -1.5109    3.7502    0.0000 C   0  0  0  0  0  0  0  0  0
   -1.5109    4.5752    0.0000 C   0  0  0  0  0  0  0  0  0
   -0.7964    4.9877    0.0000 N   0  0  0  0  0  0  0  0  0
   -0.0819    4.5752    0.0000 C   0  0  0  0  0  0  0  0  0
   -0.0819    3.7502    0.0000 C   0  0  0  0  0  0  0  0  0
   -0.7964    3.3377    0.0000 C   0  0  0  0  0  0  0  0  0
    0.6326    4.9877    0.0000 C   0  0  0  0  0  0  0  0  0
   -2.2253    4.9877    0.0000 C   0  0  0  0  0  0  0  0  0
   -2.9398    4.5752    0.0000 C   0  0  0  0  0  0  0  0  0
   -2.9398    3.7502    0.0000 C   0  0  0  0  0  0  0  0  0
  1  2  1  0  0  0  0
  1 20  1  0  0  0  0
  2  3  1  0  0  0  0
  3  4  1  0  0  0  0
  4  5  1  0  0  0  0
  5  6  1  0  0  0  0
  5 11  1  0  0  0  0
  6  7  1  0  0  0  0
  7  8  1  0  0  0  0
  8  9  1  0  0  0  0
  8 18  2  0  0  0  0
  9 10  1  0  0  0  0
  9 12  2  0  0  0  0
 10 11  1  0  0  0  0
 12 13  1  0  0  0  0
 13 14  1  0  0  0  0
 13 17  1  0  0  0  0
 14 15  1  0  0  0  0
 15 16  2  0  0  0  0
 15 19  1  0  0  0  0
 16 17  1  0  0  0  0
 17 18  1  0  0  0  0
 20 21  4  0  0  0  0
 20 24  4  0  0  0  0
 21 22  4  0  0  0  0
 22 23  4  0  0  0  0
 23 24  4  0  0  0  0
 23 26  1  0  0  0  0
 24 25  1  0  0  0  0
 26 27  4  0  0  0  0
 26 36  4  0  0  0  0
 27 28  4  0  0  0  0
 27 32  4  0  0  0  0
 28 29  4  0  0  0  0
 28 34  4  0  0  0  0
 29 30  4  0  0  0  0
 30 31  4  0  0  0  0
 30 33  1  0  0  0  0
 31 32  4  0  0  0  0
 34 35  4  0  0  0  0
 35 36  4  0  0  0  0
M  END
>  <Name_Molregno>
581926

>  <DOPAMINE D2>
5.6

>  <DOPAMINE D3>
7.2

$$$$
582129
  Marvin  02231216192D 0   1.00000     0.00000     0

 25 28  0  0  0  0  0  0  0  0999 V2000
   -3.3472   -3.6688    0.0000 O   0  0  0  0  0  0  0  0  0
   -4.0153   -4.1527    0.0000 O   0  0  0  0  0  0  0  0  0
   -4.6820   -3.6668    0.0000 C   0  0  0  0  0  0  0  0  0
   -4.4260   -2.8826    0.0000 C   0  0  0  0  0  0  0  0  0
   -4.9099   -2.2145    0.0000 N   0  0  0  0  0  0  0  0  0
   -5.7349   -2.2133    0.0000 C   0  0  0  0  0  0  0  0  0
   -5.9887   -1.4283    0.0000 C   0  0  0  0  0  0  0  0  0
   -5.3206   -0.9443    0.0000 N   0  0  0  0  0  0  0  0  0
   -5.3194   -0.1193    0.0000 C   0  0  0  0  0  0  0  0  0
   -4.6043    0.2921    0.0000 C   0  0  0  0  0  0  0  0  0
   -4.6031    1.1171    0.0000 N   0  0  0  0  0  0  0  0  0
   -3.8881    1.5286    0.0000 C   0  0  0  0  0  0  0  0  0
   -3.8869    2.3536    0.0000 C   0  0  0  0  0  0  0  0  0
   -4.6624    1.9633    0.0000 C   0  0  0  0  0  0  0  0  0
   -4.2971    2.6238    0.0000 C   0  0  0  0  0  0  0  0  0
   -3.6568    3.0740    0.0000 C   0  0  0  0  0  0  0  0  0
   -2.8613    2.6087    0.0000 C   0  0  0  0  0  0  0  0  0
   -3.1564    1.9833    0.0000 C   0  0  0  0  0  0  0  0  0
   -3.8168    3.8894    0.0000 C   0  0  0  0  0  0  0  0  0
   -4.3965    4.4764    0.0000 C   0  0  0  0  0  0  0  0  0
   -3.3301    4.5555    0.0000 C   0  0  0  0  0  0  0  0  0
   -5.3170    1.5307    0.0000 C   0  0  0  0  0  0  0  0  0
   -4.6539   -1.4302    0.0000 C   0  0  0  0  0  0  0  0  0
   -3.8689   -1.1764    0.0000 O   0  0  0  0  0  0  0  0  0
   -3.6010   -2.8838    0.0000 C   0  0  0  0  0  0  0  0  0
  1  2  1  0  0  0  0
  1 25  1  0  0  0  0
  2  3  1  0  0  0  0
  3  4  1  0  0  0  0
  4  5  1  0  0  0  0
  4 25  1  0  0  0  0
  5  6  1  0  0  0  0
  5 23  1  0  0  0  0
  6  7  1  0  0  0  0
  7  8  1  0  0  0  0
  8  9  1  0  0  0  0
  8 23  1  0  0  0  0
  9 10  1  0  0  0  0
 10 11  1  0  0  0  0
 11 12  1  0  0  0  0
 11 22  1  0  0  0  0
 12 13  1  0  0  0  0
 13 14  1  0  0  0  0
 13 18  1  0  0  0  0
 13 19  1  0  0  0  0
 14 15  1  0  0  0  0
 15 16  1  0  0  0  0
 16 17  1  0  0  0  0
 16 19  1  0  0  0  0
 17 18  1  0  0  0  0
 19 20  1  0  0  0  0
 19 21  1  0  0  0  0
 23 24  2  0  0  0  0
M  END
>  <Name_Molregno>
582129

>  <DOPAMINE D2>
5.8

>  <DOPAMINE D3>
7.3

$$$$
591110
  Marvin  02231216192D 0   1.00000     0.00000     0

 27 31  0  0  1  0  0  0  0  0999 V2000
    0.4188    1.2437    0.0000 O   0  0  0  0  0  0  0  0  0
   -0.3658    0.9887    0.0000 C   0  0  0  0  0  0  0  0  0
   -0.3658    0.1637    0.0000 C   0  0  0  0  0  0  0  0  0
    0.4188   -0.0912    0.0000 O   0  0  0  0  0  0  0  0  0
    0.9037    0.5762    0.0000 C   0  0  0  0  0  0  0  0  0
   -1.0803   -0.2488    0.0000 C   0  0  0  0  0  0  0  0  0
   -1.7947    0.1637    0.0000 C   0  0  0  0  0  0  0  0  0
   -2.5092   -0.2488    0.0000 C   0  0  0  0  0  0  0  0  0
   -3.2237    0.1637    0.0000 C   0  0  0  0  0  0  0  0  0
   -3.9382   -0.2488    0.0000 N   0  0  0  0  0  0  0  0  0
   -4.6526    0.1637    0.0000 C   0  0  0  0  0  0  0  0  0
   -4.6526    0.9887    0.0000 C   0  0  0  0  0  0  0  0  0
   -3.9382    1.4012    0.0000 C   0  0  0  0  0  0  0  0  0
   -3.9382    2.2262    0.0000 C   0  0  0  0  0  0  0  0  0
   -3.2237    2.6387    0.0000 C   0  0  0  0  0  0  0  0  0
   -3.2237    3.4637    0.0000 C   0  0  0  0  0  0  0  0  0
   -3.9382    3.8762    0.0000 O   0  0  0  0  0  0  0  0  0
   -2.5092    3.8762    0.0000 C   0  0  0  0  0  0  0  0  0
   -2.5092    2.2262    0.0000 C   0  0  0  0  0  0  0  0  0
   -2.5092    1.4012    0.0000 C   0  0  0  0  0  0  0  0  0
   -3.2237    0.9887    0.0000 C   0  0  0  0  0  0  0  0  0
   -1.7947    0.9887    0.0000 C   0  0  0  0  0  0  0  0  0
   -1.0803    1.4012    0.0000 C   0  0  0  0  0  0  0  0  0
   -1.7947    2.6387    0.0000 C   0  0  0  0  0  0  0  0  0
   -1.0803    2.2262    0.0000 O   0  0  0  0  0  0  0  0  0
   -1.7947    3.4637    0.0000 C   0  0  0  0  0  0  0  0  0
   -3.9382   -1.0738    0.0000 C   0  0  0  0  0  0  0  0  0
  1  2  1  0  0  0  0
  1  5  1  0  0  0  0
  2  3  4  0  0  0  0
  2 23  4  0  0  0  0
  3  4  1  0  0  0  0
  3  6  4  0  0  0  0
  4  5  1  0  0  0  0
  6  7  4  0  0  0  0
  7  8  1  0  0  0  0
  7 22  4  0  0  0  0
  8  9  1  0  0  0  0
  9 10  1  0  0  0  0
  9 21  1  0  0  0  0
 10 11  1  0  0  0  0
 10 27  1  0  0  0  0
 11 12  1  0  0  0  0
 12 13  1  0  0  0  0
 13 14  4  0  0  0  0
 13 21  4  0  0  0  0
 14 15  4  0  0  0  0
 15 16  1  0  0  0  0
 15 19  4  0  0  0  0
 16 17  2  0  0  0  0
 16 18  1  0  0  0  0
 19 20  4  0  0  0  0
 19 24  1  0  0  0  0
 20 21  4  0  0  0  0
 20 22  1  0  0  0  0
 22 23  4  0  0  0  0
 24 25  2  0  0  0  0
 24 26  1  0  0  0  0
M  END
>  <Name_Molregno>
591110

>  <5-HT1B>
7

>  <5-HT1D>
7.31

>  <5-HT1E>
5

>  <5-HT2A>
6.08

>  <5-HT2C>
5.97

>  <5-HT3>
5

>  <5-HT5>
5.65

>  <5-HT6>
6.59

>  <5-HT7>
7.17

>  <Alpha-1A>
8.7

>  <Alpha-1B>
5.92

>  <Alpha-2A>
5.89

>  <Alpha-2B>
6.6

>  <Alpha-2C>
6.74

>  <Beta-1>
5.07

>  <Beta-2>
5

>  <DOPAMINE D1>
6.05

>  <DOPAMINE D2>
6.07

>  <DOPAMINE D3>
6.51

>  <DOPAMINE D4>
6.58

>  <DOPAMINE D5>
5.62

>  <Dopamine transporter>
5

>  <HISTAMINE H1>
5

>  <HISTAMINE H2>
6.17

>  <HISTAMINE H3>
5

>  <HISTAMINE H4>
5

>  <Muscarinic acetylcholine receptor M1>
5

>  <Muscarinic acetylcholine receptor M2>
5

>  <Muscarinic acetylcholine receptor M3>
5

>  <Muscarinic acetylcholine receptor M4>
5

>  <Norepinephrine transporter>
5

>  <Serotonin transporter>
6.61

$$$$
591221
  Marvin  02231216192D 0   1.00000     0.00000     0

 24 27  0  0  0  0  0  0  0  0999 V2000
    1.5366   -2.9010    0.0000 Cl  0  0  0  0  0  0  0  0  0
    1.9491   -2.1865    0.0000 C   0  0  0  0  0  0  0  0  0
    1.5366   -1.4721    0.0000 C   0  0  0  0  0  0  0  0  0
    1.9491   -0.7576    0.0000 C   0  0  0  0  0  0  0  0  0
    2.7741   -0.7576    0.0000 C   0  0  0  0  0  0  0  0  0
    3.1866   -0.0431    0.0000 N   0  0  0  0  0  0  0  0  0
    2.7741    0.6713    0.0000 C   0  0  0  0  0  0  0  0  0
    3.1866    1.3858    0.0000 C   0  0  0  0  0  0  0  0  0
    4.0116    1.3858    0.0000 N   0  0  0  0  0  0  0  0  0
    4.4241    0.6713    0.0000 C   0  0  0  0  0  0  0  0  0
    4.0116   -0.0431    0.0000 C   0  0  0  0  0  0  0  0  0
    4.4241    2.1003    0.0000 C   0  0  0  0  0  0  0  0  0
    5.2491    2.1003    0.0000 C   0  0  0  0  0  0  0  0  0
    5.7340    1.4328    0.0000 N   0  0  0  0  0  0  0  0  0
    6.5187    1.6878    0.0000 C   0  0  0  0  0  0  0  0  0
    6.5187    2.5128    0.0000 C   0  0  0  0  0  0  0  0  0
    5.7340    2.7677    0.0000 N   0  0  0  0  0  0  0  0  0
    5.4791    3.5523    0.0000 C   0  0  0  0  0  0  0  0  0
    7.2331    2.9253    0.0000 C   0  0  0  0  0  0  0  0  0
    7.9476    2.5128    0.0000 C   0  0  0  0  0  0  0  0  0
    7.9476    1.6878    0.0000 C   0  0  0  0  0  0  0  0  0
    7.2331    1.2753    0.0000 C   0  0  0  0  0  0  0  0  0
    3.1866   -1.4721    0.0000 C   0  0  0  0  0  0  0  0  0
    2.7741   -2.1865    0.0000 C   0  0  0  0  0  0  0  0  0
  1  2  1  0  0  0  0
  2  3  4  0  0  0  0
  2 24  4  0  0  0  0
  3  4  4  0  0  0  0
  4  5  4  0  0  0  0
  5  6  1  0  0  0  0
  5 23  4  0  0  0  0
  6  7  1  0  0  0  0
  6 11  1  0  0  0  0
  7  8  1  0  0  0  0
  8  9  1  0  0  0  0
  9 10  1  0  0  0  0
  9 12  1  0  0  0  0
 10 11  1  0  0  0  0
 12 13  1  0  0  0  0
 13 14  4  0  0  0  0
 13 17  4  0  0  0  0
 14 15  4  0  0  0  0
 15 16  4  0  0  0  0
 15 22  4  0  0  0  0
 16 17  4  0  0  0  0
 16 19  4  0  0  0  0
 17 18  1  0  0  0  0
 19 20  4  0  0  0  0
 20 21  4  0  0  0  0
 21 22  4  0  0  0  0
 23 24  4  0  0  0  0
M  END
>  <Name_Molregno>
591221

>  <DOPAMINE D2>
5

>  <DOPAMINE D3>
5

>  <DOPAMINE D4>
6.9

$$$$
591223
  Marvin  02231216192D 0   1.00000     0.00000     0

 28 31  0  0  0  0  0  0  0  0999 V2000
   -2.3716   -2.6489    0.0000 Cl  0  0  0  0  0  0  0  0  0
   -3.1966   -2.6489    0.0000 C   0  0  0  0  0  0  0  0  0
   -3.6091   -3.3633    0.0000 C   0  0  0  0  0  0  0  0  0
   -4.4341   -3.3633    0.0000 C   0  0  0  0  0  0  0  0  0
   -4.8466   -2.6489    0.0000 C   0  0  0  0  0  0  0  0  0
   -4.4341   -1.9344    0.0000 N   0  0  0  0  0  0  0  0  0
   -3.6091   -1.9344    0.0000 C   0  0  0  0  0  0  0  0  0
   -3.1966   -1.2199    0.0000 N   0  0  0  0  0  0  0  0  0
   -3.6091   -0.5054    0.0000 C   0  0  0  0  0  0  0  0  0
   -3.1966    0.2090    0.0000 C   0  0  0  0  0  0  0  0  0
   -2.3716    0.2090    0.0000 N   0  0  0  0  0  0  0  0  0
   -1.9591   -0.5054    0.0000 C   0  0  0  0  0  0  0  0  0
   -2.3716   -1.2199    0.0000 C   0  0  0  0  0  0  0  0  0
   -1.9591    0.9235    0.0000 C   0  0  0  0  0  0  0  0  0
   -1.1341    0.9235    0.0000 C   0  0  0  0  0  0  0  0  0
   -0.6492    0.2561    0.0000 N   0  0  0  0  0  0  0  0  0
    0.1355    0.5110    0.0000 C   0  0  0  0  0  0  0  0  0
    0.1355    1.3360    0.0000 C   0  0  0  0  0  0  0  0  0
   -0.6492    1.5909    0.0000 N   0  0  0  0  0  0  0  0  0
   -0.9041    2.3756    0.0000 C   0  0  0  0  0  0  0  0  0
    0.8499    1.7485    0.0000 C   0  0  0  0  0  0  0  0  0
    1.5644    1.3360    0.0000 C   0  0  0  0  0  0  0  0  0
    1.5644    0.5110    0.0000 C   0  0  0  0  0  0  0  0  0
    0.8499    0.0985    0.0000 C   0  0  0  0  0  0  0  0  0
   -4.8466   -4.0778    0.0000 C   0  0  0  0  0  0  0  0  0
   -5.2591   -4.7923    0.0000 F   0  0  0  0  0  0  0  0  0
   -5.5611   -3.6653    0.0000 F   0  0  0  0  0  0  0  0  0
   -4.1321   -4.4903    0.0000 F   0  0  0  0  0  0  0  0  0
  1  2  1  0  0  0  0
  2  3  4  0  0  0  0
  2  7  4  0  0  0  0
  3  4  4  0  0  0  0
  4  5  4  0  0  0  0
  4 25  1  0  0  0  0
  5  6  4  0  0  0  0
  6  7  4  0  0  0  0
  7  8  1  0  0  0  0
  8  9  1  0  0  0  0
  8 13  1  0  0  0  0
  9 10  1  0  0  0  0
 10 11  1  0  0  0  0
 11 12  1  0  0  0  0
 11 14  1  0  0  0  0
 12 13  1  0  0  0  0
 14 15  1  0  0  0  0
 15 16  4  0  0  0  0
 15 19  4  0  0  0  0
 16 17  4  0  0  0  0
 17 18  4  0  0  0  0
 17 24  4  0  0  0  0
 18 19  4  0  0  0  0
 18 21  4  0  0  0  0
 19 20  1  0  0  0  0
 21 22  4  0  0  0  0
 22 23  4  0  0  0  0
 23 24  4  0  0  0  0
 25 26  1  0  0  0  0
 25 27  1  0  0  0  0
 25 28  1  0  0  0  0
M  END
>  <Name_Molregno>
591223

>  <DOPAMINE D2>
5.3

>  <DOPAMINE D3>
5.3

>  <DOPAMINE D4>
6.2

$$$$
591248
  Marvin  02231216192D 0   1.00000     0.00000     0

 24 27  0  0  0  0  0  0  0  0999 V2000
    1.5366   -2.9010    0.0000 Cl  0  0  0  0  0  0  0  0  0
    1.9491   -2.1865    0.0000 C   0  0  0  0  0  0  0  0  0
    1.5366   -1.4721    0.0000 C   0  0  0  0  0  0  0  0  0
    1.9491   -0.7576    0.0000 N   0  0  0  0  0  0  0  0  0
    2.7741   -0.7576    0.0000 C   0  0  0  0  0  0  0  0  0
    3.1866   -1.4721    0.0000 N   0  0  0  0  0  0  0  0  0
    2.7741   -2.1865    0.0000 C   0  0  0  0  0  0  0  0  0
    3.1866   -0.0431    0.0000 N   0  0  0  0  0  0  0  0  0
    2.7741    0.6713    0.0000 C   0  0  0  0  0  0  0  0  0
    3.1866    1.3858    0.0000 C   0  0  0  0  0  0  0  0  0
    4.0116    1.3858    0.0000 N   0  0  0  0  0  0  0  0  0
    4.4241    0.6713    0.0000 C   0  0  0  0  0  0  0  0  0
    4.0116   -0.0431    0.0000 C   0  0  0  0  0  0  0  0  0
    4.4241    2.1003    0.0000 C   0  0  0  0  0  0  0  0  0
    5.2491    2.1003    0.0000 C   0  0  0  0  0  0  0  0  0
    5.7340    1.4328    0.0000 N   0  0  0  0  0  0  0  0  0
    6.5187    1.6878    0.0000 C   0  0  0  0  0  0  0  0  0
    6.5187    2.5128    0.0000 C   0  0  0  0  0  0  0  0  0
    5.7340    2.7677    0.0000 N   0  0  0  0  0  0  0  0  0
    5.4791    3.5523    0.0000 C   0  0  0  0  0  0  0  0  0
    7.2331    2.9253    0.0000 C   0  0  0  0  0  0  0  0  0
    7.9476    2.5128    0.0000 C   0  0  0  0  0  0  0  0  0
    7.9476    1.6878    0.0000 C   0  0  0  0  0  0  0  0  0
    7.2331    1.2753    0.0000 C   0  0  0  0  0  0  0  0  0
  1  2  1  0  0  0  0
  2  3  4  0  0  0  0
  2  7  4  0  0  0  0
  3  4  4  0  0  0  0
  4  5  4  0  0  0  0
  5  6  4  0  0  0  0
  5  8  1  0  0  0  0
  6  7  4  0  0  0  0
  8  9  1  0  0  0  0
  8 13  1  0  0  0  0
  9 10  1  0  0  0  0
 10 11  1  0  0  0  0
 11 12  1  0  0  0  0
 11 14  1  0  0  0  0
 12 13  1  0  0  0  0
 14 15  1  0  0  0  0
 15 16  4  0  0  0  0
 15 19  4  0  0  0  0
 16 17  4  0  0  0  0
 17 18  4  0  0  0  0
 17 24  4  0  0  0  0
 18 19  4  0  0  0  0
 18 21  4  0  0  0  0
 19 20  1  0  0  0  0
 21 22  4  0  0  0  0
 22 23  4  0  0  0  0
 23 24  4  0  0  0  0
M  END
>  <Name_Molregno>
591248

>  <DOPAMINE D2>
5

>  <DOPAMINE D3>
5

>  <DOPAMINE D4>
5.6

$$$$
591250
  Marvin  02231216192D 0   1.00000     0.00000     0

 27 30  0  0  0  0  0  0  0  0999 V2000
   -6.8750   -4.6666    0.0000 F   0  0  0  0  0  0  0  0  0
   -6.4625   -3.9522    0.0000 C   0  0  0  0  0  0  0  0  0
   -5.7480   -4.3647    0.0000 F   0  0  0  0  0  0  0  0  0
   -7.1769   -3.5397    0.0000 F   0  0  0  0  0  0  0  0  0
   -6.0500   -3.2377    0.0000 C   0  0  0  0  0  0  0  0  0
   -6.4625   -2.5232    0.0000 C   0  0  0  0  0  0  0  0  0
   -6.0500   -1.8088    0.0000 C   0  0  0  0  0  0  0  0  0
   -5.2250   -1.8088    0.0000 C   0  0  0  0  0  0  0  0  0
   -4.8125   -1.0943    0.0000 N   0  0  0  0  0  0  0  0  0
   -5.2250   -0.3798    0.0000 C   0  0  0  0  0  0  0  0  0
   -4.8125    0.3347    0.0000 C   0  0  0  0  0  0  0  0  0
   -3.9875    0.3347    0.0000 N   0  0  0  0  0  0  0  0  0
   -3.5750   -0.3798    0.0000 C   0  0  0  0  0  0  0  0  0
   -3.9875   -1.0943    0.0000 C   0  0  0  0  0  0  0  0  0
   -3.5750    1.0491    0.0000 C   0  0  0  0  0  0  0  0  0
   -2.7500    1.0491    0.0000 C   0  0  0  0  0  0  0  0  0
   -2.2650    0.3817    0.0000 N   0  0  0  0  0  0  0  0  0
   -1.4804    0.6366    0.0000 C   0  0  0  0  0  0  0  0  0
   -1.4804    1.4616    0.0000 C   0  0  0  0  0  0  0  0  0
   -2.2650    1.7166    0.0000 N   0  0  0  0  0  0  0  0  0
   -2.5200    2.5012    0.0000 C   0  0  0  0  0  0  0  0  0
   -0.7659    1.8741    0.0000 C   0  0  0  0  0  0  0  0  0
   -0.0515    1.4616    0.0000 C   0  0  0  0  0  0  0  0  0
   -0.0515    0.6366    0.0000 C   0  0  0  0  0  0  0  0  0
   -0.7659    0.2241    0.0000 C   0  0  0  0  0  0  0  0  0
   -4.8125   -2.5232    0.0000 C   0  0  0  0  0  0  0  0  0
   -5.2250   -3.2377    0.0000 C   0  0  0  0  0  0  0  0  0
  1  2  1  0  0  0  0
  2  3  1  0  0  0  0
  2  4  1  0  0  0  0
  2  5  1  0  0  0  0
  5  6  4  0  0  0  0
  5 27  4  0  0  0  0
  6  7  4  0  0  0  0
  7  8  4  0  0  0  0
  8  9  1  0  0  0  0
  8 26  4  0  0  0  0
  9 10  1  0  0  0  0
  9 14  1  0  0  0  0
 10 11  1  0  0  0  0
 11 12  1  0  0  0  0
 12 13  1  0  0  0  0
 12 15  1  0  0  0  0
 13 14  1  0  0  0  0
 15 16  1  0  0  0  0
 16 17  4  0  0  0  0
 16 20  4  0  0  0  0
 17 18  4  0  0  0  0
 18 19  4  0  0  0  0
 18 25  4  0  0  0  0
 19 20  4  0  0  0  0
 19 22  4  0  0  0  0
 20 21  1  0  0  0  0
 22 23  4  0  0  0  0
 23 24  4  0  0  0  0
 24 25  4  0  0  0  0
 26 27  4  0  0  0  0
M  END
>  <Name_Molregno>
591250

>  <DOPAMINE D2>
5

>  <DOPAMINE D3>
5

>  <DOPAMINE D4>
6.4

$$$$
591251
  Marvin  02231216192D 0   1.00000     0.00000     0

 26 30  0  0  0  0  0  0  0  0999 V2000
   -4.5741   -0.1657    0.0000 S   0  0  0  0  0  0  0  0  0
   -4.7456   -0.9727    0.0000 C   0  0  0  0  0  0  0  0  0
   -4.0312   -1.3852    0.0000 C   0  0  0  0  0  0  0  0  0
   -3.4181   -0.8332    0.0000 N   0  0  0  0  0  0  0  0  0
   -3.7536   -0.0795    0.0000 C   0  0  0  0  0  0  0  0  0
   -3.3411    0.6350    0.0000 N   0  0  0  0  0  0  0  0  0
   -3.7536    1.3494    0.0000 C   0  0  0  0  0  0  0  0  0
   -3.3411    2.0639    0.0000 C   0  0  0  0  0  0  0  0  0
   -2.5161    2.0639    0.0000 N   0  0  0  0  0  0  0  0  0
   -2.1036    1.3494    0.0000 C   0  0  0  0  0  0  0  0  0
   -2.5161    0.6350    0.0000 C   0  0  0  0  0  0  0  0  0
   -2.1036    2.7784    0.0000 C   0  0  0  0  0  0  0  0  0
   -1.2786    2.7784    0.0000 C   0  0  0  0  0  0  0  0  0
   -0.7937    2.1109    0.0000 N   0  0  0  0  0  0  0  0  0
   -0.0091    2.3659    0.0000 C   0  0  0  0  0  0  0  0  0
   -0.0091    3.1909    0.0000 C   0  0  0  0  0  0  0  0  0
   -0.7937    3.4458    0.0000 N   0  0  0  0  0  0  0  0  0
   -1.0486    4.2304    0.0000 C   0  0  0  0  0  0  0  0  0
    0.7054    3.6034    0.0000 C   0  0  0  0  0  0  0  0  0
    1.4199    3.1909    0.0000 C   0  0  0  0  0  0  0  0  0
    1.4199    2.3659    0.0000 C   0  0  0  0  0  0  0  0  0
    0.7054    1.9534    0.0000 C   0  0  0  0  0  0  0  0  0
   -4.0312   -2.2102    0.0000 C   0  0  0  0  0  0  0  0  0
   -4.7456   -2.6227    0.0000 C   0  0  0  0  0  0  0  0  0
   -5.4601   -2.2102    0.0000 C   0  0  0  0  0  0  0  0  0
   -5.4601   -1.3852    0.0000 C   0  0  0  0  0  0  0  0  0
  1  2  4  0  0  0  0
  1  5  4  0  0  0  0
  2  3  4  0  0  0  0
  2 26  4  0  0  0  0
  3  4  4  0  0  0  0
  3 23  4  0  0  0  0
  4  5  4  0  0  0  0
  5  6  1  0  0  0  0
  6  7  1  0  0  0  0
  6 11  1  0  0  0  0
  7  8  1  0  0  0  0
  8  9  1  0  0  0  0
  9 10  1  0  0  0  0
  9 12  1  0  0  0  0
 10 11  1  0  0  0  0
 12 13  1  0  0  0  0
 13 14  4  0  0  0  0
 13 17  4  0  0  0  0
 14 15  4  0  0  0  0
 15 16  4  0  0  0  0
 15 22  4  0  0  0  0
 16 17  4  0  0  0  0
 16 19  4  0  0  0  0
 17 18  1  0  0  0  0
 19 20  4  0  0  0  0
 20 21  4  0  0  0  0
 21 22  4  0  0  0  0
 23 24  4  0  0  0  0
 24 25  4  0  0  0  0
 25 26  4  0  0  0  0
M  END
>  <Name_Molregno>
591251

>  <DOPAMINE D2>
5

>  <DOPAMINE D3>
5

>  <DOPAMINE D4>
6.1

$$$$
591252
  Marvin  02231216192D 0   1.00000     0.00000     0

 27 30  0  0  0  0  0  0  0  0999 V2000
   -6.8750   -4.6666    0.0000 F   0  0  0  0  0  0  0  0  0
   -6.4625   -3.9522    0.0000 C   0  0  0  0  0  0  0  0  0
   -5.7480   -4.3647    0.0000 F   0  0  0  0  0  0  0  0  0
   -7.1769   -3.5397    0.0000 F   0  0  0  0  0  0  0  0  0
   -6.0500   -3.2377    0.0000 C   0  0  0  0  0  0  0  0  0
   -6.4625   -2.5232    0.0000 C   0  0  0  0  0  0  0  0  0
   -6.0500   -1.8088    0.0000 C   0  0  0  0  0  0  0  0  0
   -5.2250   -1.8088    0.0000 C   0  0  0  0  0  0  0  0  0
   -4.8125   -2.5232    0.0000 N   0  0  0  0  0  0  0  0  0
   -5.2250   -3.2377    0.0000 C   0  0  0  0  0  0  0  0  0
   -4.8125   -1.0943    0.0000 N   0  0  0  0  0  0  0  0  0
   -5.2250   -0.3798    0.0000 C   0  0  0  0  0  0  0  0  0
   -4.8125    0.3347    0.0000 C   0  0  0  0  0  0  0  0  0
   -3.9875    0.3347    0.0000 N   0  0  0  0  0  0  0  0  0
   -3.5750   -0.3798    0.0000 C   0  0  0  0  0  0  0  0  0
   -3.9875   -1.0943    0.0000 C   0  0  0  0  0  0  0  0  0
   -3.5750    1.0491    0.0000 C   0  0  0  0  0  0  0  0  0
   -2.7500    1.0491    0.0000 C   0  0  0  0  0  0  0  0  0
   -2.2650    0.3817    0.0000 N   0  0  0  0  0  0  0  0  0
   -1.4804    0.6366    0.0000 C   0  0  0  0  0  0  0  0  0
   -1.4804    1.4616    0.0000 C   0  0  0  0  0  0  0  0  0
   -2.2650    1.7166    0.0000 N   0  0  0  0  0  0  0  0  0
   -2.5200    2.5012    0.0000 C   0  0  0  0  0  0  0  0  0
   -0.7659    1.8741    0.0000 C   0  0  0  0  0  0  0  0  0
   -0.0515    1.4616    0.0000 C   0  0  0  0  0  0  0  0  0
   -0.0515    0.6366    0.0000 C   0  0  0  0  0  0  0  0  0
   -0.7659    0.2241    0.0000 C   0  0  0  0  0  0  0  0  0
  1  2  1  0  0  0  0
  2  3  1  0  0  0  0
  2  4  1  0  0  0  0
  2  5  1  0  0  0  0
  5  6  4  0  0  0  0
  5 10  4  0  0  0  0
  6  7  4  0  0  0  0
  7  8  4  0  0  0  0
  8  9  4  0  0  0  0
  8 11  1  0  0  0  0
  9 10  4  0  0  0  0
 11 12  1  0  0  0  0
 11 16  1  0  0  0  0
 12 13  1  0  0  0  0
 13 14  1  0  0  0  0
 14 15  1  0  0  0  0
 14 17  1  0  0  0  0
 15 16  1  0  0  0  0
 17 18  1  0  0  0  0
 18 19  4  0  0  0  0
 18 22  4  0  0  0  0
 19 20  4  0  0  0  0
 20 21  4  0  0  0  0
 20 27  4  0  0  0  0
 21 22  4  0  0  0  0
 21 24  4  0  0  0  0
 22 23  1  0  0  0  0
 24 25  4  0  0  0  0
 25 26  4  0  0  0  0
 26 27  4  0  0  0  0
M  END
>  <Name_Molregno>
591252

>  <DOPAMINE D2>
5

>  <DOPAMINE D3>
5

>  <DOPAMINE D4>
6

$$$$
591562
  Marvin  02231216192D 0   1.00000     0.00000     0

 23 26  0  0  0  0  0  0  0  0999 V2000
   -0.1021    0.6398    0.0000 N   0  0  0  0  0  0  0  0  0
    0.6825    0.8947    0.0000 C   0  0  0  0  0  0  0  0  0
    0.6825    1.7197    0.0000 C   0  0  0  0  0  0  0  0  0
   -0.1021    1.9747    0.0000 N   0  0  0  0  0  0  0  0  0
   -0.3571    2.7593    0.0000 C   0  0  0  0  0  0  0  0  0
   -0.5871    1.3072    0.0000 C   0  0  0  0  0  0  0  0  0
   -1.4121    1.3072    0.0000 C   0  0  0  0  0  0  0  0  0
   -1.8246    0.5928    0.0000 N   0  0  0  0  0  0  0  0  0
   -1.4121   -0.1217    0.0000 C   0  0  0  0  0  0  0  0  0
   -1.8246   -0.8362    0.0000 C   0  0  0  0  0  0  0  0  0
   -2.6496   -0.8362    0.0000 C   0  0  0  0  0  0  0  0  0
   -3.0621   -0.1217    0.0000 C   0  0  0  0  0  0  0  0  0
   -2.6496    0.5928    0.0000 C   0  0  0  0  0  0  0  0  0
   -3.0621   -1.5506    0.0000 C   0  0  0  0  0  0  0  0  0
   -2.6496   -2.2651    0.0000 C   0  0  0  0  0  0  0  0  0
   -3.0621   -2.9796    0.0000 C   0  0  0  0  0  0  0  0  0
   -3.8871   -2.9796    0.0000 C   0  0  0  0  0  0  0  0  0
   -4.2996   -2.2651    0.0000 C   0  0  0  0  0  0  0  0  0
   -3.8871   -1.5506    0.0000 C   0  0  0  0  0  0  0  0  0
    1.3970    2.1322    0.0000 C   0  0  0  0  0  0  0  0  0
    2.1114    1.7197    0.0000 C   0  0  0  0  0  0  0  0  0
    2.1114    0.8947    0.0000 C   0  0  0  0  0  0  0  0  0
    1.3970    0.4822    0.0000 C   0  0  0  0  0  0  0  0  0
  1  2  4  0  0  0  0
  1  6  4  0  0  0  0
  2  3  4  0  0  0  0
  2 23  4  0  0  0  0
  3  4  4  0  0  0  0
  3 20  4  0  0  0  0
  4  5  1  0  0  0  0
  4  6  4  0  0  0  0
  6  7  1  0  0  0  0
  7  8  1  0  0  0  0
  8  9  1  0  0  0  0
  8 13  1  0  0  0  0
  9 10  1  0  0  0  0
 10 11  1  0  0  0  0
 11 12  1  0  0  0  0
 11 14  1  0  0  0  0
 12 13  1  0  0  0  0
 14 15  4  0  0  0  0
 14 19  4  0  0  0  0
 15 16  4  0  0  0  0
 16 17  4  0  0  0  0
 17 18  4  0  0  0  0
 18 19  4  0  0  0  0
 20 21  4  0  0  0  0
 21 22  4  0  0  0  0
 22 23  4  0  0  0  0
M  END
>  <Name_Molregno>
591562

>  <DOPAMINE D2>
7.6

>  <DOPAMINE D3>
6.9

>  <DOPAMINE D4>
7

$$$$
591604
  Marvin  02231216192D 0   1.00000     0.00000     0

 24 27  0  0  0  0  0  0  0  0999 V2000
   -3.4562   -2.9492    0.0000 F   0  0  0  0  0  0  0  0  0
   -4.2812   -2.9492    0.0000 C   0  0  0  0  0  0  0  0  0
   -4.6937   -3.6637    0.0000 C   0  0  0  0  0  0  0  0  0
   -5.5187   -3.6637    0.0000 C   0  0  0  0  0  0  0  0  0
   -5.9312   -2.9492    0.0000 C   0  0  0  0  0  0  0  0  0
   -5.5187   -2.2347    0.0000 C   0  0  0  0  0  0  0  0  0
   -4.6937   -2.2347    0.0000 C   0  0  0  0  0  0  0  0  0
   -4.2812   -1.5203    0.0000 C   0  0  0  0  0  0  0  0  0
   -4.6937   -0.8058    0.0000 C   0  0  0  0  0  0  0  0  0
   -4.2812   -0.0913    0.0000 C   0  0  0  0  0  0  0  0  0
   -3.4562   -0.0913    0.0000 N   0  0  0  0  0  0  0  0  0
   -3.0437   -0.8058    0.0000 C   0  0  0  0  0  0  0  0  0
   -3.4562   -1.5203    0.0000 C   0  0  0  0  0  0  0  0  0
   -3.0437    0.6232    0.0000 C   0  0  0  0  0  0  0  0  0
   -2.2187    0.6232    0.0000 C   0  0  0  0  0  0  0  0  0
   -1.7338   -0.0443    0.0000 N   0  0  0  0  0  0  0  0  0
   -0.9491    0.2107    0.0000 C   0  0  0  0  0  0  0  0  0
   -0.9491    1.0357    0.0000 C   0  0  0  0  0  0  0  0  0
   -1.7338    1.2906    0.0000 N   0  0  0  0  0  0  0  0  0
   -1.9887    2.0752    0.0000 C   0  0  0  0  0  0  0  0  0
   -0.2347    1.4482    0.0000 C   0  0  0  0  0  0  0  0  0
    0.4798    1.0357    0.0000 C   0  0  0  0  0  0  0  0  0
    0.4798    0.2107    0.0000 C   0  0  0  0  0  0  0  0  0
   -0.2347   -0.2018    0.0000 C   0  0  0  0  0  0  0  0  0
  1  2  1  0  0  0  0
  2  3  4  0  0  0  0
  2  7  4  0  0  0  0
  3  4  4  0  0  0  0
  4  5  4  0  0  0  0
  5  6  4  0  0  0  0
  6  7  4  0  0  0  0
  7  8  1  0  0  0  0
  8  9  1  0  0  0  0
  8 13  1  0  0  0  0
  9 10  1  0  0  0  0
 10 11  1  0  0  0  0
 11 12  1  0  0  0  0
 11 14  1  0  0  0  0
 12 13  1  0  0  0  0
 14 15  1  0  0  0  0
 15 16  4  0  0  0  0
 15 19  4  0  0  0  0
 16 17  4  0  0  0  0
 17 18  4  0  0  0  0
 17 24  4  0  0  0  0
 18 19  4  0  0  0  0
 18 21  4  0  0  0  0
 19 20  1  0  0  0  0
 21 22  4  0  0  0  0
 22 23  4  0  0  0  0
 23 24  4  0  0  0  0
M  END
>  <Name_Molregno>
591604

>  <DOPAMINE D2>
7.4

>  <DOPAMINE D3>
7

$$$$
591605
  Marvin  02231216192D 0   1.00000     0.00000     0

 24 27  0  0  0  0  0  0  0  0999 V2000
    1.5366   -2.9010    0.0000 Cl  0  0  0  0  0  0  0  0  0
    1.9491   -2.1865    0.0000 C   0  0  0  0  0  0  0  0  0
    1.5366   -1.4721    0.0000 C   0  0  0  0  0  0  0  0  0
    1.9491   -0.7576    0.0000 C   0  0  0  0  0  0  0  0  0
    2.7741   -0.7576    0.0000 C   0  0  0  0  0  0  0  0  0
    3.1866   -1.4721    0.0000 C   0  0  0  0  0  0  0  0  0
    2.7741   -2.1865    0.0000 C   0  0  0  0  0  0  0  0  0
    3.1866   -0.0431    0.0000 C   0  0  0  0  0  0  0  0  0
    2.7741    0.6713    0.0000 C   0  0  0  0  0  0  0  0  0
    3.1866    1.3858    0.0000 C   0  0  0  0  0  0  0  0  0
    4.0116    1.3858    0.0000 N   0  0  0  0  0  0  0  0  0
    4.4241    0.6713    0.0000 C   0  0  0  0  0  0  0  0  0
    4.0116   -0.0431    0.0000 C   0  0  0  0  0  0  0  0  0
    4.4241    2.1003    0.0000 C   0  0  0  0  0  0  0  0  0
    5.2491    2.1003    0.0000 C   0  0  0  0  0  0  0  0  0
    5.7340    1.4328    0.0000 N   0  0  0  0  0  0  0  0  0
    6.5187    1.6878    0.0000 C   0  0  0  0  0  0  0  0  0
    6.5187    2.5128    0.0000 C   0  0  0  0  0  0  0  0  0
    5.7340    2.7677    0.0000 N   0  0  0  0  0  0  0  0  0
    5.4791    3.5523    0.0000 C   0  0  0  0  0  0  0  0  0
    7.2331    2.9253    0.0000 C   0  0  0  0  0  0  0  0  0
    7.9476    2.5128    0.0000 C   0  0  0  0  0  0  0  0  0
    7.9476    1.6878    0.0000 C   0  0  0  0  0  0  0  0  0
    7.2331    1.2753    0.0000 C   0  0  0  0  0  0  0  0  0
  1  2  1  0  0  0  0
  2  3  4  0  0  0  0
  2  7  4  0  0  0  0
  3  4  4  0  0  0  0
  4  5  4  0  0  0  0
  5  6  4  0  0  0  0
  5  8  1  0  0  0  0
  6  7  4  0  0  0  0
  8  9  1  0  0  0  0
  8 13  1  0  0  0  0
  9 10  1  0  0  0  0
 10 11  1  0  0  0  0
 11 12  1  0  0  0  0
 11 14  1  0  0  0  0
 12 13  1  0  0  0  0
 14 15  1  0  0  0  0
 15 16  4  0  0  0  0
 15 19  4  0  0  0  0
 16 17  4  0  0  0  0
 17 18  4  0  0  0  0
 17 24  4  0  0  0  0
 18 19  4  0  0  0  0
 18 21  4  0  0  0  0
 19 20  1  0  0  0  0
 21 22  4  0  0  0  0
 22 23  4  0  0  0  0
 23 24  4  0  0  0  0
M  END
>  <Name_Molregno>
591605

>  <DOPAMINE D2>
7.8

>  <DOPAMINE D3>
6.5

>  <DOPAMINE D4>
7.2

$$$$
591606
  Marvin  02231216192D 0   1.00000     0.00000     0

 27 30  0  0  0  0  0  0  0  0999 V2000
    1.8187   -4.4863    0.0000 F   0  0  0  0  0  0  0  0  0
    0.9937   -4.4863    0.0000 C   0  0  0  0  0  0  0  0  0
    0.9937   -3.6613    0.0000 F   0  0  0  0  0  0  0  0  0
    0.9937   -5.3113    0.0000 F   0  0  0  0  0  0  0  0  0
    0.1687   -4.4863    0.0000 C   0  0  0  0  0  0  0  0  0
   -0.2438   -5.2008    0.0000 C   0  0  0  0  0  0  0  0  0
   -1.0688   -5.2008    0.0000 C   0  0  0  0  0  0  0  0  0
   -1.4813   -4.4863    0.0000 C   0  0  0  0  0  0  0  0  0
   -1.0688   -3.7719    0.0000 C   0  0  0  0  0  0  0  0  0
   -0.2438   -3.7719    0.0000 C   0  0  0  0  0  0  0  0  0
    0.1687   -3.0574    0.0000 C   0  0  0  0  0  0  0  0  0
   -0.2438   -2.3429    0.0000 C   0  0  0  0  0  0  0  0  0
    0.1687   -1.6284    0.0000 C   0  0  0  0  0  0  0  0  0
    0.9937   -1.6284    0.0000 N   0  0  0  0  0  0  0  0  0
    1.4062   -2.3429    0.0000 C   0  0  0  0  0  0  0  0  0
    0.9937   -3.0574    0.0000 C   0  0  0  0  0  0  0  0  0
    1.4062   -0.9140    0.0000 C   0  0  0  0  0  0  0  0  0
    2.2312   -0.9140    0.0000 C   0  0  0  0  0  0  0  0  0
    2.7161   -1.5814    0.0000 N   0  0  0  0  0  0  0  0  0
    3.5008   -1.3265    0.0000 C   0  0  0  0  0  0  0  0  0
    3.5008   -0.5015    0.0000 C   0  0  0  0  0  0  0  0  0
    2.7161   -0.2465    0.0000 N   0  0  0  0  0  0  0  0  0
    2.4612    0.5381    0.0000 C   0  0  0  0  0  0  0  0  0
    4.2152   -0.0890    0.0000 C   0  0  0  0  0  0  0  0  0
    4.9297   -0.5015    0.0000 C   0  0  0  0  0  0  0  0  0
    4.9297   -1.3265    0.0000 C   0  0  0  0  0  0  0  0  0
    4.2152   -1.7390    0.0000 C   0  0  0  0  0  0  0  0  0
  1  2  1  0  0  0  0
  2  3  1  0  0  0  0
  2  4  1  0  0  0  0
  2  5  1  0  0  0  0
  5  6  4  0  0  0  0
  5 10  4  0  0  0  0
  6  7  4  0  0  0  0
  7  8  4  0  0  0  0
  8  9  4  0  0  0  0
  9 10  4  0  0  0  0
 10 11  1  0  0  0  0
 11 12  1  0  0  0  0
 11 16  1  0  0  0  0
 12 13  1  0  0  0  0
 13 14  1  0  0  0  0
 14 15  1  0  0  0  0
 14 17  1  0  0  0  0
 15 16  1  0  0  0  0
 17 18  1  0  0  0  0
 18 19  4  0  0  0  0
 18 22  4  0  0  0  0
 19 20  4  0  0  0  0
 20 21  4  0  0  0  0
 20 27  4  0  0  0  0
 21 22  4  0  0  0  0
 21 24  4  0  0  0  0
 22 23  1  0  0  0  0
 24 25  4  0  0  0  0
 25 26  4  0  0  0  0
 26 27  4  0  0  0  0
M  END
>  <Name_Molregno>
591606

>  <DOPAMINE D2>
5.5

>  <DOPAMINE D3>
6.3

$$$$
591607
  Marvin  02231216192D 0   1.00000     0.00000     0

 27 30  0  0  0  0  0  0  0  0999 V2000
   -8.2899   -2.4380    0.0000 F   0  0  0  0  0  0  0  0  0
   -7.4649   -2.4380    0.0000 C   0  0  0  0  0  0  0  0  0
   -7.4649   -3.2630    0.0000 F   0  0  0  0  0  0  0  0  0
   -7.4649   -1.6130    0.0000 F   0  0  0  0  0  0  0  0  0
   -6.6399   -2.4380    0.0000 C   0  0  0  0  0  0  0  0  0
   -6.2274   -1.7235    0.0000 C   0  0  0  0  0  0  0  0  0
   -5.4024   -1.7235    0.0000 C   0  0  0  0  0  0  0  0  0
   -4.9899   -2.4380    0.0000 C   0  0  0  0  0  0  0  0  0
   -5.4024   -3.1525    0.0000 C   0  0  0  0  0  0  0  0  0
   -6.2274   -3.1525    0.0000 C   0  0  0  0  0  0  0  0  0
   -4.9899   -1.0091    0.0000 C   0  0  0  0  0  0  0  0  0
   -5.4024   -0.2946    0.0000 C   0  0  0  0  0  0  0  0  0
   -4.9899    0.4199    0.0000 C   0  0  0  0  0  0  0  0  0
   -4.1649    0.4199    0.0000 N   0  0  0  0  0  0  0  0  0
   -3.7524   -0.2946    0.0000 C   0  0  0  0  0  0  0  0  0
   -4.1649   -1.0091    0.0000 C   0  0  0  0  0  0  0  0  0
   -3.7524    1.1344    0.0000 C   0  0  0  0  0  0  0  0  0
   -2.9274    1.1344    0.0000 C   0  0  0  0  0  0  0  0  0
   -2.4424    0.4669    0.0000 N   0  0  0  0  0  0  0  0  0
   -1.6578    0.7219    0.0000 C   0  0  0  0  0  0  0  0  0
   -1.6578    1.5469    0.0000 C   0  0  0  0  0  0  0  0  0
   -2.4424    1.8018    0.0000 N   0  0  0  0  0  0  0  0  0
   -2.6974    2.5864    0.0000 C   0  0  0  0  0  0  0  0  0
   -0.9433    1.9594    0.0000 C   0  0  0  0  0  0  0  0  0
   -0.2289    1.5469    0.0000 C   0  0  0  0  0  0  0  0  0
   -0.2289    0.7219    0.0000 C   0  0  0  0  0  0  0  0  0
   -0.9433    0.3094    0.0000 C   0  0  0  0  0  0  0  0  0
  1  2  1  0  0  0  0
  2  3  1  0  0  0  0
  2  4  1  0  0  0  0
  2  5  1  0  0  0  0
  5  6  4  0  0  0  0
  5 10  4  0  0  0  0
  6  7  4  0  0  0  0
  7  8  4  0  0  0  0
  7 11  1  0  0  0  0
  8  9  4  0  0  0  0
  9 10  4  0  0  0  0
 11 12  1  0  0  0  0
 11 16  1  0  0  0  0
 12 13  1  0  0  0  0
 13 14  1  0  0  0  0
 14 15  1  0  0  0  0
 14 17  1  0  0  0  0
 15 16  1  0  0  0  0
 17 18  1  0  0  0  0
 18 19  4  0  0  0  0
 18 22  4  0  0  0  0
 19 20  4  0  0  0  0
 20 21  4  0  0  0  0
 20 27  4  0  0  0  0
 21 22  4  0  0  0  0
 21 24  4  0  0  0  0
 22 23  1  0  0  0  0
 24 25  4  0  0  0  0
 25 26  4  0  0  0  0
 26 27  4  0  0  0  0
M  END
>  <Name_Molregno>
591607

>  <DOPAMINE D2>
6.9

>  <DOPAMINE D3>
5

>  <DOPAMINE D4>
6.6

$$$$
591608
  Marvin  02231216192D 0   1.00000     0.00000     0

 27 30  0  0  0  0  0  0  0  0999 V2000
   -6.8750   -4.6666    0.0000 F   0  0  0  0  0  0  0  0  0
   -6.4625   -3.9522    0.0000 C   0  0  0  0  0  0  0  0  0
   -5.7480   -4.3647    0.0000 F   0  0  0  0  0  0  0  0  0
   -7.1769   -3.5397    0.0000 F   0  0  0  0  0  0  0  0  0
   -6.0500   -3.2377    0.0000 C   0  0  0  0  0  0  0  0  0
   -6.4625   -2.5232    0.0000 C   0  0  0  0  0  0  0  0  0
   -6.0500   -1.8088    0.0000 C   0  0  0  0  0  0  0  0  0
   -5.2250   -1.8088    0.0000 C   0  0  0  0  0  0  0  0  0
   -4.8125   -2.5232    0.0000 C   0  0  0  0  0  0  0  0  0
   -5.2250   -3.2377    0.0000 C   0  0  0  0  0  0  0  0  0
   -4.8125   -1.0943    0.0000 C   0  0  0  0  0  0  0  0  0
   -5.2250   -0.3798    0.0000 C   0  0  0  0  0  0  0  0  0
   -4.8125    0.3347    0.0000 C   0  0  0  0  0  0  0  0  0
   -3.9875    0.3347    0.0000 N   0  0  0  0  0  0  0  0  0
   -3.5750   -0.3798    0.0000 C   0  0  0  0  0  0  0  0  0
   -3.9875   -1.0943    0.0000 C   0  0  0  0  0  0  0  0  0
   -3.5750    1.0491    0.0000 C   0  0  0  0  0  0  0  0  0
   -2.7500    1.0491    0.0000 C   0  0  0  0  0  0  0  0  0
   -2.2650    0.3817    0.0000 N   0  0  0  0  0  0  0  0  0
   -1.4804    0.6366    0.0000 C   0  0  0  0  0  0  0  0  0
   -1.4804    1.4616    0.0000 C   0  0  0  0  0  0  0  0  0
   -2.2650    1.7166    0.0000 N   0  0  0  0  0  0  0  0  0
   -2.5200    2.5012    0.0000 C   0  0  0  0  0  0  0  0  0
   -0.7659    1.8741    0.0000 C   0  0  0  0  0  0  0  0  0
   -0.0515    1.4616    0.0000 C   0  0  0  0  0  0  0  0  0
   -0.0515    0.6366    0.0000 C   0  0  0  0  0  0  0  0  0
   -0.7659    0.2241    0.0000 C   0  0  0  0  0  0  0  0  0
  1  2  1  0  0  0  0
  2  3  1  0  0  0  0
  2  4  1  0  0  0  0
  2  5  1  0  0  0  0
  5  6  4  0  0  0  0
  5 10  4  0  0  0  0
  6  7  4  0  0  0  0
  7  8  4  0  0  0  0
  8  9  4  0  0  0  0
  8 11  1  0  0  0  0
  9 10  4  0  0  0  0
 11 12  1  0  0  0  0
 11 16  1  0  0  0  0
 12 13  1  0  0  0  0
 13 14  1  0  0  0  0
 14 15  1  0  0  0  0
 14 17  1  0  0  0  0
 15 16  1  0  0  0  0
 17 18  1  0  0  0  0
 18 19  4  0  0  0  0
 18 22  4  0  0  0  0
 19 20  4  0  0  0  0
 20 21  4  0  0  0  0
 20 27  4  0  0  0  0
 21 22  4  0  0  0  0
 21 24  4  0  0  0  0
 22 23  1  0  0  0  0
 24 25  4  0  0  0  0
 25 26  4  0  0  0  0
 26 27  4  0  0  0  0
M  END
>  <Name_Molregno>
591608

>  <DOPAMINE D2>
6.6

>  <DOPAMINE D3>
5

>  <DOPAMINE D4>
6.9

$$$$
591630
  Marvin  02231216192D 0   1.00000     0.00000     0

 24 27  0  0  0  0  0  0  0  0999 V2000
    0.5045   -2.3217    0.0000 Cl  0  0  0  0  0  0  0  0  0
    1.3295   -2.3217    0.0000 C   0  0  0  0  0  0  0  0  0
    1.7420   -1.6072    0.0000 C   0  0  0  0  0  0  0  0  0
    2.5670   -1.6072    0.0000 C   0  0  0  0  0  0  0  0  0
    2.9795   -2.3217    0.0000 C   0  0  0  0  0  0  0  0  0
    2.5670   -3.0361    0.0000 C   0  0  0  0  0  0  0  0  0
    1.7420   -3.0361    0.0000 C   0  0  0  0  0  0  0  0  0
    2.9795   -0.8927    0.0000 C   0  0  0  0  0  0  0  0  0
    2.5670   -0.1782    0.0000 C   0  0  0  0  0  0  0  0  0
    2.9795    0.5362    0.0000 C   0  0  0  0  0  0  0  0  0
    3.8045    0.5362    0.0000 N   0  0  0  0  0  0  0  0  0
    4.2170   -0.1782    0.0000 C   0  0  0  0  0  0  0  0  0
    3.8045   -0.8927    0.0000 C   0  0  0  0  0  0  0  0  0
    4.2170    1.2507    0.0000 C   0  0  0  0  0  0  0  0  0
    5.0420    1.2507    0.0000 C   0  0  0  0  0  0  0  0  0
    5.5269    0.5833    0.0000 N   0  0  0  0  0  0  0  0  0
    6.3116    0.8382    0.0000 C   0  0  0  0  0  0  0  0  0
    6.3116    1.6632    0.0000 C   0  0  0  0  0  0  0  0  0
    5.5269    1.9181    0.0000 N   0  0  0  0  0  0  0  0  0
    5.2720    2.7028    0.0000 C   0  0  0  0  0  0  0  0  0
    7.0260    2.0757    0.0000 C   0  0  0  0  0  0  0  0  0
    7.7405    1.6632    0.0000 C   0  0  0  0  0  0  0  0  0
    7.7405    0.8382    0.0000 C   0  0  0  0  0  0  0  0  0
    7.0260    0.4257    0.0000 C   0  0  0  0  0  0  0  0  0
  1  2  1  0  0  0  0
  2  3  4  0  0  0  0
  2  7  4  0  0  0  0
  3  4  4  0  0  0  0
  4  5  4  0  0  0  0
  4  8  1  0  0  0  0
  5  6  4  0  0  0  0
  6  7  4  0  0  0  0
  8  9  1  0  0  0  0
  8 13  1  0  0  0  0
  9 10  1  0  0  0  0
 10 11  1  0  0  0  0
 11 12  1  0  0  0  0
 11 14  1  0  0  0  0
 12 13  1  0  0  0  0
 14 15  1  0  0  0  0
 15 16  4  0  0  0  0
 15 19  4  0  0  0  0
 16 17  4  0  0  0  0
 17 18  4  0  0  0  0
 17 24  4  0  0  0  0
 18 19  4  0  0  0  0
 18 21  4  0  0  0  0
 19 20  1  0  0  0  0
 21 22  4  0  0  0  0
 22 23  4  0  0  0  0
 23 24  4  0  0  0  0
M  END
>  <Name_Molregno>
591630

>  <DOPAMINE D2>
7.4

>  <DOPAMINE D3>
5.8

>  <DOPAMINE D4>
6.6

$$$$
591631
  Marvin  02231216192D 0   1.00000     0.00000     0

 26 30  0  0  0  0  0  0  0  0999 V2000
   -4.5741   -0.1657    0.0000 S   0  0  0  0  0  0  0  0  0
   -4.7456   -0.9727    0.0000 C   0  0  0  0  0  0  0  0  0
   -4.0312   -1.3852    0.0000 C   0  0  0  0  0  0  0  0  0
   -3.4181   -0.8332    0.0000 N   0  0  0  0  0  0  0  0  0
   -3.7536   -0.0795    0.0000 C   0  0  0  0  0  0  0  0  0
   -3.3411    0.6350    0.0000 C   0  0  0  0  0  0  0  0  0
   -3.7536    1.3494    0.0000 C   0  0  0  0  0  0  0  0  0
   -3.3411    2.0639    0.0000 C   0  0  0  0  0  0  0  0  0
   -2.5161    2.0639    0.0000 N   0  0  0  0  0  0  0  0  0
   -2.1036    1.3494    0.0000 C   0  0  0  0  0  0  0  0  0
   -2.5161    0.6350    0.0000 C   0  0  0  0  0  0  0  0  0
   -2.1036    2.7784    0.0000 C   0  0  0  0  0  0  0  0  0
   -1.2786    2.7784    0.0000 C   0  0  0  0  0  0  0  0  0
   -0.7937    2.1109    0.0000 N   0  0  0  0  0  0  0  0  0
   -0.0091    2.3659    0.0000 C   0  0  0  0  0  0  0  0  0
   -0.0091    3.1909    0.0000 C   0  0  0  0  0  0  0  0  0
   -0.7937    3.4458    0.0000 N   0  0  0  0  0  0  0  0  0
   -1.0486    4.2304    0.0000 C   0  0  0  0  0  0  0  0  0
    0.7054    3.6034    0.0000 C   0  0  0  0  0  0  0  0  0
    1.4199    3.1909    0.0000 C   0  0  0  0  0  0  0  0  0
    1.4199    2.3659    0.0000 C   0  0  0  0  0  0  0  0  0
    0.7054    1.9534    0.0000 C   0  0  0  0  0  0  0  0  0
   -4.0312   -2.2102    0.0000 C   0  0  0  0  0  0  0  0  0
   -4.7456   -2.6227    0.0000 C   0  0  0  0  0  0  0  0  0
   -5.4601   -2.2102    0.0000 C   0  0  0  0  0  0  0  0  0
   -5.4601   -1.3852    0.0000 C   0  0  0  0  0  0  0  0  0
  1  2  4  0  0  0  0
  1  5  4  0  0  0  0
  2  3  4  0  0  0  0
  2 26  4  0  0  0  0
  3  4  4  0  0  0  0
  3 23  4  0  0  0  0
  4  5  4  0  0  0  0
  5  6  1  0  0  0  0
  6  7  1  0  0  0  0
  6 11  1  0  0  0  0
  7  8  1  0  0  0  0
  8  9  1  0  0  0  0
  9 10  1  0  0  0  0
  9 12  1  0  0  0  0
 10 11  1  0  0  0  0
 12 13  1  0  0  0  0
 13 14  4  0  0  0  0
 13 17  4  0  0  0  0
 14 15  4  0  0  0  0
 15 16  4  0  0  0  0
 15 22  4  0  0  0  0
 16 17  4  0  0  0  0
 16 19  4  0  0  0  0
 17 18  1  0  0  0  0
 19 20  4  0  0  0  0
 20 21  4  0  0  0  0
 21 22  4  0  0  0  0
 23 24  4  0  0  0  0
 24 25  4  0  0  0  0
 25 26  4  0  0  0  0
M  END
>  <Name_Molregno>
591631

>  <DOPAMINE D2>
6.4

>  <DOPAMINE D3>
5

>  <DOPAMINE D4>
8.1

$$$$
591632
  Marvin  02231216192D 0   1.00000     0.00000     0

 26 30  0  0  0  0  0  0  0  0999 V2000
    1.2018   -4.0328    0.0000 S   0  0  0  0  0  0  0  0  0
    1.8149   -3.4808    0.0000 N   0  0  0  0  0  0  0  0  0
    1.4793   -2.7271    0.0000 C   0  0  0  0  0  0  0  0  0
    0.6589   -2.8134    0.0000 C   0  0  0  0  0  0  0  0  0
    0.4873   -3.6203    0.0000 C   0  0  0  0  0  0  0  0  0
   -0.2973   -3.8753    0.0000 C   0  0  0  0  0  0  0  0  0
   -0.9104   -3.3232    0.0000 C   0  0  0  0  0  0  0  0  0
   -0.7389   -2.5163    0.0000 C   0  0  0  0  0  0  0  0  0
    0.0458   -2.2613    0.0000 C   0  0  0  0  0  0  0  0  0
    1.8918   -2.0126    0.0000 C   0  0  0  0  0  0  0  0  0
    1.4793   -1.2982    0.0000 C   0  0  0  0  0  0  0  0  0
    1.8918   -0.5837    0.0000 C   0  0  0  0  0  0  0  0  0
    2.7168   -0.5837    0.0000 N   0  0  0  0  0  0  0  0  0
    3.1293   -1.2982    0.0000 C   0  0  0  0  0  0  0  0  0
    2.7168   -2.0126    0.0000 C   0  0  0  0  0  0  0  0  0
    3.1293    0.1308    0.0000 C   0  0  0  0  0  0  0  0  0
    3.9543    0.1308    0.0000 C   0  0  0  0  0  0  0  0  0
    4.4393   -0.5367    0.0000 N   0  0  0  0  0  0  0  0  0
    5.2239   -0.2817    0.0000 C   0  0  0  0  0  0  0  0  0
    5.2239    0.5433    0.0000 C   0  0  0  0  0  0  0  0  0
    4.4393    0.7982    0.0000 N   0  0  0  0  0  0  0  0  0
    4.1843    1.5828    0.0000 C   0  0  0  0  0  0  0  0  0
    5.9384    0.9558    0.0000 C   0  0  0  0  0  0  0  0  0
    6.6528    0.5433    0.0000 C   0  0  0  0  0  0  0  0  0
    6.6528   -0.2817    0.0000 C   0  0  0  0  0  0  0  0  0
    5.9384   -0.6942    0.0000 C   0  0  0  0  0  0  0  0  0
  1  2  4  0  0  0  0
  1  5  4  0  0  0  0
  2  3  4  0  0  0  0
  3  4  4  0  0  0  0
  3 10  1  0  0  0  0
  4  5  4  0  0  0  0
  4  9  4  0  0  0  0
  5  6  4  0  0  0  0
  6  7  4  0  0  0  0
  7  8  4  0  0  0  0
  8  9  4  0  0  0  0
 10 11  1  0  0  0  0
 10 15  1  0  0  0  0
 11 12  1  0  0  0  0
 12 13  1  0  0  0  0
 13 14  1  0  0  0  0
 13 16  1  0  0  0  0
 14 15  1  0  0  0  0
 16 17  1  0  0  0  0
 17 18  4  0  0  0  0
 17 21  4  0  0  0  0
 18 19  4  0  0  0  0
 19 20  4  0  0  0  0
 19 26  4  0  0  0  0
 20 21  4  0  0  0  0
 20 23  4  0  0  0  0
 21 22  1  0  0  0  0
 23 24  4  0  0  0  0
 24 25  4  0  0  0  0
 25 26  4  0  0  0  0
M  END
>  <Name_Molregno>
591632

>  <DOPAMINE D2>
7.1

>  <DOPAMINE D3>
5.4

>  <DOPAMINE D4>
6.7

$$$$
591633
  Marvin  02231216192D 0   1.00000     0.00000     0

 28 31  0  0  0  0  0  0  0  0999 V2000
   -2.3716   -2.6489    0.0000 Cl  0  0  0  0  0  0  0  0  0
   -3.1966   -2.6489    0.0000 C   0  0  0  0  0  0  0  0  0
   -3.6091   -3.3633    0.0000 C   0  0  0  0  0  0  0  0  0
   -4.4341   -3.3633    0.0000 C   0  0  0  0  0  0  0  0  0
   -4.8466   -2.6489    0.0000 C   0  0  0  0  0  0  0  0  0
   -4.4341   -1.9344    0.0000 N   0  0  0  0  0  0  0  0  0
   -3.6091   -1.9344    0.0000 C   0  0  0  0  0  0  0  0  0
   -3.1966   -1.2199    0.0000 C   0  0  0  0  0  0  0  0  0
   -3.6091   -0.5054    0.0000 C   0  0  0  0  0  0  0  0  0
   -3.1966    0.2090    0.0000 C   0  0  0  0  0  0  0  0  0
   -2.3716    0.2090    0.0000 N   0  0  0  0  0  0  0  0  0
   -1.9591   -0.5054    0.0000 C   0  0  0  0  0  0  0  0  0
   -2.3716   -1.2199    0.0000 C   0  0  0  0  0  0  0  0  0
   -1.9591    0.9235    0.0000 C   0  0  0  0  0  0  0  0  0
   -1.1341    0.9235    0.0000 C   0  0  0  0  0  0  0  0  0
   -0.6492    0.2561    0.0000 N   0  0  0  0  0  0  0  0  0
    0.1355    0.5110    0.0000 C   0  0  0  0  0  0  0  0  0
    0.1355    1.3360    0.0000 C   0  0  0  0  0  0  0  0  0
   -0.6492    1.5909    0.0000 N   0  0  0  0  0  0  0  0  0
   -0.9041    2.3756    0.0000 C   0  0  0  0  0  0  0  0  0
    0.8499    1.7485    0.0000 C   0  0  0  0  0  0  0  0  0
    1.5644    1.3360    0.0000 C   0  0  0  0  0  0  0  0  0
    1.5644    0.5110    0.0000 C   0  0  0  0  0  0  0  0  0
    0.8499    0.0985    0.0000 C   0  0  0  0  0  0  0  0  0
   -4.8466   -4.0778    0.0000 C   0  0  0  0  0  0  0  0  0
   -5.2591   -4.7923    0.0000 F   0  0  0  0  0  0  0  0  0
   -5.5611   -3.6653    0.0000 F   0  0  0  0  0  0  0  0  0
   -4.1321   -4.4903    0.0000 F   0  0  0  0  0  0  0  0  0
  1  2  1  0  0  0  0
  2  3  4  0  0  0  0
  2  7  4  0  0  0  0
  3  4  4  0  0  0  0
  4  5  4  0  0  0  0
  4 25  1  0  0  0  0
  5  6  4  0  0  0  0
  6  7  4  0  0  0  0
  7  8  1  0  0  0  0
  8  9  1  0  0  0  0
  8 13  1  0  0  0  0
  9 10  1  0  0  0  0
 10 11  1  0  0  0  0
 11 12  1  0  0  0  0
 11 14  1  0  0  0  0
 12 13  1  0  0  0  0
 14 15  1  0  0  0  0
 15 16  4  0  0  0  0
 15 19  4  0  0  0  0
 16 17  4  0  0  0  0
 17 18  4  0  0  0  0
 17 24  4  0  0  0  0
 18 19  4  0  0  0  0
 18 21  4  0  0  0  0
 19 20  1  0  0  0  0
 21 22  4  0  0  0  0
 22 23  4  0  0  0  0
 23 24  4  0  0  0  0
 25 26  1  0  0  0  0
 25 27  1  0  0  0  0
 25 28  1  0  0  0  0
M  END
>  <Name_Molregno>
591633

>  <DOPAMINE D2>
6.1

>  <DOPAMINE D3>
5.8

>  <DOPAMINE D4>
5.6

$$$$
593611
  Marvin  02231216192D 0   1.00000     0.00000     0

 23 25  0  0  1  0  0  0  0  0999 V2000
    2.4953   -1.7278    0.0000 O   0  0  0  0  0  0  0  0  0
    2.4953   -2.5528    0.0000 C   0  0  0  0  0  0  0  0  0
    1.7808   -2.9653    0.0000 C   0  0  0  0  0  0  0  0  0
    1.0664   -2.5528    0.0000 N   0  0  0  0  0  0  0  0  0
    1.0664   -1.7278    0.0000 C   0  0  0  0  0  0  0  0  0
    1.7808   -1.3153    0.0000 C   0  0  0  0  0  0  0  0  0
    1.7808   -0.4903    0.0000 C   0  0  0  0  0  0  0  0  0
    2.4953   -0.0778    0.0000 O   0  0  0  0  0  0  0  0  0
    2.4953    0.7472    0.0000 C   0  0  0  0  0  0  0  0  0
    1.7808    1.1597    0.0000 C   0  0  0  0  0  0  0  0  0
    1.7808    1.9847    0.0000 C   0  0  0  0  0  0  0  0  0
    2.4953    2.3972    0.0000 C   0  0  0  0  0  0  0  0  0
    3.2098    1.9847    0.0000 C   0  0  0  0  0  0  0  0  0
    3.2098    1.1597    0.0000 C   0  0  0  0  0  0  0  0  0
    3.9242    0.7472    0.0000 O   0  0  0  0  0  0  0  0  0
    3.9242   -0.0778    0.0000 C   0  0  0  0  0  0  0  0  0
    4.6387   -0.4903    0.0000 C   0  0  0  0  0  0  0  0  0
    1.0664   -0.0778    0.0000 C   0  0  0  0  0  0  0  0  0
    0.3519   -0.4903    0.0000 C   0  0  0  0  0  0  0  0  0
   -0.3626   -0.0778    0.0000 C   0  0  0  0  0  0  0  0  0
   -0.3626    0.7472    0.0000 C   0  0  0  0  0  0  0  0  0
    0.3519    1.1597    0.0000 C   0  0  0  0  0  0  0  0  0
    1.0664    0.7472    0.0000 C   0  0  0  0  0  0  0  0  0
  1  2  1  0  0  0  0
  1  6  1  0  0  0  0
  2  3  1  0  0  0  0
  3  4  1  0  0  0  0
  4  5  1  0  0  0  0
  5  6  1  0  0  0  0
  6  7  1  0  0  0  0
  7  8  1  0  0  0  0
  7 18  1  0  0  0  0
  8  9  1  0  0  0  0
  9 10  4  0  0  0  0
  9 14  4  0  0  0  0
 10 11  4  0  0  0  0
 11 12  4  0  0  0  0
 12 13  4  0  0  0  0
 13 14  4  0  0  0  0
 14 15  1  0  0  0  0
 15 16  1  0  0  0  0
 16 17  1  0  0  0  0
 18 19  4  0  0  0  0
 18 23  4  0  0  0  0
 19 20  4  0  0  0  0
 20 21  4  0  0  0  0
 21 22  4  0  0  0  0
 22 23  4  0  0  0  0
M  END
>  <Name_Molregno>
593611

>  <5-HT1A>
5

>  <5-HT1B>
5

>  <5-HT1D>
5

>  <5-HT2A>
5

>  <5-HT2C>
6.34

>  <Alpha-1A>
5

>  <Alpha-2A>
5

>  <DOPAMINE D2>
5

>  <DOPAMINE D3>
5

>  <Dopamine transporter>
5.12

>  <Norepinephrine transporter>
8.27

>  <Serotonin transporter>
6.28

$$$$
594329
  Marvin  02231216192D 0   1.00000     0.00000     0

 22 25  0  0  0  0  0  0  0  0999 V2000
    4.9785    1.6165    0.0000 O   0  0  0  0  0  0  0  0  0
    4.1539    1.5897    0.0000 C   0  0  0  0  0  0  0  0  0
    3.8736    2.3656    0.0000 C   0  0  0  0  0  0  0  0  0
    4.5249    2.8720    0.0000 O   0  0  0  0  0  0  0  0  0
    5.2078    2.4090    0.0000 C   0  0  0  0  0  0  0  0  0
    3.0615    2.5108    0.0000 C   0  0  0  0  0  0  0  0  0
    2.5297    1.8801    0.0000 C   0  0  0  0  0  0  0  0  0
    2.8100    1.1042    0.0000 C   0  0  0  0  0  0  0  0  0
    2.2781    0.4735    0.0000 C   0  0  0  0  0  0  0  0  0
    2.5584   -0.3024    0.0000 C   0  0  0  0  0  0  0  0  0
    2.0266   -0.9331    0.0000 C   0  0  0  0  0  0  0  0  0
    1.2145   -0.7879    0.0000 N   0  0  0  0  0  0  0  0  0
    0.9342   -0.0120    0.0000 C   0  0  0  0  0  0  0  0  0
    1.4660    0.6187    0.0000 C   0  0  0  0  0  0  0  0  0
    1.1857    1.3946    0.0000 C   0  0  0  0  0  0  0  0  0
    1.7176    2.0254    0.0000 C   0  0  0  0  0  0  0  0  0
    1.4373    2.8013    0.0000 C   0  0  0  0  0  0  0  0  0
    0.6251    2.9465    0.0000 C   0  0  0  0  0  0  0  0  0
    0.0933    2.3158    0.0000 C   0  0  0  0  0  0  0  0  0
    0.3736    1.5399    0.0000 C   0  0  0  0  0  0  0  0  0
    0.6827   -1.4186    0.0000 C   0  0  0  0  0  0  0  0  0
    3.6221    0.9590    0.0000 C   0  0  0  0  0  0  0  0  0
  1  2  1  0  0  0  0
  1  5  1  0  0  0  0
  2  3  4  0  0  0  0
  2 22  4  0  0  0  0
  3  4  1  0  0  0  0
  3  6  4  0  0  0  0
  4  5  1  0  0  0  0
  6  7  4  0  0  0  0
  7  8  4  0  0  0  0
  7 16  1  0  0  0  0
  8  9  1  0  0  0  0
  8 22  4  0  0  0  0
  9 10  1  0  0  0  0
 10 11  1  0  0  0  0
 11 12  1  0  0  0  0
 12 13  1  0  0  0  0
 12 21  1  0  0  0  0
 13 14  1  0  0  0  0
 14 15  1  0  0  0  0
 15 16  4  0  0  0  0
 15 20  4  0  0  0  0
 16 17  4  0  0  0  0
 17 18  4  0  0  0  0
 18 19  4  0  0  0  0
 19 20  4  0  0  0  0
M  END
>  <Name_Molregno>
594329

>  <DOPAMINE D1>
5.16

>  <DOPAMINE D2>
5

>  <DOPAMINE D3>
5

>  <DOPAMINE D4>
5

>  <DOPAMINE D5>
5.37

$$$$
594340
  Marvin  02231216192D 0   1.00000     0.00000     0

 20 22  0  0  1  0  0  0  0  0999 V2000
    0.4365   -1.6699    0.0000 O   0  0  0  0  0  0  0  0  0
    1.1510   -1.2574    0.0000 C   0  0  0  0  0  0  0  0  0
    1.8655   -1.6699    0.0000 C   0  0  0  0  0  0  0  0  0
    2.5799   -1.2574    0.0000 C   0  0  0  0  0  0  0  0  0
    2.5799   -0.4324    0.0000 C   0  0  0  0  0  0  0  0  0
    1.8655   -0.0199    0.0000 C   0  0  0  0  0  0  0  0  0
    1.1510   -0.4324    0.0000 C   0  0  0  0  0  0  0  0  0
    3.2944   -0.0199    0.0000 C   0  0  0  0  0  0  0  0  0
    4.0089   -0.4324    0.0000 N   0  0  0  0  0  0  0  0  0
    4.0089   -1.2574    0.0000 C   0  0  0  0  0  0  0  0  0
    3.2944   -1.6699    0.0000 C   0  0  0  0  0  0  0  0  0
    4.7233   -0.0199    0.0000 C   0  0  0  0  0  0  0  0  0
    3.2944    0.8051    0.0000 C   0  0  0  0  0  0  0  0  0
    4.0089    1.2176    0.0000 C   0  0  0  0  0  0  0  0  0
    4.7233    0.8051    0.0000 C   0  0  0  0  0  0  0  0  0
    5.4378    1.2176    0.0000 C   0  0  0  0  0  0  0  0  0
    5.4378    2.0426    0.0000 C   0  0  0  0  0  0  0  0  0
    4.7233    2.4551    0.0000 C   0  0  0  0  0  0  0  0  0
    4.0089    2.0426    0.0000 C   0  0  0  0  0  0  0  0  0
    3.2944    2.4551    0.0000 C   0  0  0  0  0  0  0  0  0
  1  2  1  0  0  0  0
  2  3  4  0  0  0  0
  2  7  4  0  0  0  0
  3  4  4  0  0  0  0
  4  5  4  0  0  0  0
  4 11  1  0  0  0  0
  5  6  4  0  0  0  0
  5  8  1  0  0  0  0
  6  7  4  0  0  0  0
  8  9  1  0  0  0  0
  8 13  1  0  0  0  0
  9 10  1  0  0  0  0
  9 12  1  0  0  0  0
 10 11  1  0  0  0  0
 13 14  1  0  0  0  0
 14 15  4  0  0  0  0
 14 19  4  0  0  0  0
 15 16  4  0  0  0  0
 16 17  4  0  0  0  0
 17 18  4  0  0  0  0
 18 19  4  0  0  0  0
 19 20  1  0  0  0  0
M  END
>  <Name_Molregno>
594340

>  <DOPAMINE D1>
5.52

>  <DOPAMINE D2>
5.56

>  <DOPAMINE D3>
5

>  <DOPAMINE D4>
5

>  <DOPAMINE D5>
5

$$$$
594341
  Marvin  02231216192D 0   1.00000     0.00000     0

 21 23  0  0  1  0  0  0  0  0999 V2000
    0.1787    1.6422    0.0000 O   0  0  0  0  0  0  0  0  0
   -0.5358    1.2297    0.0000 C   0  0  0  0  0  0  0  0  0
    0.8932    1.2297    0.0000 C   0  0  0  0  0  0  0  0  0
    1.6077    1.6422    0.0000 C   0  0  0  0  0  0  0  0  0
    2.3221    1.2297    0.0000 C   0  0  0  0  0  0  0  0  0
    3.0366    1.6422    0.0000 C   0  0  0  0  0  0  0  0  0
    3.7511    1.2297    0.0000 C   0  0  0  0  0  0  0  0  0
    2.3221    0.4047    0.0000 C   0  0  0  0  0  0  0  0  0
    1.6077   -0.0078    0.0000 C   0  0  0  0  0  0  0  0  0
    0.8932    0.4047    0.0000 C   0  0  0  0  0  0  0  0  0
    3.0366   -0.0078    0.0000 C   0  0  0  0  0  0  0  0  0
    3.0366   -0.8328    0.0000 N   0  0  0  0  0  0  0  0  0
    3.7511   -1.2453    0.0000 C   0  0  0  0  0  0  0  0  0
    4.4655   -0.8328    0.0000 C   0  0  0  0  0  0  0  0  0
    4.4655   -0.0078    0.0000 C   0  0  0  0  0  0  0  0  0
    3.7511    0.4047    0.0000 C   0  0  0  0  0  0  0  0  0
    5.1800    0.4047    0.0000 C   0  0  0  0  0  0  0  0  0
    5.8945   -0.0078    0.0000 C   0  0  0  0  0  0  0  0  0
    5.8945   -0.8328    0.0000 C   0  0  0  0  0  0  0  0  0
    5.1800   -1.2453    0.0000 C   0  0  0  0  0  0  0  0  0
    2.3221   -1.2453    0.0000 C   0  0  0  0  0  0  0  0  0
  1  2  1  0  0  0  0
  1  3  1  0  0  0  0
  3  4  4  0  0  0  0
  3 10  4  0  0  0  0
  4  5  4  0  0  0  0
  5  6  1  0  0  0  0
  5  8  4  0  0  0  0
  6  7  1  0  0  0  0
  8  9  4  0  0  0  0
  8 11  1  0  0  0  0
  9 10  4  0  0  0  0
 11 12  1  0  0  0  0
 11 16  1  0  0  0  0
 12 13  1  0  0  0  0
 12 21  1  0  0  0  0
 13 14  1  0  0  0  0
 14 15  4  0  0  0  0
 14 20  4  0  0  0  0
 15 16  1  0  0  0  0
 15 17  4  0  0  0  0
 17 18  4  0  0  0  0
 18 19  4  0  0  0  0
 19 20  4  0  0  0  0
M  END
>  <Name_Molregno>
594341

>  <DOPAMINE D1>
5

>  <DOPAMINE D2>
5

>  <DOPAMINE D3>
5

>  <DOPAMINE D4>
5

>  <DOPAMINE D5>
5

$$$$
594386
  Marvin  02231216192D 0   1.00000     0.00000     0

 19 22  0  0  1  0  0  0  0  0999 V2000
   -0.0338   -0.6455    0.0000 O   0  0  0  0  0  0  0  0  0
    0.7764   -0.4896    0.0000 C   0  0  0  0  0  0  0  0  0
    1.0464    0.2899    0.0000 C   0  0  0  0  0  0  0  0  0
    1.8565    0.4459    0.0000 C   0  0  0  0  0  0  0  0  0
    2.1266    1.2254    0.0000 C   0  0  0  0  0  0  0  0  0
    2.9367    1.3813    0.0000 C   0  0  0  0  0  0  0  0  0
    3.4768    0.7577    0.0000 N   0  0  0  0  0  0  0  0  0
    3.2068   -0.0219    0.0000 C   0  0  0  0  0  0  0  0  0
    3.7468   -0.6455    0.0000 C   0  0  0  0  0  0  0  0  0
    4.5570   -0.4896    0.0000 C   0  0  0  0  0  0  0  0  0
    4.8270    0.2899    0.0000 C   0  0  0  0  0  0  0  0  0
    4.2869    0.9136    0.0000 C   0  0  0  0  0  0  0  0  0
    5.6372    0.4459    0.0000 C   0  0  0  0  0  0  0  0  0
    6.1772   -0.1778    0.0000 C   0  0  0  0  0  0  0  0  0
    5.9072   -0.9573    0.0000 C   0  0  0  0  0  0  0  0  0
    5.0971   -1.1132    0.0000 C   0  0  0  0  0  0  0  0  0
    2.3966   -0.1778    0.0000 C   0  0  0  0  0  0  0  0  0
    2.1266   -0.9573    0.0000 C   0  0  0  0  0  0  0  0  0
    1.3164   -1.1132    0.0000 C   0  0  0  0  0  0  0  0  0
  1  2  1  0  0  0  0
  2  3  4  0  0  0  0
  2 19  4  0  0  0  0
  3  4  4  0  0  0  0
  4  5  1  0  0  0  0
  4 17  4  0  0  0  0
  5  6  1  0  0  0  0
  6  7  1  0  0  0  0
  7  8  1  0  0  0  0
  7 12  1  0  0  0  0
  8  9  1  0  0  0  0
  8 17  1  0  0  0  0
  9 10  1  0  0  0  0
 10 11  4  0  0  0  0
 10 16  4  0  0  0  0
 11 12  1  0  0  0  0
 11 13  4  0  0  0  0
 13 14  4  0  0  0  0
 14 15  4  0  0  0  0
 15 16  4  0  0  0  0
 17 18  4  0  0  0  0
 18 19  4  0  0  0  0
M  END
>  <Name_Molregno>
594386

>  <DOPAMINE D1>
6.87

>  <DOPAMINE D2>
6.31

>  <DOPAMINE D3>
6.51

>  <DOPAMINE D4>
5.29

>  <DOPAMINE D5>
7.39

$$$$
594387
  Marvin  02231216192D 0   1.00000     0.00000     0

 21 23  0  0  1  0  0  0  0  0999 V2000
    0.4314   -1.9047    0.0000 O   0  0  0  0  0  0  0  0  0
   -0.2831   -1.4922    0.0000 C   0  0  0  0  0  0  0  0  0
    1.1458   -1.4922    0.0000 C   0  0  0  0  0  0  0  0  0
    1.8603   -1.9047    0.0000 C   0  0  0  0  0  0  0  0  0
    2.5748   -1.4922    0.0000 C   0  0  0  0  0  0  0  0  0
    2.5748   -0.6672    0.0000 C   0  0  0  0  0  0  0  0  0
    1.8603   -0.2547    0.0000 C   0  0  0  0  0  0  0  0  0
    1.1458   -0.6672    0.0000 C   0  0  0  0  0  0  0  0  0
    3.2892   -0.2547    0.0000 C   0  0  0  0  0  0  0  0  0
    4.0037   -0.6672    0.0000 N   0  0  0  0  0  0  0  0  0
    4.0037   -1.4922    0.0000 C   0  0  0  0  0  0  0  0  0
    3.2892   -1.9047    0.0000 C   0  0  0  0  0  0  0  0  0
    4.7182   -0.2547    0.0000 C   0  0  0  0  0  0  0  0  0
    3.2892    0.5703    0.0000 C   0  0  0  0  0  0  0  0  0
    4.0037    0.9828    0.0000 C   0  0  0  0  0  0  0  0  0
    4.7182    0.5703    0.0000 C   0  0  0  0  0  0  0  0  0
    5.4327    0.9828    0.0000 C   0  0  0  0  0  0  0  0  0
    5.4327    1.8078    0.0000 C   0  0  0  0  0  0  0  0  0
    4.7182    2.2203    0.0000 C   0  0  0  0  0  0  0  0  0
    4.0037    1.8078    0.0000 C   0  0  0  0  0  0  0  0  0
    3.2892    2.2203    0.0000 C   0  0  0  0  0  0  0  0  0
  1  2  1  0  0  0  0
  1  3  1  0  0  0  0
  3  4  4  0  0  0  0
  3  8  4  0  0  0  0
  4  5  4  0  0  0  0
  5  6  4  0  0  0  0
  5 12  1  0  0  0  0
  6  7  4  0  0  0  0
  6  9  1  0  0  0  0
  7  8  4  0  0  0  0
  9 10  1  0  0  0  0
  9 14  1  0  0  0  0
 10 11  1  0  0  0  0
 10 13  1  0  0  0  0
 11 12  1  0  0  0  0
 14 15  1  0  0  0  0
 15 16  4  0  0  0  0
 15 20  4  0  0  0  0
 16 17  4  0  0  0  0
 17 18  4  0  0  0  0
 18 19  4  0  0  0  0
 19 20  4  0  0  0  0
 20 21  1  0  0  0  0
M  END
>  <Name_Molregno>
594387

>  <DOPAMINE D1>
5.63

>  <DOPAMINE D2>
5.13

>  <DOPAMINE D3>
5

>  <DOPAMINE D4>
5.18

>  <DOPAMINE D5>
5

$$$$
594401
  Marvin  02231216192D 0   1.00000     0.00000     0

 21 23  0  0  0  0  0  0  0  0999 V2000
   -6.2340    0.5870    0.0000 O   0  0  0  0  0  0  0  0  0
   -6.7741   -0.0367    0.0000 C   0  0  0  0  0  0  0  0  0
   -5.4239    0.4310    0.0000 C   0  0  0  0  0  0  0  0  0
   -4.8838    1.0547    0.0000 C   0  0  0  0  0  0  0  0  0
   -4.0736    0.8988    0.0000 C   0  0  0  0  0  0  0  0  0
   -3.5336    1.5224    0.0000 C   0  0  0  0  0  0  0  0  0
   -2.7234    1.3665    0.0000 C   0  0  0  0  0  0  0  0  0
   -2.1833    1.9901    0.0000 N   0  0  0  0  0  0  0  0  0
   -1.3732    1.8342    0.0000 C   0  0  0  0  0  0  0  0  0
   -1.1032    1.0547    0.0000 C   0  0  0  0  0  0  0  0  0
   -1.6432    0.4310    0.0000 C   0  0  0  0  0  0  0  0  0
   -2.4534    0.5870    0.0000 C   0  0  0  0  0  0  0  0  0
   -2.9935   -0.0367    0.0000 C   0  0  0  0  0  0  0  0  0
   -3.8036    0.1192    0.0000 C   0  0  0  0  0  0  0  0  0
   -4.3437   -0.5044    0.0000 C   0  0  0  0  0  0  0  0  0
   -5.1538   -0.3485    0.0000 C   0  0  0  0  0  0  0  0  0
   -1.3732   -0.3485    0.0000 C   0  0  0  0  0  0  0  0  0
   -0.5631   -0.5044    0.0000 C   0  0  0  0  0  0  0  0  0
   -0.0230    0.1192    0.0000 C   0  0  0  0  0  0  0  0  0
   -0.2930    0.8988    0.0000 C   0  0  0  0  0  0  0  0  0
   -2.4534    2.7697    0.0000 C   0  0  0  0  0  0  0  0  0
  1  2  1  0  0  0  0
  1  3  1  0  0  0  0
  3  4  4  0  0  0  0
  3 16  4  0  0  0  0
  4  5  4  0  0  0  0
  5  6  1  0  0  0  0
  5 14  4  0  0  0  0
  6  7  1  0  0  0  0
  7  8  1  0  0  0  0
  8  9  1  0  0  0  0
  8 21  1  0  0  0  0
  9 10  1  0  0  0  0
 10 11  4  0  0  0  0
 10 20  4  0  0  0  0
 11 12  1  0  0  0  0
 11 17  4  0  0  0  0
 12 13  1  0  0  0  0
 13 14  1  0  0  0  0
 14 15  4  0  0  0  0
 15 16  4  0  0  0  0
 17 18  4  0  0  0  0
 18 19  4  0  0  0  0
 19 20  4  0  0  0  0
M  END
>  <Name_Molregno>
594401

>  <DOPAMINE D1>
5.76

>  <DOPAMINE D2>
5

>  <DOPAMINE D3>
5

>  <DOPAMINE D4>
5

>  <DOPAMINE D5>
5.82

$$$$
594402
  Marvin  02231216192D 0   1.00000     0.00000     0

 20 23  0  0  1  0  0  0  0  0999 V2000
    5.3222    0.9297    0.0000 O   0  0  0  0  0  0  0  0  0
    5.3222    1.7547    0.0000 C   0  0  0  0  0  0  0  0  0
    4.6078    0.5172    0.0000 C   0  0  0  0  0  0  0  0  0
    4.6078   -0.3078    0.0000 C   0  0  0  0  0  0  0  0  0
    3.8933   -0.7203    0.0000 C   0  0  0  0  0  0  0  0  0
    3.8933   -1.5453    0.0000 C   0  0  0  0  0  0  0  0  0
    3.1788   -1.9578    0.0000 C   0  0  0  0  0  0  0  0  0
    2.4644   -1.5453    0.0000 N   0  0  0  0  0  0  0  0  0
    2.4644   -0.7203    0.0000 C   0  0  0  0  0  0  0  0  0
    3.1788   -0.3078    0.0000 C   0  0  0  0  0  0  0  0  0
    3.1788    0.5172    0.0000 C   0  0  0  0  0  0  0  0  0
    3.8933    0.9297    0.0000 C   0  0  0  0  0  0  0  0  0
    1.7499   -0.3078    0.0000 C   0  0  0  0  0  0  0  0  0
    1.0354   -0.7203    0.0000 C   0  0  0  0  0  0  0  0  0
    1.0354   -1.5453    0.0000 C   0  0  0  0  0  0  0  0  0
    1.7499   -1.9578    0.0000 C   0  0  0  0  0  0  0  0  0
    0.3209   -0.3078    0.0000 C   0  0  0  0  0  0  0  0  0
    0.3209    0.5172    0.0000 C   0  0  0  0  0  0  0  0  0
    1.0354    0.9297    0.0000 C   0  0  0  0  0  0  0  0  0
    1.7499    0.5172    0.0000 C   0  0  0  0  0  0  0  0  0
  1  2  1  0  0  0  0
  1  3  1  0  0  0  0
  3  4  4  0  0  0  0
  3 12  4  0  0  0  0
  4  5  4  0  0  0  0
  5  6  1  0  0  0  0
  5 10  4  0  0  0  0
  6  7  1  0  0  0  0
  7  8  1  0  0  0  0
  8  9  1  0  0  0  0
  8 16  1  0  0  0  0
  9 10  1  0  0  0  0
  9 13  1  0  0  0  0
 10 11  4  0  0  0  0
 11 12  4  0  0  0  0
 13 14  4  0  0  0  0
 13 20  4  0  0  0  0
 14 15  1  0  0  0  0
 14 17  4  0  0  0  0
 15 16  1  0  0  0  0
 17 18  4  0  0  0  0
 18 19  4  0  0  0  0
 19 20  4  0  0  0  0
M  END
>  <Name_Molregno>
594402

>  <DOPAMINE D1>
5.67

>  <DOPAMINE D2>
5

>  <DOPAMINE D3>
5

>  <DOPAMINE D4>
5

>  <DOPAMINE D5>
5

$$$$
594403
  Marvin  02231216192D 0   1.00000     0.00000     0

 19 22  0  0  1  0  0  0  0  0999 V2000
    5.3389    0.0219    0.0000 O   0  0  0  0  0  0  0  0  0
    4.6244   -0.3906    0.0000 C   0  0  0  0  0  0  0  0  0
    4.6244   -1.2156    0.0000 C   0  0  0  0  0  0  0  0  0
    3.9099   -1.6281    0.0000 C   0  0  0  0  0  0  0  0  0
    3.9099   -2.4531    0.0000 C   0  0  0  0  0  0  0  0  0
    3.1955   -2.8656    0.0000 C   0  0  0  0  0  0  0  0  0
    2.4810   -2.4531    0.0000 N   0  0  0  0  0  0  0  0  0
    2.4810   -1.6281    0.0000 C   0  0  0  0  0  0  0  0  0
    3.1955   -1.2156    0.0000 C   0  0  0  0  0  0  0  0  0
    3.1955   -0.3906    0.0000 C   0  0  0  0  0  0  0  0  0
    3.9099    0.0219    0.0000 C   0  0  0  0  0  0  0  0  0
    1.7665   -1.2156    0.0000 C   0  0  0  0  0  0  0  0  0
    1.0520   -1.6281    0.0000 C   0  0  0  0  0  0  0  0  0
    1.0520   -2.4531    0.0000 C   0  0  0  0  0  0  0  0  0
    1.7665   -2.8656    0.0000 C   0  0  0  0  0  0  0  0  0
    0.3376   -1.2156    0.0000 C   0  0  0  0  0  0  0  0  0
    0.3376   -0.3906    0.0000 C   0  0  0  0  0  0  0  0  0
    1.0520    0.0219    0.0000 C   0  0  0  0  0  0  0  0  0
    1.7665   -0.3906    0.0000 C   0  0  0  0  0  0  0  0  0
  1  2  1  0  0  0  0
  2  3  4  0  0  0  0
  2 11  4  0  0  0  0
  3  4  4  0  0  0  0
  4  5  1  0  0  0  0
  4  9  4  0  0  0  0
  5  6  1  0  0  0  0
  6  7  1  0  0  0  0
  7  8  1  0  0  0  0
  7 15  1  0  0  0  0
  8  9  1  0  0  0  0
  8 12  1  0  0  0  0
  9 10  4  0  0  0  0
 10 11  4  0  0  0  0
 12 13  4  0  0  0  0
 12 19  4  0  0  0  0
 13 14  1  0  0  0  0
 13 16  4  0  0  0  0
 14 15  1  0  0  0  0
 16 17  4  0  0  0  0
 17 18  4  0  0  0  0
 18 19  4  0  0  0  0
M  END
>  <Name_Molregno>
594403

>  <DOPAMINE D1>
5

>  <DOPAMINE D2>
5

>  <DOPAMINE D3>
5

>  <DOPAMINE D4>
5

>  <DOPAMINE D5>
5

$$$$
594449
  Marvin  02231216192D 0   1.00000     0.00000     0

 20 23  0  0  1  0  0  0  0  0999 V2000
   -0.0381   -0.5723    0.0000 O   0  0  0  0  0  0  0  0  0
   -0.3081   -1.3518    0.0000 C   0  0  0  0  0  0  0  0  0
    0.7721   -0.4163    0.0000 C   0  0  0  0  0  0  0  0  0
    1.0421    0.3632    0.0000 C   0  0  0  0  0  0  0  0  0
    1.8522    0.5191    0.0000 C   0  0  0  0  0  0  0  0  0
    2.1223    1.2987    0.0000 C   0  0  0  0  0  0  0  0  0
    2.9324    1.4546    0.0000 C   0  0  0  0  0  0  0  0  0
    3.4725    0.8309    0.0000 N   0  0  0  0  0  0  0  0  0
    3.2025    0.0514    0.0000 C   0  0  0  0  0  0  0  0  0
    3.7426   -0.5723    0.0000 C   0  0  0  0  0  0  0  0  0
    4.5527   -0.4163    0.0000 C   0  0  0  0  0  0  0  0  0
    4.8227    0.3632    0.0000 C   0  0  0  0  0  0  0  0  0
    4.2826    0.9868    0.0000 C   0  0  0  0  0  0  0  0  0
    5.6329    0.5191    0.0000 C   0  0  0  0  0  0  0  0  0
    6.1730   -0.1045    0.0000 C   0  0  0  0  0  0  0  0  0
    5.9029   -0.8841    0.0000 C   0  0  0  0  0  0  0  0  0
    5.0928   -1.0400    0.0000 C   0  0  0  0  0  0  0  0  0
    2.3923   -0.1045    0.0000 C   0  0  0  0  0  0  0  0  0
    2.1223   -0.8841    0.0000 C   0  0  0  0  0  0  0  0  0
    1.3122   -1.0400    0.0000 C   0  0  0  0  0  0  0  0  0
  1  2  1  0  0  0  0
  1  3  1  0  0  0  0
  3  4  4  0  0  0  0
  3 20  4  0  0  0  0
  4  5  4  0  0  0  0
  5  6  1  0  0  0  0
  5 18  4  0  0  0  0
  6  7  1  0  0  0  0
  7  8  1  0  0  0  0
  8  9  1  0  0  0  0
  8 13  1  0  0  0  0
  9 10  1  0  0  0  0
  9 18  1  0  0  0  0
 10 11  1  0  0  0  0
 11 12  4  0  0  0  0
 11 17  4  0  0  0  0
 12 13  1  0  0  0  0
 12 14  4  0  0  0  0
 14 15  4  0  0  0  0
 15 16  4  0  0  0  0
 16 17  4  0  0  0  0
 18 19  4  0  0  0  0
 19 20  4  0  0  0  0
M  END
>  <Name_Molregno>
594449

>  <DOPAMINE D1>
6.74

>  <DOPAMINE D2>
6.49

>  <DOPAMINE D3>
6.6

>  <DOPAMINE D4>
5.59

>  <DOPAMINE D5>
6.73

$$$$
594450
  Marvin  02231216192D 0   1.00000     0.00000     0

 20 22  0  0  0  0  0  0  0  0999 V2000
   -0.2117    0.6176    0.0000 O   0  0  0  0  0  0  0  0  0
    0.5985    0.4617    0.0000 C   0  0  0  0  0  0  0  0  0
    1.1386    1.0854    0.0000 C   0  0  0  0  0  0  0  0  0
    1.9487    0.9295    0.0000 C   0  0  0  0  0  0  0  0  0
    2.4888    1.5531    0.0000 C   0  0  0  0  0  0  0  0  0
    3.2989    1.3972    0.0000 C   0  0  0  0  0  0  0  0  0
    3.8390    2.0208    0.0000 N   0  0  0  0  0  0  0  0  0
    4.6491    1.8649    0.0000 C   0  0  0  0  0  0  0  0  0
    4.9192    1.0854    0.0000 C   0  0  0  0  0  0  0  0  0
    4.3791    0.4617    0.0000 C   0  0  0  0  0  0  0  0  0
    3.5690    0.6176    0.0000 C   0  0  0  0  0  0  0  0  0
    3.0289   -0.0060    0.0000 C   0  0  0  0  0  0  0  0  0
    2.2187    0.1499    0.0000 C   0  0  0  0  0  0  0  0  0
    1.6787   -0.4737    0.0000 C   0  0  0  0  0  0  0  0  0
    0.8685   -0.3178    0.0000 C   0  0  0  0  0  0  0  0  0
    4.6491   -0.3178    0.0000 C   0  0  0  0  0  0  0  0  0
    5.4593   -0.4737    0.0000 C   0  0  0  0  0  0  0  0  0
    5.9994    0.1499    0.0000 C   0  0  0  0  0  0  0  0  0
    5.7293    0.9295    0.0000 C   0  0  0  0  0  0  0  0  0
    3.5690    2.8004    0.0000 C   0  0  0  0  0  0  0  0  0
  1  2  1  0  0  0  0
  2  3  4  0  0  0  0
  2 15  4  0  0  0  0
  3  4  4  0  0  0  0
  4  5  1  0  0  0  0
  4 13  4  0  0  0  0
  5  6  1  0  0  0  0
  6  7  1  0  0  0  0
  7  8  1  0  0  0  0
  7 20  1  0  0  0  0
  8  9  1  0  0  0  0
  9 10  4  0  0  0  0
  9 19  4  0  0  0  0
 10 11  1  0  0  0  0
 10 16  4  0  0  0  0
 11 12  1  0  0  0  0
 12 13  1  0  0  0  0
 13 14  4  0  0  0  0
 14 15  4  0  0  0  0
 16 17  4  0  0  0  0
 17 18  4  0  0  0  0
 18 19  4  0  0  0  0
M  END
>  <Name_Molregno>
594450

>  <DOPAMINE D1>
5

>  <DOPAMINE D2>
5

>  <DOPAMINE D3>
5

>  <DOPAMINE D4>
5

>  <DOPAMINE D5>
5

$$$$
594455
  Marvin  02231216192D 0   1.00000     0.00000     0

 20 23  0  0  1  0  0  0  0  0999 V2000
   -0.2086    1.0010    0.0000 O   0  0  0  0  0  0  0  0  0
   -0.2327    1.8256    0.0000 C   0  0  0  0  0  0  0  0  0
   -0.9107    0.5678    0.0000 C   0  0  0  0  0  0  0  0  0
   -0.8866   -0.2569    0.0000 C   0  0  0  0  0  0  0  0  0
   -1.5887   -0.6901    0.0000 C   0  0  0  0  0  0  0  0  0
   -1.4420   -1.5019    0.0000 C   0  0  0  0  0  0  0  0  0
   -1.9852   -2.1228    0.0000 C   0  0  0  0  0  0  0  0  0
   -2.8094   -2.0852    0.0000 C   0  0  0  0  0  0  0  0  0
   -3.2938   -1.4175    0.0000 N   0  0  0  0  0  0  0  0  0
   -3.0738   -0.6224    0.0000 C   0  0  0  0  0  0  0  0  0
   -2.3149   -0.2986    0.0000 C   0  0  0  0  0  0  0  0  0
   -2.3390    0.5260    0.0000 C   0  0  0  0  0  0  0  0  0
   -1.6369    0.9592    0.0000 C   0  0  0  0  0  0  0  0  0
   -3.7620   -0.1674    0.0000 C   0  0  0  0  0  0  0  0  0
   -4.4073   -0.6813    0.0000 C   0  0  0  0  0  0  0  0  0
   -4.1180   -1.4539    0.0000 C   0  0  0  0  0  0  0  0  0
   -5.1751   -0.3794    0.0000 C   0  0  0  0  0  0  0  0  0
   -5.2975    0.4365    0.0000 C   0  0  0  0  0  0  0  0  0
   -4.6521    0.9504    0.0000 C   0  0  0  0  0  0  0  0  0
   -3.8844    0.6485    0.0000 C   0  0  0  0  0  0  0  0  0
  1  2  1  0  0  0  0
  1  3  1  0  0  0  0
  3  4  4  0  0  0  0
  3 13  4  0  0  0  0
  4  5  4  0  0  0  0
  5  6  1  0  0  0  0
  5 11  4  0  0  0  0
  6  7  1  0  0  0  0
  7  8  1  0  0  0  0
  8  9  1  0  0  0  0
  9 10  1  0  0  0  0
  9 16  1  0  0  0  0
 10 11  1  0  0  0  0
 10 14  1  0  0  0  0
 11 12  4  0  0  0  0
 12 13  4  0  0  0  0
 14 15  4  0  0  0  0
 14 20  4  0  0  0  0
 15 16  1  0  0  0  0
 15 17  4  0  0  0  0
 17 18  4  0  0  0  0
 18 19  4  0  0  0  0
 19 20  4  0  0  0  0
M  END
>  <Name_Molregno>
594455

>  <DOPAMINE D1>
5

>  <DOPAMINE D2>
5

>  <DOPAMINE D3>
5

>  <DOPAMINE D4>
5

>  <DOPAMINE D5>
5

$$$$
594456
  Marvin  02231216192D 0   1.00000     0.00000     0

 21 23  0  0  0  0  0  0  0  0999 V2000
   -5.5811   -0.8983    0.0000 O   0  0  0  0  0  0  0  0  0
   -5.5811   -1.7233    0.0000 C   0  0  0  0  0  0  0  0  0
   -4.8666   -0.4858    0.0000 C   0  0  0  0  0  0  0  0  0
   -4.8666    0.3392    0.0000 C   0  0  0  0  0  0  0  0  0
   -4.1521    0.7517    0.0000 C   0  0  0  0  0  0  0  0  0
   -4.1521    1.5767    0.0000 C   0  0  0  0  0  0  0  0  0
   -3.4377    1.9892    0.0000 C   0  0  0  0  0  0  0  0  0
   -2.7232    1.5767    0.0000 C   0  0  0  0  0  0  0  0  0
   -2.0087    1.9892    0.0000 N   0  0  0  0  0  0  0  0  0
   -1.2943    1.5767    0.0000 C   0  0  0  0  0  0  0  0  0
   -1.2943    0.7517    0.0000 C   0  0  0  0  0  0  0  0  0
   -2.0087    0.3392    0.0000 C   0  0  0  0  0  0  0  0  0
   -2.7232    0.7517    0.0000 C   0  0  0  0  0  0  0  0  0
   -3.4377    0.3392    0.0000 C   0  0  0  0  0  0  0  0  0
   -3.4377   -0.4858    0.0000 C   0  0  0  0  0  0  0  0  0
   -4.1521   -0.8983    0.0000 C   0  0  0  0  0  0  0  0  0
   -2.0087   -0.4858    0.0000 C   0  0  0  0  0  0  0  0  0
   -1.2943   -0.8983    0.0000 C   0  0  0  0  0  0  0  0  0
   -0.5798   -0.4858    0.0000 C   0  0  0  0  0  0  0  0  0
   -0.5798    0.3392    0.0000 C   0  0  0  0  0  0  0  0  0
   -2.0087    2.8142    0.0000 C   0  0  0  0  0  0  0  0  0
  1  2  1  0  0  0  0
  1  3  1  0  0  0  0
  3  4  4  0  0  0  0
  3 16  4  0  0  0  0
  4  5  4  0  0  0  0
  5  6  1  0  0  0  0
  5 14  4  0  0  0  0
  6  7  1  0  0  0  0
  7  8  1  0  0  0  0
  8  9  1  0  0  0  0
  9 10  1  0  0  0  0
  9 21  1  0  0  0  0
 10 11  1  0  0  0  0
 11 12  4  0  0  0  0
 11 20  4  0  0  0  0
 12 13  1  0  0  0  0
 12 17  4  0  0  0  0
 13 14  1  0  0  0  0
 14 15  4  0  0  0  0
 15 16  4  0  0  0  0
 17 18  4  0  0  0  0
 18 19  4  0  0  0  0
 19 20  4  0  0  0  0
M  END
>  <Name_Molregno>
594456

>  <DOPAMINE D1>
5.9

>  <DOPAMINE D2>
5

>  <DOPAMINE D3>
5

>  <DOPAMINE D4>
5

>  <DOPAMINE D5>
5

$$$$
594464
  Marvin  02231216192D 0   1.00000     0.00000     0

 20 22  0  0  0  0  0  0  0  0999 V2000
    0.4108   -1.2724    0.0000 O   0  0  0  0  0  0  0  0  0
    1.1252   -0.8599    0.0000 C   0  0  0  0  0  0  0  0  0
    1.1252   -0.0349    0.0000 C   0  0  0  0  0  0  0  0  0
    1.8397    0.3776    0.0000 C   0  0  0  0  0  0  0  0  0
    1.8397    1.2026    0.0000 C   0  0  0  0  0  0  0  0  0
    2.5542    1.6151    0.0000 C   0  0  0  0  0  0  0  0  0
    3.2686    1.2026    0.0000 C   0  0  0  0  0  0  0  0  0
    3.9831    1.6151    0.0000 N   0  0  0  0  0  0  0  0  0
    4.6976    1.2026    0.0000 C   0  0  0  0  0  0  0  0  0
    4.6976    0.3776    0.0000 C   0  0  0  0  0  0  0  0  0
    3.9831   -0.0349    0.0000 C   0  0  0  0  0  0  0  0  0
    3.2686    0.3776    0.0000 C   0  0  0  0  0  0  0  0  0
    2.5542   -0.0349    0.0000 C   0  0  0  0  0  0  0  0  0
    2.5542   -0.8599    0.0000 C   0  0  0  0  0  0  0  0  0
    1.8397   -1.2724    0.0000 C   0  0  0  0  0  0  0  0  0
    3.9831   -0.8599    0.0000 C   0  0  0  0  0  0  0  0  0
    4.6976   -1.2724    0.0000 C   0  0  0  0  0  0  0  0  0
    5.4120   -0.8599    0.0000 C   0  0  0  0  0  0  0  0  0
    5.4120   -0.0349    0.0000 C   0  0  0  0  0  0  0  0  0
    3.9831    2.4401    0.0000 C   0  0  0  0  0  0  0  0  0
  1  2  1  0  0  0  0
  2  3  4  0  0  0  0
  2 15  4  0  0  0  0
  3  4  4  0  0  0  0
  4  5  1  0  0  0  0
  4 13  4  0  0  0  0
  5  6  1  0  0  0  0
  6  7  1  0  0  0  0
  7  8  1  0  0  0  0
  8  9  1  0  0  0  0
  8 20  1  0  0  0  0
  9 10  1  0  0  0  0
 10 11  4  0  0  0  0
 10 19  4  0  0  0  0
 11 12  1  0  0  0  0
 11 16  4  0  0  0  0
 12 13  1  0  0  0  0
 13 14  4  0  0  0  0
 14 15  4  0  0  0  0
 16 17  4  0  0  0  0
 17 18  4  0  0  0  0
 18 19  4  0  0  0  0
M  END
>  <Name_Molregno>
594464

>  <DOPAMINE D1>
5.68

>  <DOPAMINE D2>
5

>  <DOPAMINE D3>
5

>  <DOPAMINE D4>
5

>  <DOPAMINE D5>
5.74

$$$$
594617
  Marvin  02231216192D 0   1.00000     0.00000     0

 26 29  0  0  1  0  0  0  0  0999 V2000
   -0.4854   -0.6621    0.0000 I   0  0  0  0  0  0  0  0  0
    0.2291   -1.0746    0.0000 C   0  0  0  0  0  0  0  0  0
    0.9436   -0.6621    0.0000 C   0  0  0  0  0  0  0  0  0
    1.6580   -1.0746    0.0000 C   0  0  0  0  0  0  0  0  0
    1.6580   -1.8996    0.0000 C   0  0  0  0  0  0  0  0  0
    0.9436   -2.3121    0.0000 C   0  0  0  0  0  0  0  0  0
    0.2291   -1.8996    0.0000 C   0  0  0  0  0  0  0  0  0
   -0.4854   -2.3121    0.0000 S   0  0  0  0  0  0  0  0  0
   -0.8979   -1.5976    0.0000 O   0  0  0  0  0  0  0  0  0
   -0.0729   -3.0266    0.0000 O   0  0  0  0  0  0  0  0  0
   -1.1998   -2.7246    0.0000 N   0  0  0  0  0  0  0  0  0
   -1.9143   -2.3121    0.0000 C   0  0  0  0  0  0  0  0  0
   -2.6288   -2.7246    0.0000 C   0  0  0  0  0  0  0  0  0
   -3.3433   -2.3121    0.0000 C   0  0  0  0  0  0  0  0  0
   -3.3433   -1.4871    0.0000 C   0  0  0  0  0  0  0  0  0
   -4.1279   -1.2321    0.0000 N   0  0  0  0  0  0  0  0  0
   -4.6128   -1.8996    0.0000 C   0  0  0  0  0  0  0  0  0
   -4.1279   -2.5670    0.0000 C   0  0  0  0  0  0  0  0  0
   -4.3828   -3.3516    0.0000 C   0  0  0  0  0  0  0  0  0
   -5.1898   -3.5232    0.0000 C   0  0  0  0  0  0  0  0  0
   -5.5254   -4.2768    0.0000 N   0  0  0  0  0  0  0  0  0
   -6.3458   -4.1906    0.0000 C   0  0  0  0  0  0  0  0  0
   -6.5174   -3.3836    0.0000 C   0  0  0  0  0  0  0  0  0
   -5.8029   -2.9711    0.0000 C   0  0  0  0  0  0  0  0  0
   -2.6288   -1.0746    0.0000 C   0  0  0  0  0  0  0  0  0
   -1.9143   -1.4871    0.0000 C   0  0  0  0  0  0  0  0  0
  1  2  1  0  0  0  0
  2  3  4  0  0  0  0
  2  7  4  0  0  0  0
  3  4  4  0  0  0  0
  4  5  4  0  0  0  0
  5  6  4  0  0  0  0
  6  7  4  0  0  0  0
  7  8  1  0  0  0  0
  8  9  2  0  0  0  0
  8 10  2  0  0  0  0
  8 11  1  0  0  0  0
 11 12  1  0  0  0  0
 12 13  4  0  0  0  0
 12 26  4  0  0  0  0
 13 14  4  0  0  0  0
 14 15  4  0  0  0  0
 14 18  4  0  0  0  0
 15 16  4  0  0  0  0
 15 25  4  0  0  0  0
 16 17  4  0  0  0  0
 17 18  4  0  0  0  0
 18 19  1  0  0  0  0
 19 20  1  0  0  0  0
 20 21  1  0  0  0  0
 20 24  1  0  0  0  0
 21 22  1  0  0  0  0
 22 23  1  0  0  0  0
 23 24  1  0  0  0  0
 25 26  4  0  0  0  0
M  STY  1   1 DAT
M  SAL   1  1  16
M  SDT   1 MRV_IMPLICIT_H                                        
M  SDD   1     0.0000    0.0000    DR    ALL  0       0  
M  SED   1 IMPL_H1
M  END
>  <Name_Molregno>
594617

>  <5-HT1A>
6.63

>  <5-HT1B>
8.03

>  <5-HT1D>
7.19

>  <5-HT2C>
6.63

>  <5-HT6>
9

>  <5-HT7>
6.48

>  <DOPAMINE D2>
5.7

>  <DOPAMINE D3>
5.3

>  <DOPAMINE D4>
5.3

$$$$
608576
  Marvin  02231216192D 0   1.00000     0.00000     0

 26 29  0  0  1  0  0  0  0  0999 V2000
    0.8469   -3.8121    0.0000 S   0  0  0  0  0  0  0  0  0
    1.5614   -3.3996    0.0000 C   0  0  0  0  0  0  0  0  0
    1.5614   -2.5746    0.0000 C   0  0  0  0  0  0  0  0  0
    0.8469   -2.1621    0.0000 N   0  0  0  0  0  0  0  0  0
    0.1324   -2.5746    0.0000 C   0  0  0  0  0  0  0  0  0
    0.1324   -3.3996    0.0000 C   0  0  0  0  0  0  0  0  0
   -0.5820   -3.8121    0.0000 C   0  0  0  0  0  0  0  0  0
   -1.2965   -3.3996    0.0000 C   0  0  0  0  0  0  0  0  0
   -1.2965   -2.5746    0.0000 C   0  0  0  0  0  0  0  0  0
   -0.5820   -2.1621    0.0000 C   0  0  0  0  0  0  0  0  0
    0.8469   -1.3371    0.0000 C   0  0  0  0  0  0  0  0  0
    0.1324   -0.9246    0.0000 C   0  0  0  0  0  0  0  0  0
    0.1324   -0.0996    0.0000 C   0  0  0  0  0  0  0  0  0
   -0.5820    0.3129    0.0000 N   0  0  0  0  0  0  0  0  0
   -0.5820    1.1379    0.0000 C   0  0  0  0  0  0  0  0  0
    0.1324    1.5504    0.0000 C   0  0  0  0  0  0  0  0  0
    0.8469    1.1379    0.0000 C   0  0  0  0  0  0  0  0  0
    0.8469    0.3129    0.0000 C   0  0  0  0  0  0  0  0  0
   -1.2965   -0.0996    0.0000 C   0  0  0  0  0  0  0  0  0
    2.2758   -2.1621    0.0000 C   0  0  0  0  0  0  0  0  0
    2.9903   -2.5746    0.0000 C   0  0  0  0  0  0  0  0  0
    3.7048   -2.1621    0.0000 S   0  0  0  0  0  0  0  0  0
    3.7048   -1.3371    0.0000 O   0  0  0  0  0  0  0  0  0
    4.4193   -2.5746    0.0000 C   0  0  0  0  0  0  0  0  0
    2.9903   -3.3996    0.0000 C   0  0  0  0  0  0  0  0  0
    2.2758   -3.8121    0.0000 C   0  0  0  0  0  0  0  0  0
  1  2  1  0  0  0  0
  1  6  1  0  0  0  0
  2  3  4  0  0  0  0
  2 26  4  0  0  0  0
  3  4  1  0  0  0  0
  3 20  4  0  0  0  0
  4  5  1  0  0  0  0
  4 11  1  0  0  0  0
  5  6  4  0  0  0  0
  5 10  4  0  0  0  0
  6  7  4  0  0  0  0
  7  8  4  0  0  0  0
  8  9  4  0  0  0  0
  9 10  4  0  0  0  0
 11 12  1  0  0  0  0
 12 13  1  0  0  0  0
 13 14  1  0  0  0  0
 13 18  1  0  0  0  0
 14 15  1  0  0  0  0
 14 19  1  0  0  0  0
 15 16  1  0  0  0  0
 16 17  1  0  0  0  0
 17 18  1  0  0  0  0
 20 21  4  0  0  0  0
 21 22  1  0  0  0  0
 21 25  4  0  0  0  0
 22 23  2  0  0  0  0
 22 24  1  0  0  0  0
 25 26  4  0  0  0  0
M  END
>  <Name_Molregno>
608576

>  <5-HT1A>
6.76

>  <5-HT2A>
8.12

>  <5-HT2C>
6.8

>  <5-HT6>
6.42

>  <DOPAMINE D1>
6.35

>  <DOPAMINE D2>
7.31

>  <DOPAMINE D3>
7.51

>  <DOPAMINE D4>
8.04

>  <HISTAMINE H1>
8.74

>  <Muscarinic acetylcholine receptor M1>
8

>  <Muscarinic acetylcholine receptor M2>
7.82

>  <Muscarinic acetylcholine receptor M3>
7.05

>  <Muscarinic acetylcholine receptor M4>
7.72

>  <Muscarinic acetylcholine receptor M5>
7.22

$$$$
609001
  Marvin  02231216192D 0   1.00000     0.00000     0

 26 29  0  0  1  0  0  0  0  0999 V2000
   -0.4854   -0.6621    0.0000 Cl  0  0  0  0  0  0  0  0  0
    0.2291   -1.0746    0.0000 C   0  0  0  0  0  0  0  0  0
    0.9436   -0.6621    0.0000 C   0  0  0  0  0  0  0  0  0
    1.6580   -1.0746    0.0000 C   0  0  0  0  0  0  0  0  0
    1.6580   -1.8996    0.0000 C   0  0  0  0  0  0  0  0  0
    0.9436   -2.3121    0.0000 C   0  0  0  0  0  0  0  0  0
    0.2291   -1.8996    0.0000 C   0  0  0  0  0  0  0  0  0
   -0.4854   -2.3121    0.0000 S   0  0  0  0  0  0  0  0  0
   -0.8979   -1.5976    0.0000 O   0  0  0  0  0  0  0  0  0
   -0.0729   -3.0266    0.0000 O   0  0  0  0  0  0  0  0  0
   -1.1998   -2.7246    0.0000 N   0  0  0  0  0  0  0  0  0
   -1.9143   -2.3121    0.0000 C   0  0  0  0  0  0  0  0  0
   -2.6288   -2.7246    0.0000 C   0  0  0  0  0  0  0  0  0
   -3.3433   -2.3121    0.0000 C   0  0  0  0  0  0  0  0  0
   -3.3433   -1.4871    0.0000 C   0  0  0  0  0  0  0  0  0
   -4.1279   -1.2321    0.0000 N   0  0  0  0  0  0  0  0  0
   -4.6128   -1.8996    0.0000 C   0  0  0  0  0  0  0  0  0
   -4.1279   -2.5670    0.0000 C   0  0  0  0  0  0  0  0  0
   -4.3828   -3.3516    0.0000 C   0  0  0  0  0  0  0  0  0
   -5.1898   -3.5232    0.0000 C   0  0  0  0  0  0  0  0  0
   -5.5254   -4.2768    0.0000 N   0  0  0  0  0  0  0  0  0
   -6.3458   -4.1906    0.0000 C   0  0  0  0  0  0  0  0  0
   -6.5174   -3.3836    0.0000 C   0  0  0  0  0  0  0  0  0
   -5.8029   -2.9711    0.0000 C   0  0  0  0  0  0  0  0  0
   -2.6288   -1.0746    0.0000 C   0  0  0  0  0  0  0  0  0
   -1.9143   -1.4871    0.0000 C   0  0  0  0  0  0  0  0  0
  1  2  1  0  0  0  0
  2  3  4  0  0  0  0
  2  7  4  0  0  0  0
  3  4  4  0  0  0  0
  4  5  4  0  0  0  0
  5  6  4  0  0  0  0
  6  7  4  0  0  0  0
  7  8  1  0  0  0  0
  8  9  2  0  0  0  0
  8 10  2  0  0  0  0
  8 11  1  0  0  0  0
 11 12  1  0  0  0  0
 12 13  4  0  0  0  0
 12 26  4  0  0  0  0
 13 14  4  0  0  0  0
 14 15  4  0  0  0  0
 14 18  4  0  0  0  0
 15 16  4  0  0  0  0
 15 25  4  0  0  0  0
 16 17  4  0  0  0  0
 17 18  4  0  0  0  0
 18 19  1  0  0  0  0
 19 20  1  0  0  0  0
 20 21  1  0  0  0  0
 20 24  1  0  0  0  0
 21 22  1  0  0  0  0
 22 23  1  0  0  0  0
 23 24  1  0  0  0  0
 25 26  4  0  0  0  0
M  STY  1   1 DAT
M  SAL   1  1  16
M  SDT   1 MRV_IMPLICIT_H                                        
M  SDD   1     0.0000    0.0000    DR    ALL  0       0  
M  SED   1 IMPL_H1
M  END
>  <Name_Molregno>
609001

>  <5-HT1A>
6.26

>  <5-HT1B>
7.06

>  <5-HT1D>
6

>  <5-HT2C>
6.25

>  <5-HT6>
8.52

>  <DOPAMINE D2>
5.3

>  <DOPAMINE D3>
5.3

>  <DOPAMINE D4>
5.3

$$$$
610059
  Marvin  02231216192D 0   1.00000     0.00000     0

 27 30  0  0  1  0  0  0  0  0999 V2000
   -0.5134   -0.5339    0.0000 Cl  0  0  0  0  0  0  0  0  0
    0.2011   -0.9464    0.0000 C   0  0  0  0  0  0  0  0  0
    0.9155   -0.5339    0.0000 C   0  0  0  0  0  0  0  0  0
    1.6300   -0.9464    0.0000 C   0  0  0  0  0  0  0  0  0
    1.6300   -1.7714    0.0000 C   0  0  0  0  0  0  0  0  0
    0.9155   -2.1839    0.0000 C   0  0  0  0  0  0  0  0  0
    0.2011   -1.7714    0.0000 C   0  0  0  0  0  0  0  0  0
   -0.5134   -2.1839    0.0000 S   0  0  0  0  0  0  0  0  0
   -0.9259   -1.4694    0.0000 O   0  0  0  0  0  0  0  0  0
   -0.1009   -2.8983    0.0000 O   0  0  0  0  0  0  0  0  0
   -1.2279   -2.5964    0.0000 N   0  0  0  0  0  0  0  0  0
   -1.9424   -2.1839    0.0000 C   0  0  0  0  0  0  0  0  0
   -2.6568   -2.5964    0.0000 C   0  0  0  0  0  0  0  0  0
   -3.3713   -2.1839    0.0000 C   0  0  0  0  0  0  0  0  0
   -3.3713   -1.3589    0.0000 C   0  0  0  0  0  0  0  0  0
   -4.1559   -1.1039    0.0000 N   0  0  0  0  0  0  0  0  0
   -4.6408   -1.7714    0.0000 C   0  0  0  0  0  0  0  0  0
   -4.1559   -2.4388    0.0000 C   0  0  0  0  0  0  0  0  0
   -4.4109   -3.2234    0.0000 C   0  0  0  0  0  0  0  0  0
   -5.2178   -3.3950    0.0000 C   0  0  0  0  0  0  0  0  0
   -5.5534   -4.1486    0.0000 N   0  0  0  0  0  0  0  0  0
   -6.3739   -4.0624    0.0000 C   0  0  0  0  0  0  0  0  0
   -6.5454   -3.2554    0.0000 C   0  0  0  0  0  0  0  0  0
   -5.8309   -2.8429    0.0000 C   0  0  0  0  0  0  0  0  0
   -5.1409   -4.8631    0.0000 C   0  0  0  0  0  0  0  0  0
   -2.6568   -0.9464    0.0000 C   0  0  0  0  0  0  0  0  0
   -1.9424   -1.3589    0.0000 C   0  0  0  0  0  0  0  0  0
  1  2  1  0  0  0  0
  2  3  4  0  0  0  0
  2  7  4  0  0  0  0
  3  4  4  0  0  0  0
  4  5  4  0  0  0  0
  5  6  4  0  0  0  0
  6  7  4  0  0  0  0
  7  8  1  0  0  0  0
  8  9  2  0  0  0  0
  8 10  2  0  0  0  0
  8 11  1  0  0  0  0
 11 12  1  0  0  0  0
 12 13  4  0  0  0  0
 12 27  4  0  0  0  0
 13 14  4  0  0  0  0
 14 15  4  0  0  0  0
 14 18  4  0  0  0  0
 15 16  4  0  0  0  0
 15 26  4  0  0  0  0
 16 17  4  0  0  0  0
 17 18  4  0  0  0  0
 18 19  1  0  0  0  0
 19 20  1  0  0  0  0
 20 21  1  0  0  0  0
 20 24  1  0  0  0  0
 21 22  1  0  0  0  0
 21 25  1  0  0  0  0
 22 23  1  0  0  0  0
 23 24  1  0  0  0  0
 26 27  4  0  0  0  0
M  STY  1   1 DAT
M  SAL   1  1  16
M  SDT   1 MRV_IMPLICIT_H                                        
M  SDD   1     0.0000    0.0000    DR    ALL  0       0  
M  SED   1 IMPL_H1
M  END
>  <Name_Molregno>
610059

>  <5-HT1A>
6.77

>  <5-HT1B>
7.82

>  <5-HT1D>
7.53

>  <5-HT2A>
6.44

>  <5-HT2C>
6.54

>  <5-HT6>
8.33

>  <5-HT7>
7.13

>  <DOPAMINE D2>
5.7

>  <DOPAMINE D3>
6

>  <DOPAMINE D4>
5.3

$$$$
610060
  Marvin  02231216192D 0   1.00000     0.00000     0

 27 30  0  0  1  0  0  0  0  0999 V2000
    9.2263   -0.0100    0.0000 Cl  0  0  0  0  0  0  0  0  0
    8.5119    0.4025    0.0000 C   0  0  0  0  0  0  0  0  0
    7.7974   -0.0100    0.0000 C   0  0  0  0  0  0  0  0  0
    7.0829    0.4025    0.0000 C   0  0  0  0  0  0  0  0  0
    6.3685   -0.0100    0.0000 S   0  0  0  0  0  0  0  0  0
    5.9560    0.7045    0.0000 O   0  0  0  0  0  0  0  0  0
    6.7810   -0.7245    0.0000 O   0  0  0  0  0  0  0  0  0
    5.6540   -0.4225    0.0000 N   0  0  0  0  0  0  0  0  0
    4.9395   -0.0100    0.0000 C   0  0  0  0  0  0  0  0  0
    4.2250   -0.4225    0.0000 C   0  0  0  0  0  0  0  0  0
    3.5106   -0.0100    0.0000 C   0  0  0  0  0  0  0  0  0
    3.5106    0.8150    0.0000 C   0  0  0  0  0  0  0  0  0
    2.7260    1.0699    0.0000 N   0  0  0  0  0  0  0  0  0
    2.2410    0.4025    0.0000 C   0  0  0  0  0  0  0  0  0
    2.7260   -0.2649    0.0000 C   0  0  0  0  0  0  0  0  0
    2.4710   -1.0496    0.0000 C   0  0  0  0  0  0  0  0  0
    1.6640   -1.2211    0.0000 C   0  0  0  0  0  0  0  0  0
    1.3285   -1.9748    0.0000 N   0  0  0  0  0  0  0  0  0
    0.5080   -1.8885    0.0000 C   0  0  0  0  0  0  0  0  0
    0.3365   -1.0816    0.0000 C   0  0  0  0  0  0  0  0  0
    1.0509   -0.6691    0.0000 C   0  0  0  0  0  0  0  0  0
    1.7410   -2.6892    0.0000 C   0  0  0  0  0  0  0  0  0
    4.2250    1.2275    0.0000 C   0  0  0  0  0  0  0  0  0
    4.9395    0.8150    0.0000 C   0  0  0  0  0  0  0  0  0
    7.0829    1.2275    0.0000 C   0  0  0  0  0  0  0  0  0
    7.7974    1.6400    0.0000 C   0  0  0  0  0  0  0  0  0
    8.5119    1.2275    0.0000 C   0  0  0  0  0  0  0  0  0
  1  2  1  0  0  0  0
  2  3  4  0  0  0  0
  2 27  4  0  0  0  0
  3  4  4  0  0  0  0
  4  5  1  0  0  0  0
  4 25  4  0  0  0  0
  5  6  2  0  0  0  0
  5  7  2  0  0  0  0
  5  8  1  0  0  0  0
  8  9  1  0  0  0  0
  9 10  4  0  0  0  0
  9 24  4  0  0  0  0
 10 11  4  0  0  0  0
 11 12  4  0  0  0  0
 11 15  4  0  0  0  0
 12 13  4  0  0  0  0
 12 23  4  0  0  0  0
 13 14  4  0  0  0  0
 14 15  4  0  0  0  0
 15 16  1  0  0  0  0
 16 17  1  0  0  0  0
 17 18  1  0  0  0  0
 17 21  1  0  0  0  0
 18 19  1  0  0  0  0
 18 22  1  0  0  0  0
 19 20  1  0  0  0  0
 20 21  1  0  0  0  0
 23 24  4  0  0  0  0
 25 26  4  0  0  0  0
 26 27  4  0  0  0  0
M  STY  1   1 DAT
M  SAL   1  1  13
M  SDT   1 MRV_IMPLICIT_H                                        
M  SDD   1     0.0000    0.0000    DR    ALL  0       0  
M  SED   1 IMPL_H1
M  END
>  <Name_Molregno>
610060

>  <5-HT1A>
6.7

>  <5-HT1B>
8.37

>  <5-HT1D>
8.33

>  <5-HT2A>
6.57

>  <5-HT2C>
6.64

>  <5-HT6>
8.68

>  <5-HT7>
7.62

>  <DOPAMINE D2>
5.7

>  <DOPAMINE D3>
6.03

>  <DOPAMINE D4>
5.3

$$$$
610141
  Marvin  02231216192D 0   1.00000     0.00000     0

 37 42  0  0  1  0  0  0  0  0999 V2000
   -0.0232   -0.4447    0.0000 S   0  0  0  0  0  0  0  0  0
   -0.3588   -1.1984    0.0000 C   0  0  0  0  0  0  0  0  0
    0.1262   -1.8658    0.0000 C   0  0  0  0  0  0  0  0  0
   -0.2094   -2.6195    0.0000 C   0  0  0  0  0  0  0  0  0
    0.2755   -3.2869    0.0000 N   0  0  0  0  0  0  0  0  0
    1.1005   -3.2869    0.0000 C   0  0  0  0  0  0  0  0  0
    1.3555   -4.0716    0.0000 C   0  0  0  0  0  0  0  0  0
    0.6880   -4.5565    0.0000 C   0  0  0  0  0  0  0  0  0
    1.4417   -4.8920    0.0000 C   0  0  0  0  0  0  0  0  0
    0.0206   -4.0716    0.0000 C   0  0  0  0  0  0  0  0  0
    2.1624   -3.9000    0.0000 C   0  0  0  0  0  0  0  0  0
    2.4174   -3.1154    0.0000 C   0  0  0  0  0  0  0  0  0
    3.2243   -2.9439    0.0000 C   0  0  0  0  0  0  0  0  0
    3.7764   -3.5570    0.0000 C   0  0  0  0  0  0  0  0  0
    3.5214   -4.3416    0.0000 C   0  0  0  0  0  0  0  0  0
    2.7145   -4.5131    0.0000 C   0  0  0  0  0  0  0  0  0
    4.5834   -3.3854    0.0000 C   0  0  0  0  0  0  0  0  0
    5.3903   -3.2139    0.0000 F   0  0  0  0  0  0  0  0  0
    4.4118   -2.5785    0.0000 F   0  0  0  0  0  0  0  0  0
    4.7549   -4.1924    0.0000 F   0  0  0  0  0  0  0  0  0
   -0.5081    0.2227    0.0000 C   0  0  0  0  0  0  0  0  0
   -1.3331    0.2227    0.0000 N   0  0  0  0  0  0  0  0  0
   -1.5881    1.0074    0.0000 N   0  0  0  0  0  0  0  0  0
   -0.9206    1.4923    0.0000 C   0  0  0  0  0  0  0  0  0
   -0.2532    1.0074    0.0000 N   0  0  0  0  0  0  0  0  0
    0.5314    1.2623    0.0000 C   0  0  0  0  0  0  0  0  0
   -0.9206    2.3173    0.0000 C   0  0  0  0  0  0  0  0  0
   -0.2062    2.7298    0.0000 C   0  0  0  0  0  0  0  0  0
   -0.2062    3.5548    0.0000 C   0  0  0  0  0  0  0  0  0
    0.5083    3.9673    0.0000 N   0  0  0  0  0  0  0  0  0
    1.2228    3.5548    0.0000 C   0  0  0  0  0  0  0  0  0
    1.2228    2.7298    0.0000 C   0  0  0  0  0  0  0  0  0
    0.5083    2.3173    0.0000 C   0  0  0  0  0  0  0  0  0
    1.9373    3.9673    0.0000 C   0  0  0  0  0  0  0  0  0
   -0.9206    3.9673    0.0000 C   0  0  0  0  0  0  0  0  0
   -1.6351    3.5548    0.0000 C   0  0  0  0  0  0  0  0  0
   -1.6351    2.7298    0.0000 C   0  0  0  0  0  0  0  0  0
  1  2  1  0  0  0  0
  1 21  1  0  0  0  0
  2  3  1  0  0  0  0
  3  4  1  0  0  0  0
  4  5  1  0  0  0  0
  5  6  1  0  0  0  0
  5 10  1  0  0  0  0
  6  7  1  0  0  0  0
  7  8  1  0  0  0  0
  7  9  1  0  0  0  0
  7 11  1  0  0  0  0
  8  9  1  0  0  0  0
  8 10  1  0  0  0  0
 11 12  4  0  0  0  0
 11 16  4  0  0  0  0
 12 13  4  0  0  0  0
 13 14  4  0  0  0  0
 14 15  4  0  0  0  0
 14 17  1  0  0  0  0
 15 16  4  0  0  0  0
 17 18  1  0  0  0  0
 17 19  1  0  0  0  0
 17 20  1  0  0  0  0
 21 22  4  0  0  0  0
 21 25  4  0  0  0  0
 22 23  4  0  0  0  0
 23 24  4  0  0  0  0
 24 25  4  0  0  0  0
 24 27  1  0  0  0  0
 25 26  1  0  0  0  0
 27 28  4  0  0  0  0
 27 37  4  0  0  0  0
 28 29  4  0  0  0  0
 28 33  4  0  0  0  0
 29 30  4  0  0  0  0
 29 35  4  0  0  0  0
 30 31  4  0  0  0  0
 31 32  4  0  0  0  0
 31 34  1  0  0  0  0
 32 33  4  0  0  0  0
 35 36  4  0  0  0  0
 36 37  4  0  0  0  0
M  END
>  <Name_Molregno>
610141

>  <DOPAMINE D2>
6.05

>  <DOPAMINE D3>
9.35

$$$$
610142
  Marvin  02231216192D 0   1.00000     0.00000     0

 32 36  0  0  1  0  0  0  0  0999 V2000
    3.0523   -0.0818    0.0000 S   0  0  0  0  0  0  0  0  0
    2.6398    0.6326    0.0000 C   0  0  0  0  0  0  0  0  0
    1.8148    0.6326    0.0000 C   0  0  0  0  0  0  0  0  0
    1.4023    1.3471    0.0000 C   0  0  0  0  0  0  0  0  0
    0.5773    1.3471    0.0000 N   0  0  0  0  0  0  0  0  0
    0.0924    0.6797    0.0000 C   0  0  0  0  0  0  0  0  0
   -0.6922    0.9346    0.0000 C   0  0  0  0  0  0  0  0  0
   -0.6922    1.7596    0.0000 C   0  0  0  0  0  0  0  0  0
   -1.4067    1.3471    0.0000 C   0  0  0  0  0  0  0  0  0
    0.0924    2.0145    0.0000 C   0  0  0  0  0  0  0  0  0
   -1.0278    0.1809    0.0000 C   0  0  0  0  0  0  0  0  0
   -0.5429   -0.4865    0.0000 C   0  0  0  0  0  0  0  0  0
   -0.8784   -1.2402    0.0000 C   0  0  0  0  0  0  0  0  0
   -1.6989   -1.3264    0.0000 C   0  0  0  0  0  0  0  0  0
   -2.1838   -0.6590    0.0000 C   0  0  0  0  0  0  0  0  0
   -1.8483    0.0947    0.0000 C   0  0  0  0  0  0  0  0  0
   -2.0345   -2.0801    0.0000 C   0  0  0  0  0  0  0  0  0
   -2.3700   -2.8338    0.0000 F   0  0  0  0  0  0  0  0  0
   -1.2808   -2.4157    0.0000 F   0  0  0  0  0  0  0  0  0
   -2.7881   -1.7445    0.0000 F   0  0  0  0  0  0  0  0  0
    3.8773   -0.0818    0.0000 C   0  0  0  0  0  0  0  0  0
    4.3622    0.5856    0.0000 N   0  0  0  0  0  0  0  0  0
    5.1469    0.3307    0.0000 N   0  0  0  0  0  0  0  0  0
    5.1469   -0.4943    0.0000 C   0  0  0  0  0  0  0  0  0
    4.3622   -0.7493    0.0000 N   0  0  0  0  0  0  0  0  0
    4.1073   -1.5339    0.0000 C   0  0  0  0  0  0  0  0  0
    5.8143   -0.9793    0.0000 C   0  0  0  0  0  0  0  0  0
    6.5680   -0.6437    0.0000 C   0  0  0  0  0  0  0  0  0
    7.2354   -1.1286    0.0000 C   0  0  0  0  0  0  0  0  0
    7.1492   -1.9491    0.0000 C   0  0  0  0  0  0  0  0  0
    6.3955   -2.2847    0.0000 C   0  0  0  0  0  0  0  0  0
    5.7281   -1.7997    0.0000 C   0  0  0  0  0  0  0  0  0
  1  2  1  0  0  0  0
  1 21  1  0  0  0  0
  2  3  1  0  0  0  0
  3  4  1  0  0  0  0
  4  5  1  0  0  0  0
  5  6  1  0  0  0  0
  5 10  1  0  0  0  0
  6  7  1  0  0  0  0
  7  8  1  0  0  0  0
  7  9  1  0  0  0  0
  7 11  1  0  0  0  0
  8  9  1  0  0  0  0
  8 10  1  0  0  0  0
 11 12  4  0  0  0  0
 11 16  4  0  0  0  0
 12 13  4  0  0  0  0
 13 14  4  0  0  0  0
 14 15  4  0  0  0  0
 14 17  1  0  0  0  0
 15 16  4  0  0  0  0
 17 18  1  0  0  0  0
 17 19  1  0  0  0  0
 17 20  1  0  0  0  0
 21 22  4  0  0  0  0
 21 25  4  0  0  0  0
 22 23  4  0  0  0  0
 23 24  4  0  0  0  0
 24 25  4  0  0  0  0
 24 27  1  0  0  0  0
 25 26  1  0  0  0  0
 27 28  4  0  0  0  0
 27 32  4  0  0  0  0
 28 29  4  0  0  0  0
 29 30  4  0  0  0  0
 30 31  4  0  0  0  0
 31 32  4  0  0  0  0
M  END
>  <Name_Molregno>
610142

>  <DOPAMINE D2>
6.8

>  <DOPAMINE D3>
9.2

$$$$
610143
  Marvin  02231216192D 0   1.00000     0.00000     0

 33 37  0  0  1  0  0  0  0  0999 V2000
    2.8162   -0.0806    0.0000 S   0  0  0  0  0  0  0  0  0
    2.4037    0.6338    0.0000 C   0  0  0  0  0  0  0  0  0
    1.5787    0.6338    0.0000 C   0  0  0  0  0  0  0  0  0
    1.1662    1.3483    0.0000 C   0  0  0  0  0  0  0  0  0
    0.3412    1.3483    0.0000 N   0  0  0  0  0  0  0  0  0
   -0.1437    0.6809    0.0000 C   0  0  0  0  0  0  0  0  0
   -0.9284    0.9358    0.0000 C   0  0  0  0  0  0  0  0  0
   -0.9284    1.7608    0.0000 C   0  0  0  0  0  0  0  0  0
   -1.6428    1.3483    0.0000 C   0  0  0  0  0  0  0  0  0
   -0.1437    2.0158    0.0000 C   0  0  0  0  0  0  0  0  0
   -1.2639    0.1821    0.0000 C   0  0  0  0  0  0  0  0  0
   -0.7790   -0.4853    0.0000 C   0  0  0  0  0  0  0  0  0
   -1.1146   -1.2390    0.0000 C   0  0  0  0  0  0  0  0  0
   -1.9350   -1.3252    0.0000 C   0  0  0  0  0  0  0  0  0
   -2.4200   -0.6578    0.0000 C   0  0  0  0  0  0  0  0  0
   -2.0844    0.0959    0.0000 C   0  0  0  0  0  0  0  0  0
   -2.2706   -2.0789    0.0000 C   0  0  0  0  0  0  0  0  0
   -2.6062   -2.8326    0.0000 F   0  0  0  0  0  0  0  0  0
   -1.5169   -2.4144    0.0000 F   0  0  0  0  0  0  0  0  0
   -3.0243   -1.7433    0.0000 F   0  0  0  0  0  0  0  0  0
    3.6412   -0.0806    0.0000 C   0  0  0  0  0  0  0  0  0
    4.1261    0.5868    0.0000 N   0  0  0  0  0  0  0  0  0
    4.9107    0.3319    0.0000 N   0  0  0  0  0  0  0  0  0
    4.9107   -0.4931    0.0000 C   0  0  0  0  0  0  0  0  0
    4.1261   -0.7481    0.0000 N   0  0  0  0  0  0  0  0  0
    3.8712   -1.5327    0.0000 C   0  0  0  0  0  0  0  0  0
    5.5782   -0.9780    0.0000 C   0  0  0  0  0  0  0  0  0
    6.3318   -0.6425    0.0000 C   0  0  0  0  0  0  0  0  0
    6.9993   -1.1274    0.0000 C   0  0  0  0  0  0  0  0  0
    6.9130   -1.9479    0.0000 C   0  0  0  0  0  0  0  0  0
    6.1594   -2.2835    0.0000 N   0  0  0  0  0  0  0  0  0
    5.4919   -1.7985    0.0000 C   0  0  0  0  0  0  0  0  0
    4.7383   -2.1341    0.0000 C   0  0  0  0  0  0  0  0  0
  1  2  1  0  0  0  0
  1 21  1  0  0  0  0
  2  3  1  0  0  0  0
  3  4  1  0  0  0  0
  4  5  1  0  0  0  0
  5  6  1  0  0  0  0
  5 10  1  0  0  0  0
  6  7  1  0  0  0  0
  7  8  1  0  0  0  0
  7  9  1  0  0  0  0
  7 11  1  0  0  0  0
  8  9  1  0  0  0  0
  8 10  1  0  0  0  0
 11 12  4  0  0  0  0
 11 16  4  0  0  0  0
 12 13  4  0  0  0  0
 13 14  4  0  0  0  0
 14 15  4  0  0  0  0
 14 17  1  0  0  0  0
 15 16  4  0  0  0  0
 17 18  1  0  0  0  0
 17 19  1  0  0  0  0
 17 20  1  0  0  0  0
 21 22  4  0  0  0  0
 21 25  4  0  0  0  0
 22 23  4  0  0  0  0
 23 24  4  0  0  0  0
 24 25  4  0  0  0  0
 24 27  1  0  0  0  0
 25 26  1  0  0  0  0
 27 28  4  0  0  0  0
 27 32  4  0  0  0  0
 28 29  4  0  0  0  0
 29 30  4  0  0  0  0
 30 31  4  0  0  0  0
 31 32  4  0  0  0  0
 32 33  1  0  0  0  0
M  END
>  <Name_Molregno>
610143

>  <DOPAMINE D2>
6.5

>  <DOPAMINE D3>
9

$$$$
610144
  Marvin  02231216192D 0   1.00000     0.00000     0

 32 36  0  0  1  0  0  0  0  0999 V2000
    3.0523   -0.0818    0.0000 S   0  0  0  0  0  0  0  0  0
    2.6398    0.6326    0.0000 C   0  0  0  0  0  0  0  0  0
    1.8148    0.6326    0.0000 C   0  0  0  0  0  0  0  0  0
    1.4023    1.3471    0.0000 C   0  0  0  0  0  0  0  0  0
    0.5773    1.3471    0.0000 N   0  0  0  0  0  0  0  0  0
    0.0924    0.6797    0.0000 C   0  0  0  0  0  0  0  0  0
   -0.6922    0.9346    0.0000 C   0  0  0  0  0  0  0  0  0
   -0.6922    1.7596    0.0000 C   0  0  0  0  0  0  0  0  0
   -1.4067    1.3471    0.0000 C   0  0  0  0  0  0  0  0  0
    0.0924    2.0145    0.0000 C   0  0  0  0  0  0  0  0  0
   -1.0278    0.1809    0.0000 C   0  0  0  0  0  0  0  0  0
   -0.5429   -0.4865    0.0000 C   0  0  0  0  0  0  0  0  0
   -0.8784   -1.2402    0.0000 C   0  0  0  0  0  0  0  0  0
   -1.6989   -1.3264    0.0000 C   0  0  0  0  0  0  0  0  0
   -2.1838   -0.6590    0.0000 C   0  0  0  0  0  0  0  0  0
   -1.8483    0.0947    0.0000 C   0  0  0  0  0  0  0  0  0
   -2.0345   -2.0801    0.0000 C   0  0  0  0  0  0  0  0  0
   -2.3700   -2.8338    0.0000 F   0  0  0  0  0  0  0  0  0
   -1.2808   -2.4157    0.0000 F   0  0  0  0  0  0  0  0  0
   -2.7881   -1.7445    0.0000 F   0  0  0  0  0  0  0  0  0
    3.8773   -0.0818    0.0000 C   0  0  0  0  0  0  0  0  0
    4.3622    0.5856    0.0000 N   0  0  0  0  0  0  0  0  0
    5.1469    0.3307    0.0000 N   0  0  0  0  0  0  0  0  0
    5.1469   -0.4943    0.0000 C   0  0  0  0  0  0  0  0  0
    4.3622   -0.7493    0.0000 N   0  0  0  0  0  0  0  0  0
    4.1073   -1.5339    0.0000 C   0  0  0  0  0  0  0  0  0
    5.8143   -0.9793    0.0000 C   0  0  0  0  0  0  0  0  0
    6.5680   -0.6437    0.0000 C   0  0  0  0  0  0  0  0  0
    7.2354   -1.1286    0.0000 C   0  0  0  0  0  0  0  0  0
    7.1492   -1.9491    0.0000 N   0  0  0  0  0  0  0  0  0
    6.3955   -2.2847    0.0000 N   0  0  0  0  0  0  0  0  0
    5.7281   -1.7997    0.0000 C   0  0  0  0  0  0  0  0  0
  1  2  1  0  0  0  0
  1 21  1  0  0  0  0
  2  3  1  0  0  0  0
  3  4  1  0  0  0  0
  4  5  1  0  0  0  0
  5  6  1  0  0  0  0
  5 10  1  0  0  0  0
  6  7  1  0  0  0  0
  7  8  1  0  0  0  0
  7  9  1  0  0  0  0
  7 11  1  0  0  0  0
  8  9  1  0  0  0  0
  8 10  1  0  0  0  0
 11 12  4  0  0  0  0
 11 16  4  0  0  0  0
 12 13  4  0  0  0  0
 13 14  4  0  0  0  0
 14 15  4  0  0  0  0
 14 17  1  0  0  0  0
 15 16  4  0  0  0  0
 17 18  1  0  0  0  0
 17 19  1  0  0  0  0
 17 20  1  0  0  0  0
 21 22  4  0  0  0  0
 21 25  4  0  0  0  0
 22 23  4  0  0  0  0
 23 24  4  0  0  0  0
 24 25  4  0  0  0  0
 24 27  1  0  0  0  0
 25 26  1  0  0  0  0
 27 28  4  0  0  0  0
 27 32  4  0  0  0  0
 28 29  4  0  0  0  0
 29 30  4  0  0  0  0
 30 31  4  0  0  0  0
 31 32  4  0  0  0  0
M  END
>  <Name_Molregno>
610144

>  <DOPAMINE D2>
6.7

>  <DOPAMINE D3>
9

$$$$
610145
  Marvin  02231216192D 0   1.00000     0.00000     0

 33 37  0  0  1  0  0  0  0  0999 V2000
    3.1647   -0.0559    0.0000 S   0  0  0  0  0  0  0  0  0
    2.7522    0.6586    0.0000 C   0  0  0  0  0  0  0  0  0
    1.9272    0.6586    0.0000 C   0  0  0  0  0  0  0  0  0
    1.5147    1.3731    0.0000 C   0  0  0  0  0  0  0  0  0
    0.6897    1.3731    0.0000 N   0  0  0  0  0  0  0  0  0
    0.2048    0.7056    0.0000 C   0  0  0  0  0  0  0  0  0
   -0.5799    0.9606    0.0000 C   0  0  0  0  0  0  0  0  0
   -0.5799    1.7856    0.0000 C   0  0  0  0  0  0  0  0  0
   -1.2943    1.3731    0.0000 C   0  0  0  0  0  0  0  0  0
    0.2048    2.0405    0.0000 C   0  0  0  0  0  0  0  0  0
   -0.9154    0.2069    0.0000 C   0  0  0  0  0  0  0  0  0
   -0.4305   -0.4606    0.0000 C   0  0  0  0  0  0  0  0  0
   -0.7661   -1.2142    0.0000 C   0  0  0  0  0  0  0  0  0
   -1.5865   -1.3005    0.0000 C   0  0  0  0  0  0  0  0  0
   -2.0715   -0.6330    0.0000 C   0  0  0  0  0  0  0  0  0
   -2.8919   -0.7193    0.0000 F   0  0  0  0  0  0  0  0  0
   -1.7359    0.1207    0.0000 C   0  0  0  0  0  0  0  0  0
   -0.2811   -1.8817    0.0000 C   0  0  0  0  0  0  0  0  0
    0.2038   -2.5491    0.0000 F   0  0  0  0  0  0  0  0  0
    0.3863   -1.3967    0.0000 F   0  0  0  0  0  0  0  0  0
   -0.9486   -2.3666    0.0000 F   0  0  0  0  0  0  0  0  0
    3.9897   -0.0559    0.0000 C   0  0  0  0  0  0  0  0  0
    4.4746    0.6116    0.0000 N   0  0  0  0  0  0  0  0  0
    5.2592    0.3566    0.0000 N   0  0  0  0  0  0  0  0  0
    5.2592   -0.4684    0.0000 C   0  0  0  0  0  0  0  0  0
    4.4746   -0.7233    0.0000 N   0  0  0  0  0  0  0  0  0
    4.2197   -1.5079    0.0000 C   0  0  0  0  0  0  0  0  0
    5.9267   -0.9533    0.0000 C   0  0  0  0  0  0  0  0  0
    6.7113   -0.6984    0.0000 O   0  0  0  0  0  0  0  0  0
    7.1962   -1.3658    0.0000 C   0  0  0  0  0  0  0  0  0
    6.7113   -2.0332    0.0000 N   0  0  0  0  0  0  0  0  0
    5.9267   -1.7783    0.0000 C   0  0  0  0  0  0  0  0  0
    5.2592   -2.2632    0.0000 C   0  0  0  0  0  0  0  0  0
  1  2  1  0  0  0  0
  1 22  1  0  0  0  0
  2  3  1  0  0  0  0
  3  4  1  0  0  0  0
  4  5  1  0  0  0  0
  5  6  1  0  0  0  0
  5 10  1  0  0  0  0
  6  7  1  0  0  0  0
  7  8  1  0  0  0  0
  7  9  1  0  0  0  0
  7 11  1  0  0  0  0
  8  9  1  0  0  0  0
  8 10  1  0  0  0  0
 11 12  4  0  0  0  0
 11 17  4  0  0  0  0
 12 13  4  0  0  0  0
 13 14  4  0  0  0  0
 13 18  1  0  0  0  0
 14 15  4  0  0  0  0
 15 16  1  0  0  0  0
 15 17  4  0  0  0  0
 18 19  1  0  0  0  0
 18 20  1  0  0  0  0
 18 21  1  0  0  0  0
 22 23  4  0  0  0  0
 22 26  4  0  0  0  0
 23 24  4  0  0  0  0
 24 25  4  0  0  0  0
 25 26  4  0  0  0  0
 25 28  1  0  0  0  0
 26 27  1  0  0  0  0
 28 29  4  0  0  0  0
 28 32  4  0  0  0  0
 29 30  4  0  0  0  0
 30 31  4  0  0  0  0
 31 32  4  0  0  0  0
 32 33  1  0  0  0  0
M  END
>  <Name_Molregno>
610145

>  <DOPAMINE D2>
7.27

>  <DOPAMINE D3>
8.63

$$$$
610146
  Marvin  02231216192D 0   1.00000     0.00000     0

 30 34  0  0  1  0  0  0  0  0999 V2000
    2.4837    0.4551    0.0000 S   0  0  0  0  0  0  0  0  0
    2.0712    1.1695    0.0000 C   0  0  0  0  0  0  0  0  0
    1.2462    1.1695    0.0000 C   0  0  0  0  0  0  0  0  0
    0.8337    1.8840    0.0000 C   0  0  0  0  0  0  0  0  0
    0.0087    1.8840    0.0000 N   0  0  0  0  0  0  0  0  0
   -0.4763    1.2166    0.0000 C   0  0  0  0  0  0  0  0  0
   -1.2609    1.4715    0.0000 C   0  0  0  0  0  0  0  0  0
   -1.2609    2.2965    0.0000 C   0  0  0  0  0  0  0  0  0
   -1.9753    1.8840    0.0000 C   0  0  0  0  0  0  0  0  0
   -0.4763    2.5514    0.0000 C   0  0  0  0  0  0  0  0  0
   -1.5964    0.7178    0.0000 C   0  0  0  0  0  0  0  0  0
   -1.1115    0.0504    0.0000 C   0  0  0  0  0  0  0  0  0
   -1.4471   -0.7033    0.0000 C   0  0  0  0  0  0  0  0  0
   -2.2675   -0.7895    0.0000 C   0  0  0  0  0  0  0  0  0
   -2.7525   -0.1221    0.0000 C   0  0  0  0  0  0  0  0  0
   -2.4169    0.6316    0.0000 C   0  0  0  0  0  0  0  0  0
   -2.9018    1.2990    0.0000 F   0  0  0  0  0  0  0  0  0
   -2.6031   -1.5432    0.0000 C   0  0  0  0  0  0  0  0  0
    3.3087    0.4551    0.0000 C   0  0  0  0  0  0  0  0  0
    3.7936    1.1225    0.0000 N   0  0  0  0  0  0  0  0  0
    4.5782    0.8676    0.0000 N   0  0  0  0  0  0  0  0  0
    4.5782    0.0426    0.0000 C   0  0  0  0  0  0  0  0  0
    3.7936   -0.2124    0.0000 N   0  0  0  0  0  0  0  0  0
    3.5387   -0.9970    0.0000 C   0  0  0  0  0  0  0  0  0
    5.2457   -0.4424    0.0000 C   0  0  0  0  0  0  0  0  0
    6.0303   -0.1874    0.0000 O   0  0  0  0  0  0  0  0  0
    6.5152   -0.8549    0.0000 C   0  0  0  0  0  0  0  0  0
    6.0303   -1.5223    0.0000 N   0  0  0  0  0  0  0  0  0
    5.2457   -1.2674    0.0000 C   0  0  0  0  0  0  0  0  0
    4.5782   -1.7523    0.0000 C   0  0  0  0  0  0  0  0  0
  1  2  1  0  0  0  0
  1 19  1  0  0  0  0
  2  3  1  0  0  0  0
  3  4  1  0  0  0  0
  4  5  1  0  0  0  0
  5  6  1  0  0  0  0
  5 10  1  0  0  0  0
  6  7  1  0  0  0  0
  7  8  1  0  0  0  0
  7  9  1  0  0  0  0
  7 11  1  0  0  0  0
  8  9  1  0  0  0  0
  8 10  1  0  0  0  0
 11 12  4  0  0  0  0
 11 16  4  0  0  0  0
 12 13  4  0  0  0  0
 13 14  4  0  0  0  0
 14 15  4  0  0  0  0
 14 18  1  0  0  0  0
 15 16  4  0  0  0  0
 16 17  1  0  0  0  0
 19 20  4  0  0  0  0
 19 23  4  0  0  0  0
 20 21  4  0  0  0  0
 21 22  4  0  0  0  0
 22 23  4  0  0  0  0
 22 25  1  0  0  0  0
 23 24  1  0  0  0  0
 25 26  4  0  0  0  0
 25 29  4  0  0  0  0
 26 27  4  0  0  0  0
 27 28  4  0  0  0  0
 28 29  4  0  0  0  0
 29 30  1  0  0  0  0
M  END
>  <Name_Molregno>
610146

>  <DOPAMINE D2>
6.17

>  <DOPAMINE D3>
7.1

$$$$
610215
  Marvin  02231216192D 0   1.00000     0.00000     0

 32 36  0  0  1  0  0  0  0  0999 V2000
    3.0523   -0.0818    0.0000 S   0  0  0  0  0  0  0  0  0
    2.6398    0.6326    0.0000 C   0  0  0  0  0  0  0  0  0
    1.8148    0.6326    0.0000 C   0  0  0  0  0  0  0  0  0
    1.4023    1.3471    0.0000 C   0  0  0  0  0  0  0  0  0
    0.5773    1.3471    0.0000 N   0  0  0  0  0  0  0  0  0
    0.0924    0.6797    0.0000 C   0  0  0  0  0  0  0  0  0
   -0.6922    0.9346    0.0000 C   0  0  0  0  0  0  0  0  0
   -0.6922    1.7596    0.0000 C   0  0  0  0  0  0  0  0  0
   -1.4067    1.3471    0.0000 C   0  0  0  0  0  0  0  0  0
    0.0924    2.0145    0.0000 C   0  0  0  0  0  0  0  0  0
   -1.0278    0.1809    0.0000 C   0  0  0  0  0  0  0  0  0
   -0.5429   -0.4865    0.0000 C   0  0  0  0  0  0  0  0  0
   -0.8784   -1.2402    0.0000 C   0  0  0  0  0  0  0  0  0
   -1.6989   -1.3264    0.0000 C   0  0  0  0  0  0  0  0  0
   -2.1838   -0.6590    0.0000 C   0  0  0  0  0  0  0  0  0
   -1.8483    0.0947    0.0000 C   0  0  0  0  0  0  0  0  0
   -2.0345   -2.0801    0.0000 C   0  0  0  0  0  0  0  0  0
   -2.3700   -2.8338    0.0000 F   0  0  0  0  0  0  0  0  0
   -1.2808   -2.4157    0.0000 F   0  0  0  0  0  0  0  0  0
   -2.7881   -1.7445    0.0000 F   0  0  0  0  0  0  0  0  0
    3.8773   -0.0818    0.0000 C   0  0  0  0  0  0  0  0  0
    4.3622    0.5856    0.0000 N   0  0  0  0  0  0  0  0  0
    5.1469    0.3307    0.0000 N   0  0  0  0  0  0  0  0  0
    5.1469   -0.4943    0.0000 C   0  0  0  0  0  0  0  0  0
    4.3622   -0.7493    0.0000 N   0  0  0  0  0  0  0  0  0
    4.1073   -1.5339    0.0000 C   0  0  0  0  0  0  0  0  0
    5.8143   -0.9793    0.0000 C   0  0  0  0  0  0  0  0  0
    6.5680   -0.6437    0.0000 C   0  0  0  0  0  0  0  0  0
    7.2354   -1.1286    0.0000 N   0  0  0  0  0  0  0  0  0
    7.1492   -1.9491    0.0000 C   0  0  0  0  0  0  0  0  0
    6.3955   -2.2847    0.0000 N   0  0  0  0  0  0  0  0  0
    5.7281   -1.7997    0.0000 C   0  0  0  0  0  0  0  0  0
  1  2  1  0  0  0  0
  1 21  1  0  0  0  0
  2  3  1  0  0  0  0
  3  4  1  0  0  0  0
  4  5  1  0  0  0  0
  5  6  1  0  0  0  0
  5 10  1  0  0  0  0
  6  7  1  0  0  0  0
  7  8  1  0  0  0  0
  7  9  1  0  0  0  0
  7 11  1  0  0  0  0
  8  9  1  0  0  0  0
  8 10  1  0  0  0  0
 11 12  4  0  0  0  0
 11 16  4  0  0  0  0
 12 13  4  0  0  0  0
 13 14  4  0  0  0  0
 14 15  4  0  0  0  0
 14 17  1  0  0  0  0
 15 16  4  0  0  0  0
 17 18  1  0  0  0  0
 17 19  1  0  0  0  0
 17 20  1  0  0  0  0
 21 22  4  0  0  0  0
 21 25  4  0  0  0  0
 22 23  4  0  0  0  0
 23 24  4  0  0  0  0
 24 25  4  0  0  0  0
 24 27  1  0  0  0  0
 25 26  1  0  0  0  0
 27 28  4  0  0  0  0
 27 32  4  0  0  0  0
 28 29  4  0  0  0  0
 29 30  4  0  0  0  0
 30 31  4  0  0  0  0
 31 32  4  0  0  0  0
M  END
>  <Name_Molregno>
610215

>  <DOPAMINE D2>
6

>  <DOPAMINE D3>
8.8

$$$$
610216
  Marvin  02231216192D 0   1.00000     0.00000     0

 32 36  0  0  1  0  0  0  0  0999 V2000
    3.1185   -0.2057    0.0000 S   0  0  0  0  0  0  0  0  0
    2.7060    0.5087    0.0000 C   0  0  0  0  0  0  0  0  0
    1.8810    0.5087    0.0000 C   0  0  0  0  0  0  0  0  0
    1.4685    1.2232    0.0000 C   0  0  0  0  0  0  0  0  0
    0.6435    1.2232    0.0000 N   0  0  0  0  0  0  0  0  0
    0.1586    0.5558    0.0000 C   0  0  0  0  0  0  0  0  0
   -0.6260    0.8107    0.0000 C   0  0  0  0  0  0  0  0  0
   -0.6260    1.6357    0.0000 C   0  0  0  0  0  0  0  0  0
   -1.3405    1.2232    0.0000 C   0  0  0  0  0  0  0  0  0
    0.1586    1.8906    0.0000 C   0  0  0  0  0  0  0  0  0
   -0.9616    0.0570    0.0000 C   0  0  0  0  0  0  0  0  0
   -0.4767   -0.6104    0.0000 C   0  0  0  0  0  0  0  0  0
   -0.8122   -1.3641    0.0000 C   0  0  0  0  0  0  0  0  0
   -1.6327   -1.4503    0.0000 C   0  0  0  0  0  0  0  0  0
   -2.1176   -0.7829    0.0000 C   0  0  0  0  0  0  0  0  0
   -1.7821   -0.0292    0.0000 C   0  0  0  0  0  0  0  0  0
   -1.9683   -2.2040    0.0000 C   0  0  0  0  0  0  0  0  0
   -2.3038   -2.9577    0.0000 F   0  0  0  0  0  0  0  0  0
   -1.2146   -2.5396    0.0000 F   0  0  0  0  0  0  0  0  0
   -2.7219   -1.8684    0.0000 F   0  0  0  0  0  0  0  0  0
    3.9435   -0.2057    0.0000 C   0  0  0  0  0  0  0  0  0
    4.4284    0.4617    0.0000 N   0  0  0  0  0  0  0  0  0
    5.2131    0.2068    0.0000 N   0  0  0  0  0  0  0  0  0
    5.2131   -0.6182    0.0000 C   0  0  0  0  0  0  0  0  0
    4.4284   -0.8732    0.0000 N   0  0  0  0  0  0  0  0  0
    4.1735   -1.6578    0.0000 C   0  0  0  0  0  0  0  0  0
    5.8805   -1.1032    0.0000 C   0  0  0  0  0  0  0  0  0
    6.6651   -0.8482    0.0000 O   0  0  0  0  0  0  0  0  0
    7.1500   -1.5157    0.0000 C   0  0  0  0  0  0  0  0  0
    6.6651   -2.1831    0.0000 C   0  0  0  0  0  0  0  0  0
    5.8805   -1.9282    0.0000 C   0  0  0  0  0  0  0  0  0
    5.2131   -2.4131    0.0000 C   0  0  0  0  0  0  0  0  0
  1  2  1  0  0  0  0
  1 21  1  0  0  0  0
  2  3  1  0  0  0  0
  3  4  1  0  0  0  0
  4  5  1  0  0  0  0
  5  6  1  0  0  0  0
  5 10  1  0  0  0  0
  6  7  1  0  0  0  0
  7  8  1  0  0  0  0
  7  9  1  0  0  0  0
  7 11  1  0  0  0  0
  8  9  1  0  0  0  0
  8 10  1  0  0  0  0
 11 12  4  0  0  0  0
 11 16  4  0  0  0  0
 12 13  4  0  0  0  0
 13 14  4  0  0  0  0
 14 15  4  0  0  0  0
 14 17  1  0  0  0  0
 15 16  4  0  0  0  0
 17 18  1  0  0  0  0
 17 19  1  0  0  0  0
 17 20  1  0  0  0  0
 21 22  4  0  0  0  0
 21 25  4  0  0  0  0
 22 23  4  0  0  0  0
 23 24  4  0  0  0  0
 24 25  4  0  0  0  0
 24 27  1  0  0  0  0
 25 26  1  0  0  0  0
 27 28  4  0  0  0  0
 27 31  4  0  0  0  0
 28 29  4  0  0  0  0
 29 30  4  0  0  0  0
 30 31  4  0  0  0  0
 31 32  1  0  0  0  0
M  END
>  <Name_Molregno>
610216

>  <DOPAMINE D2>
6.4

>  <DOPAMINE D3>
9.3

$$$$
610217
  Marvin  02231216192D 0   1.00000     0.00000     0

 33 37  0  0  1  0  0  0  0  0999 V2000
    2.6586   -0.0293    0.0000 S   0  0  0  0  0  0  0  0  0
    2.2461    0.6852    0.0000 C   0  0  0  0  0  0  0  0  0
    1.4211    0.6852    0.0000 C   0  0  0  0  0  0  0  0  0
    1.0086    1.3997    0.0000 C   0  0  0  0  0  0  0  0  0
    0.1836    1.3997    0.0000 N   0  0  0  0  0  0  0  0  0
   -0.3013    0.7322    0.0000 C   0  0  0  0  0  0  0  0  0
   -1.0860    0.9872    0.0000 C   0  0  0  0  0  0  0  0  0
   -1.0860    1.8122    0.0000 C   0  0  0  0  0  0  0  0  0
   -1.8004    1.3997    0.0000 C   0  0  0  0  0  0  0  0  0
   -0.3013    2.0671    0.0000 C   0  0  0  0  0  0  0  0  0
   -1.4215    0.2335    0.0000 C   0  0  0  0  0  0  0  0  0
   -0.9366   -0.4340    0.0000 C   0  0  0  0  0  0  0  0  0
   -1.2722   -1.1876    0.0000 C   0  0  0  0  0  0  0  0  0
   -2.0926   -1.2739    0.0000 C   0  0  0  0  0  0  0  0  0
   -2.5776   -0.6064    0.0000 C   0  0  0  0  0  0  0  0  0
   -2.2420    0.1472    0.0000 C   0  0  0  0  0  0  0  0  0
   -2.4282   -2.0275    0.0000 C   0  0  0  0  0  0  0  0  0
   -2.7638   -2.7812    0.0000 F   0  0  0  0  0  0  0  0  0
   -1.6745   -2.3631    0.0000 F   0  0  0  0  0  0  0  0  0
   -3.1819   -1.6920    0.0000 F   0  0  0  0  0  0  0  0  0
    3.4836   -0.0293    0.0000 C   0  0  0  0  0  0  0  0  0
    3.9685    0.6382    0.0000 N   0  0  0  0  0  0  0  0  0
    4.7531    0.3832    0.0000 N   0  0  0  0  0  0  0  0  0
    4.7531   -0.4418    0.0000 C   0  0  0  0  0  0  0  0  0
    3.9685   -0.6967    0.0000 N   0  0  0  0  0  0  0  0  0
    3.7136   -1.4813    0.0000 C   0  0  0  0  0  0  0  0  0
    5.4206   -0.9267    0.0000 C   0  0  0  0  0  0  0  0  0
    6.1742   -0.5912    0.0000 C   0  0  0  0  0  0  0  0  0
    6.8417   -1.0761    0.0000 C   0  0  0  0  0  0  0  0  0
    6.7554   -1.8966    0.0000 C   0  0  0  0  0  0  0  0  0
    6.0018   -2.2321    0.0000 N   0  0  0  0  0  0  0  0  0
    5.3343   -1.7472    0.0000 C   0  0  0  0  0  0  0  0  0
    7.4229   -2.3815    0.0000 C   0  0  0  0  0  0  0  0  0
  1  2  1  0  0  0  0
  1 21  1  0  0  0  0
  2  3  1  0  0  0  0
  3  4  1  0  0  0  0
  4  5  1  0  0  0  0
  5  6  1  0  0  0  0
  5 10  1  0  0  0  0
  6  7  1  0  0  0  0
  7  8  1  0  0  0  0
  7  9  1  0  0  0  0
  7 11  1  0  0  0  0
  8  9  1  0  0  0  0
  8 10  1  0  0  0  0
 11 12  4  0  0  0  0
 11 16  4  0  0  0  0
 12 13  4  0  0  0  0
 13 14  4  0  0  0  0
 14 15  4  0  0  0  0
 14 17  1  0  0  0  0
 15 16  4  0  0  0  0
 17 18  1  0  0  0  0
 17 19  1  0  0  0  0
 17 20  1  0  0  0  0
 21 22  4  0  0  0  0
 21 25  4  0  0  0  0
 22 23  4  0  0  0  0
 23 24  4  0  0  0  0
 24 25  4  0  0  0  0
 24 27  1  0  0  0  0
 25 26  1  0  0  0  0
 27 28  4  0  0  0  0
 27 32  4  0  0  0  0
 28 29  4  0  0  0  0
 29 30  4  0  0  0  0
 30 31  4  0  0  0  0
 30 33  1  0  0  0  0
 31 32  4  0  0  0  0
M  END
>  <Name_Molregno>
610217

>  <DOPAMINE D2>
6.2

>  <DOPAMINE D3>
9.1

$$$$
610218
  Marvin  02231216192D 0   1.00000     0.00000     0

 33 37  0  0  1  0  0  0  0  0999 V2000
   -0.0492    1.4500    0.0000 S   0  0  0  0  0  0  0  0  0
   -0.8338    1.7050    0.0000 C   0  0  0  0  0  0  0  0  0
   -1.5012    1.2200    0.0000 C   0  0  0  0  0  0  0  0  0
   -1.5012    0.3950    0.0000 N   0  0  0  0  0  0  0  0  0
   -2.2858    0.1401    0.0000 N   0  0  0  0  0  0  0  0  0
   -2.7708    0.8075    0.0000 C   0  0  0  0  0  0  0  0  0
   -3.5958    0.8075    0.0000 S   0  0  0  0  0  0  0  0  0
   -4.0083    0.0931    0.0000 C   0  0  0  0  0  0  0  0  0
   -4.8333    0.0931    0.0000 C   0  0  0  0  0  0  0  0  0
   -5.2458   -0.6214    0.0000 C   0  0  0  0  0  0  0  0  0
   -6.0708   -0.6214    0.0000 N   0  0  0  0  0  0  0  0  0
   -6.5557   -1.2888    0.0000 C   0  0  0  0  0  0  0  0  0
   -7.3403   -1.0339    0.0000 C   0  0  0  0  0  0  0  0  0
   -7.3403   -0.2089    0.0000 C   0  0  0  0  0  0  0  0  0
   -8.0548   -0.6214    0.0000 C   0  0  0  0  0  0  0  0  0
   -6.5557    0.0460    0.0000 C   0  0  0  0  0  0  0  0  0
   -7.6759   -1.7876    0.0000 C   0  0  0  0  0  0  0  0  0
   -7.1909   -2.4550    0.0000 C   0  0  0  0  0  0  0  0  0
   -7.5265   -3.2087    0.0000 C   0  0  0  0  0  0  0  0  0
   -8.3470   -3.2949    0.0000 C   0  0  0  0  0  0  0  0  0
   -8.8319   -2.6275    0.0000 C   0  0  0  0  0  0  0  0  0
   -8.4963   -1.8738    0.0000 C   0  0  0  0  0  0  0  0  0
   -8.6825   -4.0486    0.0000 C   0  0  0  0  0  0  0  0  0
   -9.0181   -4.8023    0.0000 F   0  0  0  0  0  0  0  0  0
   -7.9289   -4.3842    0.0000 F   0  0  0  0  0  0  0  0  0
   -9.4362   -3.7130    0.0000 F   0  0  0  0  0  0  0  0  0
   -2.2858    1.4750    0.0000 N   0  0  0  0  0  0  0  0  0
   -2.5408    2.2596    0.0000 C   0  0  0  0  0  0  0  0  0
   -0.8338    2.5300    0.0000 C   0  0  0  0  0  0  0  0  0
   -0.0492    2.7849    0.0000 N   0  0  0  0  0  0  0  0  0
    0.4358    2.1175    0.0000 C   0  0  0  0  0  0  0  0  0
    1.2608    2.1175    0.0000 C   0  0  0  0  0  0  0  0  0
   -1.5012    3.0149    0.0000 C   0  0  0  0  0  0  0  0  0
  1  2  4  0  0  0  0
  1 31  4  0  0  0  0
  2  3  1  0  0  0  0
  2 29  4  0  0  0  0
  3  4  4  0  0  0  0
  3 27  4  0  0  0  0
  4  5  4  0  0  0  0
  5  6  4  0  0  0  0
  6  7  1  0  0  0  0
  6 27  4  0  0  0  0
  7  8  1  0  0  0  0
  8  9  1  0  0  0  0
  9 10  1  0  0  0  0
 10 11  1  0  0  0  0
 11 12  1  0  0  0  0
 11 16  1  0  0  0  0
 12 13  1  0  0  0  0
 13 14  1  0  0  0  0
 13 15  1  0  0  0  0
 13 17  1  0  0  0  0
 14 15  1  0  0  0  0
 14 16  1  0  0  0  0
 17 18  4  0  0  0  0
 17 22  4  0  0  0  0
 18 19  4  0  0  0  0
 19 20  4  0  0  0  0
 20 21  4  0  0  0  0
 20 23  1  0  0  0  0
 21 22  4  0  0  0  0
 23 24  1  0  0  0  0
 23 25  1  0  0  0  0
 23 26  1  0  0  0  0
 27 28  1  0  0  0  0
 29 30  4  0  0  0  0
 29 33  1  0  0  0  0
 30 31  4  0  0  0  0
 31 32  1  0  0  0  0
M  END
>  <Name_Molregno>
610218

>  <DOPAMINE D2>
6.6

>  <DOPAMINE D3>
9.6

$$$$
610219
  Marvin  02231216192D 0   1.00000     0.00000     0

 30 34  0  0  1  0  0  0  0  0999 V2000
    1.4296   -2.6895    0.0000 Cl  0  0  0  0  0  0  0  0  0
    1.7652   -1.9359    0.0000 C   0  0  0  0  0  0  0  0  0
    1.2802   -1.2684    0.0000 C   0  0  0  0  0  0  0  0  0
    1.6158   -0.5148    0.0000 C   0  0  0  0  0  0  0  0  0
    1.1309    0.1527    0.0000 F   0  0  0  0  0  0  0  0  0
    2.4363   -0.4285    0.0000 C   0  0  0  0  0  0  0  0  0
    2.9212   -1.0960    0.0000 C   0  0  0  0  0  0  0  0  0
    2.5856   -1.8496    0.0000 C   0  0  0  0  0  0  0  0  0
    2.7718    0.3252    0.0000 C   0  0  0  0  0  0  0  0  0
    2.7718    1.1502    0.0000 C   0  0  0  0  0  0  0  0  0
    2.0574    0.7377    0.0000 C   0  0  0  0  0  0  0  0  0
    3.5565    1.4051    0.0000 C   0  0  0  0  0  0  0  0  0
    4.0414    0.7377    0.0000 N   0  0  0  0  0  0  0  0  0
    3.5565    0.0702    0.0000 C   0  0  0  0  0  0  0  0  0
    4.8664    0.7377    0.0000 C   0  0  0  0  0  0  0  0  0
    5.2789    0.0232    0.0000 C   0  0  0  0  0  0  0  0  0
    6.1039    0.0232    0.0000 C   0  0  0  0  0  0  0  0  0
    6.5164   -0.6913    0.0000 S   0  0  0  0  0  0  0  0  0
    7.3414   -0.6913    0.0000 C   0  0  0  0  0  0  0  0  0
    7.8263   -0.0239    0.0000 N   0  0  0  0  0  0  0  0  0
    8.6109   -0.2788    0.0000 N   0  0  0  0  0  0  0  0  0
    8.6109   -1.1038    0.0000 C   0  0  0  0  0  0  0  0  0
    7.8263   -1.3587    0.0000 N   0  0  0  0  0  0  0  0  0
    7.5714   -2.1433    0.0000 C   0  0  0  0  0  0  0  0  0
    9.2784   -1.5887    0.0000 C   0  0  0  0  0  0  0  0  0
   10.0630   -1.3338    0.0000 O   0  0  0  0  0  0  0  0  0
   10.5479   -2.0012    0.0000 C   0  0  0  0  0  0  0  0  0
   10.0630   -2.6687    0.0000 N   0  0  0  0  0  0  0  0  0
    9.2784   -2.4137    0.0000 C   0  0  0  0  0  0  0  0  0
    8.6109   -2.8986    0.0000 C   0  0  0  0  0  0  0  0  0
  1  2  1  0  0  0  0
  2  3  4  0  0  0  0
  2  8  4  0  0  0  0
  3  4  4  0  0  0  0
  4  5  1  0  0  0  0
  4  6  4  0  0  0  0
  6  7  4  0  0  0  0
  6  9  1  0  0  0  0
  7  8  4  0  0  0  0
  9 10  1  0  0  0  0
  9 11  1  0  0  0  0
  9 14  1  0  0  0  0
 10 11  1  0  0  0  0
 10 12  1  0  0  0  0
 12 13  1  0  0  0  0
 13 14  1  0  0  0  0
 13 15  1  0  0  0  0
 15 16  1  0  0  0  0
 16 17  1  0  0  0  0
 17 18  1  0  0  0  0
 18 19  1  0  0  0  0
 19 20  4  0  0  0  0
 19 23  4  0  0  0  0
 20 21  4  0  0  0  0
 21 22  4  0  0  0  0
 22 23  4  0  0  0  0
 22 25  1  0  0  0  0
 23 24  1  0  0  0  0
 25 26  4  0  0  0  0
 25 29  4  0  0  0  0
 26 27  4  0  0  0  0
 27 28  4  0  0  0  0
 28 29  4  0  0  0  0
 29 30  1  0  0  0  0
M  END
>  <Name_Molregno>
610219

>  <DOPAMINE D2>
6.27

>  <DOPAMINE D3>
7.77

$$$$
610220
  Marvin  02231216192D 0   1.00000     0.00000     0

 34 38  0  0  1  0  0  0  0  0999 V2000
    3.6700    0.9196    0.0000 S   0  0  0  0  0  0  0  0  0
    3.2575    0.2052    0.0000 C   0  0  0  0  0  0  0  0  0
    3.6700   -0.5093    0.0000 C   0  0  0  0  0  0  0  0  0
    3.2575   -1.2238    0.0000 C   0  0  0  0  0  0  0  0  0
    2.4325   -1.2238    0.0000 N   0  0  0  0  0  0  0  0  0
    1.9475   -1.8912    0.0000 C   0  0  0  0  0  0  0  0  0
    1.1629   -1.6363    0.0000 C   0  0  0  0  0  0  0  0  0
    1.1629   -0.8113    0.0000 C   0  0  0  0  0  0  0  0  0
    0.4484   -1.2238    0.0000 C   0  0  0  0  0  0  0  0  0
    1.9475   -0.5563    0.0000 C   0  0  0  0  0  0  0  0  0
    0.8274   -2.3900    0.0000 C   0  0  0  0  0  0  0  0  0
    1.3123   -3.0574    0.0000 C   0  0  0  0  0  0  0  0  0
    0.9767   -3.8111    0.0000 C   0  0  0  0  0  0  0  0  0
    1.4616   -4.4785    0.0000 C   0  0  0  0  0  0  0  0  0
    1.9466   -5.1459    0.0000 F   0  0  0  0  0  0  0  0  0
    0.7942   -4.9634    0.0000 F   0  0  0  0  0  0  0  0  0
    2.1291   -3.9936    0.0000 F   0  0  0  0  0  0  0  0  0
    0.1562   -3.8973    0.0000 C   0  0  0  0  0  0  0  0  0
   -0.1793   -4.6510    0.0000 O   0  0  0  0  0  0  0  0  0
   -0.9998   -4.7372    0.0000 C   0  0  0  0  0  0  0  0  0
   -0.3287   -3.2299    0.0000 C   0  0  0  0  0  0  0  0  0
    0.0069   -2.4762    0.0000 C   0  0  0  0  0  0  0  0  0
    3.2575    1.6341    0.0000 C   0  0  0  0  0  0  0  0  0
    2.4370    1.7203    0.0000 N   0  0  0  0  0  0  0  0  0
    2.2655    2.5273    0.0000 N   0  0  0  0  0  0  0  0  0
    2.9799    2.9398    0.0000 C   0  0  0  0  0  0  0  0  0
    3.5930    2.3878    0.0000 N   0  0  0  0  0  0  0  0  0
    4.4000    2.5593    0.0000 C   0  0  0  0  0  0  0  0  0
    3.0662    3.7603    0.0000 C   0  0  0  0  0  0  0  0  0
    2.4531    4.3123    0.0000 O   0  0  0  0  0  0  0  0  0
    2.7886    5.0660    0.0000 C   0  0  0  0  0  0  0  0  0
    3.6091    4.9798    0.0000 N   0  0  0  0  0  0  0  0  0
    3.7806    4.1728    0.0000 C   0  0  0  0  0  0  0  0  0
    4.5343    3.8372    0.0000 C   0  0  0  0  0  0  0  0  0
  1  2  1  0  0  0  0
  1 23  1  0  0  0  0
  2  3  1  0  0  0  0
  3  4  1  0  0  0  0
  4  5  1  0  0  0  0
  5  6  1  0  0  0  0
  5 10  1  0  0  0  0
  6  7  1  0  0  0  0
  7  8  1  0  0  0  0
  7  9  1  0  0  0  0
  7 11  1  0  0  0  0
  8  9  1  0  0  0  0
  8 10  1  0  0  0  0
 11 12  4  0  0  0  0
 11 22  4  0  0  0  0
 12 13  4  0  0  0  0
 13 14  1  0  0  0  0
 13 18  4  0  0  0  0
 14 15  1  0  0  0  0
 14 16  1  0  0  0  0
 14 17  1  0  0  0  0
 18 19  1  0  0  0  0
 18 21  4  0  0  0  0
 19 20  1  0  0  0  0
 21 22  4  0  0  0  0
 23 24  4  0  0  0  0
 23 27  4  0  0  0  0
 24 25  4  0  0  0  0
 25 26  4  0  0  0  0
 26 27  4  0  0  0  0
 26 29  1  0  0  0  0
 27 28  1  0  0  0  0
 29 30  4  0  0  0  0
 29 33  4  0  0  0  0
 30 31  4  0  0  0  0
 31 32  4  0  0  0  0
 32 33  4  0  0  0  0
 33 34  1  0  0  0  0
M  END
>  <Name_Molregno>
610220

>  <DOPAMINE D2>
6.57

>  <DOPAMINE D3>
8.17

$$$$
610291
  Marvin  02231216192D 0   1.00000     0.00000     0

 33 37  0  0  1  0  0  0  0  0999 V2000
    2.6586   -0.0293    0.0000 S   0  0  0  0  0  0  0  0  0
    2.2461    0.6852    0.0000 C   0  0  0  0  0  0  0  0  0
    1.4211    0.6852    0.0000 C   0  0  0  0  0  0  0  0  0
    1.0086    1.3997    0.0000 C   0  0  0  0  0  0  0  0  0
    0.1836    1.3997    0.0000 N   0  0  0  0  0  0  0  0  0
   -0.3013    0.7322    0.0000 C   0  0  0  0  0  0  0  0  0
   -1.0860    0.9872    0.0000 C   0  0  0  0  0  0  0  0  0
   -1.0860    1.8122    0.0000 C   0  0  0  0  0  0  0  0  0
   -1.8004    1.3997    0.0000 C   0  0  0  0  0  0  0  0  0
   -0.3013    2.0671    0.0000 C   0  0  0  0  0  0  0  0  0
   -1.4215    0.2335    0.0000 C   0  0  0  0  0  0  0  0  0
   -0.9366   -0.4340    0.0000 C   0  0  0  0  0  0  0  0  0
   -1.2722   -1.1876    0.0000 C   0  0  0  0  0  0  0  0  0
   -2.0926   -1.2739    0.0000 C   0  0  0  0  0  0  0  0  0
   -2.5776   -0.6064    0.0000 C   0  0  0  0  0  0  0  0  0
   -2.2420    0.1472    0.0000 C   0  0  0  0  0  0  0  0  0
   -2.4282   -2.0275    0.0000 C   0  0  0  0  0  0  0  0  0
   -2.7638   -2.7812    0.0000 F   0  0  0  0  0  0  0  0  0
   -1.6745   -2.3631    0.0000 F   0  0  0  0  0  0  0  0  0
   -3.1819   -1.6920    0.0000 F   0  0  0  0  0  0  0  0  0
    3.4836   -0.0293    0.0000 C   0  0  0  0  0  0  0  0  0
    3.9685    0.6382    0.0000 N   0  0  0  0  0  0  0  0  0
    4.7531    0.3832    0.0000 N   0  0  0  0  0  0  0  0  0
    4.7531   -0.4418    0.0000 C   0  0  0  0  0  0  0  0  0
    3.9685   -0.6967    0.0000 N   0  0  0  0  0  0  0  0  0
    3.7136   -1.4813    0.0000 C   0  0  0  0  0  0  0  0  0
    5.4206   -0.9267    0.0000 C   0  0  0  0  0  0  0  0  0
    6.1742   -0.5912    0.0000 N   0  0  0  0  0  0  0  0  0
    6.8417   -1.0761    0.0000 C   0  0  0  0  0  0  0  0  0
    6.7554   -1.8966    0.0000 C   0  0  0  0  0  0  0  0  0
    6.0018   -2.2321    0.0000 N   0  0  0  0  0  0  0  0  0
    5.3343   -1.7472    0.0000 C   0  0  0  0  0  0  0  0  0
    7.4229   -2.3815    0.0000 C   0  0  0  0  0  0  0  0  0
  1  2  1  0  0  0  0
  1 21  1  0  0  0  0
  2  3  1  0  0  0  0
  3  4  1  0  0  0  0
  4  5  1  0  0  0  0
  5  6  1  0  0  0  0
  5 10  1  0  0  0  0
  6  7  1  0  0  0  0
  7  8  1  0  0  0  0
  7  9  1  0  0  0  0
  7 11  1  0  0  0  0
  8  9  1  0  0  0  0
  8 10  1  0  0  0  0
 11 12  4  0  0  0  0
 11 16  4  0  0  0  0
 12 13  4  0  0  0  0
 13 14  4  0  0  0  0
 14 15  4  0  0  0  0
 14 17  1  0  0  0  0
 15 16  4  0  0  0  0
 17 18  1  0  0  0  0
 17 19  1  0  0  0  0
 17 20  1  0  0  0  0
 21 22  4  0  0  0  0
 21 25  4  0  0  0  0
 22 23  4  0  0  0  0
 23 24  4  0  0  0  0
 24 25  4  0  0  0  0
 24 27  1  0  0  0  0
 25 26  1  0  0  0  0
 27 28  4  0  0  0  0
 27 32  4  0  0  0  0
 28 29  4  0  0  0  0
 29 30  4  0  0  0  0
 30 31  4  0  0  0  0
 30 33  1  0  0  0  0
 31 32  4  0  0  0  0
M  END
>  <Name_Molregno>
610291

>  <DOPAMINE D2>
6.3

>  <DOPAMINE D3>
9.2

$$$$
610292
  Marvin  02231216192D 0   1.00000     0.00000     0

 32 36  0  0  1  0  0  0  0  0999 V2000
    3.1185   -0.2057    0.0000 S   0  0  0  0  0  0  0  0  0
    2.7060    0.5087    0.0000 C   0  0  0  0  0  0  0  0  0
    1.8810    0.5087    0.0000 C   0  0  0  0  0  0  0  0  0
    1.4685    1.2232    0.0000 C   0  0  0  0  0  0  0  0  0
    0.6435    1.2232    0.0000 N   0  0  0  0  0  0  0  0  0
    0.1586    0.5558    0.0000 C   0  0  0  0  0  0  0  0  0
   -0.6260    0.8107    0.0000 C   0  0  0  0  0  0  0  0  0
   -0.6260    1.6357    0.0000 C   0  0  0  0  0  0  0  0  0
   -1.3405    1.2232    0.0000 C   0  0  0  0  0  0  0  0  0
    0.1586    1.8906    0.0000 C   0  0  0  0  0  0  0  0  0
   -0.9616    0.0570    0.0000 C   0  0  0  0  0  0  0  0  0
   -0.4767   -0.6104    0.0000 C   0  0  0  0  0  0  0  0  0
   -0.8122   -1.3641    0.0000 C   0  0  0  0  0  0  0  0  0
   -1.6327   -1.4503    0.0000 C   0  0  0  0  0  0  0  0  0
   -2.1176   -0.7829    0.0000 C   0  0  0  0  0  0  0  0  0
   -1.7821   -0.0292    0.0000 C   0  0  0  0  0  0  0  0  0
   -1.9683   -2.2040    0.0000 C   0  0  0  0  0  0  0  0  0
   -2.3038   -2.9577    0.0000 F   0  0  0  0  0  0  0  0  0
   -1.2146   -2.5396    0.0000 F   0  0  0  0  0  0  0  0  0
   -2.7219   -1.8684    0.0000 F   0  0  0  0  0  0  0  0  0
    3.9435   -0.2057    0.0000 C   0  0  0  0  0  0  0  0  0
    4.4284    0.4617    0.0000 N   0  0  0  0  0  0  0  0  0
    5.2131    0.2068    0.0000 N   0  0  0  0  0  0  0  0  0
    5.2131   -0.6182    0.0000 C   0  0  0  0  0  0  0  0  0
    4.4284   -0.8732    0.0000 N   0  0  0  0  0  0  0  0  0
    4.1735   -1.6578    0.0000 C   0  0  0  0  0  0  0  0  0
    5.8805   -1.1032    0.0000 C   0  0  0  0  0  0  0  0  0
    6.6651   -0.8482    0.0000 O   0  0  0  0  0  0  0  0  0
    7.1500   -1.5157    0.0000 C   0  0  0  0  0  0  0  0  0
    6.6651   -2.1831    0.0000 N   0  0  0  0  0  0  0  0  0
    5.8805   -1.9282    0.0000 C   0  0  0  0  0  0  0  0  0
    5.2131   -2.4131    0.0000 C   0  0  0  0  0  0  0  0  0
  1  2  1  0  0  0  0
  1 21  1  0  0  0  0
  2  3  1  0  0  0  0
  3  4  1  0  0  0  0
  4  5  1  0  0  0  0
  5  6  1  0  0  0  0
  5 10  1  0  0  0  0
  6  7  1  0  0  0  0
  7  8  1  0  0  0  0
  7  9  1  0  0  0  0
  7 11  1  0  0  0  0
  8  9  1  0  0  0  0
  8 10  1  0  0  0  0
 11 12  4  0  0  0  0
 11 16  4  0  0  0  0
 12 13  4  0  0  0  0
 13 14  4  0  0  0  0
 14 15  4  0  0  0  0
 14 17  1  0  0  0  0
 15 16  4  0  0  0  0
 17 18  1  0  0  0  0
 17 19  1  0  0  0  0
 17 20  1  0  0  0  0
 21 22  4  0  0  0  0
 21 25  4  0  0  0  0
 22 23  4  0  0  0  0
 23 24  4  0  0  0  0
 24 25  4  0  0  0  0
 24 27  1  0  0  0  0
 25 26  1  0  0  0  0
 27 28  4  0  0  0  0
 27 31  4  0  0  0  0
 28 29  4  0  0  0  0
 29 30  4  0  0  0  0
 30 31  4  0  0  0  0
 31 32  1  0  0  0  0
M  END
>  <Name_Molregno>
610292

>  <DOPAMINE D2>
6.67

>  <DOPAMINE D3>
8.53

$$$$
610295
  Marvin  02231216192D 0   1.00000     0.00000     0

 31 35  0  0  1  0  0  0  0  0999 V2000
    0.4186   -0.8982    0.0000 Cl  0  0  0  0  0  0  0  0  0
    1.2391   -0.8119    0.0000 C   0  0  0  0  0  0  0  0  0
    1.5747   -0.0583    0.0000 C   0  0  0  0  0  0  0  0  0
    2.3952    0.0280    0.0000 C   0  0  0  0  0  0  0  0  0
    2.8801   -0.6395    0.0000 C   0  0  0  0  0  0  0  0  0
    2.5445   -1.3931    0.0000 C   0  0  0  0  0  0  0  0  0
    1.7241   -1.4794    0.0000 C   0  0  0  0  0  0  0  0  0
    1.3885   -2.2330    0.0000 O   0  0  0  0  0  0  0  0  0
    1.8734   -2.9005    0.0000 C   0  0  0  0  0  0  0  0  0
    2.7307    0.7817    0.0000 C   0  0  0  0  0  0  0  0  0
    2.7307    1.6067    0.0000 C   0  0  0  0  0  0  0  0  0
    2.0163    1.1942    0.0000 C   0  0  0  0  0  0  0  0  0
    3.5153    1.8616    0.0000 C   0  0  0  0  0  0  0  0  0
    4.0003    1.1942    0.0000 N   0  0  0  0  0  0  0  0  0
    3.5153    0.5267    0.0000 C   0  0  0  0  0  0  0  0  0
    4.8253    1.1942    0.0000 C   0  0  0  0  0  0  0  0  0
    5.2378    0.4797    0.0000 C   0  0  0  0  0  0  0  0  0
    6.0628    0.4797    0.0000 C   0  0  0  0  0  0  0  0  0
    6.4753   -0.2348    0.0000 S   0  0  0  0  0  0  0  0  0
    7.3003   -0.2348    0.0000 C   0  0  0  0  0  0  0  0  0
    7.7852    0.4326    0.0000 N   0  0  0  0  0  0  0  0  0
    8.5698    0.1777    0.0000 N   0  0  0  0  0  0  0  0  0
    8.5698   -0.6473    0.0000 C   0  0  0  0  0  0  0  0  0
    7.7852   -0.9022    0.0000 N   0  0  0  0  0  0  0  0  0
    7.5303   -1.6869    0.0000 C   0  0  0  0  0  0  0  0  0
    9.2373   -1.1322    0.0000 C   0  0  0  0  0  0  0  0  0
   10.0219   -0.8773    0.0000 O   0  0  0  0  0  0  0  0  0
   10.5068   -1.5447    0.0000 C   0  0  0  0  0  0  0  0  0
   10.0219   -2.2122    0.0000 N   0  0  0  0  0  0  0  0  0
    9.2373   -1.9572    0.0000 C   0  0  0  0  0  0  0  0  0
    8.5698   -2.4421    0.0000 C   0  0  0  0  0  0  0  0  0
  1  2  1  0  0  0  0
  2  3  4  0  0  0  0
  2  7  4  0  0  0  0
  3  4  4  0  0  0  0
  4  5  4  0  0  0  0
  4 10  1  0  0  0  0
  5  6  4  0  0  0  0
  6  7  4  0  0  0  0
  7  8  1  0  0  0  0
  8  9  1  0  0  0  0
 10 11  1  0  0  0  0
 10 12  1  0  0  0  0
 10 15  1  0  0  0  0
 11 12  1  0  0  0  0
 11 13  1  0  0  0  0
 13 14  1  0  0  0  0
 14 15  1  0  0  0  0
 14 16  1  0  0  0  0
 16 17  1  0  0  0  0
 17 18  1  0  0  0  0
 18 19  1  0  0  0  0
 19 20  1  0  0  0  0
 20 21  4  0  0  0  0
 20 24  4  0  0  0  0
 21 22  4  0  0  0  0
 22 23  4  0  0  0  0
 23 24  4  0  0  0  0
 23 26  1  0  0  0  0
 24 25  1  0  0  0  0
 26 27  4  0  0  0  0
 26 30  4  0  0  0  0
 27 28  4  0  0  0  0
 28 29  4  0  0  0  0
 29 30  4  0  0  0  0
 30 31  1  0  0  0  0
M  END
>  <Name_Molregno>
610295

>  <DOPAMINE D2>
6.27

>  <DOPAMINE D3>
7.83

$$$$
610362
  Marvin  02231216192D 0   1.00000     0.00000     0

 28 32  0  0  1  0  0  0  0  0999 V2000
    1.8713   -0.2334    0.0000 S   0  0  0  0  0  0  0  0  0
    1.4588    0.4811    0.0000 C   0  0  0  0  0  0  0  0  0
    0.6338    0.4811    0.0000 C   0  0  0  0  0  0  0  0  0
    0.2213    1.1955    0.0000 C   0  0  0  0  0  0  0  0  0
   -0.6037    1.1955    0.0000 N   0  0  0  0  0  0  0  0  0
   -1.0886    0.5281    0.0000 C   0  0  0  0  0  0  0  0  0
   -1.8732    0.7830    0.0000 C   0  0  0  0  0  0  0  0  0
   -1.8732    1.6080    0.0000 C   0  0  0  0  0  0  0  0  0
   -2.5877    1.1955    0.0000 C   0  0  0  0  0  0  0  0  0
   -1.0886    1.8630    0.0000 C   0  0  0  0  0  0  0  0  0
   -2.2088    0.0294    0.0000 C   0  0  0  0  0  0  0  0  0
   -1.7239   -0.6381    0.0000 C   0  0  0  0  0  0  0  0  0
   -2.0594   -1.3918    0.0000 C   0  0  0  0  0  0  0  0  0
   -2.8799   -1.4780    0.0000 C   0  0  0  0  0  0  0  0  0
   -3.3648   -0.8106    0.0000 C   0  0  0  0  0  0  0  0  0
   -3.0293   -0.0569    0.0000 C   0  0  0  0  0  0  0  0  0
    2.6963   -0.2334    0.0000 C   0  0  0  0  0  0  0  0  0
    3.1812    0.4340    0.0000 N   0  0  0  0  0  0  0  0  0
    3.9659    0.1791    0.0000 N   0  0  0  0  0  0  0  0  0
    3.9659   -0.6459    0.0000 C   0  0  0  0  0  0  0  0  0
    3.1812   -0.9009    0.0000 N   0  0  0  0  0  0  0  0  0
    2.9263   -1.6855    0.0000 C   0  0  0  0  0  0  0  0  0
    4.6333   -1.1308    0.0000 C   0  0  0  0  0  0  0  0  0
    5.4179   -0.8759    0.0000 O   0  0  0  0  0  0  0  0  0
    5.9028   -1.5433    0.0000 C   0  0  0  0  0  0  0  0  0
    5.4179   -2.2108    0.0000 N   0  0  0  0  0  0  0  0  0
    4.6333   -1.9558    0.0000 C   0  0  0  0  0  0  0  0  0
    3.9659   -2.4408    0.0000 C   0  0  0  0  0  0  0  0  0
  1  2  1  0  0  0  0
  1 17  1  0  0  0  0
  2  3  1  0  0  0  0
  3  4  1  0  0  0  0
  4  5  1  0  0  0  0
  5  6  1  0  0  0  0
  5 10  1  0  0  0  0
  6  7  1  0  0  0  0
  7  8  1  0  0  0  0
  7  9  1  0  0  0  0
  7 11  1  0  0  0  0
  8  9  1  0  0  0  0
  8 10  1  0  0  0  0
 11 12  4  0  0  0  0
 11 16  4  0  0  0  0
 12 13  4  0  0  0  0
 13 14  4  0  0  0  0
 14 15  4  0  0  0  0
 15 16  4  0  0  0  0
 17 18  4  0  0  0  0
 17 21  4  0  0  0  0
 18 19  4  0  0  0  0
 19 20  4  0  0  0  0
 20 21  4  0  0  0  0
 20 23  1  0  0  0  0
 21 22  1  0  0  0  0
 23 24  4  0  0  0  0
 23 27  4  0  0  0  0
 24 25  4  0  0  0  0
 25 26  4  0  0  0  0
 26 27  4  0  0  0  0
 27 28  1  0  0  0  0
M  END
>  <Name_Molregno>
610362

>  <DOPAMINE D2>
6.7

>  <DOPAMINE D3>
7.9

$$$$
610363
  Marvin  02231216192D 0   1.00000     0.00000     0

 32 36  0  0  1  0  0  0  0  0999 V2000
    3.1604   -0.1443    0.0000 S   0  0  0  0  0  0  0  0  0
    2.7479    0.5702    0.0000 C   0  0  0  0  0  0  0  0  0
    1.9229    0.5702    0.0000 C   0  0  0  0  0  0  0  0  0
    1.5104    1.2847    0.0000 C   0  0  0  0  0  0  0  0  0
    0.6854    1.2847    0.0000 N   0  0  0  0  0  0  0  0  0
    0.2005    0.6173    0.0000 C   0  0  0  0  0  0  0  0  0
   -0.5841    0.8722    0.0000 C   0  0  0  0  0  0  0  0  0
   -0.5841    1.6972    0.0000 C   0  0  0  0  0  0  0  0  0
   -1.2986    1.2847    0.0000 C   0  0  0  0  0  0  0  0  0
    0.2005    1.9521    0.0000 C   0  0  0  0  0  0  0  0  0
   -0.9197    0.1185    0.0000 C   0  0  0  0  0  0  0  0  0
   -0.4347   -0.5489    0.0000 C   0  0  0  0  0  0  0  0  0
   -0.7703   -1.3026    0.0000 C   0  0  0  0  0  0  0  0  0
   -1.5908   -1.3888    0.0000 C   0  0  0  0  0  0  0  0  0
   -2.0757   -0.7214    0.0000 C   0  0  0  0  0  0  0  0  0
   -1.7401    0.0323    0.0000 C   0  0  0  0  0  0  0  0  0
   -1.9263   -2.1425    0.0000 C   0  0  0  0  0  0  0  0  0
   -2.2619   -2.8962    0.0000 C   0  0  0  0  0  0  0  0  0
   -1.1727   -2.4781    0.0000 C   0  0  0  0  0  0  0  0  0
   -2.6800   -1.8070    0.0000 C   0  0  0  0  0  0  0  0  0
    3.9854   -0.1443    0.0000 C   0  0  0  0  0  0  0  0  0
    4.4704    0.5232    0.0000 N   0  0  0  0  0  0  0  0  0
    5.2550    0.2682    0.0000 N   0  0  0  0  0  0  0  0  0
    5.2550   -0.5568    0.0000 C   0  0  0  0  0  0  0  0  0
    4.4704   -0.8117    0.0000 N   0  0  0  0  0  0  0  0  0
    4.2154   -1.5963    0.0000 C   0  0  0  0  0  0  0  0  0
    5.9224   -1.0417    0.0000 C   0  0  0  0  0  0  0  0  0
    6.7070   -0.7867    0.0000 O   0  0  0  0  0  0  0  0  0
    7.1920   -1.4542    0.0000 C   0  0  0  0  0  0  0  0  0
    6.7070   -2.1216    0.0000 N   0  0  0  0  0  0  0  0  0
    5.9224   -1.8667    0.0000 C   0  0  0  0  0  0  0  0  0
    5.2550   -2.3516    0.0000 C   0  0  0  0  0  0  0  0  0
  1  2  1  0  0  0  0
  1 21  1  0  0  0  0
  2  3  1  0  0  0  0
  3  4  1  0  0  0  0
  4  5  1  0  0  0  0
  5  6  1  0  0  0  0
  5 10  1  0  0  0  0
  6  7  1  0  0  0  0
  7  8  1  0  0  0  0
  7  9  1  0  0  0  0
  7 11  1  0  0  0  0
  8  9  1  0  0  0  0
  8 10  1  0  0  0  0
 11 12  4  0  0  0  0
 11 16  4  0  0  0  0
 12 13  4  0  0  0  0
 13 14  4  0  0  0  0
 14 15  4  0  0  0  0
 14 17  1  0  0  0  0
 15 16  4  0  0  0  0
 17 18  1  0  0  0  0
 17 19  1  0  0  0  0
 17 20  1  0  0  0  0
 21 22  4  0  0  0  0
 21 25  4  0  0  0  0
 22 23  4  0  0  0  0
 23 24  4  0  0  0  0
 24 25  4  0  0  0  0
 24 27  1  0  0  0  0
 25 26  1  0  0  0  0
 27 28  4  0  0  0  0
 27 31  4  0  0  0  0
 28 29  4  0  0  0  0
 29 30  4  0  0  0  0
 30 31  4  0  0  0  0
 31 32  1  0  0  0  0
M  END
>  <Name_Molregno>
610363

>  <DOPAMINE D2>
6.73

>  <DOPAMINE D3>
9.03

$$$$
610366
  Marvin  02231216192D 0   1.00000     0.00000     0

 33 37  0  0  1  0  0  0  0  0999 V2000
    4.2482   -0.2969    0.0000 S   0  0  0  0  0  0  0  0  0
    3.8357   -1.0113    0.0000 C   0  0  0  0  0  0  0  0  0
    3.0107   -1.0113    0.0000 C   0  0  0  0  0  0  0  0  0
    2.5982   -0.2969    0.0000 C   0  0  0  0  0  0  0  0  0
    1.7732   -0.2969    0.0000 N   0  0  0  0  0  0  0  0  0
    1.2883   -0.9643    0.0000 C   0  0  0  0  0  0  0  0  0
    0.5037   -0.7094    0.0000 C   0  0  0  0  0  0  0  0  0
    0.5037    0.1156    0.0000 C   0  0  0  0  0  0  0  0  0
   -0.2108   -0.2969    0.0000 C   0  0  0  0  0  0  0  0  0
    1.2883    0.3706    0.0000 C   0  0  0  0  0  0  0  0  0
    0.1681   -1.4630    0.0000 C   0  0  0  0  0  0  0  0  0
    0.6530   -2.1305    0.0000 C   0  0  0  0  0  0  0  0  0
    0.3175   -2.8842    0.0000 C   0  0  0  0  0  0  0  0  0
    0.8024   -3.5516    0.0000 O   0  0  0  0  0  0  0  0  0
    0.4668   -4.3053    0.0000 C   0  0  0  0  0  0  0  0  0
    0.1313   -5.0589    0.0000 F   0  0  0  0  0  0  0  0  0
    1.2205   -4.6408    0.0000 F   0  0  0  0  0  0  0  0  0
   -0.2868   -3.9697    0.0000 F   0  0  0  0  0  0  0  0  0
   -0.5030   -2.9704    0.0000 C   0  0  0  0  0  0  0  0  0
   -0.9879   -2.3030    0.0000 C   0  0  0  0  0  0  0  0  0
   -0.6524   -1.5493    0.0000 C   0  0  0  0  0  0  0  0  0
    3.8357    0.4176    0.0000 C   0  0  0  0  0  0  0  0  0
    3.0152    0.5038    0.0000 N   0  0  0  0  0  0  0  0  0
    2.8437    1.3108    0.0000 N   0  0  0  0  0  0  0  0  0
    3.5582    1.7233    0.0000 C   0  0  0  0  0  0  0  0  0
    4.1713    1.1713    0.0000 N   0  0  0  0  0  0  0  0  0
    4.9782    1.3428    0.0000 C   0  0  0  0  0  0  0  0  0
    3.6444    2.5438    0.0000 C   0  0  0  0  0  0  0  0  0
    3.0313    3.0958    0.0000 O   0  0  0  0  0  0  0  0  0
    3.3669    3.8495    0.0000 C   0  0  0  0  0  0  0  0  0
    4.1873    3.7633    0.0000 N   0  0  0  0  0  0  0  0  0
    4.3589    2.9563    0.0000 C   0  0  0  0  0  0  0  0  0
    5.1125    2.6207    0.0000 C   0  0  0  0  0  0  0  0  0
  1  2  1  0  0  0  0
  1 22  1  0  0  0  0
  2  3  1  0  0  0  0
  3  4  1  0  0  0  0
  4  5  1  0  0  0  0
  5  6  1  0  0  0  0
  5 10  1  0  0  0  0
  6  7  1  0  0  0  0
  7  8  1  0  0  0  0
  7  9  1  0  0  0  0
  7 11  1  0  0  0  0
  8  9  1  0  0  0  0
  8 10  1  0  0  0  0
 11 12  4  0  0  0  0
 11 21  4  0  0  0  0
 12 13  4  0  0  0  0
 13 14  1  0  0  0  0
 13 19  4  0  0  0  0
 14 15  1  0  0  0  0
 15 16  1  0  0  0  0
 15 17  1  0  0  0  0
 15 18  1  0  0  0  0
 19 20  4  0  0  0  0
 20 21  4  0  0  0  0
 22 23  4  0  0  0  0
 22 26  4  0  0  0  0
 23 24  4  0  0  0  0
 24 25  4  0  0  0  0
 25 26  4  0  0  0  0
 25 28  1  0  0  0  0
 26 27  1  0  0  0  0
 28 29  4  0  0  0  0
 28 32  4  0  0  0  0
 29 30  4  0  0  0  0
 30 31  4  0  0  0  0
 31 32  4  0  0  0  0
 32 33  1  0  0  0  0
M  END
>  <Name_Molregno>
610366

>  <DOPAMINE D2>
6.87

>  <DOPAMINE D3>
8.37

$$$$
610443
  Marvin  02231216192D 0   1.00000     0.00000     0

 29 33  0  0  1  0  0  0  0  0999 V2000
    0.3012   -5.2902    0.0000 Br  0  0  0  0  0  0  0  0  0
    0.6367   -4.5365    0.0000 C   0  0  0  0  0  0  0  0  0
    0.1518   -3.8691    0.0000 C   0  0  0  0  0  0  0  0  0
    0.4873   -3.1154    0.0000 C   0  0  0  0  0  0  0  0  0
    1.3078   -3.0292    0.0000 C   0  0  0  0  0  0  0  0  0
    1.7927   -3.6966    0.0000 C   0  0  0  0  0  0  0  0  0
    1.4572   -4.4503    0.0000 C   0  0  0  0  0  0  0  0  0
    1.6434   -2.2755    0.0000 C   0  0  0  0  0  0  0  0  0
    1.6434   -1.4505    0.0000 C   0  0  0  0  0  0  0  0  0
    0.9289   -1.8630    0.0000 C   0  0  0  0  0  0  0  0  0
    2.4280   -1.1955    0.0000 C   0  0  0  0  0  0  0  0  0
    2.9129   -1.8630    0.0000 N   0  0  0  0  0  0  0  0  0
    2.4280   -2.5304    0.0000 C   0  0  0  0  0  0  0  0  0
    3.7379   -1.8630    0.0000 C   0  0  0  0  0  0  0  0  0
    4.1504   -2.5775    0.0000 C   0  0  0  0  0  0  0  0  0
    4.9754   -2.5775    0.0000 C   0  0  0  0  0  0  0  0  0
    5.3879   -3.2919    0.0000 S   0  0  0  0  0  0  0  0  0
    6.2129   -3.2919    0.0000 C   0  0  0  0  0  0  0  0  0
    6.6979   -2.6245    0.0000 N   0  0  0  0  0  0  0  0  0
    7.4825   -2.8794    0.0000 N   0  0  0  0  0  0  0  0  0
    7.4825   -3.7044    0.0000 C   0  0  0  0  0  0  0  0  0
    6.6979   -3.9594    0.0000 N   0  0  0  0  0  0  0  0  0
    6.4429   -4.7440    0.0000 C   0  0  0  0  0  0  0  0  0
    8.1499   -4.1893    0.0000 C   0  0  0  0  0  0  0  0  0
    8.9345   -3.9344    0.0000 O   0  0  0  0  0  0  0  0  0
    9.4195   -4.6018    0.0000 C   0  0  0  0  0  0  0  0  0
    8.9345   -5.2693    0.0000 N   0  0  0  0  0  0  0  0  0
    8.1499   -5.0143    0.0000 C   0  0  0  0  0  0  0  0  0
    7.4825   -5.4993    0.0000 C   0  0  0  0  0  0  0  0  0
  1  2  1  0  0  0  0
  2  3  4  0  0  0  0
  2  7  4  0  0  0  0
  3  4  4  0  0  0  0
  4  5  4  0  0  0  0
  5  6  4  0  0  0  0
  5  8  1  0  0  0  0
  6  7  4  0  0  0  0
  8  9  1  0  0  0  0
  8 10  1  0  0  0  0
  8 13  1  0  0  0  0
  9 10  1  0  0  0  0
  9 11  1  0  0  0  0
 11 12  1  0  0  0  0
 12 13  1  0  0  0  0
 12 14  1  0  0  0  0
 14 15  1  0  0  0  0
 15 16  1  0  0  0  0
 16 17  1  0  0  0  0
 17 18  1  0  0  0  0
 18 19  4  0  0  0  0
 18 22  4  0  0  0  0
 19 20  4  0  0  0  0
 20 21  4  0  0  0  0
 21 22  4  0  0  0  0
 21 24  1  0  0  0  0
 22 23  1  0  0  0  0
 24 25  4  0  0  0  0
 24 28  4  0  0  0  0
 25 26  4  0  0  0  0
 26 27  4  0  0  0  0
 27 28  4  0  0  0  0
 28 29  1  0  0  0  0
M  END
>  <Name_Molregno>
610443

>  <DOPAMINE D2>
6.57

>  <DOPAMINE D3>
8.17

$$$$
610444
  Marvin  02231216192D 0   1.00000     0.00000     0

 30 34  0  0  1  0  0  0  0  0999 V2000
    2.9784    0.3591    0.0000 S   0  0  0  0  0  0  0  0  0
    2.5659   -0.3554    0.0000 C   0  0  0  0  0  0  0  0  0
    2.9784   -1.0699    0.0000 C   0  0  0  0  0  0  0  0  0
    2.5659   -1.7843    0.0000 C   0  0  0  0  0  0  0  0  0
    1.7409   -1.7843    0.0000 N   0  0  0  0  0  0  0  0  0
    1.2560   -2.4518    0.0000 C   0  0  0  0  0  0  0  0  0
    0.4714   -2.1968    0.0000 C   0  0  0  0  0  0  0  0  0
    0.4714   -1.3718    0.0000 C   0  0  0  0  0  0  0  0  0
   -0.2431   -1.7843    0.0000 C   0  0  0  0  0  0  0  0  0
    1.2560   -1.1169    0.0000 C   0  0  0  0  0  0  0  0  0
    0.1358   -2.9505    0.0000 C   0  0  0  0  0  0  0  0  0
    0.6207   -3.6180    0.0000 C   0  0  0  0  0  0  0  0  0
    0.2852   -4.3716    0.0000 C   0  0  0  0  0  0  0  0  0
   -0.5353   -4.4579    0.0000 C   0  0  0  0  0  0  0  0  0
   -0.8709   -5.2115    0.0000 O   0  0  0  0  0  0  0  0  0
   -1.6913   -5.2978    0.0000 C   0  0  0  0  0  0  0  0  0
   -1.0202   -3.7904    0.0000 C   0  0  0  0  0  0  0  0  0
   -0.6847   -3.0368    0.0000 C   0  0  0  0  0  0  0  0  0
    2.5659    1.0735    0.0000 C   0  0  0  0  0  0  0  0  0
    1.7454    1.1598    0.0000 N   0  0  0  0  0  0  0  0  0
    1.5739    1.9668    0.0000 N   0  0  0  0  0  0  0  0  0
    2.2884    2.3793    0.0000 C   0  0  0  0  0  0  0  0  0
    2.9015    1.8272    0.0000 N   0  0  0  0  0  0  0  0  0
    3.7084    1.9987    0.0000 C   0  0  0  0  0  0  0  0  0
    2.3746    3.1997    0.0000 C   0  0  0  0  0  0  0  0  0
    1.7615    3.7518    0.0000 O   0  0  0  0  0  0  0  0  0
    2.0971    4.5054    0.0000 C   0  0  0  0  0  0  0  0  0
    2.9175    4.4192    0.0000 N   0  0  0  0  0  0  0  0  0
    3.0891    3.6122    0.0000 C   0  0  0  0  0  0  0  0  0
    3.8428    3.2767    0.0000 C   0  0  0  0  0  0  0  0  0
  1  2  1  0  0  0  0
  1 19  1  0  0  0  0
  2  3  1  0  0  0  0
  3  4  1  0  0  0  0
  4  5  1  0  0  0  0
  5  6  1  0  0  0  0
  5 10  1  0  0  0  0
  6  7  1  0  0  0  0
  7  8  1  0  0  0  0
  7  9  1  0  0  0  0
  7 11  1  0  0  0  0
  8  9  1  0  0  0  0
  8 10  1  0  0  0  0
 11 12  4  0  0  0  0
 11 18  4  0  0  0  0
 12 13  4  0  0  0  0
 13 14  4  0  0  0  0
 14 15  1  0  0  0  0
 14 17  4  0  0  0  0
 15 16  1  0  0  0  0
 17 18  4  0  0  0  0
 19 20  4  0  0  0  0
 19 23  4  0  0  0  0
 20 21  4  0  0  0  0
 21 22  4  0  0  0  0
 22 23  4  0  0  0  0
 22 25  1  0  0  0  0
 23 24  1  0  0  0  0
 25 26  4  0  0  0  0
 25 29  4  0  0  0  0
 26 27  4  0  0  0  0
 27 28  4  0  0  0  0
 28 29  4  0  0  0  0
 29 30  1  0  0  0  0
M  END
>  <Name_Molregno>
610444

>  <DOPAMINE D2>
6.43

>  <DOPAMINE D3>
8

$$$$
610562
  Marvin  02231216192D 0   1.00000     0.00000     0

 30 34  0  0  1  0  0  0  0  0999 V2000
    2.4509   -0.1290    0.0000 S   0  0  0  0  0  0  0  0  0
    2.0384    0.5854    0.0000 C   0  0  0  0  0  0  0  0  0
    1.2134    0.5854    0.0000 C   0  0  0  0  0  0  0  0  0
    0.8009    1.2999    0.0000 C   0  0  0  0  0  0  0  0  0
   -0.0241    1.2999    0.0000 N   0  0  0  0  0  0  0  0  0
   -0.5090    0.6325    0.0000 C   0  0  0  0  0  0  0  0  0
   -1.2936    0.8874    0.0000 C   0  0  0  0  0  0  0  0  0
   -1.2936    1.7124    0.0000 C   0  0  0  0  0  0  0  0  0
   -2.0081    1.2999    0.0000 C   0  0  0  0  0  0  0  0  0
   -0.5090    1.9674    0.0000 C   0  0  0  0  0  0  0  0  0
   -1.6292    0.1337    0.0000 C   0  0  0  0  0  0  0  0  0
   -1.1442   -0.5337    0.0000 C   0  0  0  0  0  0  0  0  0
   -1.4798   -1.2874    0.0000 C   0  0  0  0  0  0  0  0  0
   -0.9949   -1.9548    0.0000 O   0  0  0  0  0  0  0  0  0
   -1.3304   -2.7085    0.0000 C   0  0  0  0  0  0  0  0  0
   -2.3003   -1.3736    0.0000 C   0  0  0  0  0  0  0  0  0
   -2.7852   -0.7062    0.0000 C   0  0  0  0  0  0  0  0  0
   -2.4496    0.0475    0.0000 C   0  0  0  0  0  0  0  0  0
    3.2759   -0.1290    0.0000 C   0  0  0  0  0  0  0  0  0
    3.7609    0.5384    0.0000 N   0  0  0  0  0  0  0  0  0
    4.5455    0.2835    0.0000 N   0  0  0  0  0  0  0  0  0
    4.5455   -0.5415    0.0000 C   0  0  0  0  0  0  0  0  0
    3.7609   -0.7965    0.0000 N   0  0  0  0  0  0  0  0  0
    3.5059   -1.5811    0.0000 C   0  0  0  0  0  0  0  0  0
    5.2129   -1.0265    0.0000 C   0  0  0  0  0  0  0  0  0
    5.9976   -0.7715    0.0000 O   0  0  0  0  0  0  0  0  0
    6.4825   -1.4390    0.0000 C   0  0  0  0  0  0  0  0  0
    5.9976   -2.1064    0.0000 N   0  0  0  0  0  0  0  0  0
    5.2129   -1.8515    0.0000 C   0  0  0  0  0  0  0  0  0
    4.5455   -2.3364    0.0000 C   0  0  0  0  0  0  0  0  0
  1  2  1  0  0  0  0
  1 19  1  0  0  0  0
  2  3  1  0  0  0  0
  3  4  1  0  0  0  0
  4  5  1  0  0  0  0
  5  6  1  0  0  0  0
  5 10  1  0  0  0  0
  6  7  1  0  0  0  0
  7  8  1  0  0  0  0
  7  9  1  0  0  0  0
  7 11  1  0  0  0  0
  8  9  1  0  0  0  0
  8 10  1  0  0  0  0
 11 12  4  0  0  0  0
 11 18  4  0  0  0  0
 12 13  4  0  0  0  0
 13 14  1  0  0  0  0
 13 16  4  0  0  0  0
 14 15  1  0  0  0  0
 16 17  4  0  0  0  0
 17 18  4  0  0  0  0
 19 20  4  0  0  0  0
 19 23  4  0  0  0  0
 20 21  4  0  0  0  0
 21 22  4  0  0  0  0
 22 23  4  0  0  0  0
 22 25  1  0  0  0  0
 23 24  1  0  0  0  0
 25 26  4  0  0  0  0
 25 29  4  0  0  0  0
 26 27  4  0  0  0  0
 27 28  4  0  0  0  0
 28 29  4  0  0  0  0
 29 30  1  0  0  0  0
M  END
>  <Name_Molregno>
610562

>  <DOPAMINE D2>
6.57

>  <DOPAMINE D3>
7.9

$$$$
610663
  Marvin  02231216192D 0   1.00000     0.00000     0

 29 33  0  0  1  0  0  0  0  0999 V2000
    0.3012   -5.2902    0.0000 Cl  0  0  0  0  0  0  0  0  0
    0.6367   -4.5365    0.0000 C   0  0  0  0  0  0  0  0  0
    0.1518   -3.8691    0.0000 C   0  0  0  0  0  0  0  0  0
    0.4873   -3.1154    0.0000 C   0  0  0  0  0  0  0  0  0
    1.3078   -3.0292    0.0000 C   0  0  0  0  0  0  0  0  0
    1.7927   -3.6966    0.0000 C   0  0  0  0  0  0  0  0  0
    1.4572   -4.4503    0.0000 C   0  0  0  0  0  0  0  0  0
    1.6434   -2.2755    0.0000 C   0  0  0  0  0  0  0  0  0
    1.6434   -1.4505    0.0000 C   0  0  0  0  0  0  0  0  0
    0.9289   -1.8630    0.0000 C   0  0  0  0  0  0  0  0  0
    2.4280   -1.1955    0.0000 C   0  0  0  0  0  0  0  0  0
    2.9129   -1.8630    0.0000 N   0  0  0  0  0  0  0  0  0
    2.4280   -2.5304    0.0000 C   0  0  0  0  0  0  0  0  0
    3.7379   -1.8630    0.0000 C   0  0  0  0  0  0  0  0  0
    4.1504   -2.5775    0.0000 C   0  0  0  0  0  0  0  0  0
    4.9754   -2.5775    0.0000 C   0  0  0  0  0  0  0  0  0
    5.3879   -3.2919    0.0000 S   0  0  0  0  0  0  0  0  0
    6.2129   -3.2919    0.0000 C   0  0  0  0  0  0  0  0  0
    6.6979   -2.6245    0.0000 N   0  0  0  0  0  0  0  0  0
    7.4825   -2.8794    0.0000 N   0  0  0  0  0  0  0  0  0
    7.4825   -3.7044    0.0000 C   0  0  0  0  0  0  0  0  0
    6.6979   -3.9594    0.0000 N   0  0  0  0  0  0  0  0  0
    6.4429   -4.7440    0.0000 C   0  0  0  0  0  0  0  0  0
    8.1499   -4.1893    0.0000 C   0  0  0  0  0  0  0  0  0
    8.9345   -3.9344    0.0000 O   0  0  0  0  0  0  0  0  0
    9.4195   -4.6018    0.0000 C   0  0  0  0  0  0  0  0  0
    8.9345   -5.2693    0.0000 N   0  0  0  0  0  0  0  0  0
    8.1499   -5.0143    0.0000 C   0  0  0  0  0  0  0  0  0
    7.4825   -5.4993    0.0000 C   0  0  0  0  0  0  0  0  0
  1  2  1  0  0  0  0
  2  3  4  0  0  0  0
  2  7  4  0  0  0  0
  3  4  4  0  0  0  0
  4  5  4  0  0  0  0
  5  6  4  0  0  0  0
  5  8  1  0  0  0  0
  6  7  4  0  0  0  0
  8  9  1  0  0  0  0
  8 10  1  0  0  0  0
  8 13  1  0  0  0  0
  9 10  1  0  0  0  0
  9 11  1  0  0  0  0
 11 12  1  0  0  0  0
 12 13  1  0  0  0  0
 12 14  1  0  0  0  0
 14 15  1  0  0  0  0
 15 16  1  0  0  0  0
 16 17  1  0  0  0  0
 17 18  1  0  0  0  0
 18 19  4  0  0  0  0
 18 22  4  0  0  0  0
 19 20  4  0  0  0  0
 20 21  4  0  0  0  0
 21 22  4  0  0  0  0
 21 24  1  0  0  0  0
 22 23  1  0  0  0  0
 24 25  4  0  0  0  0
 24 28  4  0  0  0  0
 25 26  4  0  0  0  0
 26 27  4  0  0  0  0
 27 28  4  0  0  0  0
 28 29  1  0  0  0  0
M  END
>  <Name_Molregno>
610663

>  <DOPAMINE D2>
6.5

>  <DOPAMINE D3>
8.2

$$$$
610734
  Marvin  02231216192D 0   1.00000     0.00000     0

 29 33  0  0  1  0  0  0  0  0999 V2000
    0.5319   -0.5573    0.0000 Cl  0  0  0  0  0  0  0  0  0
    1.3524   -0.4711    0.0000 C   0  0  0  0  0  0  0  0  0
    1.6879    0.2826    0.0000 C   0  0  0  0  0  0  0  0  0
    2.5084    0.3688    0.0000 C   0  0  0  0  0  0  0  0  0
    2.9933   -0.2986    0.0000 C   0  0  0  0  0  0  0  0  0
    2.6578   -1.0523    0.0000 C   0  0  0  0  0  0  0  0  0
    1.8373   -1.1385    0.0000 C   0  0  0  0  0  0  0  0  0
    2.8440    1.1225    0.0000 C   0  0  0  0  0  0  0  0  0
    2.8440    1.9475    0.0000 C   0  0  0  0  0  0  0  0  0
    2.1295    1.5350    0.0000 C   0  0  0  0  0  0  0  0  0
    3.6286    2.2024    0.0000 C   0  0  0  0  0  0  0  0  0
    4.1135    1.5350    0.0000 N   0  0  0  0  0  0  0  0  0
    3.6286    0.8675    0.0000 C   0  0  0  0  0  0  0  0  0
    4.9385    1.5350    0.0000 C   0  0  0  0  0  0  0  0  0
    5.3510    0.8205    0.0000 C   0  0  0  0  0  0  0  0  0
    6.1760    0.8205    0.0000 C   0  0  0  0  0  0  0  0  0
    6.5885    0.1060    0.0000 S   0  0  0  0  0  0  0  0  0
    7.4135    0.1060    0.0000 C   0  0  0  0  0  0  0  0  0
    7.8984    0.7735    0.0000 N   0  0  0  0  0  0  0  0  0
    8.6831    0.5185    0.0000 N   0  0  0  0  0  0  0  0  0
    8.6831   -0.3065    0.0000 C   0  0  0  0  0  0  0  0  0
    7.8984   -0.5614    0.0000 N   0  0  0  0  0  0  0  0  0
    7.6435   -1.3460    0.0000 C   0  0  0  0  0  0  0  0  0
    9.3505   -0.7914    0.0000 C   0  0  0  0  0  0  0  0  0
   10.1351   -0.5364    0.0000 O   0  0  0  0  0  0  0  0  0
   10.6201   -1.2039    0.0000 C   0  0  0  0  0  0  0  0  0
   10.1351   -1.8713    0.0000 N   0  0  0  0  0  0  0  0  0
    9.3505   -1.6164    0.0000 C   0  0  0  0  0  0  0  0  0
    8.6831   -2.1013    0.0000 C   0  0  0  0  0  0  0  0  0
  1  2  1  0  0  0  0
  2  3  4  0  0  0  0
  2  7  4  0  0  0  0
  3  4  4  0  0  0  0
  4  5  4  0  0  0  0
  4  8  1  0  0  0  0
  5  6  4  0  0  0  0
  6  7  4  0  0  0  0
  8  9  1  0  0  0  0
  8 10  1  0  0  0  0
  8 13  1  0  0  0  0
  9 10  1  0  0  0  0
  9 11  1  0  0  0  0
 11 12  1  0  0  0  0
 12 13  1  0  0  0  0
 12 14  1  0  0  0  0
 14 15  1  0  0  0  0
 15 16  1  0  0  0  0
 16 17  1  0  0  0  0
 17 18  1  0  0  0  0
 18 19  4  0  0  0  0
 18 22  4  0  0  0  0
 19 20  4  0  0  0  0
 20 21  4  0  0  0  0
 21 22  4  0  0  0  0
 21 24  1  0  0  0  0
 22 23  1  0  0  0  0
 24 25  4  0  0  0  0
 24 28  4  0  0  0  0
 25 26  4  0  0  0  0
 26 27  4  0  0  0  0
 27 28  4  0  0  0  0
 28 29  1  0  0  0  0
M  END
>  <Name_Molregno>
610734

>  <DOPAMINE D2>
6.87

>  <DOPAMINE D3>
8.43

$$$$
610735
  Marvin  02231216192D 0   1.00000     0.00000     0

 29 33  0  0  1  0  0  0  0  0999 V2000
    2.1845   -0.2985    0.0000 S   0  0  0  0  0  0  0  0  0
    1.7720    0.4160    0.0000 C   0  0  0  0  0  0  0  0  0
    0.9470    0.4160    0.0000 C   0  0  0  0  0  0  0  0  0
    0.5345    1.1304    0.0000 C   0  0  0  0  0  0  0  0  0
   -0.2905    1.1304    0.0000 N   0  0  0  0  0  0  0  0  0
   -0.7755    0.4630    0.0000 C   0  0  0  0  0  0  0  0  0
   -1.5601    0.7179    0.0000 C   0  0  0  0  0  0  0  0  0
   -1.5601    1.5429    0.0000 C   0  0  0  0  0  0  0  0  0
   -2.2745    1.1304    0.0000 C   0  0  0  0  0  0  0  0  0
   -0.7755    1.7979    0.0000 C   0  0  0  0  0  0  0  0  0
   -1.8956   -0.0357    0.0000 C   0  0  0  0  0  0  0  0  0
   -1.4107   -0.7032    0.0000 C   0  0  0  0  0  0  0  0  0
   -1.7463   -1.4568    0.0000 C   0  0  0  0  0  0  0  0  0
   -2.5668   -1.5431    0.0000 C   0  0  0  0  0  0  0  0  0
   -2.9023   -2.2968    0.0000 F   0  0  0  0  0  0  0  0  0
   -3.0517   -0.8756    0.0000 C   0  0  0  0  0  0  0  0  0
   -2.7161   -0.1220    0.0000 C   0  0  0  0  0  0  0  0  0
    3.0095   -0.2985    0.0000 C   0  0  0  0  0  0  0  0  0
    3.4944    0.3689    0.0000 N   0  0  0  0  0  0  0  0  0
    4.2790    0.1140    0.0000 N   0  0  0  0  0  0  0  0  0
    4.2790   -0.7110    0.0000 C   0  0  0  0  0  0  0  0  0
    3.4944   -0.9659    0.0000 N   0  0  0  0  0  0  0  0  0
    3.2395   -1.7506    0.0000 C   0  0  0  0  0  0  0  0  0
    4.9465   -1.1959    0.0000 C   0  0  0  0  0  0  0  0  0
    5.7311   -0.9410    0.0000 O   0  0  0  0  0  0  0  0  0
    6.2160   -1.6084    0.0000 C   0  0  0  0  0  0  0  0  0
    5.7311   -2.2759    0.0000 N   0  0  0  0  0  0  0  0  0
    4.9465   -2.0209    0.0000 C   0  0  0  0  0  0  0  0  0
    4.2790   -2.5058    0.0000 C   0  0  0  0  0  0  0  0  0
  1  2  1  0  0  0  0
  1 18  1  0  0  0  0
  2  3  1  0  0  0  0
  3  4  1  0  0  0  0
  4  5  1  0  0  0  0
  5  6  1  0  0  0  0
  5 10  1  0  0  0  0
  6  7  1  0  0  0  0
  7  8  1  0  0  0  0
  7  9  1  0  0  0  0
  7 11  1  0  0  0  0
  8  9  1  0  0  0  0
  8 10  1  0  0  0  0
 11 12  4  0  0  0  0
 11 17  4  0  0  0  0
 12 13  4  0  0  0  0
 13 14  4  0  0  0  0
 14 15  1  0  0  0  0
 14 16  4  0  0  0  0
 16 17  4  0  0  0  0
 18 19  4  0  0  0  0
 18 22  4  0  0  0  0
 19 20  4  0  0  0  0
 20 21  4  0  0  0  0
 21 22  4  0  0  0  0
 21 24  1  0  0  0  0
 22 23  1  0  0  0  0
 24 25  4  0  0  0  0
 24 28  4  0  0  0  0
 25 26  4  0  0  0  0
 26 27  4  0  0  0  0
 27 28  4  0  0  0  0
 28 29  1  0  0  0  0
M  END
>  <Name_Molregno>
610735

>  <DOPAMINE D2>
6.4

>  <DOPAMINE D3>
7.53

$$$$
610834
  Marvin  02231216192D 0   1.00000     0.00000     0

 29 33  0  0  1  0  0  0  0  0999 V2000
    2.1445   -0.2170    0.0000 S   0  0  0  0  0  0  0  0  0
    1.7320    0.4975    0.0000 C   0  0  0  0  0  0  0  0  0
    0.9070    0.4975    0.0000 C   0  0  0  0  0  0  0  0  0
    0.4945    1.2119    0.0000 C   0  0  0  0  0  0  0  0  0
   -0.3305    1.2119    0.0000 N   0  0  0  0  0  0  0  0  0
   -0.8154    0.5445    0.0000 C   0  0  0  0  0  0  0  0  0
   -1.6000    0.7994    0.0000 C   0  0  0  0  0  0  0  0  0
   -1.6000    1.6244    0.0000 C   0  0  0  0  0  0  0  0  0
   -2.3145    1.2119    0.0000 C   0  0  0  0  0  0  0  0  0
   -0.8154    1.8794    0.0000 C   0  0  0  0  0  0  0  0  0
   -1.9356    0.0458    0.0000 C   0  0  0  0  0  0  0  0  0
   -1.4507   -0.6217    0.0000 C   0  0  0  0  0  0  0  0  0
   -1.7862   -1.3754    0.0000 C   0  0  0  0  0  0  0  0  0
   -1.3013   -2.0428    0.0000 F   0  0  0  0  0  0  0  0  0
   -2.6067   -1.4616    0.0000 C   0  0  0  0  0  0  0  0  0
   -3.0916   -0.7942    0.0000 C   0  0  0  0  0  0  0  0  0
   -2.7561   -0.0405    0.0000 C   0  0  0  0  0  0  0  0  0
    2.9695   -0.2170    0.0000 C   0  0  0  0  0  0  0  0  0
    3.4544    0.4504    0.0000 N   0  0  0  0  0  0  0  0  0
    4.2391    0.1955    0.0000 N   0  0  0  0  0  0  0  0  0
    4.2391   -0.6295    0.0000 C   0  0  0  0  0  0  0  0  0
    3.4544   -0.8845    0.0000 N   0  0  0  0  0  0  0  0  0
    3.1995   -1.6691    0.0000 C   0  0  0  0  0  0  0  0  0
    4.9065   -1.1144    0.0000 C   0  0  0  0  0  0  0  0  0
    5.6911   -0.8595    0.0000 O   0  0  0  0  0  0  0  0  0
    6.1761   -1.5269    0.0000 C   0  0  0  0  0  0  0  0  0
    5.6911   -2.1944    0.0000 N   0  0  0  0  0  0  0  0  0
    4.9065   -1.9394    0.0000 C   0  0  0  0  0  0  0  0  0
    4.2391   -2.4244    0.0000 C   0  0  0  0  0  0  0  0  0
  1  2  1  0  0  0  0
  1 18  1  0  0  0  0
  2  3  1  0  0  0  0
  3  4  1  0  0  0  0
  4  5  1  0  0  0  0
  5  6  1  0  0  0  0
  5 10  1  0  0  0  0
  6  7  1  0  0  0  0
  7  8  1  0  0  0  0
  7  9  1  0  0  0  0
  7 11  1  0  0  0  0
  8  9  1  0  0  0  0
  8 10  1  0  0  0  0
 11 12  4  0  0  0  0
 11 17  4  0  0  0  0
 12 13  4  0  0  0  0
 13 14  1  0  0  0  0
 13 15  4  0  0  0  0
 15 16  4  0  0  0  0
 16 17  4  0  0  0  0
 18 19  4  0  0  0  0
 18 22  4  0  0  0  0
 19 20  4  0  0  0  0
 20 21  4  0  0  0  0
 21 22  4  0  0  0  0
 21 24  1  0  0  0  0
 22 23  1  0  0  0  0
 24 25  4  0  0  0  0
 24 28  4  0  0  0  0
 25 26  4  0  0  0  0
 26 27  4  0  0  0  0
 27 28  4  0  0  0  0
 28 29  1  0  0  0  0
M  END
>  <Name_Molregno>
610834

>  <DOPAMINE D2>
6.57

>  <DOPAMINE D3>
7.67

$$$$
610959
  Marvin  02231216192D 0   1.00000     0.00000     0

 32 36  0  0  1  0  0  0  0  0999 V2000
    2.8946   -0.0970    0.0000 S   0  0  0  0  0  0  0  0  0
    2.4821    0.6175    0.0000 C   0  0  0  0  0  0  0  0  0
    1.6571    0.6175    0.0000 C   0  0  0  0  0  0  0  0  0
    1.2446    1.3319    0.0000 C   0  0  0  0  0  0  0  0  0
    0.4196    1.3319    0.0000 N   0  0  0  0  0  0  0  0  0
   -0.0653    0.6645    0.0000 C   0  0  0  0  0  0  0  0  0
   -0.8500    0.9194    0.0000 C   0  0  0  0  0  0  0  0  0
   -0.8500    1.7444    0.0000 C   0  0  0  0  0  0  0  0  0
   -1.5644    1.3319    0.0000 C   0  0  0  0  0  0  0  0  0
   -0.0653    1.9994    0.0000 C   0  0  0  0  0  0  0  0  0
   -1.1855    0.1658    0.0000 C   0  0  0  0  0  0  0  0  0
   -0.7006   -0.5017    0.0000 C   0  0  0  0  0  0  0  0  0
   -1.0361   -1.2554    0.0000 C   0  0  0  0  0  0  0  0  0
   -1.8566   -1.3416    0.0000 C   0  0  0  0  0  0  0  0  0
   -2.3415   -0.6741    0.0000 C   0  0  0  0  0  0  0  0  0
   -2.0060    0.0795    0.0000 C   0  0  0  0  0  0  0  0  0
   -0.5512   -1.9228    0.0000 C   0  0  0  0  0  0  0  0  0
   -0.0663   -2.5902    0.0000 F   0  0  0  0  0  0  0  0  0
    0.1162   -1.4379    0.0000 F   0  0  0  0  0  0  0  0  0
   -1.2187   -2.4077    0.0000 F   0  0  0  0  0  0  0  0  0
    3.7196   -0.0970    0.0000 C   0  0  0  0  0  0  0  0  0
    4.2045    0.5704    0.0000 N   0  0  0  0  0  0  0  0  0
    4.9891    0.3155    0.0000 N   0  0  0  0  0  0  0  0  0
    4.9891   -0.5095    0.0000 C   0  0  0  0  0  0  0  0  0
    4.2045   -0.7644    0.0000 N   0  0  0  0  0  0  0  0  0
    3.9496   -1.5491    0.0000 C   0  0  0  0  0  0  0  0  0
    5.6566   -0.9944    0.0000 C   0  0  0  0  0  0  0  0  0
    6.4412   -0.7395    0.0000 O   0  0  0  0  0  0  0  0  0
    6.9261   -1.4069    0.0000 C   0  0  0  0  0  0  0  0  0
    6.4412   -2.0744    0.0000 N   0  0  0  0  0  0  0  0  0
    5.6566   -1.8194    0.0000 C   0  0  0  0  0  0  0  0  0
    4.9891   -2.3044    0.0000 C   0  0  0  0  0  0  0  0  0
  1  2  1  0  0  0  0
  1 21  1  0  0  0  0
  2  3  1  0  0  0  0
  3  4  1  0  0  0  0
  4  5  1  0  0  0  0
  5  6  1  0  0  0  0
  5 10  1  0  0  0  0
  6  7  1  0  0  0  0
  7  8  1  0  0  0  0
  7  9  1  0  0  0  0
  7 11  1  0  0  0  0
  8  9  1  0  0  0  0
  8 10  1  0  0  0  0
 11 12  4  0  0  0  0
 11 16  4  0  0  0  0
 12 13  4  0  0  0  0
 13 14  4  0  0  0  0
 13 17  1  0  0  0  0
 14 15  4  0  0  0  0
 15 16  4  0  0  0  0
 17 18  1  0  0  0  0
 17 19  1  0  0  0  0
 17 20  1  0  0  0  0
 21 22  4  0  0  0  0
 21 25  4  0  0  0  0
 22 23  4  0  0  0  0
 23 24  4  0  0  0  0
 24 25  4  0  0  0  0
 24 27  1  0  0  0  0
 25 26  1  0  0  0  0
 27 28  4  0  0  0  0
 27 31  4  0  0  0  0
 28 29  4  0  0  0  0
 29 30  4  0  0  0  0
 30 31  4  0  0  0  0
 31 32  1  0  0  0  0
M  END
>  <Name_Molregno>
610959

>  <DOPAMINE D2>
7.13

>  <DOPAMINE D3>
8.8

$$$$
610960
  Marvin  02231216192D 0   1.00000     0.00000     0

 32 36  0  0  1  0  0  0  0  0999 V2000
    2.9342   -0.5711    0.0000 S   0  0  0  0  0  0  0  0  0
    2.5217    0.1434    0.0000 C   0  0  0  0  0  0  0  0  0
    1.6967    0.1434    0.0000 C   0  0  0  0  0  0  0  0  0
    1.2842    0.8578    0.0000 C   0  0  0  0  0  0  0  0  0
    0.4592    0.8578    0.0000 N   0  0  0  0  0  0  0  0  0
   -0.0257    0.1904    0.0000 C   0  0  0  0  0  0  0  0  0
   -0.8103    0.4453    0.0000 C   0  0  0  0  0  0  0  0  0
   -0.8103    1.2703    0.0000 C   0  0  0  0  0  0  0  0  0
   -1.5248    0.8578    0.0000 C   0  0  0  0  0  0  0  0  0
   -0.0257    1.5253    0.0000 C   0  0  0  0  0  0  0  0  0
   -1.1459   -0.3083    0.0000 C   0  0  0  0  0  0  0  0  0
   -0.6610   -0.9758    0.0000 C   0  0  0  0  0  0  0  0  0
   -0.9965   -1.7294    0.0000 C   0  0  0  0  0  0  0  0  0
   -1.8170   -1.8157    0.0000 C   0  0  0  0  0  0  0  0  0
   -2.3019   -1.1482    0.0000 C   0  0  0  0  0  0  0  0  0
   -1.9664   -0.3946    0.0000 C   0  0  0  0  0  0  0  0  0
   -2.4513    0.2729    0.0000 C   0  0  0  0  0  0  0  0  0
   -2.9362    0.9403    0.0000 F   0  0  0  0  0  0  0  0  0
   -3.1187   -0.2120    0.0000 F   0  0  0  0  0  0  0  0  0
   -1.7839    0.7578    0.0000 F   0  0  0  0  0  0  0  0  0
    3.7592   -0.5711    0.0000 C   0  0  0  0  0  0  0  0  0
    4.2441    0.0963    0.0000 N   0  0  0  0  0  0  0  0  0
    5.0288   -0.1586    0.0000 N   0  0  0  0  0  0  0  0  0
    5.0288   -0.9836    0.0000 C   0  0  0  0  0  0  0  0  0
    4.2441   -1.2385    0.0000 N   0  0  0  0  0  0  0  0  0
    3.9892   -2.0232    0.0000 C   0  0  0  0  0  0  0  0  0
    5.6962   -1.4685    0.0000 C   0  0  0  0  0  0  0  0  0
    6.4808   -1.2136    0.0000 O   0  0  0  0  0  0  0  0  0
    6.9657   -1.8810    0.0000 C   0  0  0  0  0  0  0  0  0
    6.4808   -2.5485    0.0000 N   0  0  0  0  0  0  0  0  0
    5.6962   -2.2935    0.0000 C   0  0  0  0  0  0  0  0  0
    5.0288   -2.7784    0.0000 C   0  0  0  0  0  0  0  0  0
  1  2  1  0  0  0  0
  1 21  1  0  0  0  0
  2  3  1  0  0  0  0
  3  4  1  0  0  0  0
  4  5  1  0  0  0  0
  5  6  1  0  0  0  0
  5 10  1  0  0  0  0
  6  7  1  0  0  0  0
  7  8  1  0  0  0  0
  7  9  1  0  0  0  0
  7 11  1  0  0  0  0
  8  9  1  0  0  0  0
  8 10  1  0  0  0  0
 11 12  4  0  0  0  0
 11 16  4  0  0  0  0
 12 13  4  0  0  0  0
 13 14  4  0  0  0  0
 14 15  4  0  0  0  0
 15 16  4  0  0  0  0
 16 17  1  0  0  0  0
 17 18  1  0  0  0  0
 17 19  1  0  0  0  0
 17 20  1  0  0  0  0
 21 22  4  0  0  0  0
 21 25  4  0  0  0  0
 22 23  4  0  0  0  0
 23 24  4  0  0  0  0
 24 25  4  0  0  0  0
 24 27  1  0  0  0  0
 25 26  1  0  0  0  0
 27 28  4  0  0  0  0
 27 31  4  0  0  0  0
 28 29  4  0  0  0  0
 29 30  4  0  0  0  0
 30 31  4  0  0  0  0
 31 32  1  0  0  0  0
M  END
>  <Name_Molregno>
610960

>  <DOPAMINE D2>
6.1

>  <DOPAMINE D3>
7.5

$$$$
611046
  Marvin  02231216192D 0   1.00000     0.00000     0

 35 40  0  0  1  0  0  0  0  0999 V2000
    9.5450   -4.3543    0.0000 Cl  0  0  0  0  0  0  0  0  0
    8.9929   -3.7413    0.0000 C   0  0  0  0  0  0  0  0  0
    8.1860   -3.9128    0.0000 C   0  0  0  0  0  0  0  0  0
    7.6339   -3.2997    0.0000 C   0  0  0  0  0  0  0  0  0
    7.8889   -2.5151    0.0000 C   0  0  0  0  0  0  0  0  0
    8.6958   -2.3435    0.0000 C   0  0  0  0  0  0  0  0  0
    9.2479   -2.9566    0.0000 C   0  0  0  0  0  0  0  0  0
   10.0549   -2.7851    0.0000 Cl  0  0  0  0  0  0  0  0  0
    6.8270   -3.4712    0.0000 C   0  0  0  0  0  0  0  0  0
    6.1595   -3.9561    0.0000 C   0  0  0  0  0  0  0  0  0
    6.9132   -4.2917    0.0000 C   0  0  0  0  0  0  0  0  0
    5.4921   -3.4712    0.0000 C   0  0  0  0  0  0  0  0  0
    5.7470   -2.6866    0.0000 N   0  0  0  0  0  0  0  0  0
    6.5720   -2.6866    0.0000 C   0  0  0  0  0  0  0  0  0
    5.2621   -2.0192    0.0000 C   0  0  0  0  0  0  0  0  0
    5.5977   -1.2655    0.0000 C   0  0  0  0  0  0  0  0  0
    5.1127   -0.5980    0.0000 C   0  0  0  0  0  0  0  0  0
    5.4483    0.1556    0.0000 S   0  0  0  0  0  0  0  0  0
    4.9634    0.8231    0.0000 C   0  0  0  0  0  0  0  0  0
    4.1384    0.8231    0.0000 N   0  0  0  0  0  0  0  0  0
    3.8834    1.6077    0.0000 N   0  0  0  0  0  0  0  0  0
    4.5509    2.0926    0.0000 C   0  0  0  0  0  0  0  0  0
    5.2183    1.6077    0.0000 N   0  0  0  0  0  0  0  0  0
    6.0029    1.8626    0.0000 C   0  0  0  0  0  0  0  0  0
    4.5509    2.9176    0.0000 C   0  0  0  0  0  0  0  0  0
    5.2653    3.3301    0.0000 C   0  0  0  0  0  0  0  0  0
    5.2653    4.1551    0.0000 C   0  0  0  0  0  0  0  0  0
    5.9798    4.5676    0.0000 N   0  0  0  0  0  0  0  0  0
    6.6943    4.1551    0.0000 C   0  0  0  0  0  0  0  0  0
    6.6943    3.3301    0.0000 C   0  0  0  0  0  0  0  0  0
    5.9798    2.9176    0.0000 C   0  0  0  0  0  0  0  0  0
    7.4088    4.5676    0.0000 C   0  0  0  0  0  0  0  0  0
    4.5509    4.5676    0.0000 C   0  0  0  0  0  0  0  0  0
    3.8364    4.1551    0.0000 C   0  0  0  0  0  0  0  0  0
    3.8364    3.3301    0.0000 C   0  0  0  0  0  0  0  0  0
  1  2  1  0  0  0  0
  2  3  4  0  0  0  0
  2  7  4  0  0  0  0
  3  4  4  0  0  0  0
  4  5  4  0  0  0  0
  4  9  1  0  0  0  0
  5  6  4  0  0  0  0
  6  7  4  0  0  0  0
  7  8  1  0  0  0  0
  9 10  1  0  0  0  0
  9 11  1  0  0  0  0
  9 14  1  0  0  0  0
 10 11  1  0  0  0  0
 10 12  1  0  0  0  0
 12 13  1  0  0  0  0
 13 14  1  0  0  0  0
 13 15  1  0  0  0  0
 15 16  1  0  0  0  0
 16 17  1  0  0  0  0
 17 18  1  0  0  0  0
 18 19  1  0  0  0  0
 19 20  4  0  0  0  0
 19 23  4  0  0  0  0
 20 21  4  0  0  0  0
 21 22  4  0  0  0  0
 22 23  4  0  0  0  0
 22 25  1  0  0  0  0
 23 24  1  0  0  0  0
 25 26  4  0  0  0  0
 25 35  4  0  0  0  0
 26 27  4  0  0  0  0
 26 31  4  0  0  0  0
 27 28  4  0  0  0  0
 27 33  4  0  0  0  0
 28 29  4  0  0  0  0
 29 30  4  0  0  0  0
 29 32  1  0  0  0  0
 30 31  4  0  0  0  0
 33 34  4  0  0  0  0
 34 35  4  0  0  0  0
M  END
>  <Name_Molregno>
611046

>  <DOPAMINE D2>
5.87

>  <DOPAMINE D3>
7.37

$$$$
611047
  Marvin  02231216192D 0   1.00000     0.00000     0

 33 37  0  0  1  0  0  0  0  0999 V2000
    3.7118    0.3484    0.0000 S   0  0  0  0  0  0  0  0  0
    3.2993   -0.3661    0.0000 C   0  0  0  0  0  0  0  0  0
    3.7118   -1.0806    0.0000 C   0  0  0  0  0  0  0  0  0
    3.2993   -1.7951    0.0000 C   0  0  0  0  0  0  0  0  0
    2.4743   -1.7951    0.0000 N   0  0  0  0  0  0  0  0  0
    1.9893   -2.4625    0.0000 C   0  0  0  0  0  0  0  0  0
    1.2047   -2.2076    0.0000 C   0  0  0  0  0  0  0  0  0
    1.2047   -1.3826    0.0000 C   0  0  0  0  0  0  0  0  0
    0.4902   -1.7951    0.0000 C   0  0  0  0  0  0  0  0  0
    1.9893   -1.1276    0.0000 C   0  0  0  0  0  0  0  0  0
    0.8692   -2.9612    0.0000 C   0  0  0  0  0  0  0  0  0
    1.3541   -3.6287    0.0000 C   0  0  0  0  0  0  0  0  0
    1.0185   -4.3824    0.0000 C   0  0  0  0  0  0  0  0  0
    0.1980   -4.4686    0.0000 C   0  0  0  0  0  0  0  0  0
   -0.1375   -5.2223    0.0000 O   0  0  0  0  0  0  0  0  0
   -0.9580   -5.3085    0.0000 C   0  0  0  0  0  0  0  0  0
   -1.7785   -5.3947    0.0000 F   0  0  0  0  0  0  0  0  0
   -0.8718   -6.1290    0.0000 F   0  0  0  0  0  0  0  0  0
   -1.0442   -4.4880    0.0000 F   0  0  0  0  0  0  0  0  0
   -0.2869   -3.8011    0.0000 C   0  0  0  0  0  0  0  0  0
    0.0487   -3.0475    0.0000 C   0  0  0  0  0  0  0  0  0
    3.2993    1.0628    0.0000 C   0  0  0  0  0  0  0  0  0
    2.4788    1.1491    0.0000 N   0  0  0  0  0  0  0  0  0
    2.3072    1.9560    0.0000 N   0  0  0  0  0  0  0  0  0
    3.0217    2.3685    0.0000 C   0  0  0  0  0  0  0  0  0
    3.6348    1.8165    0.0000 N   0  0  0  0  0  0  0  0  0
    4.4418    1.9880    0.0000 C   0  0  0  0  0  0  0  0  0
    3.1080    3.1890    0.0000 C   0  0  0  0  0  0  0  0  0
    2.4949    3.7410    0.0000 O   0  0  0  0  0  0  0  0  0
    2.8304    4.4947    0.0000 C   0  0  0  0  0  0  0  0  0
    3.6509    4.4085    0.0000 N   0  0  0  0  0  0  0  0  0
    3.8224    3.6015    0.0000 C   0  0  0  0  0  0  0  0  0
    4.5761    3.2660    0.0000 C   0  0  0  0  0  0  0  0  0
  1  2  1  0  0  0  0
  1 22  1  0  0  0  0
  2  3  1  0  0  0  0
  3  4  1  0  0  0  0
  4  5  1  0  0  0  0
  5  6  1  0  0  0  0
  5 10  1  0  0  0  0
  6  7  1  0  0  0  0
  7  8  1  0  0  0  0
  7  9  1  0  0  0  0
  7 11  1  0  0  0  0
  8  9  1  0  0  0  0
  8 10  1  0  0  0  0
 11 12  4  0  0  0  0
 11 21  4  0  0  0  0
 12 13  4  0  0  0  0
 13 14  4  0  0  0  0
 14 15  1  0  0  0  0
 14 20  4  0  0  0  0
 15 16  1  0  0  0  0
 16 17  1  0  0  0  0
 16 18  1  0  0  0  0
 16 19  1  0  0  0  0
 20 21  4  0  0  0  0
 22 23  4  0  0  0  0
 22 26  4  0  0  0  0
 23 24  4  0  0  0  0
 24 25  4  0  0  0  0
 25 26  4  0  0  0  0
 25 28  1  0  0  0  0
 26 27  1  0  0  0  0
 28 29  4  0  0  0  0
 28 32  4  0  0  0  0
 29 30  4  0  0  0  0
 30 31  4  0  0  0  0
 31 32  4  0  0  0  0
 32 33  1  0  0  0  0
M  END
>  <Name_Molregno>
611047

>  <DOPAMINE D2>
6.4

>  <DOPAMINE D3>
8.33

$$$$
611048
  Marvin  02231216192D 0   1.00000     0.00000     0

 30 34  0  0  1  0  0  0  0  0999 V2000
    0.4790   -0.8561    0.0000 Cl  0  0  0  0  0  0  0  0  0
    1.2995   -0.7698    0.0000 C   0  0  0  0  0  0  0  0  0
    1.6350   -0.0162    0.0000 C   0  0  0  0  0  0  0  0  0
    2.4555    0.0701    0.0000 C   0  0  0  0  0  0  0  0  0
    2.9404   -0.5974    0.0000 C   0  0  0  0  0  0  0  0  0
    2.6049   -1.3511    0.0000 C   0  0  0  0  0  0  0  0  0
    1.7844   -1.4373    0.0000 C   0  0  0  0  0  0  0  0  0
    1.4488   -2.1910    0.0000 Cl  0  0  0  0  0  0  0  0  0
    2.7911    0.8237    0.0000 C   0  0  0  0  0  0  0  0  0
    2.7911    1.6487    0.0000 C   0  0  0  0  0  0  0  0  0
    2.0766    1.2362    0.0000 C   0  0  0  0  0  0  0  0  0
    3.5757    1.9037    0.0000 C   0  0  0  0  0  0  0  0  0
    4.0606    1.2362    0.0000 N   0  0  0  0  0  0  0  0  0
    3.5757    0.5688    0.0000 C   0  0  0  0  0  0  0  0  0
    4.8856    1.2362    0.0000 C   0  0  0  0  0  0  0  0  0
    5.2981    0.5218    0.0000 C   0  0  0  0  0  0  0  0  0
    6.1231    0.5218    0.0000 C   0  0  0  0  0  0  0  0  0
    6.5356   -0.1927    0.0000 S   0  0  0  0  0  0  0  0  0
    7.3606   -0.1927    0.0000 C   0  0  0  0  0  0  0  0  0
    7.8455    0.4747    0.0000 N   0  0  0  0  0  0  0  0  0
    8.6302    0.2198    0.0000 N   0  0  0  0  0  0  0  0  0
    8.6302   -0.6052    0.0000 C   0  0  0  0  0  0  0  0  0
    7.8455   -0.8601    0.0000 N   0  0  0  0  0  0  0  0  0
    7.5906   -1.6448    0.0000 C   0  0  0  0  0  0  0  0  0
    9.2976   -1.0901    0.0000 C   0  0  0  0  0  0  0  0  0
   10.0822   -0.8352    0.0000 O   0  0  0  0  0  0  0  0  0
   10.5671   -1.5026    0.0000 C   0  0  0  0  0  0  0  0  0
   10.0822   -2.1701    0.0000 N   0  0  0  0  0  0  0  0  0
    9.2976   -1.9151    0.0000 C   0  0  0  0  0  0  0  0  0
    8.6302   -2.4001    0.0000 C   0  0  0  0  0  0  0  0  0
  1  2  1  0  0  0  0
  2  3  4  0  0  0  0
  2  7  4  0  0  0  0
  3  4  4  0  0  0  0
  4  5  4  0  0  0  0
  4  9  1  0  0  0  0
  5  6  4  0  0  0  0
  6  7  4  0  0  0  0
  7  8  1  0  0  0  0
  9 10  1  0  0  0  0
  9 11  1  0  0  0  0
  9 14  1  0  0  0  0
 10 11  1  0  0  0  0
 10 12  1  0  0  0  0
 12 13  1  0  0  0  0
 13 14  1  0  0  0  0
 13 15  1  0  0  0  0
 15 16  1  0  0  0  0
 16 17  1  0  0  0  0
 17 18  1  0  0  0  0
 18 19  1  0  0  0  0
 19 20  4  0  0  0  0
 19 23  4  0  0  0  0
 20 21  4  0  0  0  0
 21 22  4  0  0  0  0
 22 23  4  0  0  0  0
 22 25  1  0  0  0  0
 23 24  1  0  0  0  0
 25 26  4  0  0  0  0
 25 29  4  0  0  0  0
 26 27  4  0  0  0  0
 27 28  4  0  0  0  0
 28 29  4  0  0  0  0
 29 30  1  0  0  0  0
M  END
>  <Name_Molregno>
611048

>  <DOPAMINE D2>
7.07

>  <DOPAMINE D3>
8.37

$$$$
611135
  Marvin  02231216192D 0   1.00000     0.00000     0

 33 38  0  0  1  0  0  0  0  0999 V2000
   -0.2768   -0.6802    0.0000 S   0  0  0  0  0  0  0  0  0
   -0.6124   -1.4338    0.0000 C   0  0  0  0  0  0  0  0  0
   -0.1274   -2.1013    0.0000 C   0  0  0  0  0  0  0  0  0
   -0.4630   -2.8550    0.0000 C   0  0  0  0  0  0  0  0  0
    0.0219   -3.5224    0.0000 N   0  0  0  0  0  0  0  0  0
    0.8469   -3.5224    0.0000 C   0  0  0  0  0  0  0  0  0
    1.1019   -4.3070    0.0000 C   0  0  0  0  0  0  0  0  0
    0.4344   -4.7919    0.0000 C   0  0  0  0  0  0  0  0  0
    1.1881   -5.1275    0.0000 C   0  0  0  0  0  0  0  0  0
   -0.2330   -4.3070    0.0000 C   0  0  0  0  0  0  0  0  0
    1.9088   -4.1355    0.0000 C   0  0  0  0  0  0  0  0  0
    2.1638   -3.3509    0.0000 C   0  0  0  0  0  0  0  0  0
    2.9707   -3.1793    0.0000 C   0  0  0  0  0  0  0  0  0
    3.5228   -3.7924    0.0000 C   0  0  0  0  0  0  0  0  0
    3.2678   -4.5771    0.0000 C   0  0  0  0  0  0  0  0  0
    2.4609   -4.7486    0.0000 C   0  0  0  0  0  0  0  0  0
   -0.7617   -0.0127    0.0000 C   0  0  0  0  0  0  0  0  0
   -1.5867   -0.0127    0.0000 N   0  0  0  0  0  0  0  0  0
   -1.8417    0.7719    0.0000 N   0  0  0  0  0  0  0  0  0
   -1.1742    1.2568    0.0000 C   0  0  0  0  0  0  0  0  0
   -0.5068    0.7719    0.0000 N   0  0  0  0  0  0  0  0  0
    0.2778    1.0268    0.0000 C   0  0  0  0  0  0  0  0  0
   -1.1742    2.0818    0.0000 C   0  0  0  0  0  0  0  0  0
   -0.4598    2.4943    0.0000 C   0  0  0  0  0  0  0  0  0
   -0.4598    3.3193    0.0000 C   0  0  0  0  0  0  0  0  0
    0.2547    3.7318    0.0000 N   0  0  0  0  0  0  0  0  0
    0.9692    3.3193    0.0000 C   0  0  0  0  0  0  0  0  0
    0.9692    2.4943    0.0000 C   0  0  0  0  0  0  0  0  0
    0.2547    2.0818    0.0000 C   0  0  0  0  0  0  0  0  0
    1.6836    3.7318    0.0000 C   0  0  0  0  0  0  0  0  0
   -1.1742    3.7318    0.0000 C   0  0  0  0  0  0  0  0  0
   -1.8887    3.3193    0.0000 C   0  0  0  0  0  0  0  0  0
   -1.8887    2.4943    0.0000 C   0  0  0  0  0  0  0  0  0
  1  2  1  0  0  0  0
  1 17  1  0  0  0  0
  2  3  1  0  0  0  0
  3  4  1  0  0  0  0
  4  5  1  0  0  0  0
  5  6  1  0  0  0  0
  5 10  1  0  0  0  0
  6  7  1  0  0  0  0
  7  8  1  0  0  0  0
  7  9  1  0  0  0  0
  7 11  1  0  0  0  0
  8  9  1  0  0  0  0
  8 10  1  0  0  0  0
 11 12  4  0  0  0  0
 11 16  4  0  0  0  0
 12 13  4  0  0  0  0
 13 14  4  0  0  0  0
 14 15  4  0  0  0  0
 15 16  4  0  0  0  0
 17 18  4  0  0  0  0
 17 21  4  0  0  0  0
 18 19  4  0  0  0  0
 19 20  4  0  0  0  0
 20 21  4  0  0  0  0
 20 23  1  0  0  0  0
 21 22  1  0  0  0  0
 23 24  4  0  0  0  0
 23 33  4  0  0  0  0
 24 25  4  0  0  0  0
 24 29  4  0  0  0  0
 25 26  4  0  0  0  0
 25 31  4  0  0  0  0
 26 27  4  0  0  0  0
 27 28  4  0  0  0  0
 27 30  1  0  0  0  0
 28 29  4  0  0  0  0
 31 32  4  0  0  0  0
 32 33  4  0  0  0  0
M  END
>  <Name_Molregno>
611135

>  <DOPAMINE D2>
6.33

>  <DOPAMINE D3>
7.4

$$$$
611136
  Marvin  02231216192D 0   1.00000     0.00000     0

 33 37  0  0  1  0  0  0  0  0999 V2000
    3.3794   -0.0916    0.0000 S   0  0  0  0  0  0  0  0  0
    2.9669    0.6229    0.0000 C   0  0  0  0  0  0  0  0  0
    2.1419    0.6229    0.0000 C   0  0  0  0  0  0  0  0  0
    1.7294    1.3373    0.0000 C   0  0  0  0  0  0  0  0  0
    0.9044    1.3373    0.0000 N   0  0  0  0  0  0  0  0  0
    0.4195    0.6699    0.0000 C   0  0  0  0  0  0  0  0  0
   -0.3651    0.9248    0.0000 C   0  0  0  0  0  0  0  0  0
   -0.3651    1.7498    0.0000 C   0  0  0  0  0  0  0  0  0
   -1.0796    1.3373    0.0000 C   0  0  0  0  0  0  0  0  0
    0.4195    2.0048    0.0000 C   0  0  0  0  0  0  0  0  0
   -0.7007    0.1712    0.0000 C   0  0  0  0  0  0  0  0  0
   -0.2158   -0.4963    0.0000 C   0  0  0  0  0  0  0  0  0
   -0.5513   -1.2500    0.0000 C   0  0  0  0  0  0  0  0  0
   -1.3718   -1.3362    0.0000 C   0  0  0  0  0  0  0  0  0
   -1.8567   -0.6688    0.0000 C   0  0  0  0  0  0  0  0  0
   -1.5212    0.0849    0.0000 C   0  0  0  0  0  0  0  0  0
   -2.0061    0.7524    0.0000 F   0  0  0  0  0  0  0  0  0
   -1.7074   -2.0899    0.0000 C   0  0  0  0  0  0  0  0  0
   -2.0429   -2.8435    0.0000 F   0  0  0  0  0  0  0  0  0
   -0.9537   -2.4254    0.0000 F   0  0  0  0  0  0  0  0  0
   -2.4611   -1.7543    0.0000 F   0  0  0  0  0  0  0  0  0
    4.2044   -0.0916    0.0000 C   0  0  0  0  0  0  0  0  0
    4.6893    0.5758    0.0000 N   0  0  0  0  0  0  0  0  0
    5.4739    0.3209    0.0000 N   0  0  0  0  0  0  0  0  0
    5.4739   -0.5041    0.0000 C   0  0  0  0  0  0  0  0  0
    4.6893   -0.7590    0.0000 N   0  0  0  0  0  0  0  0  0
    4.4344   -1.5437    0.0000 C   0  0  0  0  0  0  0  0  0
    6.1414   -0.9890    0.0000 C   0  0  0  0  0  0  0  0  0
    6.9260   -0.7341    0.0000 O   0  0  0  0  0  0  0  0  0
    7.4109   -1.4015    0.0000 C   0  0  0  0  0  0  0  0  0
    6.9260   -2.0690    0.0000 N   0  0  0  0  0  0  0  0  0
    6.1414   -1.8140    0.0000 C   0  0  0  0  0  0  0  0  0
    5.4739   -2.2990    0.0000 C   0  0  0  0  0  0  0  0  0
  1  2  1  0  0  0  0
  1 22  1  0  0  0  0
  2  3  1  0  0  0  0
  3  4  1  0  0  0  0
  4  5  1  0  0  0  0
  5  6  1  0  0  0  0
  5 10  1  0  0  0  0
  6  7  1  0  0  0  0
  7  8  1  0  0  0  0
  7  9  1  0  0  0  0
  7 11  1  0  0  0  0
  8  9  1  0  0  0  0
  8 10  1  0  0  0  0
 11 12  4  0  0  0  0
 11 16  4  0  0  0  0
 12 13  4  0  0  0  0
 13 14  4  0  0  0  0
 14 15  4  0  0  0  0
 14 18  1  0  0  0  0
 15 16  4  0  0  0  0
 16 17  1  0  0  0  0
 18 19  1  0  0  0  0
 18 20  1  0  0  0  0
 18 21  1  0  0  0  0
 22 23  4  0  0  0  0
 22 26  4  0  0  0  0
 23 24  4  0  0  0  0
 24 25  4  0  0  0  0
 25 26  4  0  0  0  0
 25 28  1  0  0  0  0
 26 27  1  0  0  0  0
 28 29  4  0  0  0  0
 28 32  4  0  0  0  0
 29 30  4  0  0  0  0
 30 31  4  0  0  0  0
 31 32  4  0  0  0  0
 32 33  1  0  0  0  0
M  END
>  <Name_Molregno>
611136

>  <DOPAMINE D2>
6.33

>  <DOPAMINE D3>
8.2

$$$$
611247
  Marvin  02231216192D 0   1.00000     0.00000     0

 37 42  0  0  1  0  0  0  0  0999 V2000
   -0.0001   -0.4493    0.0000 S   0  0  0  0  0  0  0  0  0
   -0.3357   -1.2029    0.0000 C   0  0  0  0  0  0  0  0  0
    0.1492   -1.8704    0.0000 C   0  0  0  0  0  0  0  0  0
   -0.1863   -2.6241    0.0000 C   0  0  0  0  0  0  0  0  0
    0.2986   -3.2915    0.0000 N   0  0  0  0  0  0  0  0  0
    1.1236   -3.2915    0.0000 C   0  0  0  0  0  0  0  0  0
    1.3785   -4.0761    0.0000 C   0  0  0  0  0  0  0  0  0
    0.7111   -4.5610    0.0000 C   0  0  0  0  0  0  0  0  0
    1.4648   -4.8966    0.0000 C   0  0  0  0  0  0  0  0  0
    0.0437   -4.0761    0.0000 C   0  0  0  0  0  0  0  0  0
    2.1855   -3.9046    0.0000 C   0  0  0  0  0  0  0  0  0
    2.4405   -3.1200    0.0000 C   0  0  0  0  0  0  0  0  0
    3.2474   -2.9484    0.0000 C   0  0  0  0  0  0  0  0  0
    3.7995   -3.5615    0.0000 C   0  0  0  0  0  0  0  0  0
    3.5445   -4.3462    0.0000 C   0  0  0  0  0  0  0  0  0
    2.7375   -4.5177    0.0000 C   0  0  0  0  0  0  0  0  0
    4.6064   -3.3900    0.0000 C   0  0  0  0  0  0  0  0  0
    5.4134   -3.2185    0.0000 C   0  0  0  0  0  0  0  0  0
    4.4349   -2.5830    0.0000 C   0  0  0  0  0  0  0  0  0
    4.7780   -4.1970    0.0000 C   0  0  0  0  0  0  0  0  0
   -0.4850    0.2182    0.0000 C   0  0  0  0  0  0  0  0  0
   -1.3100    0.2182    0.0000 N   0  0  0  0  0  0  0  0  0
   -1.5650    1.0028    0.0000 N   0  0  0  0  0  0  0  0  0
   -0.8975    1.4877    0.0000 C   0  0  0  0  0  0  0  0  0
   -0.2301    1.0028    0.0000 N   0  0  0  0  0  0  0  0  0
    0.5545    1.2577    0.0000 C   0  0  0  0  0  0  0  0  0
   -0.8975    2.3127    0.0000 C   0  0  0  0  0  0  0  0  0
   -0.1831    2.7252    0.0000 C   0  0  0  0  0  0  0  0  0
   -0.1831    3.5502    0.0000 C   0  0  0  0  0  0  0  0  0
    0.5314    3.9627    0.0000 N   0  0  0  0  0  0  0  0  0
    1.2459    3.5502    0.0000 C   0  0  0  0  0  0  0  0  0
    1.2459    2.7252    0.0000 C   0  0  0  0  0  0  0  0  0
    0.5314    2.3127    0.0000 C   0  0  0  0  0  0  0  0  0
    1.9603    3.9627    0.0000 C   0  0  0  0  0  0  0  0  0
   -0.8975    3.9627    0.0000 C   0  0  0  0  0  0  0  0  0
   -1.6120    3.5502    0.0000 C   0  0  0  0  0  0  0  0  0
   -1.6120    2.7252    0.0000 C   0  0  0  0  0  0  0  0  0
  1  2  1  0  0  0  0
  1 21  1  0  0  0  0
  2  3  1  0  0  0  0
  3  4  1  0  0  0  0
  4  5  1  0  0  0  0
  5  6  1  0  0  0  0
  5 10  1  0  0  0  0
  6  7  1  0  0  0  0
  7  8  1  0  0  0  0
  7  9  1  0  0  0  0
  7 11  1  0  0  0  0
  8  9  1  0  0  0  0
  8 10  1  0  0  0  0
 11 12  4  0  0  0  0
 11 16  4  0  0  0  0
 12 13  4  0  0  0  0
 13 14  4  0  0  0  0
 14 15  4  0  0  0  0
 14 17  1  0  0  0  0
 15 16  4  0  0  0  0
 17 18  1  0  0  0  0
 17 19  1  0  0  0  0
 17 20  1  0  0  0  0
 21 22  4  0  0  0  0
 21 25  4  0  0  0  0
 22 23  4  0  0  0  0
 23 24  4  0  0  0  0
 24 25  4  0  0  0  0
 24 27  1  0  0  0  0
 25 26  1  0  0  0  0
 27 28  4  0  0  0  0
 27 37  4  0  0  0  0
 28 29  4  0  0  0  0
 28 33  4  0  0  0  0
 29 30  4  0  0  0  0
 29 35  4  0  0  0  0
 30 31  4  0  0  0  0
 31 32  4  0  0  0  0
 31 34  1  0  0  0  0
 32 33  4  0  0  0  0
 35 36  4  0  0  0  0
 36 37  4  0  0  0  0
M  END
>  <Name_Molregno>
611247

>  <DOPAMINE D2>
6.1

>  <DOPAMINE D3>
8.4

$$$$
611248
  Marvin  02231216192D 0   1.00000     0.00000     0

 33 37  0  0  1  0  0  0  0  0999 V2000
    3.3794   -0.0916    0.0000 S   0  0  0  0  0  0  0  0  0
    2.9669    0.6229    0.0000 C   0  0  0  0  0  0  0  0  0
    2.1419    0.6229    0.0000 C   0  0  0  0  0  0  0  0  0
    1.7294    1.3373    0.0000 C   0  0  0  0  0  0  0  0  0
    0.9044    1.3373    0.0000 N   0  0  0  0  0  0  0  0  0
    0.4195    0.6699    0.0000 C   0  0  0  0  0  0  0  0  0
   -0.3651    0.9248    0.0000 C   0  0  0  0  0  0  0  0  0
   -0.3651    1.7498    0.0000 C   0  0  0  0  0  0  0  0  0
   -1.0796    1.3373    0.0000 C   0  0  0  0  0  0  0  0  0
    0.4195    2.0048    0.0000 C   0  0  0  0  0  0  0  0  0
   -0.7007    0.1712    0.0000 C   0  0  0  0  0  0  0  0  0
   -0.2158   -0.4963    0.0000 C   0  0  0  0  0  0  0  0  0
   -0.5513   -1.2500    0.0000 C   0  0  0  0  0  0  0  0  0
   -1.3718   -1.3362    0.0000 C   0  0  0  0  0  0  0  0  0
   -1.8567   -0.6688    0.0000 C   0  0  0  0  0  0  0  0  0
   -1.5212    0.0849    0.0000 C   0  0  0  0  0  0  0  0  0
   -2.0061    0.7524    0.0000 C   0  0  0  0  0  0  0  0  0
   -1.7074   -2.0899    0.0000 C   0  0  0  0  0  0  0  0  0
   -2.0429   -2.8435    0.0000 F   0  0  0  0  0  0  0  0  0
   -0.9537   -2.4254    0.0000 F   0  0  0  0  0  0  0  0  0
   -2.4611   -1.7543    0.0000 F   0  0  0  0  0  0  0  0  0
    4.2044   -0.0916    0.0000 C   0  0  0  0  0  0  0  0  0
    4.6893    0.5758    0.0000 N   0  0  0  0  0  0  0  0  0
    5.4739    0.3209    0.0000 N   0  0  0  0  0  0  0  0  0
    5.4739   -0.5041    0.0000 C   0  0  0  0  0  0  0  0  0
    4.6893   -0.7590    0.0000 N   0  0  0  0  0  0  0  0  0
    4.4344   -1.5437    0.0000 C   0  0  0  0  0  0  0  0  0
    6.1414   -0.9890    0.0000 C   0  0  0  0  0  0  0  0  0
    6.9260   -0.7341    0.0000 O   0  0  0  0  0  0  0  0  0
    7.4109   -1.4015    0.0000 C   0  0  0  0  0  0  0  0  0
    6.9260   -2.0690    0.0000 N   0  0  0  0  0  0  0  0  0
    6.1414   -1.8140    0.0000 C   0  0  0  0  0  0  0  0  0
    5.4739   -2.2990    0.0000 C   0  0  0  0  0  0  0  0  0
  1  2  1  0  0  0  0
  1 22  1  0  0  0  0
  2  3  1  0  0  0  0
  3  4  1  0  0  0  0
  4  5  1  0  0  0  0
  5  6  1  0  0  0  0
  5 10  1  0  0  0  0
  6  7  1  0  0  0  0
  7  8  1  0  0  0  0
  7  9  1  0  0  0  0
  7 11  1  0  0  0  0
  8  9  1  0  0  0  0
  8 10  1  0  0  0  0
 11 12  4  0  0  0  0
 11 16  4  0  0  0  0
 12 13  4  0  0  0  0
 13 14  4  0  0  0  0
 14 15  4  0  0  0  0
 14 18  1  0  0  0  0
 15 16  4  0  0  0  0
 16 17  1  0  0  0  0
 18 19  1  0  0  0  0
 18 20  1  0  0  0  0
 18 21  1  0  0  0  0
 22 23  4  0  0  0  0
 22 26  4  0  0  0  0
 23 24  4  0  0  0  0
 24 25  4  0  0  0  0
 25 26  4  0  0  0  0
 25 28  1  0  0  0  0
 26 27  1  0  0  0  0
 28 29  4  0  0  0  0
 28 32  4  0  0  0  0
 29 30  4  0  0  0  0
 30 31  4  0  0  0  0
 31 32  4  0  0  0  0
 32 33  1  0  0  0  0
M  END
>  <Name_Molregno>
611248

>  <DOPAMINE D2>
6

>  <DOPAMINE D3>
7

$$$$
611249
  Marvin  02231216192D 0   1.00000     0.00000     0

 33 37  0  0  1  0  0  0  0  0999 V2000
    3.1802    0.0054    0.0000 S   0  0  0  0  0  0  0  0  0
    2.7677    0.7199    0.0000 C   0  0  0  0  0  0  0  0  0
    1.9427    0.7199    0.0000 C   0  0  0  0  0  0  0  0  0
    1.5302    1.4343    0.0000 C   0  0  0  0  0  0  0  0  0
    0.7052    1.4343    0.0000 N   0  0  0  0  0  0  0  0  0
    0.2203    0.7669    0.0000 C   0  0  0  0  0  0  0  0  0
   -0.5643    1.0218    0.0000 C   0  0  0  0  0  0  0  0  0
   -0.5643    1.8468    0.0000 C   0  0  0  0  0  0  0  0  0
   -1.2788    1.4343    0.0000 C   0  0  0  0  0  0  0  0  0
    0.2203    2.1018    0.0000 C   0  0  0  0  0  0  0  0  0
   -0.8999    0.2682    0.0000 C   0  0  0  0  0  0  0  0  0
   -0.4150   -0.3993    0.0000 C   0  0  0  0  0  0  0  0  0
   -0.7505   -1.1529    0.0000 C   0  0  0  0  0  0  0  0  0
   -0.2656   -1.8204    0.0000 C   0  0  0  0  0  0  0  0  0
    0.2193   -2.4878    0.0000 F   0  0  0  0  0  0  0  0  0
    0.4018   -1.3355    0.0000 F   0  0  0  0  0  0  0  0  0
   -0.9331   -2.3053    0.0000 F   0  0  0  0  0  0  0  0  0
   -1.5710   -1.2392    0.0000 C   0  0  0  0  0  0  0  0  0
   -1.9066   -1.9929    0.0000 F   0  0  0  0  0  0  0  0  0
   -2.0559   -0.5717    0.0000 C   0  0  0  0  0  0  0  0  0
   -1.7204    0.1819    0.0000 C   0  0  0  0  0  0  0  0  0
    4.0052    0.0054    0.0000 C   0  0  0  0  0  0  0  0  0
    4.4901    0.6728    0.0000 N   0  0  0  0  0  0  0  0  0
    5.2747    0.4179    0.0000 N   0  0  0  0  0  0  0  0  0
    5.2747   -0.4071    0.0000 C   0  0  0  0  0  0  0  0  0
    4.4901   -0.6620    0.0000 N   0  0  0  0  0  0  0  0  0
    4.2352   -1.4467    0.0000 C   0  0  0  0  0  0  0  0  0
    5.9422   -0.8920    0.0000 C   0  0  0  0  0  0  0  0  0
    6.7268   -0.6371    0.0000 O   0  0  0  0  0  0  0  0  0
    7.2117   -1.3045    0.0000 C   0  0  0  0  0  0  0  0  0
    6.7268   -1.9720    0.0000 N   0  0  0  0  0  0  0  0  0
    5.9422   -1.7170    0.0000 C   0  0  0  0  0  0  0  0  0
    5.2747   -2.2019    0.0000 C   0  0  0  0  0  0  0  0  0
  1  2  1  0  0  0  0
  1 22  1  0  0  0  0
  2  3  1  0  0  0  0
  3  4  1  0  0  0  0
  4  5  1  0  0  0  0
  5  6  1  0  0  0  0
  5 10  1  0  0  0  0
  6  7  1  0  0  0  0
  7  8  1  0  0  0  0
  7  9  1  0  0  0  0
  7 11  1  0  0  0  0
  8  9  1  0  0  0  0
  8 10  1  0  0  0  0
 11 12  4  0  0  0  0
 11 21  4  0  0  0  0
 12 13  4  0  0  0  0
 13 14  1  0  0  0  0
 13 18  4  0  0  0  0
 14 15  1  0  0  0  0
 14 16  1  0  0  0  0
 14 17  1  0  0  0  0
 18 19  1  0  0  0  0
 18 20  4  0  0  0  0
 20 21  4  0  0  0  0
 22 23  4  0  0  0  0
 22 26  4  0  0  0  0
 23 24  4  0  0  0  0
 24 25  4  0  0  0  0
 25 26  4  0  0  0  0
 25 28  1  0  0  0  0
 26 27  1  0  0  0  0
 28 29  4  0  0  0  0
 28 32  4  0  0  0  0
 29 30  4  0  0  0  0
 30 31  4  0  0  0  0
 31 32  4  0  0  0  0
 32 33  1  0  0  0  0
M  END
>  <Name_Molregno>
611249

>  <DOPAMINE D2>
6.83

>  <DOPAMINE D3>
8.53

$$$$
611315
  Marvin  02231216192D 0   1.00000     0.00000     0

 34 39  0  0  1  0  0  0  0  0999 V2000
   10.0451   -1.3308    0.0000 Br  0  0  0  0  0  0  0  0  0
    9.2381   -1.5024    0.0000 C   0  0  0  0  0  0  0  0  0
    8.9832   -2.2870    0.0000 C   0  0  0  0  0  0  0  0  0
    8.1762   -2.4585    0.0000 C   0  0  0  0  0  0  0  0  0
    7.6242   -1.8454    0.0000 C   0  0  0  0  0  0  0  0  0
    7.8791   -1.0608    0.0000 C   0  0  0  0  0  0  0  0  0
    8.6861   -0.8893    0.0000 C   0  0  0  0  0  0  0  0  0
    6.8172   -2.0170    0.0000 C   0  0  0  0  0  0  0  0  0
    6.1498   -2.5019    0.0000 C   0  0  0  0  0  0  0  0  0
    6.9034   -2.8374    0.0000 C   0  0  0  0  0  0  0  0  0
    5.4823   -2.0170    0.0000 C   0  0  0  0  0  0  0  0  0
    5.7373   -1.2323    0.0000 N   0  0  0  0  0  0  0  0  0
    6.5623   -1.2323    0.0000 C   0  0  0  0  0  0  0  0  0
    5.2523   -0.5649    0.0000 C   0  0  0  0  0  0  0  0  0
    5.5879    0.1888    0.0000 C   0  0  0  0  0  0  0  0  0
    5.1030    0.8562    0.0000 C   0  0  0  0  0  0  0  0  0
    5.4385    1.6099    0.0000 S   0  0  0  0  0  0  0  0  0
    4.9536    2.2773    0.0000 C   0  0  0  0  0  0  0  0  0
    4.1286    2.2773    0.0000 N   0  0  0  0  0  0  0  0  0
    3.8737    3.0620    0.0000 N   0  0  0  0  0  0  0  0  0
    4.5411    3.5469    0.0000 C   0  0  0  0  0  0  0  0  0
    5.2085    3.0620    0.0000 N   0  0  0  0  0  0  0  0  0
    5.9932    3.3169    0.0000 C   0  0  0  0  0  0  0  0  0
    4.5411    4.3719    0.0000 C   0  0  0  0  0  0  0  0  0
    5.2556    4.7844    0.0000 C   0  0  0  0  0  0  0  0  0
    5.2556    5.6094    0.0000 C   0  0  0  0  0  0  0  0  0
    5.9701    6.0219    0.0000 N   0  0  0  0  0  0  0  0  0
    6.6845    5.6094    0.0000 C   0  0  0  0  0  0  0  0  0
    6.6845    4.7844    0.0000 C   0  0  0  0  0  0  0  0  0
    5.9701    4.3719    0.0000 C   0  0  0  0  0  0  0  0  0
    7.3990    6.0219    0.0000 C   0  0  0  0  0  0  0  0  0
    4.5411    6.0219    0.0000 C   0  0  0  0  0  0  0  0  0
    3.8266    5.6094    0.0000 C   0  0  0  0  0  0  0  0  0
    3.8266    4.7844    0.0000 C   0  0  0  0  0  0  0  0  0
  1  2  1  0  0  0  0
  2  3  4  0  0  0  0
  2  7  4  0  0  0  0
  3  4  4  0  0  0  0
  4  5  4  0  0  0  0
  5  6  4  0  0  0  0
  5  8  1  0  0  0  0
  6  7  4  0  0  0  0
  8  9  1  0  0  0  0
  8 10  1  0  0  0  0
  8 13  1  0  0  0  0
  9 10  1  0  0  0  0
  9 11  1  0  0  0  0
 11 12  1  0  0  0  0
 12 13  1  0  0  0  0
 12 14  1  0  0  0  0
 14 15  1  0  0  0  0
 15 16  1  0  0  0  0
 16 17  1  0  0  0  0
 17 18  1  0  0  0  0
 18 19  4  0  0  0  0
 18 22  4  0  0  0  0
 19 20  4  0  0  0  0
 20 21  4  0  0  0  0
 21 22  4  0  0  0  0
 21 24  1  0  0  0  0
 22 23  1  0  0  0  0
 24 25  4  0  0  0  0
 24 34  4  0  0  0  0
 25 26  4  0  0  0  0
 25 30  4  0  0  0  0
 26 27  4  0  0  0  0
 26 32  4  0  0  0  0
 27 28  4  0  0  0  0
 28 29  4  0  0  0  0
 28 31  1  0  0  0  0
 29 30  4  0  0  0  0
 32 33  4  0  0  0  0
 33 34  4  0  0  0  0
M  END
>  <Name_Molregno>
611315

>  <DOPAMINE D2>
5.87

>  <DOPAMINE D3>
7.87

$$$$
611318
  Marvin  02231216192D 0   1.00000     0.00000     0

 33 37  0  0  1  0  0  0  0  0999 V2000
    3.1074   -0.0603    0.0000 S   0  0  0  0  0  0  0  0  0
    2.6949    0.6542    0.0000 C   0  0  0  0  0  0  0  0  0
    1.8699    0.6542    0.0000 C   0  0  0  0  0  0  0  0  0
    1.4574    1.3686    0.0000 C   0  0  0  0  0  0  0  0  0
    0.6324    1.3686    0.0000 N   0  0  0  0  0  0  0  0  0
    0.1475    0.7012    0.0000 C   0  0  0  0  0  0  0  0  0
   -0.6371    0.9561    0.0000 C   0  0  0  0  0  0  0  0  0
   -0.6371    1.7811    0.0000 C   0  0  0  0  0  0  0  0  0
   -1.3516    1.3686    0.0000 C   0  0  0  0  0  0  0  0  0
    0.1475    2.0361    0.0000 C   0  0  0  0  0  0  0  0  0
   -0.9727    0.2025    0.0000 C   0  0  0  0  0  0  0  0  0
   -0.4878   -0.4650    0.0000 C   0  0  0  0  0  0  0  0  0
   -0.8233   -1.2187    0.0000 C   0  0  0  0  0  0  0  0  0
   -1.6438   -1.3049    0.0000 C   0  0  0  0  0  0  0  0  0
   -2.1287   -0.6374    0.0000 C   0  0  0  0  0  0  0  0  0
   -1.7932    0.1162    0.0000 C   0  0  0  0  0  0  0  0  0
   -2.2781    0.7837    0.0000 F   0  0  0  0  0  0  0  0  0
   -0.3384   -1.8861    0.0000 C   0  0  0  0  0  0  0  0  0
    0.1465   -2.5535    0.0000 F   0  0  0  0  0  0  0  0  0
    0.3290   -1.4012    0.0000 F   0  0  0  0  0  0  0  0  0
   -1.0058   -2.3710    0.0000 F   0  0  0  0  0  0  0  0  0
    3.9324   -0.0603    0.0000 C   0  0  0  0  0  0  0  0  0
    4.4173    0.6071    0.0000 N   0  0  0  0  0  0  0  0  0
    5.2020    0.3522    0.0000 N   0  0  0  0  0  0  0  0  0
    5.2020   -0.4728    0.0000 C   0  0  0  0  0  0  0  0  0
    4.4173   -0.7277    0.0000 N   0  0  0  0  0  0  0  0  0
    4.1624   -1.5124    0.0000 C   0  0  0  0  0  0  0  0  0
    5.8694   -0.9577    0.0000 C   0  0  0  0  0  0  0  0  0
    6.6540   -0.7028    0.0000 O   0  0  0  0  0  0  0  0  0
    7.1389   -1.3702    0.0000 C   0  0  0  0  0  0  0  0  0
    6.6540   -2.0377    0.0000 N   0  0  0  0  0  0  0  0  0
    5.8694   -1.7827    0.0000 C   0  0  0  0  0  0  0  0  0
    5.2020   -2.2677    0.0000 C   0  0  0  0  0  0  0  0  0
  1  2  1  0  0  0  0
  1 22  1  0  0  0  0
  2  3  1  0  0  0  0
  3  4  1  0  0  0  0
  4  5  1  0  0  0  0
  5  6  1  0  0  0  0
  5 10  1  0  0  0  0
  6  7  1  0  0  0  0
  7  8  1  0  0  0  0
  7  9  1  0  0  0  0
  7 11  1  0  0  0  0
  8  9  1  0  0  0  0
  8 10  1  0  0  0  0
 11 12  4  0  0  0  0
 11 16  4  0  0  0  0
 12 13  4  0  0  0  0
 13 14  4  0  0  0  0
 13 18  1  0  0  0  0
 14 15  4  0  0  0  0
 15 16  4  0  0  0  0
 16 17  1  0  0  0  0
 18 19  1  0  0  0  0
 18 20  1  0  0  0  0
 18 21  1  0  0  0  0
 22 23  4  0  0  0  0
 22 26  4  0  0  0  0
 23 24  4  0  0  0  0
 24 25  4  0  0  0  0
 25 26  4  0  0  0  0
 25 28  1  0  0  0  0
 26 27  1  0  0  0  0
 28 29  4  0  0  0  0
 28 32  4  0  0  0  0
 29 30  4  0  0  0  0
 30 31  4  0  0  0  0
 31 32  4  0  0  0  0
 32 33  1  0  0  0  0
M  END
>  <Name_Molregno>
611318

>  <DOPAMINE D2>
6.33

>  <DOPAMINE D3>
8.03

$$$$
611378
  Marvin  02231216192D 0   1.00000     0.00000     0

 35 40  0  0  1  0  0  0  0  0999 V2000
   -0.1414   -0.5603    0.0000 S   0  0  0  0  0  0  0  0  0
   -0.4769   -1.3140    0.0000 C   0  0  0  0  0  0  0  0  0
    0.0080   -1.9815    0.0000 C   0  0  0  0  0  0  0  0  0
   -0.3276   -2.7351    0.0000 C   0  0  0  0  0  0  0  0  0
    0.1574   -3.4026    0.0000 N   0  0  0  0  0  0  0  0  0
    0.9824   -3.4026    0.0000 C   0  0  0  0  0  0  0  0  0
    1.2373   -4.1872    0.0000 C   0  0  0  0  0  0  0  0  0
    0.5699   -4.6721    0.0000 C   0  0  0  0  0  0  0  0  0
    1.3235   -5.0077    0.0000 C   0  0  0  0  0  0  0  0  0
   -0.0976   -4.1872    0.0000 C   0  0  0  0  0  0  0  0  0
    2.0443   -4.0157    0.0000 C   0  0  0  0  0  0  0  0  0
    2.2992   -3.2310    0.0000 C   0  0  0  0  0  0  0  0  0
    3.1062   -3.0595    0.0000 C   0  0  0  0  0  0  0  0  0
    3.6582   -3.6726    0.0000 C   0  0  0  0  0  0  0  0  0
    3.4033   -4.4572    0.0000 C   0  0  0  0  0  0  0  0  0
    2.5963   -4.6288    0.0000 C   0  0  0  0  0  0  0  0  0
    4.4652   -3.5011    0.0000 C   0  0  0  0  0  0  0  0  0
    5.2721   -3.3296    0.0000 N   0  0  0  0  0  0  0  0  0
   -0.6263    0.1071    0.0000 C   0  0  0  0  0  0  0  0  0
   -1.4513    0.1071    0.0000 N   0  0  0  0  0  0  0  0  0
   -1.7062    0.8917    0.0000 N   0  0  0  0  0  0  0  0  0
   -1.0388    1.3766    0.0000 C   0  0  0  0  0  0  0  0  0
   -0.3714    0.8917    0.0000 N   0  0  0  0  0  0  0  0  0
    0.4133    1.1467    0.0000 C   0  0  0  0  0  0  0  0  0
   -1.0388    2.2016    0.0000 C   0  0  0  0  0  0  0  0  0
   -0.3243    2.6141    0.0000 C   0  0  0  0  0  0  0  0  0
   -0.3243    3.4391    0.0000 C   0  0  0  0  0  0  0  0  0
    0.3901    3.8516    0.0000 N   0  0  0  0  0  0  0  0  0
    1.1046    3.4391    0.0000 C   0  0  0  0  0  0  0  0  0
    1.1046    2.6141    0.0000 C   0  0  0  0  0  0  0  0  0
    0.3901    2.2016    0.0000 C   0  0  0  0  0  0  0  0  0
    1.8191    3.8516    0.0000 C   0  0  0  0  0  0  0  0  0
   -1.0388    3.8516    0.0000 C   0  0  0  0  0  0  0  0  0
   -1.7533    3.4391    0.0000 C   0  0  0  0  0  0  0  0  0
   -1.7533    2.6141    0.0000 C   0  0  0  0  0  0  0  0  0
  1  2  1  0  0  0  0
  1 19  1  0  0  0  0
  2  3  1  0  0  0  0
  3  4  1  0  0  0  0
  4  5  1  0  0  0  0
  5  6  1  0  0  0  0
  5 10  1  0  0  0  0
  6  7  1  0  0  0  0
  7  8  1  0  0  0  0
  7  9  1  0  0  0  0
  7 11  1  0  0  0  0
  8  9  1  0  0  0  0
  8 10  1  0  0  0  0
 11 12  4  0  0  0  0
 11 16  4  0  0  0  0
 12 13  4  0  0  0  0
 13 14  4  0  0  0  0
 14 15  4  0  0  0  0
 14 17  1  0  0  0  0
 15 16  4  0  0  0  0
 17 18  3  0  0  0  0
 19 20  4  0  0  0  0
 19 23  4  0  0  0  0
 20 21  4  0  0  0  0
 21 22  4  0  0  0  0
 22 23  4  0  0  0  0
 22 25  1  0  0  0  0
 23 24  1  0  0  0  0
 25 26  4  0  0  0  0
 25 35  4  0  0  0  0
 26 27  4  0  0  0  0
 26 31  4  0  0  0  0
 27 28  4  0  0  0  0
 27 33  4  0  0  0  0
 28 29  4  0  0  0  0
 29 30  4  0  0  0  0
 29 32  1  0  0  0  0
 30 31  4  0  0  0  0
 33 34  4  0  0  0  0
 34 35  4  0  0  0  0
M  END
>  <Name_Molregno>
611378

>  <DOPAMINE D2>
5.2

>  <DOPAMINE D3>
7.5

$$$$
611379
  Marvin  02231216192D 0   1.00000     0.00000     0

 35 40  0  0  1  0  0  0  0  0999 V2000
    2.4630   -1.2612    0.0000 S   0  0  0  0  0  0  0  0  0
    2.1274   -2.0149    0.0000 C   0  0  0  0  0  0  0  0  0
    1.3070   -2.1011    0.0000 C   0  0  0  0  0  0  0  0  0
    0.8220   -1.4337    0.0000 C   0  0  0  0  0  0  0  0  0
    0.0016   -1.5199    0.0000 N   0  0  0  0  0  0  0  0  0
   -0.4109   -2.2344    0.0000 C   0  0  0  0  0  0  0  0  0
   -1.2179   -2.0629    0.0000 C   0  0  0  0  0  0  0  0  0
   -1.3041   -1.2424    0.0000 C   0  0  0  0  0  0  0  0  0
   -1.9716   -1.7273    0.0000 C   0  0  0  0  0  0  0  0  0
   -0.5505   -0.9068    0.0000 C   0  0  0  0  0  0  0  0  0
   -1.4728   -2.8475    0.0000 C   0  0  0  0  0  0  0  0  0
   -0.9208   -3.4606    0.0000 C   0  0  0  0  0  0  0  0  0
   -1.1758   -4.2452    0.0000 C   0  0  0  0  0  0  0  0  0
   -1.9827   -4.4168    0.0000 C   0  0  0  0  0  0  0  0  0
   -2.2377   -5.2014    0.0000 O   0  0  0  0  0  0  0  0  0
   -3.0446   -5.3729    0.0000 C   0  0  0  0  0  0  0  0  0
   -2.5348   -3.8037    0.0000 C   0  0  0  0  0  0  0  0  0
   -2.2798   -3.0190    0.0000 C   0  0  0  0  0  0  0  0  0
    1.9781   -0.5938    0.0000 C   0  0  0  0  0  0  0  0  0
    1.1531   -0.5938    0.0000 N   0  0  0  0  0  0  0  0  0
    0.8981    0.1908    0.0000 N   0  0  0  0  0  0  0  0  0
    1.5656    0.6757    0.0000 C   0  0  0  0  0  0  0  0  0
    2.2330    0.1908    0.0000 N   0  0  0  0  0  0  0  0  0
    3.0176    0.4458    0.0000 C   0  0  0  0  0  0  0  0  0
    1.5656    1.5007    0.0000 C   0  0  0  0  0  0  0  0  0
    2.2801    1.9132    0.0000 C   0  0  0  0  0  0  0  0  0
    2.2801    2.7382    0.0000 C   0  0  0  0  0  0  0  0  0
    2.9945    3.1507    0.0000 N   0  0  0  0  0  0  0  0  0
    3.7090    2.7382    0.0000 C   0  0  0  0  0  0  0  0  0
    3.7090    1.9132    0.0000 C   0  0  0  0  0  0  0  0  0
    2.9945    1.5007    0.0000 C   0  0  0  0  0  0  0  0  0
    4.4235    3.1507    0.0000 C   0  0  0  0  0  0  0  0  0
    1.5656    3.1507    0.0000 C   0  0  0  0  0  0  0  0  0
    0.8511    2.7382    0.0000 C   0  0  0  0  0  0  0  0  0
    0.8511    1.9132    0.0000 C   0  0  0  0  0  0  0  0  0
  1  2  1  0  0  0  0
  1 19  1  0  0  0  0
  2  3  1  0  0  0  0
  3  4  1  0  0  0  0
  4  5  1  0  0  0  0
  5  6  1  0  0  0  0
  5 10  1  0  0  0  0
  6  7  1  0  0  0  0
  7  8  1  0  0  0  0
  7  9  1  0  0  0  0
  7 11  1  0  0  0  0
  8  9  1  0  0  0  0
  8 10  1  0  0  0  0
 11 12  4  0  0  0  0
 11 18  4  0  0  0  0
 12 13  4  0  0  0  0
 13 14  4  0  0  0  0
 14 15  1  0  0  0  0
 14 17  4  0  0  0  0
 15 16  1  0  0  0  0
 17 18  4  0  0  0  0
 19 20  4  0  0  0  0
 19 23  4  0  0  0  0
 20 21  4  0  0  0  0
 21 22  4  0  0  0  0
 22 23  4  0  0  0  0
 22 25  1  0  0  0  0
 23 24  1  0  0  0  0
 25 26  4  0  0  0  0
 25 35  4  0  0  0  0
 26 27  4  0  0  0  0
 26 31  4  0  0  0  0
 27 28  4  0  0  0  0
 27 33  4  0  0  0  0
 28 29  4  0  0  0  0
 29 30  4  0  0  0  0
 29 32  1  0  0  0  0
 30 31  4  0  0  0  0
 33 34  4  0  0  0  0
 34 35  4  0  0  0  0
M  END
>  <Name_Molregno>
611379

>  <DOPAMINE D2>
6.07

>  <DOPAMINE D3>
8.2

$$$$
611380
  Marvin  02231216192D 0   1.00000     0.00000     0

 33 37  0  0  1  0  0  0  0  0999 V2000
    3.5140   -0.1437    0.0000 S   0  0  0  0  0  0  0  0  0
    3.1015    0.5708    0.0000 C   0  0  0  0  0  0  0  0  0
    2.2765    0.5708    0.0000 C   0  0  0  0  0  0  0  0  0
    1.8640    1.2853    0.0000 C   0  0  0  0  0  0  0  0  0
    1.0390    1.2853    0.0000 N   0  0  0  0  0  0  0  0  0
    0.5540    0.6178    0.0000 C   0  0  0  0  0  0  0  0  0
   -0.2306    0.8728    0.0000 C   0  0  0  0  0  0  0  0  0
   -0.2306    1.6978    0.0000 C   0  0  0  0  0  0  0  0  0
   -0.9451    1.2853    0.0000 C   0  0  0  0  0  0  0  0  0
    0.5540    1.9527    0.0000 C   0  0  0  0  0  0  0  0  0
   -0.5661    0.1191    0.0000 C   0  0  0  0  0  0  0  0  0
   -0.0812   -0.5483    0.0000 C   0  0  0  0  0  0  0  0  0
   -0.4168   -1.3020    0.0000 C   0  0  0  0  0  0  0  0  0
   -1.2373   -1.3883    0.0000 C   0  0  0  0  0  0  0  0  0
   -1.7222   -0.7208    0.0000 C   0  0  0  0  0  0  0  0  0
   -2.5427   -0.8070    0.0000 C   0  0  0  0  0  0  0  0  0
   -3.3631   -0.8933    0.0000 F   0  0  0  0  0  0  0  0  0
   -2.4564   -1.6275    0.0000 F   0  0  0  0  0  0  0  0  0
   -2.6289    0.0134    0.0000 F   0  0  0  0  0  0  0  0  0
   -1.3866    0.0329    0.0000 C   0  0  0  0  0  0  0  0  0
   -1.8716    0.7003    0.0000 F   0  0  0  0  0  0  0  0  0
    4.3390   -0.1437    0.0000 C   0  0  0  0  0  0  0  0  0
    4.8239    0.5238    0.0000 N   0  0  0  0  0  0  0  0  0
    5.6085    0.2688    0.0000 N   0  0  0  0  0  0  0  0  0
    5.6085   -0.5562    0.0000 C   0  0  0  0  0  0  0  0  0
    4.8239   -0.8111    0.0000 N   0  0  0  0  0  0  0  0  0
    4.5689   -1.5957    0.0000 C   0  0  0  0  0  0  0  0  0
    6.2759   -1.0411    0.0000 C   0  0  0  0  0  0  0  0  0
    7.0606   -0.7862    0.0000 O   0  0  0  0  0  0  0  0  0
    7.5455   -1.4536    0.0000 C   0  0  0  0  0  0  0  0  0
    7.0606   -2.1210    0.0000 N   0  0  0  0  0  0  0  0  0
    6.2759   -1.8661    0.0000 C   0  0  0  0  0  0  0  0  0
    5.6085   -2.3510    0.0000 C   0  0  0  0  0  0  0  0  0
  1  2  1  0  0  0  0
  1 22  1  0  0  0  0
  2  3  1  0  0  0  0
  3  4  1  0  0  0  0
  4  5  1  0  0  0  0
  5  6  1  0  0  0  0
  5 10  1  0  0  0  0
  6  7  1  0  0  0  0
  7  8  1  0  0  0  0
  7  9  1  0  0  0  0
  7 11  1  0  0  0  0
  8  9  1  0  0  0  0
  8 10  1  0  0  0  0
 11 12  4  0  0  0  0
 11 20  4  0  0  0  0
 12 13  4  0  0  0  0
 13 14  4  0  0  0  0
 14 15  4  0  0  0  0
 15 16  1  0  0  0  0
 15 20  4  0  0  0  0
 16 17  1  0  0  0  0
 16 18  1  0  0  0  0
 16 19  1  0  0  0  0
 20 21  1  0  0  0  0
 22 23  4  0  0  0  0
 22 26  4  0  0  0  0
 23 24  4  0  0  0  0
 24 25  4  0  0  0  0
 25 26  4  0  0  0  0
 25 28  1  0  0  0  0
 26 27  1  0  0  0  0
 28 29  4  0  0  0  0
 28 32  4  0  0  0  0
 29 30  4  0  0  0  0
 30 31  4  0  0  0  0
 31 32  4  0  0  0  0
 32 33  1  0  0  0  0
M  END
>  <Name_Molregno>
611380

>  <DOPAMINE D2>
6.9

>  <DOPAMINE D3>
8.4

$$$$
611381
  Marvin  02231216192D 0   1.00000     0.00000     0

 33 37  0  0  1  0  0  0  0  0999 V2000
    3.3403   -0.1268    0.0000 S   0  0  0  0  0  0  0  0  0
    2.9278    0.5877    0.0000 C   0  0  0  0  0  0  0  0  0
    2.1028    0.5877    0.0000 C   0  0  0  0  0  0  0  0  0
    1.6903    1.3022    0.0000 C   0  0  0  0  0  0  0  0  0
    0.8653    1.3022    0.0000 N   0  0  0  0  0  0  0  0  0
    0.3804    0.6347    0.0000 C   0  0  0  0  0  0  0  0  0
   -0.4042    0.8897    0.0000 C   0  0  0  0  0  0  0  0  0
   -0.4042    1.7147    0.0000 C   0  0  0  0  0  0  0  0  0
   -1.1187    1.3022    0.0000 C   0  0  0  0  0  0  0  0  0
    0.3804    1.9696    0.0000 C   0  0  0  0  0  0  0  0  0
   -0.7398    0.1360    0.0000 C   0  0  0  0  0  0  0  0  0
   -0.2548   -0.5314    0.0000 C   0  0  0  0  0  0  0  0  0
   -0.5904   -1.2851    0.0000 C   0  0  0  0  0  0  0  0  0
   -0.1055   -1.9525    0.0000 F   0  0  0  0  0  0  0  0  0
   -1.4109   -1.3713    0.0000 C   0  0  0  0  0  0  0  0  0
   -1.8958   -0.7039    0.0000 C   0  0  0  0  0  0  0  0  0
   -1.5602    0.0498    0.0000 C   0  0  0  0  0  0  0  0  0
   -1.7464   -2.1250    0.0000 C   0  0  0  0  0  0  0  0  0
   -2.0820   -2.8787    0.0000 F   0  0  0  0  0  0  0  0  0
   -0.9928   -2.4606    0.0000 F   0  0  0  0  0  0  0  0  0
   -2.5001   -1.7895    0.0000 F   0  0  0  0  0  0  0  0  0
    4.1653   -0.1268    0.0000 C   0  0  0  0  0  0  0  0  0
    4.6503    0.5407    0.0000 N   0  0  0  0  0  0  0  0  0
    5.4349    0.2857    0.0000 N   0  0  0  0  0  0  0  0  0
    5.4349   -0.5393    0.0000 C   0  0  0  0  0  0  0  0  0
    4.6503   -0.7942    0.0000 N   0  0  0  0  0  0  0  0  0
    4.3953   -1.5788    0.0000 C   0  0  0  0  0  0  0  0  0
    6.1023   -1.0242    0.0000 C   0  0  0  0  0  0  0  0  0
    6.8869   -0.7692    0.0000 O   0  0  0  0  0  0  0  0  0
    7.3719   -1.4367    0.0000 C   0  0  0  0  0  0  0  0  0
    6.8869   -2.1041    0.0000 N   0  0  0  0  0  0  0  0  0
    6.1023   -1.8492    0.0000 C   0  0  0  0  0  0  0  0  0
    5.4349   -2.3341    0.0000 C   0  0  0  0  0  0  0  0  0
  1  2  1  0  0  0  0
  1 22  1  0  0  0  0
  2  3  1  0  0  0  0
  3  4  1  0  0  0  0
  4  5  1  0  0  0  0
  5  6  1  0  0  0  0
  5 10  1  0  0  0  0
  6  7  1  0  0  0  0
  7  8  1  0  0  0  0
  7  9  1  0  0  0  0
  7 11  1  0  0  0  0
  8  9  1  0  0  0  0
  8 10  1  0  0  0  0
 11 12  4  0  0  0  0
 11 17  4  0  0  0  0
 12 13  4  0  0  0  0
 13 14  1  0  0  0  0
 13 15  4  0  0  0  0
 15 16  4  0  0  0  0
 15 18  1  0  0  0  0
 16 17  4  0  0  0  0
 18 19  1  0  0  0  0
 18 20  1  0  0  0  0
 18 21  1  0  0  0  0
 22 23  4  0  0  0  0
 22 26  4  0  0  0  0
 23 24  4  0  0  0  0
 24 25  4  0  0  0  0
 25 26  4  0  0  0  0
 25 28  1  0  0  0  0
 26 27  1  0  0  0  0
 28 29  4  0  0  0  0
 28 32  4  0  0  0  0
 29 30  4  0  0  0  0
 30 31  4  0  0  0  0
 31 32  4  0  0  0  0
 32 33  1  0  0  0  0
M  END
>  <Name_Molregno>
611381

>  <DOPAMINE D2>
6.5

>  <DOPAMINE D3>
8.4

$$$$
611448
  Marvin  02231216192D 0   1.00000     0.00000     0

 34 39  0  0  1  0  0  0  0  0999 V2000
   10.0451   -1.3308    0.0000 Cl  0  0  0  0  0  0  0  0  0
    9.2381   -1.5024    0.0000 C   0  0  0  0  0  0  0  0  0
    8.9832   -2.2870    0.0000 C   0  0  0  0  0  0  0  0  0
    8.1762   -2.4585    0.0000 C   0  0  0  0  0  0  0  0  0
    7.6242   -1.8454    0.0000 C   0  0  0  0  0  0  0  0  0
    7.8791   -1.0608    0.0000 C   0  0  0  0  0  0  0  0  0
    8.6861   -0.8893    0.0000 C   0  0  0  0  0  0  0  0  0
    6.8172   -2.0170    0.0000 C   0  0  0  0  0  0  0  0  0
    6.1498   -2.5019    0.0000 C   0  0  0  0  0  0  0  0  0
    6.9034   -2.8374    0.0000 C   0  0  0  0  0  0  0  0  0
    5.4823   -2.0170    0.0000 C   0  0  0  0  0  0  0  0  0
    5.7373   -1.2323    0.0000 N   0  0  0  0  0  0  0  0  0
    6.5623   -1.2323    0.0000 C   0  0  0  0  0  0  0  0  0
    5.2523   -0.5649    0.0000 C   0  0  0  0  0  0  0  0  0
    5.5879    0.1888    0.0000 C   0  0  0  0  0  0  0  0  0
    5.1030    0.8562    0.0000 C   0  0  0  0  0  0  0  0  0
    5.4385    1.6099    0.0000 S   0  0  0  0  0  0  0  0  0
    4.9536    2.2773    0.0000 C   0  0  0  0  0  0  0  0  0
    4.1286    2.2773    0.0000 N   0  0  0  0  0  0  0  0  0
    3.8737    3.0620    0.0000 N   0  0  0  0  0  0  0  0  0
    4.5411    3.5469    0.0000 C   0  0  0  0  0  0  0  0  0
    5.2085    3.0620    0.0000 N   0  0  0  0  0  0  0  0  0
    5.9932    3.3169    0.0000 C   0  0  0  0  0  0  0  0  0
    4.5411    4.3719    0.0000 C   0  0  0  0  0  0  0  0  0
    5.2556    4.7844    0.0000 C   0  0  0  0  0  0  0  0  0
    5.2556    5.6094    0.0000 C   0  0  0  0  0  0  0  0  0
    5.9701    6.0219    0.0000 N   0  0  0  0  0  0  0  0  0
    6.6845    5.6094    0.0000 C   0  0  0  0  0  0  0  0  0
    6.6845    4.7844    0.0000 C   0  0  0  0  0  0  0  0  0
    5.9701    4.3719    0.0000 C   0  0  0  0  0  0  0  0  0
    7.3990    6.0219    0.0000 C   0  0  0  0  0  0  0  0  0
    4.5411    6.0219    0.0000 C   0  0  0  0  0  0  0  0  0
    3.8266    5.6094    0.0000 C   0  0  0  0  0  0  0  0  0
    3.8266    4.7844    0.0000 C   0  0  0  0  0  0  0  0  0
  1  2  1  0  0  0  0
  2  3  4  0  0  0  0
  2  7  4  0  0  0  0
  3  4  4  0  0  0  0
  4  5  4  0  0  0  0
  5  6  4  0  0  0  0
  5  8  1  0  0  0  0
  6  7  4  0  0  0  0
  8  9  1  0  0  0  0
  8 10  1  0  0  0  0
  8 13  1  0  0  0  0
  9 10  1  0  0  0  0
  9 11  1  0  0  0  0
 11 12  1  0  0  0  0
 12 13  1  0  0  0  0
 12 14  1  0  0  0  0
 14 15  1  0  0  0  0
 15 16  1  0  0  0  0
 16 17  1  0  0  0  0
 17 18  1  0  0  0  0
 18 19  4  0  0  0  0
 18 22  4  0  0  0  0
 19 20  4  0  0  0  0
 20 21  4  0  0  0  0
 21 22  4  0  0  0  0
 21 24  1  0  0  0  0
 22 23  1  0  0  0  0
 24 25  4  0  0  0  0
 24 34  4  0  0  0  0
 25 26  4  0  0  0  0
 25 30  4  0  0  0  0
 26 27  4  0  0  0  0
 26 32  4  0  0  0  0
 27 28  4  0  0  0  0
 28 29  4  0  0  0  0
 28 31  1  0  0  0  0
 29 30  4  0  0  0  0
 32 33  4  0  0  0  0
 33 34  4  0  0  0  0
M  END
>  <Name_Molregno>
611448

>  <DOPAMINE D2>
6.33

>  <DOPAMINE D3>
8.2

$$$$
615455
  Marvin  02231216192D 0   1.00000     0.00000     0

 23 25  0  0  0  0  0  0  0  0999 V2000
    5.8266    3.4266    0.0000 Cl  0  0  0  0  0  0  0  0  0
    5.1121    3.0141    0.0000 C   0  0  0  0  0  0  0  0  0
    5.1121    2.1891    0.0000 C   0  0  0  0  0  0  0  0  0
    4.3977    1.7766    0.0000 C   0  0  0  0  0  0  0  0  0
    4.3977    0.9516    0.0000 N   0  0  0  0  0  0  0  0  0
    5.0651    0.4667    0.0000 C   0  0  0  0  0  0  0  0  0
    4.8102   -0.3179    0.0000 C   0  0  0  0  0  0  0  0  0
    3.9852   -0.3179    0.0000 N   0  0  0  0  0  0  0  0  0
    3.5002   -0.9853    0.0000 C   0  0  0  0  0  0  0  0  0
    3.8358   -1.7390    0.0000 C   0  0  0  0  0  0  0  0  0
    3.3509   -2.4065    0.0000 N   0  0  0  0  0  0  0  0  0
    3.7418   -3.1330    0.0000 C   0  0  0  0  0  0  0  0  0
    3.4176   -3.8916    0.0000 C   0  0  0  0  0  0  0  0  0
    2.6223   -4.1110    0.0000 C   0  0  0  0  0  0  0  0  0
    1.9549   -3.6261    0.0000 C   0  0  0  0  0  0  0  0  0
    1.9178   -2.8020    0.0000 C   0  0  0  0  0  0  0  0  0
    2.5391   -2.2592    0.0000 C   0  0  0  0  0  0  0  0  0
    3.7302    0.4667    0.0000 C   0  0  0  0  0  0  0  0  0
    2.9456    0.7217    0.0000 O   0  0  0  0  0  0  0  0  0
    3.6832    2.1891    0.0000 C   0  0  0  0  0  0  0  0  0
    3.6832    3.0141    0.0000 C   0  0  0  0  0  0  0  0  0
    4.3977    3.4266    0.0000 C   0  0  0  0  0  0  0  0  0
    4.3977    4.2516    0.0000 F   0  0  0  0  0  0  0  0  0
  1  2  1  0  0  0  0
  2  3  4  0  0  0  0
  2 22  4  0  0  0  0
  3  4  4  0  0  0  0
  4  5  1  0  0  0  0
  4 20  4  0  0  0  0
  5  6  1  0  0  0  0
  5 18  1  0  0  0  0
  6  7  1  0  0  0  0
  7  8  1  0  0  0  0
  8  9  1  0  0  0  0
  8 18  1  0  0  0  0
  9 10  1  0  0  0  0
 10 11  1  0  0  0  0
 11 12  1  0  0  0  0
 11 17  1  0  0  0  0
 12 13  1  0  0  0  0
 13 14  1  0  0  0  0
 14 15  1  0  0  0  0
 15 16  1  0  0  0  0
 16 17  1  0  0  0  0
 18 19  2  0  0  0  0
 20 21  4  0  0  0  0
 21 22  4  0  0  0  0
 22 23  1  0  0  0  0
M  END
>  <Name_Molregno>
615455

>  <DOPAMINE D2>
7.8

>  <DOPAMINE D3>
7.6

$$$$
615456
  Marvin  02231216192D 0   1.00000     0.00000     0

 21 23  0  0  0  0  0  0  0  0999 V2000
   -0.0176    0.0562    0.0000 O   0  0  0  0  0  0  0  0  0
   -0.0176   -0.7688    0.0000 C   0  0  0  0  0  0  0  0  0
    0.6499   -1.2537    0.0000 N   0  0  0  0  0  0  0  0  0
    0.3949   -2.0383    0.0000 C   0  0  0  0  0  0  0  0  0
   -0.4301   -2.0383    0.0000 C   0  0  0  0  0  0  0  0  0
   -0.6850   -1.2537    0.0000 N   0  0  0  0  0  0  0  0  0
   -1.4696   -0.9988    0.0000 C   0  0  0  0  0  0  0  0  0
   -2.0827   -1.5508    0.0000 C   0  0  0  0  0  0  0  0  0
   -2.8673   -1.2959    0.0000 N   0  0  0  0  0  0  0  0  0
   -3.4375   -1.8922    0.0000 C   0  0  0  0  0  0  0  0  0
   -4.2591   -1.8182    0.0000 C   0  0  0  0  0  0  0  0  0
   -4.7136   -1.1297    0.0000 C   0  0  0  0  0  0  0  0  0
   -4.4587   -0.3451    0.0000 C   0  0  0  0  0  0  0  0  0
   -3.6863   -0.0552    0.0000 C   0  0  0  0  0  0  0  0  0
   -2.9781   -0.4783    0.0000 C   0  0  0  0  0  0  0  0  0
    1.4345   -0.9988    0.0000 C   0  0  0  0  0  0  0  0  0
    1.6060   -0.1918    0.0000 C   0  0  0  0  0  0  0  0  0
    2.3906    0.0631    0.0000 C   0  0  0  0  0  0  0  0  0
    3.0037   -0.4889    0.0000 C   0  0  0  0  0  0  0  0  0
    2.8322   -1.2959    0.0000 N   0  0  0  0  0  0  0  0  0
    2.0476   -1.5508    0.0000 C   0  0  0  0  0  0  0  0  0
  1  2  2  0  0  0  0
  2  3  1  0  0  0  0
  2  6  1  0  0  0  0
  3  4  1  0  0  0  0
  3 16  1  0  0  0  0
  4  5  1  0  0  0  0
  5  6  1  0  0  0  0
  6  7  1  0  0  0  0
  7  8  1  0  0  0  0
  8  9  1  0  0  0  0
  9 10  1  0  0  0  0
  9 15  1  0  0  0  0
 10 11  1  0  0  0  0
 11 12  1  0  0  0  0
 12 13  1  0  0  0  0
 13 14  1  0  0  0  0
 14 15  1  0  0  0  0
 16 17  4  0  0  0  0
 16 21  4  0  0  0  0
 17 18  4  0  0  0  0
 18 19  4  0  0  0  0
 19 20  4  0  0  0  0
 20 21  4  0  0  0  0
M  END
>  <Name_Molregno>
615456

>  <DOPAMINE D2>
7

>  <DOPAMINE D3>
7.1

$$$$
615457
  Marvin  02231216192D 0   1.00000     0.00000     0

 21 23  0  0  0  0  0  0  0  0999 V2000
   -0.0176    0.0562    0.0000 O   0  0  0  0  0  0  0  0  0
   -0.0176   -0.7688    0.0000 C   0  0  0  0  0  0  0  0  0
    0.6499   -1.2537    0.0000 N   0  0  0  0  0  0  0  0  0
    0.3949   -2.0383    0.0000 C   0  0  0  0  0  0  0  0  0
   -0.4301   -2.0383    0.0000 C   0  0  0  0  0  0  0  0  0
   -0.6850   -1.2537    0.0000 N   0  0  0  0  0  0  0  0  0
   -1.4696   -0.9988    0.0000 C   0  0  0  0  0  0  0  0  0
   -2.0827   -1.5508    0.0000 C   0  0  0  0  0  0  0  0  0
   -2.8673   -1.2959    0.0000 N   0  0  0  0  0  0  0  0  0
   -3.4375   -1.8922    0.0000 C   0  0  0  0  0  0  0  0  0
   -4.2591   -1.8182    0.0000 C   0  0  0  0  0  0  0  0  0
   -4.7136   -1.1297    0.0000 C   0  0  0  0  0  0  0  0  0
   -4.4587   -0.3451    0.0000 C   0  0  0  0  0  0  0  0  0
   -3.6863   -0.0552    0.0000 C   0  0  0  0  0  0  0  0  0
   -2.9781   -0.4783    0.0000 C   0  0  0  0  0  0  0  0  0
    1.4345   -0.9988    0.0000 C   0  0  0  0  0  0  0  0  0
    1.6060   -0.1918    0.0000 C   0  0  0  0  0  0  0  0  0
    2.3906    0.0631    0.0000 C   0  0  0  0  0  0  0  0  0
    3.0037   -0.4889    0.0000 N   0  0  0  0  0  0  0  0  0
    2.8322   -1.2959    0.0000 C   0  0  0  0  0  0  0  0  0
    2.0476   -1.5508    0.0000 C   0  0  0  0  0  0  0  0  0
  1  2  2  0  0  0  0
  2  3  1  0  0  0  0
  2  6  1  0  0  0  0
  3  4  1  0  0  0  0
  3 16  1  0  0  0  0
  4  5  1  0  0  0  0
  5  6  1  0  0  0  0
  6  7  1  0  0  0  0
  7  8  1  0  0  0  0
  8  9  1  0  0  0  0
  9 10  1  0  0  0  0
  9 15  1  0  0  0  0
 10 11  1  0  0  0  0
 11 12  1  0  0  0  0
 12 13  1  0  0  0  0
 13 14  1  0  0  0  0
 14 15  1  0  0  0  0
 16 17  4  0  0  0  0
 16 21  4  0  0  0  0
 17 18  4  0  0  0  0
 18 19  4  0  0  0  0
 19 20  4  0  0  0  0
 20 21  4  0  0  0  0
M  STY  1   1 DAT
M  SAL   1  1  19
M  SDT   1 MRV_IMPLICIT_H                                        
M  SDD   1     0.0000    0.0000    DR    ALL  0       0  
M  SED   1 IMPL_H1
M  END
>  <Name_Molregno>
615457

>  <DOPAMINE D2>
6.2

>  <DOPAMINE D3>
6.2

$$$$
615458
  Marvin  02231216192D 0   1.00000     0.00000     0

 22 24  0  0  0  0  0  0  0  0999 V2000
    6.0269    3.6392    0.0000 Cl  0  0  0  0  0  0  0  0  0
    5.3124    3.2267    0.0000 C   0  0  0  0  0  0  0  0  0
    5.3124    2.4017    0.0000 C   0  0  0  0  0  0  0  0  0
    4.5979    1.9892    0.0000 C   0  0  0  0  0  0  0  0  0
    4.5979    1.1642    0.0000 N   0  0  0  0  0  0  0  0  0
    5.2654    0.6792    0.0000 C   0  0  0  0  0  0  0  0  0
    5.0104   -0.1054    0.0000 C   0  0  0  0  0  0  0  0  0
    4.1854   -0.1054    0.0000 N   0  0  0  0  0  0  0  0  0
    3.7005   -0.7728    0.0000 C   0  0  0  0  0  0  0  0  0
    4.0361   -1.5265    0.0000 C   0  0  0  0  0  0  0  0  0
    3.5511   -2.1939    0.0000 N   0  0  0  0  0  0  0  0  0
    3.9421   -2.9204    0.0000 C   0  0  0  0  0  0  0  0  0
    3.6178   -3.6790    0.0000 C   0  0  0  0  0  0  0  0  0
    2.8226   -3.8985    0.0000 C   0  0  0  0  0  0  0  0  0
    2.1551   -3.4136    0.0000 C   0  0  0  0  0  0  0  0  0
    2.1181   -2.5894    0.0000 C   0  0  0  0  0  0  0  0  0
    2.7394   -2.0466    0.0000 C   0  0  0  0  0  0  0  0  0
    3.9305    0.6792    0.0000 C   0  0  0  0  0  0  0  0  0
    3.1459    0.9342    0.0000 O   0  0  0  0  0  0  0  0  0
    3.8834    2.4017    0.0000 C   0  0  0  0  0  0  0  0  0
    3.8834    3.2267    0.0000 C   0  0  0  0  0  0  0  0  0
    4.5979    3.6392    0.0000 C   0  0  0  0  0  0  0  0  0
  1  2  1  0  0  0  0
  2  3  4  0  0  0  0
  2 22  4  0  0  0  0
  3  4  4  0  0  0  0
  4  5  1  0  0  0  0
  4 20  4  0  0  0  0
  5  6  1  0  0  0  0
  5 18  1  0  0  0  0
  6  7  2  0  0  0  0
  7  8  1  0  0  0  0
  8  9  1  0  0  0  0
  8 18  1  0  0  0  0
  9 10  1  0  0  0  0
 10 11  1  0  0  0  0
 11 12  1  0  0  0  0
 11 17  1  0  0  0  0
 12 13  1  0  0  0  0
 13 14  1  0  0  0  0
 14 15  1  0  0  0  0
 15 16  1  0  0  0  0
 16 17  1  0  0  0  0
 18 19  2  0  0  0  0
 20 21  4  0  0  0  0
 21 22  4  0  0  0  0
M  END
>  <Name_Molregno>
615458

>  <DOPAMINE D2>
6.4

>  <DOPAMINE D3>
6.2

$$$$
615459
  Marvin  02231216192D 0   1.00000     0.00000     0

 23 25  0  0  0  0  0  0  0  0999 V2000
    0.9775    1.2544    0.0000 Cl  0  0  0  0  0  0  0  0  0
    1.1490    0.4475    0.0000 C   0  0  0  0  0  0  0  0  0
    1.9336    0.1925    0.0000 C   0  0  0  0  0  0  0  0  0
    2.1052   -0.6144    0.0000 C   0  0  0  0  0  0  0  0  0
    2.8898   -0.8694    0.0000 N   0  0  0  0  0  0  0  0  0
    3.5572   -0.3845    0.0000 S   0  0  0  0  0  0  0  0  0
    3.0052    0.2286    0.0000 O   0  0  0  0  0  0  0  0  0
    4.1093    0.2286    0.0000 O   0  0  0  0  0  0  0  0  0
    4.2247   -0.8694    0.0000 N   0  0  0  0  0  0  0  0  0
    3.9697   -1.6540    0.0000 C   0  0  0  0  0  0  0  0  0
    3.1447   -1.6540    0.0000 C   0  0  0  0  0  0  0  0  0
    5.0093   -0.6144    0.0000 C   0  0  0  0  0  0  0  0  0
    5.1808    0.1925    0.0000 C   0  0  0  0  0  0  0  0  0
    5.9654    0.4475    0.0000 N   0  0  0  0  0  0  0  0  0
    6.0762    1.2650    0.0000 C   0  0  0  0  0  0  0  0  0
    6.7844    1.6882    0.0000 C   0  0  0  0  0  0  0  0  0
    7.5568    1.3983    0.0000 C   0  0  0  0  0  0  0  0  0
    7.8117    0.6136    0.0000 C   0  0  0  0  0  0  0  0  0
    7.3572   -0.0749    0.0000 C   0  0  0  0  0  0  0  0  0
    6.5356   -0.1488    0.0000 C   0  0  0  0  0  0  0  0  0
    1.4921   -1.1665    0.0000 C   0  0  0  0  0  0  0  0  0
    0.7074   -0.9115    0.0000 C   0  0  0  0  0  0  0  0  0
    0.5359   -0.1046    0.0000 C   0  0  0  0  0  0  0  0  0
  1  2  1  0  0  0  0
  2  3  4  0  0  0  0
  2 23  4  0  0  0  0
  3  4  4  0  0  0  0
  4  5  1  0  0  0  0
  4 21  4  0  0  0  0
  5  6  1  0  0  0  0
  5 11  1  0  0  0  0
  6  7  2  0  0  0  0
  6  8  2  0  0  0  0
  6  9  1  0  0  0  0
  9 10  1  0  0  0  0
  9 12  1  0  0  0  0
 10 11  1  0  0  0  0
 12 13  1  0  0  0  0
 13 14  1  0  0  0  0
 14 15  1  0  0  0  0
 14 20  1  0  0  0  0
 15 16  1  0  0  0  0
 16 17  1  0  0  0  0
 17 18  1  0  0  0  0
 18 19  1  0  0  0  0
 19 20  1  0  0  0  0
 21 22  4  0  0  0  0
 22 23  4  0  0  0  0
M  END
>  <Name_Molregno>
615459

>  <DOPAMINE D2>
6.7

>  <DOPAMINE D3>
6.5

$$$$
615460
  Marvin  02231216192D 0   1.00000     0.00000     0

 23 25  0  0  0  0  0  0  0  0999 V2000
   -1.2916    3.6410    0.0000 Cl  0  0  0  0  0  0  0  0  0
   -2.0060    3.2285    0.0000 C   0  0  0  0  0  0  0  0  0
   -2.0060    2.4035    0.0000 C   0  0  0  0  0  0  0  0  0
   -2.7205    1.9910    0.0000 C   0  0  0  0  0  0  0  0  0
   -2.7205    1.1660    0.0000 N   0  0  0  0  0  0  0  0  0
   -2.0531    0.6811    0.0000 C   0  0  0  0  0  0  0  0  0
   -2.3080   -0.1035    0.0000 C   0  0  0  0  0  0  0  0  0
   -3.1330   -0.1035    0.0000 N   0  0  0  0  0  0  0  0  0
   -3.6179   -0.7710    0.0000 C   0  0  0  0  0  0  0  0  0
   -4.4384   -0.6847    0.0000 C   0  0  0  0  0  0  0  0  0
   -4.9233   -1.3522    0.0000 C   0  0  0  0  0  0  0  0  0
   -5.7438   -1.2659    0.0000 N   0  0  0  0  0  0  0  0  0
   -6.1775   -1.9677    0.0000 C   0  0  0  0  0  0  0  0  0
   -6.9966   -2.0662    0.0000 C   0  0  0  0  0  0  0  0  0
   -7.5843   -1.4873    0.0000 C   0  0  0  0  0  0  0  0  0
   -7.4981   -0.6668    0.0000 C   0  0  0  0  0  0  0  0  0
   -6.8028   -0.2226    0.0000 C   0  0  0  0  0  0  0  0  0
   -6.0221   -0.4893    0.0000 C   0  0  0  0  0  0  0  0  0
   -3.3880    0.6811    0.0000 C   0  0  0  0  0  0  0  0  0
   -4.1726    0.9360    0.0000 O   0  0  0  0  0  0  0  0  0
   -3.4350    2.4035    0.0000 C   0  0  0  0  0  0  0  0  0
   -3.4350    3.2285    0.0000 C   0  0  0  0  0  0  0  0  0
   -2.7205    3.6410    0.0000 C   0  0  0  0  0  0  0  0  0
  1  2  1  0  0  0  0
  2  3  4  0  0  0  0
  2 23  4  0  0  0  0
  3  4  4  0  0  0  0
  4  5  1  0  0  0  0
  4 21  4  0  0  0  0
  5  6  1  0  0  0  0
  5 19  1  0  0  0  0
  6  7  2  0  0  0  0
  7  8  1  0  0  0  0
  8  9  1  0  0  0  0
  8 19  1  0  0  0  0
  9 10  1  0  0  0  0
 10 11  1  0  0  0  0
 11 12  1  0  0  0  0
 12 13  1  0  0  0  0
 12 18  1  0  0  0  0
 13 14  1  0  0  0  0
 14 15  1  0  0  0  0
 15 16  1  0  0  0  0
 16 17  1  0  0  0  0
 17 18  1  0  0  0  0
 19 20  2  0  0  0  0
 21 22  4  0  0  0  0
 22 23  4  0  0  0  0
M  END
>  <Name_Molregno>
615460

>  <DOPAMINE D2>
6.2

>  <DOPAMINE D3>
6.9

$$$$
615502
  Marvin  02231216192D 0   1.00000     0.00000     0

 22 25  0  0  0  0  0  0  0  0999 V2000
    0.3755   -0.3097    0.0000 N   0  0  0  0  0  0  0  0  0
   -0.0507    0.3967    0.0000 C   0  0  0  0  0  0  0  0  0
    0.4894    1.0203    0.0000 C   0  0  0  0  0  0  0  0  0
    0.2193    1.7999    0.0000 C   0  0  0  0  0  0  0  0  0
    0.7802    2.5074    0.0000 C   0  0  0  0  0  0  0  0  0
    0.7642    3.3322    0.0000 C   0  0  0  0  0  0  0  0  0
    1.5438    3.6023    0.0000 N   0  0  0  0  0  0  0  0  0
    2.0415    2.9443    0.0000 C   0  0  0  0  0  0  0  0  0
    2.9198    2.7354    0.0000 C   0  0  0  0  0  0  0  0  0
    3.1898    1.9558    0.0000 C   0  0  0  0  0  0  0  0  0
    2.6497    1.3322    0.0000 C   0  0  0  0  0  0  0  0  0
    1.8396    1.4881    0.0000 C   0  0  0  0  0  0  0  0  0
    1.2995    0.8644    0.0000 C   0  0  0  0  0  0  0  0  0
    1.1790   -0.1226    0.0000 C   0  0  0  0  0  0  0  0  0
    2.9198    0.5526    0.0000 C   0  0  0  0  0  0  0  0  0
    3.7299    0.3967    0.0000 C   0  0  0  0  0  0  0  0  0
    4.2700    1.0203    0.0000 C   0  0  0  0  0  0  0  0  0
    3.9999    1.7999    0.0000 C   0  0  0  0  0  0  0  0  0
    1.7835    4.3916    0.0000 C   0  0  0  0  0  0  0  0  0
   -0.5908    1.9558    0.0000 C   0  0  0  0  0  0  0  0  0
   -1.1309    1.3322    0.0000 C   0  0  0  0  0  0  0  0  0
   -0.8609    0.5526    0.0000 C   0  0  0  0  0  0  0  0  0
  1  2  4  0  0  0  0
  1 14  4  0  0  0  0
  2  3  4  0  0  0  0
  2 22  4  0  0  0  0
  3  4  4  0  0  0  0
  3 13  4  0  0  0  0
  4  5  1  0  0  0  0
  4 20  4  0  0  0  0
  5  6  1  0  0  0  0
  6  7  1  0  0  0  0
  7  8  1  0  0  0  0
  7 19  1  0  0  0  0
  8  9  1  0  0  0  0
  9 10  1  0  0  0  0
 10 11  4  0  0  0  0
 10 18  4  0  0  0  0
 11 12  1  0  0  0  0
 11 15  4  0  0  0  0
 12 13  1  0  0  0  0
 13 14  4  0  0  0  0
 15 16  4  0  0  0  0
 16 17  4  0  0  0  0
 17 18  4  0  0  0  0
 20 21  4  0  0  0  0
 21 22  4  0  0  0  0
M  STY  1   1 DAT
M  SAL   1  1   1
M  SDT   1 MRV_IMPLICIT_H                                        
M  SDD   1     0.0000    0.0000    DR    ALL  0       0  
M  SED   1 IMPL_H1
M  END
>  <Name_Molregno>
615502

>  <DOPAMINE D1>
8.38

>  <DOPAMINE D2>
8.4

>  <DOPAMINE D3>
7.37

>  <DOPAMINE D5>
8.6

$$$$
615503
  Marvin  02231216192D 0   1.00000     0.00000     0

 22 25  0  0  0  0  0  0  0  0999 V2000
   -0.5258   -0.5076    0.0000 N   0  0  0  0  0  0  0  0  0
    0.2562   -0.2448    0.0000 C   0  0  0  0  0  0  0  0  0
    0.5842    0.5123    0.0000 C   0  0  0  0  0  0  0  0  0
    1.4037    0.6068    0.0000 C   0  0  0  0  0  0  0  0  0
    1.8954   -0.0557    0.0000 N   0  0  0  0  0  0  0  0  0
    2.7149    0.0388    0.0000 C   0  0  0  0  0  0  0  0  0
    3.2066   -0.6237    0.0000 C   0  0  0  0  0  0  0  0  0
    2.8786   -1.3808    0.0000 C   0  0  0  0  0  0  0  0  0
    2.0591   -1.4753    0.0000 C   0  0  0  0  0  0  0  0  0
    1.5674   -0.8128    0.0000 C   0  0  0  0  0  0  0  0  0
    0.7479   -0.9073    0.0000 C   0  0  0  0  0  0  0  0  0
    0.2697   -1.5796    0.0000 C   0  0  0  0  0  0  0  0  0
   -0.5174   -1.3326    0.0000 C   0  0  0  0  0  0  0  0  0
   -1.1249   -1.8908    0.0000 C   0  0  0  0  0  0  0  0  0
   -0.9453   -2.6960    0.0000 C   0  0  0  0  0  0  0  0  0
   -0.1581   -2.9430    0.0000 C   0  0  0  0  0  0  0  0  0
    0.4494   -2.3848    0.0000 C   0  0  0  0  0  0  0  0  0
    1.7311   -2.2323    0.0000 C   0  0  0  0  0  0  0  0  0
    2.2228   -2.8948    0.0000 C   0  0  0  0  0  0  0  0  0
    3.0424   -2.8003    0.0000 C   0  0  0  0  0  0  0  0  0
    3.3703   -2.0433    0.0000 C   0  0  0  0  0  0  0  0  0
    1.1851   -0.4754    0.0000 C   0  0  0  0  0  0  0  0  0
  1  2  4  0  0  0  0
  1 13  4  0  0  0  0
  2  3  1  0  0  0  0
  2 11  4  0  0  0  0
  3  4  1  0  0  0  0
  4  5  1  0  0  0  0
  5  6  1  0  0  0  0
  5 22  1  0  0  0  0
  6  7  1  0  0  0  0
  7  8  1  0  0  0  0
  8  9  4  0  0  0  0
  8 21  4  0  0  0  0
  9 10  1  0  0  0  0
  9 18  4  0  0  0  0
 10 11  1  0  0  0  0
 11 12  4  0  0  0  0
 12 13  4  0  0  0  0
 12 17  4  0  0  0  0
 13 14  4  0  0  0  0
 14 15  4  0  0  0  0
 15 16  4  0  0  0  0
 16 17  4  0  0  0  0
 18 19  4  0  0  0  0
 19 20  4  0  0  0  0
 20 21  4  0  0  0  0
M  STY  1   1 DAT
M  SAL   1  1   1
M  SDT   1 MRV_IMPLICIT_H                                        
M  SDD   1     0.0000    0.0000    DR    ALL  0       0  
M  SED   1 IMPL_H1
M  END
>  <Name_Molregno>
615503

>  <DOPAMINE D1>
7.55

>  <DOPAMINE D2>
7.26

>  <DOPAMINE D3>
6.29

>  <DOPAMINE D5>
7.99

$$$$
615537
  Marvin  02231216192D 0   1.00000     0.00000     0

 20 22  0  0  1  0  0  0  0  0999 V2000
    5.6656    2.8997    0.0000 Cl  0  0  0  0  0  0  0  0  0
    4.9511    2.4872    0.0000 C   0  0  0  0  0  0  0  0  0
    4.9511    1.6622    0.0000 C   0  0  0  0  0  0  0  0  0
    4.2367    1.2497    0.0000 C   0  0  0  0  0  0  0  0  0
    4.2367    0.4247    0.0000 N   0  0  0  0  0  0  0  0  0
    4.9041   -0.0602    0.0000 C   0  0  0  0  0  0  0  0  0
    4.6492   -0.8448    0.0000 C   0  0  0  0  0  0  0  0  0
    3.8242   -0.8448    0.0000 N   0  0  0  0  0  0  0  0  0
    3.3393   -1.5123    0.0000 C   0  0  0  0  0  0  0  0  0
    2.5188   -1.4260    0.0000 C   0  0  0  0  0  0  0  0  0
    2.0338   -2.0935    0.0000 N   0  0  0  0  0  0  0  0  0
    1.2134   -2.0072    0.0000 C   0  0  0  0  0  0  0  0  0
    0.8778   -1.2536    0.0000 C   0  0  0  0  0  0  0  0  0
    1.3627   -0.5861    0.0000 C   0  0  0  0  0  0  0  0  0
    2.1832   -0.6724    0.0000 C   0  0  0  0  0  0  0  0  0
    3.5692   -0.0602    0.0000 C   0  0  0  0  0  0  0  0  0
    2.7846    0.1947    0.0000 O   0  0  0  0  0  0  0  0  0
    3.5222    1.6622    0.0000 C   0  0  0  0  0  0  0  0  0
    3.5222    2.4872    0.0000 C   0  0  0  0  0  0  0  0  0
    4.2367    2.8997    0.0000 C   0  0  0  0  0  0  0  0  0
  1  2  1  0  0  0  0
  2  3  4  0  0  0  0
  2 20  4  0  0  0  0
  3  4  4  0  0  0  0
  4  5  1  0  0  0  0
  4 18  4  0  0  0  0
  5  6  1  0  0  0  0
  5 16  1  0  0  0  0
  6  7  1  0  0  0  0
  7  8  1  0  0  0  0
  8  9  1  0  0  0  0
  8 16  1  0  0  0  0
  9 10  1  0  0  0  0
 10 11  1  0  0  0  0
 10 15  1  0  0  0  0
 11 12  1  0  0  0  0
 12 13  1  0  0  0  0
 13 14  1  0  0  0  0
 14 15  1  0  0  0  0
 16 17  2  0  0  0  0
 18 19  4  0  0  0  0
 19 20  4  0  0  0  0
M  END
>  <Name_Molregno>
615537

>  <DOPAMINE D2>
7.1

>  <DOPAMINE D3>
8.4

$$$$
615538
  Marvin  02231216192D 0   1.00000     0.00000     0

 20 22  0  0  1  0  0  0  0  0999 V2000
    5.6656    2.8997    0.0000 Cl  0  0  0  0  0  0  0  0  0
    4.9511    2.4872    0.0000 C   0  0  0  0  0  0  0  0  0
    4.9511    1.6622    0.0000 C   0  0  0  0  0  0  0  0  0
    4.2367    1.2497    0.0000 C   0  0  0  0  0  0  0  0  0
    4.2367    0.4247    0.0000 N   0  0  0  0  0  0  0  0  0
    4.9041   -0.0602    0.0000 C   0  0  0  0  0  0  0  0  0
    4.6492   -0.8448    0.0000 C   0  0  0  0  0  0  0  0  0
    3.8242   -0.8448    0.0000 N   0  0  0  0  0  0  0  0  0
    3.3393   -1.5123    0.0000 C   0  0  0  0  0  0  0  0  0
    2.5188   -1.4260    0.0000 C   0  0  0  0  0  0  0  0  0
    2.0338   -2.0935    0.0000 C   0  0  0  0  0  0  0  0  0
    1.2134   -2.0072    0.0000 C   0  0  0  0  0  0  0  0  0
    0.8778   -1.2536    0.0000 C   0  0  0  0  0  0  0  0  0
    1.3627   -0.5861    0.0000 N   0  0  0  0  0  0  0  0  0
    2.1832   -0.6724    0.0000 C   0  0  0  0  0  0  0  0  0
    3.5692   -0.0602    0.0000 C   0  0  0  0  0  0  0  0  0
    2.7846    0.1947    0.0000 O   0  0  0  0  0  0  0  0  0
    3.5222    1.6622    0.0000 C   0  0  0  0  0  0  0  0  0
    3.5222    2.4872    0.0000 C   0  0  0  0  0  0  0  0  0
    4.2367    2.8997    0.0000 C   0  0  0  0  0  0  0  0  0
  1  2  1  0  0  0  0
  2  3  4  0  0  0  0
  2 20  4  0  0  0  0
  3  4  4  0  0  0  0
  4  5  1  0  0  0  0
  4 18  4  0  0  0  0
  5  6  1  0  0  0  0
  5 16  1  0  0  0  0
  6  7  1  0  0  0  0
  7  8  1  0  0  0  0
  8  9  1  0  0  0  0
  8 16  1  0  0  0  0
  9 10  1  0  0  0  0
 10 11  1  0  0  0  0
 10 15  1  0  0  0  0
 11 12  1  0  0  0  0
 12 13  1  0  0  0  0
 13 14  1  0  0  0  0
 14 15  1  0  0  0  0
 16 17  2  0  0  0  0
 18 19  4  0  0  0  0
 19 20  4  0  0  0  0
M  END
>  <Name_Molregno>
615538

>  <DOPAMINE D2>
6.2

>  <DOPAMINE D3>
6.2

$$$$
615539
  Marvin  02231216192D 0   1.00000     0.00000     0

 20 22  0  0  0  0  0  0  0  0999 V2000
    5.6656    2.8997    0.0000 Cl  0  0  0  0  0  0  0  0  0
    4.9511    2.4872    0.0000 C   0  0  0  0  0  0  0  0  0
    4.9511    1.6622    0.0000 C   0  0  0  0  0  0  0  0  0
    4.2367    1.2497    0.0000 C   0  0  0  0  0  0  0  0  0
    4.2367    0.4247    0.0000 N   0  0  0  0  0  0  0  0  0
    4.9041   -0.0602    0.0000 C   0  0  0  0  0  0  0  0  0
    4.6492   -0.8448    0.0000 C   0  0  0  0  0  0  0  0  0
    3.8242   -0.8448    0.0000 N   0  0  0  0  0  0  0  0  0
    3.3393   -1.5123    0.0000 C   0  0  0  0  0  0  0  0  0
    2.5188   -1.4260    0.0000 C   0  0  0  0  0  0  0  0  0
    2.0338   -2.0935    0.0000 C   0  0  0  0  0  0  0  0  0
    1.2134   -2.0072    0.0000 C   0  0  0  0  0  0  0  0  0
    0.8778   -1.2536    0.0000 N   0  0  0  0  0  0  0  0  0
    1.3627   -0.5861    0.0000 C   0  0  0  0  0  0  0  0  0
    2.1832   -0.6724    0.0000 C   0  0  0  0  0  0  0  0  0
    3.5692   -0.0602    0.0000 C   0  0  0  0  0  0  0  0  0
    2.7846    0.1947    0.0000 O   0  0  0  0  0  0  0  0  0
    3.5222    1.6622    0.0000 C   0  0  0  0  0  0  0  0  0
    3.5222    2.4872    0.0000 C   0  0  0  0  0  0  0  0  0
    4.2367    2.8997    0.0000 C   0  0  0  0  0  0  0  0  0
  1  2  1  0  0  0  0
  2  3  4  0  0  0  0
  2 20  4  0  0  0  0
  3  4  4  0  0  0  0
  4  5  1  0  0  0  0
  4 18  4  0  0  0  0
  5  6  1  0  0  0  0
  5 16  1  0  0  0  0
  6  7  1  0  0  0  0
  7  8  1  0  0  0  0
  8  9  1  0  0  0  0
  8 16  1  0  0  0  0
  9 10  1  0  0  0  0
 10 11  1  0  0  0  0
 10 15  1  0  0  0  0
 11 12  1  0  0  0  0
 12 13  1  0  0  0  0
 13 14  1  0  0  0  0
 14 15  1  0  0  0  0
 16 17  2  0  0  0  0
 18 19  4  0  0  0  0
 19 20  4  0  0  0  0
M  END
>  <Name_Molregno>
615539

>  <DOPAMINE D2>
6.2

>  <DOPAMINE D3>
6.2

$$$$
615540
  Marvin  02231216192D 0   1.00000     0.00000     0

 23 25  0  0  1  0  0  0  0  0999 V2000
    6.1060    2.6866    0.0000 F   0  0  0  0  0  0  0  0  0
    5.3915    2.2741    0.0000 C   0  0  0  0  0  0  0  0  0
    4.9790    2.9885    0.0000 F   0  0  0  0  0  0  0  0  0
    5.8040    1.5596    0.0000 F   0  0  0  0  0  0  0  0  0
    4.6771    1.8616    0.0000 C   0  0  0  0  0  0  0  0  0
    4.6771    1.0366    0.0000 C   0  0  0  0  0  0  0  0  0
    3.9626    0.6241    0.0000 C   0  0  0  0  0  0  0  0  0
    3.9626   -0.2009    0.0000 N   0  0  0  0  0  0  0  0  0
    4.6300   -0.6858    0.0000 C   0  0  0  0  0  0  0  0  0
    4.3751   -1.4705    0.0000 C   0  0  0  0  0  0  0  0  0
    3.5501   -1.4705    0.0000 N   0  0  0  0  0  0  0  0  0
    3.0652   -2.1379    0.0000 C   0  0  0  0  0  0  0  0  0
    2.2447   -2.0517    0.0000 C   0  0  0  0  0  0  0  0  0
    1.7598   -2.7191    0.0000 N   0  0  0  0  0  0  0  0  0
    0.9393   -2.6329    0.0000 C   0  0  0  0  0  0  0  0  0
    0.6037   -1.8792    0.0000 C   0  0  0  0  0  0  0  0  0
    1.0887   -1.2118    0.0000 C   0  0  0  0  0  0  0  0  0
    1.9091   -1.2980    0.0000 C   0  0  0  0  0  0  0  0  0
    3.2952   -0.6858    0.0000 C   0  0  0  0  0  0  0  0  0
    2.5105   -0.4309    0.0000 O   0  0  0  0  0  0  0  0  0
    3.2481    1.0366    0.0000 C   0  0  0  0  0  0  0  0  0
    3.2481    1.8616    0.0000 C   0  0  0  0  0  0  0  0  0
    3.9626    2.2741    0.0000 C   0  0  0  0  0  0  0  0  0
  1  2  1  0  0  0  0
  2  3  1  0  0  0  0
  2  4  1  0  0  0  0
  2  5  1  0  0  0  0
  5  6  4  0  0  0  0
  5 23  4  0  0  0  0
  6  7  4  0  0  0  0
  7  8  1  0  0  0  0
  7 21  4  0  0  0  0
  8  9  1  0  0  0  0
  8 19  1  0  0  0  0
  9 10  1  0  0  0  0
 10 11  1  0  0  0  0
 11 12  1  0  0  0  0
 11 19  1  0  0  0  0
 12 13  1  0  0  0  0
 13 14  1  0  0  0  0
 13 18  1  0  0  0  0
 14 15  1  0  0  0  0
 15 16  1  0  0  0  0
 16 17  1  0  0  0  0
 17 18  1  0  0  0  0
 19 20  2  0  0  0  0
 21 22  4  0  0  0  0
 22 23  4  0  0  0  0
M  END
>  <Name_Molregno>
615540

>  <DOPAMINE D2>
7.7

>  <DOPAMINE D3>
9.6

$$$$
615541
  Marvin  02231216192D 0   1.00000     0.00000     0

 19 21  0  0  1  0  0  0  0  0999 V2000
    0.2592    0.0206    0.0000 O   0  0  0  0  0  0  0  0  0
    0.2592   -0.8044    0.0000 C   0  0  0  0  0  0  0  0  0
    0.9266   -1.2893    0.0000 N   0  0  0  0  0  0  0  0  0
    0.6717   -2.0739    0.0000 C   0  0  0  0  0  0  0  0  0
   -0.1533   -2.0739    0.0000 C   0  0  0  0  0  0  0  0  0
   -0.4083   -1.2893    0.0000 N   0  0  0  0  0  0  0  0  0
   -1.1929   -1.0344    0.0000 C   0  0  0  0  0  0  0  0  0
   -1.8060   -1.5864    0.0000 C   0  0  0  0  0  0  0  0  0
   -1.6345   -2.3934    0.0000 N   0  0  0  0  0  0  0  0  0
   -2.2475   -2.9454    0.0000 C   0  0  0  0  0  0  0  0  0
   -3.0322   -2.6905    0.0000 C   0  0  0  0  0  0  0  0  0
   -3.2037   -1.8835    0.0000 C   0  0  0  0  0  0  0  0  0
   -2.5906   -1.3315    0.0000 C   0  0  0  0  0  0  0  0  0
    1.7112   -1.0344    0.0000 C   0  0  0  0  0  0  0  0  0
    1.8828   -0.2274    0.0000 C   0  0  0  0  0  0  0  0  0
    2.6674    0.0275    0.0000 C   0  0  0  0  0  0  0  0  0
    3.2805   -0.5245    0.0000 C   0  0  0  0  0  0  0  0  0
    3.1090   -1.3315    0.0000 N   0  0  0  0  0  0  0  0  0
    2.3243   -1.5864    0.0000 C   0  0  0  0  0  0  0  0  0
  1  2  2  0  0  0  0
  2  3  1  0  0  0  0
  2  6  1  0  0  0  0
  3  4  1  0  0  0  0
  3 14  1  0  0  0  0
  4  5  1  0  0  0  0
  5  6  1  0  0  0  0
  6  7  1  0  0  0  0
  7  8  1  0  0  0  0
  8  9  1  0  0  0  0
  8 13  1  0  0  0  0
  9 10  1  0  0  0  0
 10 11  1  0  0  0  0
 11 12  1  0  0  0  0
 12 13  1  0  0  0  0
 14 15  4  0  0  0  0
 14 19  4  0  0  0  0
 15 16  4  0  0  0  0
 16 17  4  0  0  0  0
 17 18  4  0  0  0  0
 18 19  4  0  0  0  0
M  END
>  <Name_Molregno>
615541

>  <DOPAMINE D2>
6.2

>  <DOPAMINE D3>
6.2

$$$$
615576
  Marvin  02231216192D 0   1.00000     0.00000     0

 20 24  0  0  1  0  0  0  0  0999 V2000
    0.2706   -0.2230    0.0000 N   0  0  0  0  0  0  0  0  0
    0.5760   -1.0802    0.0000 C   0  0  0  0  0  0  0  0  0
   -0.1419   -1.4927    0.0000 C   0  0  0  0  0  0  0  0  0
   -0.1419   -2.3177    0.0000 C   0  0  0  0  0  0  0  0  0
   -0.8544   -2.7302    0.0000 C   0  0  0  0  0  0  0  0  0
   -1.5669   -2.3177    0.0000 N   0  0  0  0  0  0  0  0  0
   -1.5669   -1.4927    0.0000 C   0  0  0  0  0  0  0  0  0
   -2.2813   -1.0802    0.0000 C   0  0  0  0  0  0  0  0  0
   -2.9958   -1.4927    0.0000 C   0  0  0  0  0  0  0  0  0
   -2.9958   -2.3177    0.0000 C   0  0  0  0  0  0  0  0  0
   -2.2813   -2.7302    0.0000 C   0  0  0  0  0  0  0  0  0
   -3.7103   -1.0802    0.0000 C   0  0  0  0  0  0  0  0  0
   -3.7103   -0.2552    0.0000 C   0  0  0  0  0  0  0  0  0
   -2.9958    0.1573    0.0000 C   0  0  0  0  0  0  0  0  0
   -2.2813   -0.2552    0.0000 C   0  0  0  0  0  0  0  0  0
   -0.8544   -1.0802    0.0000 C   0  0  0  0  0  0  0  0  0
   -0.5544   -0.2230    0.0000 C   0  0  0  0  0  0  0  0  0
    0.5760   -2.7302    0.0000 C   0  0  0  0  0  0  0  0  0
    1.2885   -2.3177    0.0000 C   0  0  0  0  0  0  0  0  0
    1.2885   -1.4927    0.0000 C   0  0  0  0  0  0  0  0  0
  1  2  4  0  0  0  0
  1 17  4  0  0  0  0
  2  3  4  0  0  0  0
  2 20  4  0  0  0  0
  3  4  4  0  0  0  0
  3 16  4  0  0  0  0
  4  5  1  0  0  0  0
  4 18  4  0  0  0  0
  5  6  1  0  0  0  0
  6  7  1  0  0  0  0
  6 11  1  0  0  0  0
  7  8  1  0  0  0  0
  7 16  1  0  0  0  0
  8  9  4  0  0  0  0
  8 15  4  0  0  0  0
  9 10  1  0  0  0  0
  9 12  4  0  0  0  0
 10 11  1  0  0  0  0
 12 13  4  0  0  0  0
 13 14  4  0  0  0  0
 14 15  4  0  0  0  0
 16 17  4  0  0  0  0
 18 19  4  0  0  0  0
 19 20  4  0  0  0  0
M  STY  1   1 DAT
M  SAL   1  1   1
M  SDT   1 MRV_IMPLICIT_H                                        
M  SDD   1     0.0000    0.0000    DR    ALL  0       0  
M  SED   1 IMPL_H1
M  END
>  <Name_Molregno>
615576

>  <DOPAMINE D1>
5

>  <DOPAMINE D2>
5

>  <DOPAMINE D3>
5

>  <DOPAMINE D5>
5

$$$$
615577
  Marvin  02231216192D 0   1.00000     0.00000     0

 21 25  0  0  1  0  0  0  0  0999 V2000
   -0.1833   -2.7968    0.0000 N   0  0  0  0  0  0  0  0  0
   -0.9982   -2.6686    0.0000 C   0  0  0  0  0  0  0  0  0
   -1.6388   -3.1885    0.0000 C   0  0  0  0  0  0  0  0  0
   -2.4094   -2.8936    0.0000 C   0  0  0  0  0  0  0  0  0
   -2.5393   -2.0789    0.0000 N   0  0  0  0  0  0  0  0  0
   -1.8987   -1.5591    0.0000 C   0  0  0  0  0  0  0  0  0
   -1.1282   -1.8539    0.0000 C   0  0  0  0  0  0  0  0  0
   -0.3935   -1.4786    0.0000 C   0  0  0  0  0  0  0  0  0
    0.1905   -2.0613    0.0000 C   0  0  0  0  0  0  0  0  0
    0.9872   -1.8470    0.0000 C   0  0  0  0  0  0  0  0  0
    1.1998   -1.0499    0.0000 C   0  0  0  0  0  0  0  0  0
    0.6159   -0.4671    0.0000 C   0  0  0  0  0  0  0  0  0
   -0.1808   -0.6815    0.0000 C   0  0  0  0  0  0  0  0  0
   -2.0286   -0.7444    0.0000 C   0  0  0  0  0  0  0  0  0
   -2.7991   -0.4495    0.0000 C   0  0  0  0  0  0  0  0  0
   -3.4397   -0.9694    0.0000 C   0  0  0  0  0  0  0  0  0
   -3.3098   -1.7841    0.0000 C   0  0  0  0  0  0  0  0  0
   -2.9290    0.3652    0.0000 C   0  0  0  0  0  0  0  0  0
   -2.2884    0.8851    0.0000 C   0  0  0  0  0  0  0  0  0
   -1.5179    0.5902    0.0000 C   0  0  0  0  0  0  0  0  0
   -1.3880   -0.2245    0.0000 C   0  0  0  0  0  0  0  0  0
  1  2  4  0  0  0  0
  1  9  4  0  0  0  0
  2  3  1  0  0  0  0
  2  7  4  0  0  0  0
  3  4  1  0  0  0  0
  4  5  1  0  0  0  0
  5  6  1  0  0  0  0
  5 17  1  0  0  0  0
  6  7  1  0  0  0  0
  6 14  1  0  0  0  0
  7  8  4  0  0  0  0
  8  9  4  0  0  0  0
  8 13  4  0  0  0  0
  9 10  4  0  0  0  0
 10 11  4  0  0  0  0
 11 12  4  0  0  0  0
 12 13  4  0  0  0  0
 14 15  4  0  0  0  0
 14 21  4  0  0  0  0
 15 16  1  0  0  0  0
 15 18  4  0  0  0  0
 16 17  1  0  0  0  0
 18 19  4  0  0  0  0
 19 20  4  0  0  0  0
 20 21  4  0  0  0  0
M  STY  1   1 DAT
M  SAL   1  1   1
M  SDT   1 MRV_IMPLICIT_H                                        
M  SDD   1     0.0000    0.0000    DR    ALL  0       0  
M  SED   1 IMPL_H1
M  END
>  <Name_Molregno>
615577

>  <DOPAMINE D1>
5.68

>  <DOPAMINE D2>
5.83

>  <DOPAMINE D3>
5

>  <DOPAMINE D5>
5

$$$$
615578
  Marvin  02231216192D 0   1.00000     0.00000     0

 21 25  0  0  1  0  0  0  0  0999 V2000
    0.2484   -2.9047    0.0000 N   0  0  0  0  0  0  0  0  0
   -0.3743   -2.3635    0.0000 C   0  0  0  0  0  0  0  0  0
   -0.0520   -1.6040    0.0000 C   0  0  0  0  0  0  0  0  0
   -0.5082   -0.9167    0.0000 C   0  0  0  0  0  0  0  0  0
   -0.2553   -0.1314    0.0000 C   0  0  0  0  0  0  0  0  0
    0.5163    0.1605    0.0000 C   0  0  0  0  0  0  0  0  0
    1.2256   -0.2608    0.0000 N   0  0  0  0  0  0  0  0  0
    1.3385   -1.0781    0.0000 C   0  0  0  0  0  0  0  0  0
    2.1026   -1.3890    0.0000 C   0  0  0  0  0  0  0  0  0
    2.7540   -0.8826    0.0000 C   0  0  0  0  0  0  0  0  0
    2.6411   -0.0654    0.0000 C   0  0  0  0  0  0  0  0  0
    1.8770    0.2455    0.0000 C   0  0  0  0  0  0  0  0  0
    3.5182   -1.1935    0.0000 C   0  0  0  0  0  0  0  0  0
    3.6310   -2.0108    0.0000 C   0  0  0  0  0  0  0  0  0
    2.9797   -2.5171    0.0000 C   0  0  0  0  0  0  0  0  0
    2.2155   -2.2062    0.0000 C   0  0  0  0  0  0  0  0  0
    0.7699   -1.6759    0.0000 C   0  0  0  0  0  0  0  0  0
    0.9555   -2.4797    0.0000 C   0  0  0  0  0  0  0  0  0
   -1.3674   -1.0458    0.0000 C   0  0  0  0  0  0  0  0  0
   -1.6897   -1.8052    0.0000 C   0  0  0  0  0  0  0  0  0
   -1.1931   -2.4641    0.0000 C   0  0  0  0  0  0  0  0  0
  1  2  4  0  0  0  0
  1 18  4  0  0  0  0
  2  3  4  0  0  0  0
  2 21  4  0  0  0  0
  3  4  4  0  0  0  0
  3 17  4  0  0  0  0
  4  5  1  0  0  0  0
  4 19  4  0  0  0  0
  5  6  1  0  0  0  0
  6  7  1  0  0  0  0
  7  8  1  0  0  0  0
  7 12  1  0  0  0  0
  8  9  1  0  0  0  0
  8 17  1  0  0  0  0
  9 10  4  0  0  0  0
  9 16  4  0  0  0  0
 10 11  1  0  0  0  0
 10 13  4  0  0  0  0
 11 12  1  0  0  0  0
 13 14  4  0  0  0  0
 14 15  4  0  0  0  0
 15 16  4  0  0  0  0
 17 18  4  0  0  0  0
 19 20  4  0  0  0  0
 20 21  4  0  0  0  0
M  STY  1   1 DAT
M  SAL   1  1   1
M  SDT   1 MRV_IMPLICIT_H                                        
M  SDD   1     0.0000    0.0000    DR    ALL  0       0  
M  SED   1 IMPL_H1
M  END
>  <Name_Molregno>
615578

>  <DOPAMINE D1>
5.74

>  <DOPAMINE D2>
5.35

>  <DOPAMINE D3>
5

>  <DOPAMINE D5>
5.82

$$$$
615579
  Marvin  02231216192D 0   1.00000     0.00000     0

 21 24  0  0  0  0  0  0  0  0999 V2000
    0.1059   -3.4197    0.0000 N   0  0  0  0  0  0  0  0  0
   -0.0656   -2.6127    0.0000 C   0  0  0  0  0  0  0  0  0
    0.6489   -2.2002    0.0000 C   0  0  0  0  0  0  0  0  0
    0.6489   -1.3752    0.0000 C   0  0  0  0  0  0  0  0  0
    1.3634   -0.9627    0.0000 C   0  0  0  0  0  0  0  0  0
    1.3634   -0.1377    0.0000 N   0  0  0  0  0  0  0  0  0
    2.0778    0.2748    0.0000 C   0  0  0  0  0  0  0  0  0
    2.7923   -0.1377    0.0000 C   0  0  0  0  0  0  0  0  0
    2.7923   -0.9627    0.0000 C   0  0  0  0  0  0  0  0  0
    2.0778   -1.3752    0.0000 C   0  0  0  0  0  0  0  0  0
    2.4159   -2.1096    0.0000 C   0  0  0  0  0  0  0  0  0
    1.3634   -2.6127    0.0000 C   0  0  0  0  0  0  0  0  0
    0.9264   -3.5059    0.0000 C   0  0  0  0  0  0  0  0  0
    2.0778   -2.2002    0.0000 C   0  0  0  0  0  0  0  0  0
    2.7923   -2.6127    0.0000 C   0  0  0  0  0  0  0  0  0
    3.5068   -2.2002    0.0000 C   0  0  0  0  0  0  0  0  0
    3.5068   -1.3752    0.0000 C   0  0  0  0  0  0  0  0  0
    0.6489    0.2748    0.0000 C   0  0  0  0  0  0  0  0  0
   -0.0656   -0.9627    0.0000 C   0  0  0  0  0  0  0  0  0
   -0.7801   -1.3752    0.0000 C   0  0  0  0  0  0  0  0  0
   -0.7801   -2.2002    0.0000 C   0  0  0  0  0  0  0  0  0
  1  2  4  0  0  0  0
  1 13  4  0  0  0  0
  2  3  4  0  0  0  0
  2 21  4  0  0  0  0
  3  4  4  0  0  0  0
  3 12  4  0  0  0  0
  4  5  1  0  0  0  0
  4 19  4  0  0  0  0
  5  6  1  0  0  0  0
  6  7  1  0  0  0  0
  6 18  1  0  0  0  0
  7  8  1  0  0  0  0
  8  9  1  0  0  0  0
  9 10  4  0  0  0  0
  9 17  4  0  0  0  0
 10 11  1  0  0  0  0
 10 14  4  0  0  0  0
 11 12  1  0  0  0  0
 12 13  4  0  0  0  0
 14 15  4  0  0  0  0
 15 16  4  0  0  0  0
 16 17  4  0  0  0  0
 19 20  4  0  0  0  0
 20 21  4  0  0  0  0
M  STY  1   1 DAT
M  SAL   1  1   1
M  SDT   1 MRV_IMPLICIT_H                                        
M  SDD   1     0.0000    0.0000    DR    ALL  0       0  
M  SED   1 IMPL_H1
M  END
>  <Name_Molregno>
615579

>  <DOPAMINE D1>
5

>  <DOPAMINE D2>
5

>  <DOPAMINE D3>
5

>  <DOPAMINE D5>
5

$$$$
616444
  Marvin  02231216192D 0   1.00000     0.00000     0

 22 24  0  0  0  0  0  0  0  0999 V2000
    6.0269    3.6392    0.0000 Cl  0  0  0  0  0  0  0  0  0
    5.3124    3.2267    0.0000 C   0  0  0  0  0  0  0  0  0
    5.3124    2.4017    0.0000 C   0  0  0  0  0  0  0  0  0
    4.5979    1.9892    0.0000 C   0  0  0  0  0  0  0  0  0
    4.5979    1.1642    0.0000 N   0  0  0  0  0  0  0  0  0
    5.2654    0.6792    0.0000 C   0  0  0  0  0  0  0  0  0
    5.0104   -0.1054    0.0000 C   0  0  0  0  0  0  0  0  0
    4.1854   -0.1054    0.0000 N   0  0  0  0  0  0  0  0  0
    3.7005   -0.7728    0.0000 C   0  0  0  0  0  0  0  0  0
    4.0361   -1.5265    0.0000 C   0  0  0  0  0  0  0  0  0
    3.5511   -2.1939    0.0000 N   0  0  0  0  0  0  0  0  0
    3.9421   -2.9204    0.0000 C   0  0  0  0  0  0  0  0  0
    3.6178   -3.6790    0.0000 C   0  0  0  0  0  0  0  0  0
    2.8226   -3.8985    0.0000 C   0  0  0  0  0  0  0  0  0
    2.1551   -3.4136    0.0000 C   0  0  0  0  0  0  0  0  0
    2.1181   -2.5894    0.0000 C   0  0  0  0  0  0  0  0  0
    2.7394   -2.0466    0.0000 C   0  0  0  0  0  0  0  0  0
    3.9305    0.6792    0.0000 C   0  0  0  0  0  0  0  0  0
    3.1459    0.9342    0.0000 O   0  0  0  0  0  0  0  0  0
    3.8834    2.4017    0.0000 C   0  0  0  0  0  0  0  0  0
    3.8834    3.2267    0.0000 C   0  0  0  0  0  0  0  0  0
    4.5979    3.6392    0.0000 C   0  0  0  0  0  0  0  0  0
  1  2  1  0  0  0  0
  2  3  4  0  0  0  0
  2 22  4  0  0  0  0
  3  4  4  0  0  0  0
  4  5  1  0  0  0  0
  4 20  4  0  0  0  0
  5  6  1  0  0  0  0
  5 18  1  0  0  0  0
  6  7  1  0  0  0  0
  7  8  1  0  0  0  0
  8  9  1  0  0  0  0
  8 18  1  0  0  0  0
  9 10  1  0  0  0  0
 10 11  1  0  0  0  0
 11 12  1  0  0  0  0
 11 17  1  0  0  0  0
 12 13  1  0  0  0  0
 13 14  1  0  0  0  0
 14 15  1  0  0  0  0
 15 16  1  0  0  0  0
 16 17  1  0  0  0  0
 18 19  2  0  0  0  0
 20 21  4  0  0  0  0
 21 22  4  0  0  0  0
M  END
>  <Name_Molregno>
616444

>  <DOPAMINE D2>
8

>  <DOPAMINE D3>
8.3

$$$$
616445
  Marvin  02231216192D 0   1.00000     0.00000     0

 21 23  0  0  1  0  0  0  0  0999 V2000
   -1.2845    3.0603    0.0000 Cl  0  0  0  0  0  0  0  0  0
   -1.9990    2.6478    0.0000 C   0  0  0  0  0  0  0  0  0
   -1.9990    1.8228    0.0000 C   0  0  0  0  0  0  0  0  0
   -2.7134    1.4103    0.0000 C   0  0  0  0  0  0  0  0  0
   -2.7134    0.5853    0.0000 N   0  0  0  0  0  0  0  0  0
   -2.0460    0.1004    0.0000 C   0  0  0  0  0  0  0  0  0
   -2.3009   -0.6843    0.0000 C   0  0  0  0  0  0  0  0  0
   -3.1259   -0.6843    0.0000 N   0  0  0  0  0  0  0  0  0
   -3.6109   -1.3517    0.0000 C   0  0  0  0  0  0  0  0  0
   -4.4314   -1.2655    0.0000 C   0  0  0  0  0  0  0  0  0
   -4.9163   -1.9329    0.0000 N   0  0  0  0  0  0  0  0  0
   -5.7368   -1.8467    0.0000 C   0  0  0  0  0  0  0  0  0
   -6.0723   -1.0930    0.0000 C   0  0  0  0  0  0  0  0  0
   -5.5874   -0.4256    0.0000 C   0  0  0  0  0  0  0  0  0
   -4.7669   -0.5118    0.0000 C   0  0  0  0  0  0  0  0  0
   -4.5807   -2.6866    0.0000 C   0  0  0  0  0  0  0  0  0
   -3.3809    0.1004    0.0000 C   0  0  0  0  0  0  0  0  0
   -4.1655    0.3553    0.0000 O   0  0  0  0  0  0  0  0  0
   -3.4279    1.8228    0.0000 C   0  0  0  0  0  0  0  0  0
   -3.4279    2.6478    0.0000 C   0  0  0  0  0  0  0  0  0
   -2.7134    3.0603    0.0000 C   0  0  0  0  0  0  0  0  0
  1  2  1  0  0  0  0
  2  3  4  0  0  0  0
  2 21  4  0  0  0  0
  3  4  4  0  0  0  0
  4  5  1  0  0  0  0
  4 19  4  0  0  0  0
  5  6  1  0  0  0  0
  5 17  1  0  0  0  0
  6  7  1  0  0  0  0
  7  8  1  0  0  0  0
  8  9  1  0  0  0  0
  8 17  1  0  0  0  0
  9 10  1  0  0  0  0
 10 11  1  0  0  0  0
 10 15  1  0  0  0  0
 11 12  1  0  0  0  0
 11 16  1  0  0  0  0
 12 13  1  0  0  0  0
 13 14  1  0  0  0  0
 14 15  1  0  0  0  0
 17 18  2  0  0  0  0
 19 20  4  0  0  0  0
 20 21  4  0  0  0  0
M  END
>  <Name_Molregno>
616445

>  <DOPAMINE D2>
7.8

>  <DOPAMINE D3>
8.4

$$$$
616446
  Marvin  02231216192D 0   1.00000     0.00000     0

 22 24  0  0  0  0  0  0  0  0999 V2000
    4.9203    3.7516    0.0000 Cl  0  0  0  0  0  0  0  0  0
    4.9203    2.9266    0.0000 C   0  0  0  0  0  0  0  0  0
    5.6348    2.5141    0.0000 C   0  0  0  0  0  0  0  0  0
    5.6348    1.6891    0.0000 C   0  0  0  0  0  0  0  0  0
    4.9203    1.2766    0.0000 C   0  0  0  0  0  0  0  0  0
    4.9203    0.4516    0.0000 N   0  0  0  0  0  0  0  0  0
    5.5878   -0.0334    0.0000 C   0  0  0  0  0  0  0  0  0
    5.3328   -0.8180    0.0000 C   0  0  0  0  0  0  0  0  0
    4.5078   -0.8180    0.0000 N   0  0  0  0  0  0  0  0  0
    4.0229   -1.4854    0.0000 C   0  0  0  0  0  0  0  0  0
    4.3585   -2.2391    0.0000 C   0  0  0  0  0  0  0  0  0
    3.8735   -2.9065    0.0000 N   0  0  0  0  0  0  0  0  0
    4.2645   -3.6330    0.0000 C   0  0  0  0  0  0  0  0  0
    3.9402   -4.3916    0.0000 C   0  0  0  0  0  0  0  0  0
    3.1450   -4.6111    0.0000 C   0  0  0  0  0  0  0  0  0
    2.4775   -4.1262    0.0000 C   0  0  0  0  0  0  0  0  0
    2.4405   -3.3020    0.0000 C   0  0  0  0  0  0  0  0  0
    3.0618   -2.7592    0.0000 C   0  0  0  0  0  0  0  0  0
    4.2529   -0.0334    0.0000 C   0  0  0  0  0  0  0  0  0
    3.4683    0.2216    0.0000 O   0  0  0  0  0  0  0  0  0
    4.2059    1.6891    0.0000 C   0  0  0  0  0  0  0  0  0
    4.2059    2.5141    0.0000 C   0  0  0  0  0  0  0  0  0
  1  2  1  0  0  0  0
  2  3  4  0  0  0  0
  2 22  4  0  0  0  0
  3  4  4  0  0  0  0
  4  5  4  0  0  0  0
  5  6  1  0  0  0  0
  5 21  4  0  0  0  0
  6  7  1  0  0  0  0
  6 19  1  0  0  0  0
  7  8  1  0  0  0  0
  8  9  1  0  0  0  0
  9 10  1  0  0  0  0
  9 19  1  0  0  0  0
 10 11  1  0  0  0  0
 11 12  1  0  0  0  0
 12 13  1  0  0  0  0
 12 18  1  0  0  0  0
 13 14  1  0  0  0  0
 14 15  1  0  0  0  0
 15 16  1  0  0  0  0
 16 17  1  0  0  0  0
 17 18  1  0  0  0  0
 19 20  2  0  0  0  0
 21 22  4  0  0  0  0
M  END
>  <Name_Molregno>
616446

>  <DOPAMINE D2>
7

>  <DOPAMINE D3>
7.1

$$$$
616447
  Marvin  02231216192D 0   1.00000     0.00000     0

 23 25  0  0  0  0  0  0  0  0999 V2000
    4.5473    1.0721    0.0000 Cl  0  0  0  0  0  0  0  0  0
    3.8328    0.6596    0.0000 C   0  0  0  0  0  0  0  0  0
    3.8328   -0.1654    0.0000 C   0  0  0  0  0  0  0  0  0
    3.1183   -0.5779    0.0000 C   0  0  0  0  0  0  0  0  0
    3.1183   -1.4029    0.0000 N   0  0  0  0  0  0  0  0  0
    3.7858   -1.8878    0.0000 C   0  0  0  0  0  0  0  0  0
    3.5308   -2.6724    0.0000 C   0  0  0  0  0  0  0  0  0
    2.7058   -2.6724    0.0000 N   0  0  0  0  0  0  0  0  0
    2.2209   -3.3399    0.0000 C   0  0  0  0  0  0  0  0  0
    2.5565   -4.0936    0.0000 C   0  0  0  0  0  0  0  0  0
    2.0715   -4.7610    0.0000 N   0  0  0  0  0  0  0  0  0
    2.4625   -5.4875    0.0000 C   0  0  0  0  0  0  0  0  0
    2.1382   -6.2461    0.0000 C   0  0  0  0  0  0  0  0  0
    1.3430   -6.4656    0.0000 C   0  0  0  0  0  0  0  0  0
    0.6755   -5.9807    0.0000 C   0  0  0  0  0  0  0  0  0
    0.6385   -5.1565    0.0000 C   0  0  0  0  0  0  0  0  0
    1.2598   -4.6137    0.0000 C   0  0  0  0  0  0  0  0  0
    2.4509   -1.8878    0.0000 C   0  0  0  0  0  0  0  0  0
    1.6663   -1.6329    0.0000 O   0  0  0  0  0  0  0  0  0
    2.4039   -0.1654    0.0000 C   0  0  0  0  0  0  0  0  0
    2.4039    0.6596    0.0000 C   0  0  0  0  0  0  0  0  0
    1.6894    1.0721    0.0000 Cl  0  0  0  0  0  0  0  0  0
    3.1183    1.0721    0.0000 C   0  0  0  0  0  0  0  0  0
  1  2  1  0  0  0  0
  2  3  4  0  0  0  0
  2 23  4  0  0  0  0
  3  4  4  0  0  0  0
  4  5  1  0  0  0  0
  4 20  4  0  0  0  0
  5  6  1  0  0  0  0
  5 18  1  0  0  0  0
  6  7  1  0  0  0  0
  7  8  1  0  0  0  0
  8  9  1  0  0  0  0
  8 18  1  0  0  0  0
  9 10  1  0  0  0  0
 10 11  1  0  0  0  0
 11 12  1  0  0  0  0
 11 17  1  0  0  0  0
 12 13  1  0  0  0  0
 13 14  1  0  0  0  0
 14 15  1  0  0  0  0
 15 16  1  0  0  0  0
 16 17  1  0  0  0  0
 18 19  2  0  0  0  0
 20 21  4  0  0  0  0
 21 22  1  0  0  0  0
 21 23  4  0  0  0  0
M  END
>  <Name_Molregno>
616447

>  <DOPAMINE D2>
9.2

>  <DOPAMINE D3>
8.8

$$$$
616448
  Marvin  02231216192D 0   1.00000     0.00000     0

 22 24  0  0  0  0  0  0  0  0999 V2000
    0.0086    0.0342    0.0000 O   0  0  0  0  0  0  0  0  0
    0.0086   -0.7908    0.0000 C   0  0  0  0  0  0  0  0  0
    0.6760   -1.2757    0.0000 N   0  0  0  0  0  0  0  0  0
    0.4211   -2.0603    0.0000 C   0  0  0  0  0  0  0  0  0
   -0.4039   -2.0603    0.0000 C   0  0  0  0  0  0  0  0  0
   -0.6589   -1.2757    0.0000 N   0  0  0  0  0  0  0  0  0
   -1.4435   -1.0208    0.0000 C   0  0  0  0  0  0  0  0  0
   -2.0566   -1.5728    0.0000 C   0  0  0  0  0  0  0  0  0
   -2.8412   -1.3179    0.0000 N   0  0  0  0  0  0  0  0  0
   -3.4113   -1.9142    0.0000 C   0  0  0  0  0  0  0  0  0
   -4.2330   -1.8402    0.0000 C   0  0  0  0  0  0  0  0  0
   -4.6875   -1.1517    0.0000 C   0  0  0  0  0  0  0  0  0
   -4.4325   -0.3671    0.0000 C   0  0  0  0  0  0  0  0  0
   -3.6602   -0.0772    0.0000 C   0  0  0  0  0  0  0  0  0
   -2.9519   -0.5003    0.0000 C   0  0  0  0  0  0  0  0  0
    1.4606   -1.0208    0.0000 C   0  0  0  0  0  0  0  0  0
    1.6322   -0.2138    0.0000 C   0  0  0  0  0  0  0  0  0
    2.4168    0.0411    0.0000 C   0  0  0  0  0  0  0  0  0
    3.0299   -0.5109    0.0000 C   0  0  0  0  0  0  0  0  0
    2.8584   -1.3179    0.0000 C   0  0  0  0  0  0  0  0  0
    2.0737   -1.5728    0.0000 C   0  0  0  0  0  0  0  0  0
    1.9022   -2.3798    0.0000 C   0  0  0  0  0  0  0  0  0
  1  2  2  0  0  0  0
  2  3  1  0  0  0  0
  2  6  1  0  0  0  0
  3  4  1  0  0  0  0
  3 16  1  0  0  0  0
  4  5  1  0  0  0  0
  5  6  1  0  0  0  0
  6  7  1  0  0  0  0
  7  8  1  0  0  0  0
  8  9  1  0  0  0  0
  9 10  1  0  0  0  0
  9 15  1  0  0  0  0
 10 11  1  0  0  0  0
 11 12  1  0  0  0  0
 12 13  1  0  0  0  0
 13 14  1  0  0  0  0
 14 15  1  0  0  0  0
 16 17  4  0  0  0  0
 16 21  4  0  0  0  0
 17 18  4  0  0  0  0
 18 19  4  0  0  0  0
 19 20  4  0  0  0  0
 20 21  4  0  0  0  0
 21 22  1  0  0  0  0
M  END
>  <Name_Molregno>
616448

>  <DOPAMINE D2>
6.2

>  <DOPAMINE D3>
6.2

$$$$
616449
  Marvin  02231216192D 0   1.00000     0.00000     0

 22 24  0  0  0  0  0  0  0  0999 V2000
    0.0474   -0.0906    0.0000 O   0  0  0  0  0  0  0  0  0
    0.0474   -0.9156    0.0000 C   0  0  0  0  0  0  0  0  0
    0.7148   -1.4005    0.0000 N   0  0  0  0  0  0  0  0  0
    0.4599   -2.1852    0.0000 C   0  0  0  0  0  0  0  0  0
   -0.3651   -2.1852    0.0000 C   0  0  0  0  0  0  0  0  0
   -0.6201   -1.4005    0.0000 N   0  0  0  0  0  0  0  0  0
   -1.4047   -1.1456    0.0000 C   0  0  0  0  0  0  0  0  0
   -2.0178   -1.6976    0.0000 C   0  0  0  0  0  0  0  0  0
   -2.8024   -1.4427    0.0000 N   0  0  0  0  0  0  0  0  0
   -3.3725   -2.0390    0.0000 C   0  0  0  0  0  0  0  0  0
   -4.1942   -1.9650    0.0000 C   0  0  0  0  0  0  0  0  0
   -4.6487   -1.2765    0.0000 C   0  0  0  0  0  0  0  0  0
   -4.3937   -0.4919    0.0000 C   0  0  0  0  0  0  0  0  0
   -3.6214   -0.2020    0.0000 C   0  0  0  0  0  0  0  0  0
   -2.9131   -0.6252    0.0000 C   0  0  0  0  0  0  0  0  0
    1.4994   -1.1456    0.0000 C   0  0  0  0  0  0  0  0  0
    1.6710   -0.3386    0.0000 C   0  0  0  0  0  0  0  0  0
    2.4556   -0.0837    0.0000 C   0  0  0  0  0  0  0  0  0
    3.0687   -0.6357    0.0000 C   0  0  0  0  0  0  0  0  0
    2.8972   -1.4427    0.0000 C   0  0  0  0  0  0  0  0  0
    2.1125   -1.6976    0.0000 C   0  0  0  0  0  0  0  0  0
    2.6271    0.7233    0.0000 C   0  0  0  0  0  0  0  0  0
  1  2  2  0  0  0  0
  2  3  1  0  0  0  0
  2  6  1  0  0  0  0
  3  4  1  0  0  0  0
  3 16  1  0  0  0  0
  4  5  1  0  0  0  0
  5  6  1  0  0  0  0
  6  7  1  0  0  0  0
  7  8  1  0  0  0  0
  8  9  1  0  0  0  0
  9 10  1  0  0  0  0
  9 15  1  0  0  0  0
 10 11  1  0  0  0  0
 11 12  1  0  0  0  0
 12 13  1  0  0  0  0
 13 14  1  0  0  0  0
 14 15  1  0  0  0  0
 16 17  4  0  0  0  0
 16 21  4  0  0  0  0
 17 18  4  0  0  0  0
 18 19  4  0  0  0  0
 18 22  1  0  0  0  0
 19 20  4  0  0  0  0
 20 21  4  0  0  0  0
M  END
>  <Name_Molregno>
616449

>  <DOPAMINE D2>
7.6

>  <DOPAMINE D3>
7.1

$$$$
616510
  Marvin  02231216192D 0   1.00000     0.00000     0

 22 24  0  0  0  0  0  0  0  0999 V2000
   -0.0408    0.0595    0.0000 O   0  0  0  0  0  0  0  0  0
   -0.0408   -0.7655    0.0000 C   0  0  0  0  0  0  0  0  0
    0.6266   -1.2504    0.0000 N   0  0  0  0  0  0  0  0  0
    0.3717   -2.0350    0.0000 C   0  0  0  0  0  0  0  0  0
   -0.4533   -2.0350    0.0000 C   0  0  0  0  0  0  0  0  0
   -0.7083   -1.2504    0.0000 N   0  0  0  0  0  0  0  0  0
   -1.4929   -0.9955    0.0000 C   0  0  0  0  0  0  0  0  0
   -2.1060   -1.5475    0.0000 C   0  0  0  0  0  0  0  0  0
   -2.8906   -1.2926    0.0000 N   0  0  0  0  0  0  0  0  0
   -3.4607   -1.8889    0.0000 C   0  0  0  0  0  0  0  0  0
   -4.2824   -1.8149    0.0000 C   0  0  0  0  0  0  0  0  0
   -4.7369   -1.1264    0.0000 C   0  0  0  0  0  0  0  0  0
   -4.4819   -0.3418    0.0000 C   0  0  0  0  0  0  0  0  0
   -3.7096   -0.0519    0.0000 C   0  0  0  0  0  0  0  0  0
   -3.0013   -0.4750    0.0000 C   0  0  0  0  0  0  0  0  0
    1.4112   -0.9955    0.0000 C   0  0  0  0  0  0  0  0  0
    1.5828   -0.1885    0.0000 C   0  0  0  0  0  0  0  0  0
    2.3674    0.0665    0.0000 C   0  0  0  0  0  0  0  0  0
    2.9805   -0.4856    0.0000 C   0  0  0  0  0  0  0  0  0
    2.8090   -1.2926    0.0000 C   0  0  0  0  0  0  0  0  0
    2.0243   -1.5475    0.0000 C   0  0  0  0  0  0  0  0  0
    3.7651   -0.2306    0.0000 C   0  0  0  0  0  0  0  0  0
  1  2  2  0  0  0  0
  2  3  1  0  0  0  0
  2  6  1  0  0  0  0
  3  4  1  0  0  0  0
  3 16  1  0  0  0  0
  4  5  1  0  0  0  0
  5  6  1  0  0  0  0
  6  7  1  0  0  0  0
  7  8  1  0  0  0  0
  8  9  1  0  0  0  0
  9 10  1  0  0  0  0
  9 15  1  0  0  0  0
 10 11  1  0  0  0  0
 11 12  1  0  0  0  0
 12 13  1  0  0  0  0
 13 14  1  0  0  0  0
 14 15  1  0  0  0  0
 16 17  4  0  0  0  0
 16 21  4  0  0  0  0
 17 18  4  0  0  0  0
 18 19  4  0  0  0  0
 19 20  4  0  0  0  0
 19 22  1  0  0  0  0
 20 21  4  0  0  0  0
M  END
>  <Name_Molregno>
616510

>  <DOPAMINE D2>
7.3

>  <DOPAMINE D3>
6.9

$$$$
616511
  Marvin  02231216192D 0   1.00000     0.00000     0

 23 25  0  0  0  0  0  0  0  0999 V2000
   -1.8946    3.4255    0.0000 O   0  0  0  0  0  0  0  0  0
   -1.8946    4.2505    0.0000 C   0  0  0  0  0  0  0  0  0
   -2.6091    3.0130    0.0000 C   0  0  0  0  0  0  0  0  0
   -2.6091    2.1880    0.0000 C   0  0  0  0  0  0  0  0  0
   -3.3235    1.7755    0.0000 C   0  0  0  0  0  0  0  0  0
   -3.3235    0.9505    0.0000 N   0  0  0  0  0  0  0  0  0
   -2.6561    0.4656    0.0000 C   0  0  0  0  0  0  0  0  0
   -2.9110   -0.3191    0.0000 C   0  0  0  0  0  0  0  0  0
   -3.7360   -0.3191    0.0000 N   0  0  0  0  0  0  0  0  0
   -4.2210   -0.9865    0.0000 C   0  0  0  0  0  0  0  0  0
   -3.8854   -1.7402    0.0000 C   0  0  0  0  0  0  0  0  0
   -4.3703   -2.4076    0.0000 N   0  0  0  0  0  0  0  0  0
   -3.9794   -3.1341    0.0000 C   0  0  0  0  0  0  0  0  0
   -4.3036   -3.8927    0.0000 C   0  0  0  0  0  0  0  0  0
   -5.0989   -4.1122    0.0000 C   0  0  0  0  0  0  0  0  0
   -5.7663   -3.6273    0.0000 C   0  0  0  0  0  0  0  0  0
   -5.8033   -2.8031    0.0000 C   0  0  0  0  0  0  0  0  0
   -5.1821   -2.2603    0.0000 C   0  0  0  0  0  0  0  0  0
   -3.9910    0.4656    0.0000 C   0  0  0  0  0  0  0  0  0
   -4.7756    0.7205    0.0000 O   0  0  0  0  0  0  0  0  0
   -4.0380    2.1880    0.0000 C   0  0  0  0  0  0  0  0  0
   -4.0380    3.0130    0.0000 C   0  0  0  0  0  0  0  0  0
   -3.3235    3.4255    0.0000 C   0  0  0  0  0  0  0  0  0
  1  2  1  0  0  0  0
  1  3  1  0  0  0  0
  3  4  4  0  0  0  0
  3 23  4  0  0  0  0
  4  5  4  0  0  0  0
  5  6  1  0  0  0  0
  5 21  4  0  0  0  0
  6  7  1  0  0  0  0
  6 19  1  0  0  0  0
  7  8  1  0  0  0  0
  8  9  1  0  0  0  0
  9 10  1  0  0  0  0
  9 19  1  0  0  0  0
 10 11  1  0  0  0  0
 11 12  1  0  0  0  0
 12 13  1  0  0  0  0
 12 18  1  0  0  0  0
 13 14  1  0  0  0  0
 14 15  1  0  0  0  0
 15 16  1  0  0  0  0
 16 17  1  0  0  0  0
 17 18  1  0  0  0  0
 19 20  2  0  0  0  0
 21 22  4  0  0  0  0
 22 23  4  0  0  0  0
M  END
>  <Name_Molregno>
616511

>  <DOPAMINE D2>
7.4

>  <DOPAMINE D3>
7.3

$$$$
616512
  Marvin  02231216192D 0   1.00000     0.00000     0

 25 27  0  0  0  0  0  0  0  0999 V2000
   -0.7080    3.3285    0.0000 F   0  0  0  0  0  0  0  0  0
   -1.4225    2.9160    0.0000 C   0  0  0  0  0  0  0  0  0
   -1.8350    3.6305    0.0000 F   0  0  0  0  0  0  0  0  0
   -1.0100    2.2015    0.0000 F   0  0  0  0  0  0  0  0  0
   -2.1370    2.5035    0.0000 C   0  0  0  0  0  0  0  0  0
   -2.1370    1.6785    0.0000 C   0  0  0  0  0  0  0  0  0
   -2.8515    1.2660    0.0000 C   0  0  0  0  0  0  0  0  0
   -2.8515    0.4410    0.0000 N   0  0  0  0  0  0  0  0  0
   -2.1840   -0.0439    0.0000 C   0  0  0  0  0  0  0  0  0
   -2.4390   -0.8285    0.0000 C   0  0  0  0  0  0  0  0  0
   -3.2640   -0.8285    0.0000 N   0  0  0  0  0  0  0  0  0
   -3.7489   -1.4960    0.0000 C   0  0  0  0  0  0  0  0  0
   -3.4133   -2.2497    0.0000 C   0  0  0  0  0  0  0  0  0
   -3.8982   -2.9171    0.0000 N   0  0  0  0  0  0  0  0  0
   -3.5073   -3.6436    0.0000 C   0  0  0  0  0  0  0  0  0
   -3.8315   -4.4022    0.0000 C   0  0  0  0  0  0  0  0  0
   -4.6268   -4.6217    0.0000 C   0  0  0  0  0  0  0  0  0
   -5.2943   -4.1368    0.0000 C   0  0  0  0  0  0  0  0  0
   -5.3313   -3.3126    0.0000 C   0  0  0  0  0  0  0  0  0
   -4.7100   -2.7698    0.0000 C   0  0  0  0  0  0  0  0  0
   -3.5189   -0.0439    0.0000 C   0  0  0  0  0  0  0  0  0
   -4.3035    0.2110    0.0000 O   0  0  0  0  0  0  0  0  0
   -3.5659    1.6785    0.0000 C   0  0  0  0  0  0  0  0  0
   -3.5659    2.5035    0.0000 C   0  0  0  0  0  0  0  0  0
   -2.8515    2.9160    0.0000 C   0  0  0  0  0  0  0  0  0
  1  2  1  0  0  0  0
  2  3  1  0  0  0  0
  2  4  1  0  0  0  0
  2  5  1  0  0  0  0
  5  6  4  0  0  0  0
  5 25  4  0  0  0  0
  6  7  4  0  0  0  0
  7  8  1  0  0  0  0
  7 23  4  0  0  0  0
  8  9  1  0  0  0  0
  8 21  1  0  0  0  0
  9 10  1  0  0  0  0
 10 11  1  0  0  0  0
 11 12  1  0  0  0  0
 11 21  1  0  0  0  0
 12 13  1  0  0  0  0
 13 14  1  0  0  0  0
 14 15  1  0  0  0  0
 14 20  1  0  0  0  0
 15 16  1  0  0  0  0
 16 17  1  0  0  0  0
 17 18  1  0  0  0  0
 18 19  1  0  0  0  0
 19 20  1  0  0  0  0
 21 22  2  0  0  0  0
 23 24  4  0  0  0  0
 24 25  4  0  0  0  0
M  END
>  <Name_Molregno>
616512

>  <DOPAMINE D2>
8.8

>  <DOPAMINE D3>
9

$$$$
616513
  Marvin  02231216192D 0   1.00000     0.00000     0

 21 23  0  0  0  0  0  0  0  0999 V2000
   -0.0176    0.0562    0.0000 O   0  0  0  0  0  0  0  0  0
   -0.0176   -0.7688    0.0000 C   0  0  0  0  0  0  0  0  0
    0.6499   -1.2537    0.0000 N   0  0  0  0  0  0  0  0  0
    0.3949   -2.0383    0.0000 C   0  0  0  0  0  0  0  0  0
   -0.4301   -2.0383    0.0000 C   0  0  0  0  0  0  0  0  0
   -0.6850   -1.2537    0.0000 N   0  0  0  0  0  0  0  0  0
   -1.4696   -0.9988    0.0000 C   0  0  0  0  0  0  0  0  0
   -2.0827   -1.5508    0.0000 C   0  0  0  0  0  0  0  0  0
   -2.8673   -1.2959    0.0000 N   0  0  0  0  0  0  0  0  0
   -3.4375   -1.8922    0.0000 C   0  0  0  0  0  0  0  0  0
   -4.2591   -1.8182    0.0000 C   0  0  0  0  0  0  0  0  0
   -4.7136   -1.1297    0.0000 C   0  0  0  0  0  0  0  0  0
   -4.4587   -0.3451    0.0000 C   0  0  0  0  0  0  0  0  0
   -3.6863   -0.0552    0.0000 C   0  0  0  0  0  0  0  0  0
   -2.9781   -0.4783    0.0000 C   0  0  0  0  0  0  0  0  0
    1.4345   -0.9988    0.0000 C   0  0  0  0  0  0  0  0  0
    1.6060   -0.1918    0.0000 C   0  0  0  0  0  0  0  0  0
    2.3906    0.0631    0.0000 C   0  0  0  0  0  0  0  0  0
    3.0037   -0.4889    0.0000 C   0  0  0  0  0  0  0  0  0
    2.8322   -1.2959    0.0000 C   0  0  0  0  0  0  0  0  0
    2.0476   -1.5508    0.0000 C   0  0  0  0  0  0  0  0  0
  1  2  2  0  0  0  0
  2  3  1  0  0  0  0
  2  6  1  0  0  0  0
  3  4  1  0  0  0  0
  3 16  1  0  0  0  0
  4  5  1  0  0  0  0
  5  6  1  0  0  0  0
  6  7  1  0  0  0  0
  7  8  1  0  0  0  0
  8  9  1  0  0  0  0
  9 10  1  0  0  0  0
  9 15  1  0  0  0  0
 10 11  1  0  0  0  0
 11 12  1  0  0  0  0
 12 13  1  0  0  0  0
 13 14  1  0  0  0  0
 14 15  1  0  0  0  0
 16 17  4  0  0  0  0
 16 21  4  0  0  0  0
 17 18  4  0  0  0  0
 18 19  4  0  0  0  0
 19 20  4  0  0  0  0
 20 21  4  0  0  0  0
M  END
>  <Name_Molregno>
616513

>  <DOPAMINE D2>
8.1

>  <DOPAMINE D3>
7.2

$$$$
616514
  Marvin  02231216192D 0   1.00000     0.00000     0

 22 24  0  0  0  0  0  0  0  0999 V2000
    6.0269    3.6392    0.0000 F   0  0  0  0  0  0  0  0  0
    5.3124    3.2267    0.0000 C   0  0  0  0  0  0  0  0  0
    5.3124    2.4017    0.0000 C   0  0  0  0  0  0  0  0  0
    4.5979    1.9892    0.0000 C   0  0  0  0  0  0  0  0  0
    4.5979    1.1642    0.0000 N   0  0  0  0  0  0  0  0  0
    5.2654    0.6792    0.0000 C   0  0  0  0  0  0  0  0  0
    5.0104   -0.1054    0.0000 C   0  0  0  0  0  0  0  0  0
    4.1854   -0.1054    0.0000 N   0  0  0  0  0  0  0  0  0
    3.7005   -0.7728    0.0000 C   0  0  0  0  0  0  0  0  0
    4.0361   -1.5265    0.0000 C   0  0  0  0  0  0  0  0  0
    3.5511   -2.1939    0.0000 N   0  0  0  0  0  0  0  0  0
    3.9421   -2.9204    0.0000 C   0  0  0  0  0  0  0  0  0
    3.6178   -3.6790    0.0000 C   0  0  0  0  0  0  0  0  0
    2.8226   -3.8985    0.0000 C   0  0  0  0  0  0  0  0  0
    2.1551   -3.4136    0.0000 C   0  0  0  0  0  0  0  0  0
    2.1181   -2.5894    0.0000 C   0  0  0  0  0  0  0  0  0
    2.7394   -2.0466    0.0000 C   0  0  0  0  0  0  0  0  0
    3.9305    0.6792    0.0000 C   0  0  0  0  0  0  0  0  0
    3.1459    0.9342    0.0000 O   0  0  0  0  0  0  0  0  0
    3.8834    2.4017    0.0000 C   0  0  0  0  0  0  0  0  0
    3.8834    3.2267    0.0000 C   0  0  0  0  0  0  0  0  0
    4.5979    3.6392    0.0000 C   0  0  0  0  0  0  0  0  0
  1  2  1  0  0  0  0
  2  3  4  0  0  0  0
  2 22  4  0  0  0  0
  3  4  4  0  0  0  0
  4  5  1  0  0  0  0
  4 20  4  0  0  0  0
  5  6  1  0  0  0  0
  5 18  1  0  0  0  0
  6  7  1  0  0  0  0
  7  8  1  0  0  0  0
  8  9  1  0  0  0  0
  8 18  1  0  0  0  0
  9 10  1  0  0  0  0
 10 11  1  0  0  0  0
 11 12  1  0  0  0  0
 11 17  1  0  0  0  0
 12 13  1  0  0  0  0
 13 14  1  0  0  0  0
 14 15  1  0  0  0  0
 15 16  1  0  0  0  0
 16 17  1  0  0  0  0
 18 19  2  0  0  0  0
 20 21  4  0  0  0  0
 21 22  4  0  0  0  0
M  END
>  <Name_Molregno>
616514

>  <DOPAMINE D2>
8.6

>  <DOPAMINE D3>
7.8

$$$$
616515
  Marvin  02231216192D 0   1.00000     0.00000     0

 22 24  0  0  0  0  0  0  0  0999 V2000
    4.9203    3.7516    0.0000 F   0  0  0  0  0  0  0  0  0
    4.9203    2.9266    0.0000 C   0  0  0  0  0  0  0  0  0
    5.6348    2.5141    0.0000 C   0  0  0  0  0  0  0  0  0
    5.6348    1.6891    0.0000 C   0  0  0  0  0  0  0  0  0
    4.9203    1.2766    0.0000 C   0  0  0  0  0  0  0  0  0
    4.9203    0.4516    0.0000 N   0  0  0  0  0  0  0  0  0
    5.5878   -0.0334    0.0000 C   0  0  0  0  0  0  0  0  0
    5.3328   -0.8180    0.0000 C   0  0  0  0  0  0  0  0  0
    4.5078   -0.8180    0.0000 N   0  0  0  0  0  0  0  0  0
    4.0229   -1.4854    0.0000 C   0  0  0  0  0  0  0  0  0
    4.3585   -2.2391    0.0000 C   0  0  0  0  0  0  0  0  0
    3.8735   -2.9065    0.0000 N   0  0  0  0  0  0  0  0  0
    4.2645   -3.6330    0.0000 C   0  0  0  0  0  0  0  0  0
    3.9402   -4.3916    0.0000 C   0  0  0  0  0  0  0  0  0
    3.1450   -4.6111    0.0000 C   0  0  0  0  0  0  0  0  0
    2.4775   -4.1262    0.0000 C   0  0  0  0  0  0  0  0  0
    2.4405   -3.3020    0.0000 C   0  0  0  0  0  0  0  0  0
    3.0618   -2.7592    0.0000 C   0  0  0  0  0  0  0  0  0
    4.2529   -0.0334    0.0000 C   0  0  0  0  0  0  0  0  0
    3.4683    0.2216    0.0000 O   0  0  0  0  0  0  0  0  0
    4.2059    1.6891    0.0000 C   0  0  0  0  0  0  0  0  0
    4.2059    2.5141    0.0000 C   0  0  0  0  0  0  0  0  0
  1  2  1  0  0  0  0
  2  3  4  0  0  0  0
  2 22  4  0  0  0  0
  3  4  4  0  0  0  0
  4  5  4  0  0  0  0
  5  6  1  0  0  0  0
  5 21  4  0  0  0  0
  6  7  1  0  0  0  0
  6 19  1  0  0  0  0
  7  8  1  0  0  0  0
  8  9  1  0  0  0  0
  9 10  1  0  0  0  0
  9 19  1  0  0  0  0
 10 11  1  0  0  0  0
 11 12  1  0  0  0  0
 12 13  1  0  0  0  0
 12 18  1  0  0  0  0
 13 14  1  0  0  0  0
 14 15  1  0  0  0  0
 15 16  1  0  0  0  0
 16 17  1  0  0  0  0
 17 18  1  0  0  0  0
 19 20  2  0  0  0  0
 21 22  4  0  0  0  0
M  END
>  <Name_Molregno>
616515

>  <DOPAMINE D2>
7.2

>  <DOPAMINE D3>
6.6

$$$$
649562
  Marvin  02231216192D 0   1.00000     0.00000     0

 24 27  0  0  0  0  0  0  0  0999 V2000
    1.0618    2.5000    0.0000 I   0  0  0  0  0  0  0  0  0
    1.5697    1.8499    0.0000 C   0  0  0  0  0  0  0  0  0
    2.3867    1.9647    0.0000 C   0  0  0  0  0  0  0  0  0
    2.8946    1.3146    0.0000 C   0  0  0  0  0  0  0  0  0
    2.5856    0.5497    0.0000 C   0  0  0  0  0  0  0  0  0
    1.7686    0.4349    0.0000 C   0  0  0  0  0  0  0  0  0
    1.2607    1.0850    0.0000 C   0  0  0  0  0  0  0  0  0
    3.0935   -0.1004    0.0000 C   0  0  0  0  0  0  0  0  0
    2.3651   -0.4877    0.0000 O   0  0  0  0  0  0  0  0  0
    3.6455    0.5127    0.0000 C   0  0  0  0  0  0  0  0  0
    4.4525    0.3411    0.0000 C   0  0  0  0  0  0  0  0  0
    4.7074   -0.4435    0.0000 N   0  0  0  0  0  0  0  0  0
    4.1554   -1.0566    0.0000 C   0  0  0  0  0  0  0  0  0
    3.3484   -0.8851    0.0000 C   0  0  0  0  0  0  0  0  0
    5.5144   -0.6150    0.0000 C   0  0  0  0  0  0  0  0  0
    5.7693   -1.3996    0.0000 C   0  0  0  0  0  0  0  0  0
    6.5540   -1.6546    0.0000 C   0  0  0  0  0  0  0  0  0
    7.2684   -1.2421    0.0000 C   0  0  0  0  0  0  0  0  0
    7.9829   -1.6546    0.0000 C   0  0  0  0  0  0  0  0  0
    7.9829   -2.4796    0.0000 C   0  0  0  0  0  0  0  0  0
    7.2684   -2.8921    0.0000 N   0  0  0  0  0  0  0  0  0
    6.5540   -2.4796    0.0000 C   0  0  0  0  0  0  0  0  0
    5.7693   -2.7345    0.0000 N   0  0  0  0  0  0  0  0  0
    5.2844   -2.0671    0.0000 C   0  0  0  0  0  0  0  0  0
  1  2  1  0  0  0  0
  2  3  4  0  0  0  0
  2  7  4  0  0  0  0
  3  4  4  0  0  0  0
  4  5  4  0  0  0  0
  5  6  4  0  0  0  0
  5  8  1  0  0  0  0
  6  7  4  0  0  0  0
  8  9  1  0  0  0  0
  8 10  1  0  0  0  0
  8 14  1  0  0  0  0
 10 11  1  0  0  0  0
 11 12  1  0  0  0  0
 12 13  1  0  0  0  0
 12 15  1  0  0  0  0
 13 14  1  0  0  0  0
 15 16  1  0  0  0  0
 16 17  4  0  0  0  0
 16 24  4  0  0  0  0
 17 18  4  0  0  0  0
 17 22  4  0  0  0  0
 18 19  4  0  0  0  0
 19 20  4  0  0  0  0
 20 21  4  0  0  0  0
 21 22  4  0  0  0  0
 22 23  4  0  0  0  0
 23 24  4  0  0  0  0
M  STY  1   1 DAT
M  SAL   1  1  23
M  SDT   1 MRV_IMPLICIT_H                                        
M  SDD   1     0.0000    0.0000    DR    ALL  0       0  
M  SED   1 IMPL_H1
M  END
>  <Name_Molregno>
649562

>  <DOPAMINE D2>
7.21

>  <DOPAMINE D3>
5.8

>  <DOPAMINE D4>
6.2

$$$$
649563
  Marvin  02231216192D 0   1.00000     0.00000     0

 25 28  0  0  0  0  0  0  0  0999 V2000
    1.0390    3.2783    0.0000 S   0  0  0  0  0  0  0  0  0
    0.2220    3.1635    0.0000 C   0  0  0  0  0  0  0  0  0
    1.5469    2.6282    0.0000 C   0  0  0  0  0  0  0  0  0
    2.3639    2.7430    0.0000 C   0  0  0  0  0  0  0  0  0
    2.8718    2.0929    0.0000 C   0  0  0  0  0  0  0  0  0
    2.5628    1.3280    0.0000 C   0  0  0  0  0  0  0  0  0
    1.7458    1.2132    0.0000 C   0  0  0  0  0  0  0  0  0
    1.2379    1.8633    0.0000 C   0  0  0  0  0  0  0  0  0
    3.0707    0.6779    0.0000 C   0  0  0  0  0  0  0  0  0
    2.3422    0.2906    0.0000 O   0  0  0  0  0  0  0  0  0
    3.6227    1.2910    0.0000 C   0  0  0  0  0  0  0  0  0
    4.4297    1.1194    0.0000 C   0  0  0  0  0  0  0  0  0
    4.6846    0.3348    0.0000 N   0  0  0  0  0  0  0  0  0
    4.1326   -0.2783    0.0000 C   0  0  0  0  0  0  0  0  0
    3.3256   -0.1068    0.0000 C   0  0  0  0  0  0  0  0  0
    5.4916    0.1633    0.0000 C   0  0  0  0  0  0  0  0  0
    5.7465   -0.6213    0.0000 C   0  0  0  0  0  0  0  0  0
    6.5311   -0.8763    0.0000 C   0  0  0  0  0  0  0  0  0
    7.2456   -0.4638    0.0000 C   0  0  0  0  0  0  0  0  0
    7.9601   -0.8763    0.0000 C   0  0  0  0  0  0  0  0  0
    7.9601   -1.7013    0.0000 C   0  0  0  0  0  0  0  0  0
    7.2456   -2.1138    0.0000 N   0  0  0  0  0  0  0  0  0
    6.5311   -1.7013    0.0000 C   0  0  0  0  0  0  0  0  0
    5.7465   -1.9562    0.0000 N   0  0  0  0  0  0  0  0  0
    5.2616   -1.2888    0.0000 C   0  0  0  0  0  0  0  0  0
  1  2  1  0  0  0  0
  1  3  1  0  0  0  0
  3  4  4  0  0  0  0
  3  8  4  0  0  0  0
  4  5  4  0  0  0  0
  5  6  4  0  0  0  0
  6  7  4  0  0  0  0
  6  9  1  0  0  0  0
  7  8  4  0  0  0  0
  9 10  1  0  0  0  0
  9 11  1  0  0  0  0
  9 15  1  0  0  0  0
 11 12  1  0  0  0  0
 12 13  1  0  0  0  0
 13 14  1  0  0  0  0
 13 16  1  0  0  0  0
 14 15  1  0  0  0  0
 16 17  1  0  0  0  0
 17 18  4  0  0  0  0
 17 25  4  0  0  0  0
 18 19  4  0  0  0  0
 18 23  4  0  0  0  0
 19 20  4  0  0  0  0
 20 21  4  0  0  0  0
 21 22  4  0  0  0  0
 22 23  4  0  0  0  0
 23 24  4  0  0  0  0
 24 25  4  0  0  0  0
M  STY  1   1 DAT
M  SAL   1  1  24
M  SDT   1 MRV_IMPLICIT_H                                        
M  SDD   1     0.0000    0.0000    DR    ALL  0       0  
M  SED   1 IMPL_H1
M  END
>  <Name_Molregno>
649563

>  <DOPAMINE D2>
6.6

>  <DOPAMINE D3>
5.31

>  <DOPAMINE D4>
6.03

$$$$
649564
  Marvin  02231216192D 0   1.00000     0.00000     0

 24 27  0  0  0  0  0  0  0  0999 V2000
    0.3635   -1.7916    0.0000 Br  0  0  0  0  0  0  0  0  0
    1.1387   -1.5095    0.0000 C   0  0  0  0  0  0  0  0  0
    1.2820   -0.6970    0.0000 C   0  0  0  0  0  0  0  0  0
    2.0572   -0.4148    0.0000 C   0  0  0  0  0  0  0  0  0
    2.6892   -0.9451    0.0000 C   0  0  0  0  0  0  0  0  0
    2.5459   -1.7576    0.0000 C   0  0  0  0  0  0  0  0  0
    1.7707   -2.0398    0.0000 C   0  0  0  0  0  0  0  0  0
    3.4644   -0.6630    0.0000 C   0  0  0  0  0  0  0  0  0
    3.6077   -1.4754    0.0000 O   0  0  0  0  0  0  0  0  0
    3.0519    0.0515    0.0000 C   0  0  0  0  0  0  0  0  0
    3.4644    0.7660    0.0000 C   0  0  0  0  0  0  0  0  0
    4.2894    0.7660    0.0000 N   0  0  0  0  0  0  0  0  0
    4.7019    0.0515    0.0000 C   0  0  0  0  0  0  0  0  0
    4.2894   -0.6630    0.0000 C   0  0  0  0  0  0  0  0  0
    4.7019    1.4804    0.0000 C   0  0  0  0  0  0  0  0  0
    5.5269    1.4804    0.0000 C   0  0  0  0  0  0  0  0  0
    6.0119    0.8130    0.0000 O   0  0  0  0  0  0  0  0  0
    6.7965    1.0679    0.0000 C   0  0  0  0  0  0  0  0  0
    6.7965    1.8929    0.0000 C   0  0  0  0  0  0  0  0  0
    6.0119    2.1479    0.0000 C   0  0  0  0  0  0  0  0  0
    7.5110    2.3054    0.0000 C   0  0  0  0  0  0  0  0  0
    8.2254    1.8929    0.0000 C   0  0  0  0  0  0  0  0  0
    8.2254    1.0679    0.0000 C   0  0  0  0  0  0  0  0  0
    7.5110    0.6554    0.0000 C   0  0  0  0  0  0  0  0  0
  1  2  1  0  0  0  0
  2  3  4  0  0  0  0
  2  7  4  0  0  0  0
  3  4  4  0  0  0  0
  4  5  4  0  0  0  0
  5  6  4  0  0  0  0
  5  8  1  0  0  0  0
  6  7  4  0  0  0  0
  8  9  1  0  0  0  0
  8 10  1  0  0  0  0
  8 14  1  0  0  0  0
 10 11  1  0  0  0  0
 11 12  1  0  0  0  0
 12 13  1  0  0  0  0
 12 15  1  0  0  0  0
 13 14  1  0  0  0  0
 15 16  1  0  0  0  0
 16 17  4  0  0  0  0
 16 20  4  0  0  0  0
 17 18  4  0  0  0  0
 18 19  4  0  0  0  0
 18 24  4  0  0  0  0
 19 20  4  0  0  0  0
 19 21  4  0  0  0  0
 21 22  4  0  0  0  0
 22 23  4  0  0  0  0
 23 24  4  0  0  0  0
M  END
>  <Name_Molregno>
649564

>  <DOPAMINE D2>
7.76

>  <DOPAMINE D3>
7.5

>  <DOPAMINE D4>
6.6

$$$$
649603
  Marvin  02231216192D 0   1.00000     0.00000     0

 24 27  0  0  0  0  0  0  0  0999 V2000
    0.3635   -1.7916    0.0000 I   0  0  0  0  0  0  0  0  0
    1.1387   -1.5095    0.0000 C   0  0  0  0  0  0  0  0  0
    1.2820   -0.6970    0.0000 C   0  0  0  0  0  0  0  0  0
    2.0572   -0.4148    0.0000 C   0  0  0  0  0  0  0  0  0
    2.6892   -0.9451    0.0000 C   0  0  0  0  0  0  0  0  0
    2.5459   -1.7576    0.0000 C   0  0  0  0  0  0  0  0  0
    1.7707   -2.0398    0.0000 C   0  0  0  0  0  0  0  0  0
    3.4644   -0.6630    0.0000 C   0  0  0  0  0  0  0  0  0
    3.6077   -1.4754    0.0000 O   0  0  0  0  0  0  0  0  0
    3.0519    0.0515    0.0000 C   0  0  0  0  0  0  0  0  0
    3.4644    0.7660    0.0000 C   0  0  0  0  0  0  0  0  0
    4.2894    0.7660    0.0000 N   0  0  0  0  0  0  0  0  0
    4.7019    0.0515    0.0000 C   0  0  0  0  0  0  0  0  0
    4.2894   -0.6630    0.0000 C   0  0  0  0  0  0  0  0  0
    4.7019    1.4804    0.0000 C   0  0  0  0  0  0  0  0  0
    5.5269    1.4804    0.0000 C   0  0  0  0  0  0  0  0  0
    6.0119    0.8130    0.0000 O   0  0  0  0  0  0  0  0  0
    6.7965    1.0679    0.0000 C   0  0  0  0  0  0  0  0  0
    6.7965    1.8929    0.0000 C   0  0  0  0  0  0  0  0  0
    6.0119    2.1479    0.0000 C   0  0  0  0  0  0  0  0  0
    7.5110    2.3054    0.0000 C   0  0  0  0  0  0  0  0  0
    8.2254    1.8929    0.0000 C   0  0  0  0  0  0  0  0  0
    8.2254    1.0679    0.0000 C   0  0  0  0  0  0  0  0  0
    7.5110    0.6554    0.0000 C   0  0  0  0  0  0  0  0  0
  1  2  1  0  0  0  0
  2  3  4  0  0  0  0
  2  7  4  0  0  0  0
  3  4  4  0  0  0  0
  4  5  4  0  0  0  0
  5  6  4  0  0  0  0
  5  8  1  0  0  0  0
  6  7  4  0  0  0  0
  8  9  1  0  0  0  0
  8 10  1  0  0  0  0
  8 14  1  0  0  0  0
 10 11  1  0  0  0  0
 11 12  1  0  0  0  0
 12 13  1  0  0  0  0
 12 15  1  0  0  0  0
 13 14  1  0  0  0  0
 15 16  1  0  0  0  0
 16 17  4  0  0  0  0
 16 20  4  0  0  0  0
 17 18  4  0  0  0  0
 18 19  4  0  0  0  0
 18 24  4  0  0  0  0
 19 20  4  0  0  0  0
 19 21  4  0  0  0  0
 21 22  4  0  0  0  0
 22 23  4  0  0  0  0
 23 24  4  0  0  0  0
M  END
>  <Name_Molregno>
649603

>  <DOPAMINE D2>
7.84

>  <DOPAMINE D3>
7.31

>  <DOPAMINE D4>
6.61

$$$$
649645
  Marvin  02231216192D 0   1.00000     0.00000     0

 23 26  0  0  0  0  0  0  0  0999 V2000
   -0.0519    0.7159    0.0000 S   0  0  0  0  0  0  0  0  0
    0.7327    0.9708    0.0000 C   0  0  0  0  0  0  0  0  0
    0.7327    1.7958    0.0000 C   0  0  0  0  0  0  0  0  0
   -0.0519    2.0508    0.0000 C   0  0  0  0  0  0  0  0  0
   -0.5368    1.3833    0.0000 C   0  0  0  0  0  0  0  0  0
   -1.3618    1.3833    0.0000 C   0  0  0  0  0  0  0  0  0
   -1.7743    0.6688    0.0000 N   0  0  0  0  0  0  0  0  0
   -1.3618   -0.0456    0.0000 C   0  0  0  0  0  0  0  0  0
   -1.7743   -0.7601    0.0000 C   0  0  0  0  0  0  0  0  0
   -2.5993   -0.7601    0.0000 C   0  0  0  0  0  0  0  0  0
   -2.4561   -1.5726    0.0000 O   0  0  0  0  0  0  0  0  0
   -3.0118   -0.0456    0.0000 C   0  0  0  0  0  0  0  0  0
   -2.5993    0.6688    0.0000 C   0  0  0  0  0  0  0  0  0
   -3.3746   -1.0423    0.0000 C   0  0  0  0  0  0  0  0  0
   -3.5178   -1.8547    0.0000 C   0  0  0  0  0  0  0  0  0
   -4.2931   -2.1369    0.0000 C   0  0  0  0  0  0  0  0  0
   -4.9251   -1.6066    0.0000 C   0  0  0  0  0  0  0  0  0
   -4.7818   -0.7941    0.0000 C   0  0  0  0  0  0  0  0  0
   -4.0065   -0.5120    0.0000 C   0  0  0  0  0  0  0  0  0
    1.4472    2.2083    0.0000 C   0  0  0  0  0  0  0  0  0
    2.1617    1.7958    0.0000 C   0  0  0  0  0  0  0  0  0
    2.1617    0.9708    0.0000 C   0  0  0  0  0  0  0  0  0
    1.4472    0.5583    0.0000 C   0  0  0  0  0  0  0  0  0
  1  2  4  0  0  0  0
  1  5  4  0  0  0  0
  2  3  4  0  0  0  0
  2 23  4  0  0  0  0
  3  4  4  0  0  0  0
  3 20  4  0  0  0  0
  4  5  4  0  0  0  0
  5  6  1  0  0  0  0
  6  7  1  0  0  0  0
  7  8  1  0  0  0  0
  7 13  1  0  0  0  0
  8  9  1  0  0  0  0
  9 10  1  0  0  0  0
 10 11  1  0  0  0  0
 10 12  1  0  0  0  0
 10 14  1  0  0  0  0
 12 13  1  0  0  0  0
 14 15  4  0  0  0  0
 14 19  4  0  0  0  0
 15 16  4  0  0  0  0
 16 17  4  0  0  0  0
 17 18  4  0  0  0  0
 18 19  4  0  0  0  0
 20 21  4  0  0  0  0
 21 22  4  0  0  0  0
 22 23  4  0  0  0  0
M  END
>  <Name_Molregno>
649645

>  <DOPAMINE D2>
7.33

>  <DOPAMINE D3>
6.85

>  <DOPAMINE D4>
6.42

$$$$
649646
  Marvin  02231216192D 0   1.00000     0.00000     0

 24 27  0  0  0  0  0  0  0  0999 V2000
    0.3176    0.0313    0.0000 Br  0  0  0  0  0  0  0  0  0
    1.0460   -0.3560    0.0000 C   0  0  0  0  0  0  0  0  0
    1.7457    0.0812    0.0000 C   0  0  0  0  0  0  0  0  0
    2.4741   -0.3061    0.0000 C   0  0  0  0  0  0  0  0  0
    2.5029   -1.1306    0.0000 C   0  0  0  0  0  0  0  0  0
    1.8032   -1.5678    0.0000 C   0  0  0  0  0  0  0  0  0
    1.0748   -1.1805    0.0000 C   0  0  0  0  0  0  0  0  0
    3.2313   -1.5179    0.0000 C   0  0  0  0  0  0  0  0  0
    2.7234   -2.1680    0.0000 O   0  0  0  0  0  0  0  0  0
    3.4863   -0.7333    0.0000 C   0  0  0  0  0  0  0  0  0
    4.2932   -0.5618    0.0000 C   0  0  0  0  0  0  0  0  0
    4.8453   -1.1749    0.0000 N   0  0  0  0  0  0  0  0  0
    4.5903   -1.9595    0.0000 C   0  0  0  0  0  0  0  0  0
    3.7833   -2.1310    0.0000 C   0  0  0  0  0  0  0  0  0
    5.6522   -1.0033    0.0000 C   0  0  0  0  0  0  0  0  0
    5.9072   -0.2187    0.0000 C   0  0  0  0  0  0  0  0  0
    6.6918    0.0362    0.0000 C   0  0  0  0  0  0  0  0  0
    6.6918    0.8612    0.0000 C   0  0  0  0  0  0  0  0  0
    5.9072    1.1162    0.0000 O   0  0  0  0  0  0  0  0  0
    5.4222    0.4487    0.0000 C   0  0  0  0  0  0  0  0  0
    7.4063    1.2737    0.0000 C   0  0  0  0  0  0  0  0  0
    8.1207    0.8612    0.0000 C   0  0  0  0  0  0  0  0  0
    8.1207    0.0362    0.0000 C   0  0  0  0  0  0  0  0  0
    7.4063   -0.3763    0.0000 C   0  0  0  0  0  0  0  0  0
  1  2  1  0  0  0  0
  2  3  4  0  0  0  0
  2  7  4  0  0  0  0
  3  4  4  0  0  0  0
  4  5  4  0  0  0  0
  5  6  4  0  0  0  0
  5  8  1  0  0  0  0
  6  7  4  0  0  0  0
  8  9  1  0  0  0  0
  8 10  1  0  0  0  0
  8 14  1  0  0  0  0
 10 11  1  0  0  0  0
 11 12  1  0  0  0  0
 12 13  1  0  0  0  0
 12 15  1  0  0  0  0
 13 14  1  0  0  0  0
 15 16  1  0  0  0  0
 16 17  4  0  0  0  0
 16 20  4  0  0  0  0
 17 18  4  0  0  0  0
 17 24  4  0  0  0  0
 18 19  4  0  0  0  0
 18 21  4  0  0  0  0
 19 20  4  0  0  0  0
 21 22  4  0  0  0  0
 22 23  4  0  0  0  0
 23 24  4  0  0  0  0
M  END
>  <Name_Molregno>
649646

>  <DOPAMINE D2>
8.18

>  <DOPAMINE D3>
7.96

>  <DOPAMINE D4>
7.02

$$$$
649647
  Marvin  02231216192D 0   1.00000     0.00000     0

 24 27  0  0  0  0  0  0  0  0999 V2000
    0.3176    0.0313    0.0000 I   0  0  0  0  0  0  0  0  0
    1.0460   -0.3560    0.0000 C   0  0  0  0  0  0  0  0  0
    1.7457    0.0812    0.0000 C   0  0  0  0  0  0  0  0  0
    2.4741   -0.3061    0.0000 C   0  0  0  0  0  0  0  0  0
    2.5029   -1.1306    0.0000 C   0  0  0  0  0  0  0  0  0
    1.8032   -1.5678    0.0000 C   0  0  0  0  0  0  0  0  0
    1.0748   -1.1805    0.0000 C   0  0  0  0  0  0  0  0  0
    3.2313   -1.5179    0.0000 C   0  0  0  0  0  0  0  0  0
    2.7234   -2.1680    0.0000 O   0  0  0  0  0  0  0  0  0
    3.4863   -0.7333    0.0000 C   0  0  0  0  0  0  0  0  0
    4.2932   -0.5618    0.0000 C   0  0  0  0  0  0  0  0  0
    4.8453   -1.1749    0.0000 N   0  0  0  0  0  0  0  0  0
    4.5903   -1.9595    0.0000 C   0  0  0  0  0  0  0  0  0
    3.7833   -2.1310    0.0000 C   0  0  0  0  0  0  0  0  0
    5.6522   -1.0033    0.0000 C   0  0  0  0  0  0  0  0  0
    5.9072   -0.2187    0.0000 C   0  0  0  0  0  0  0  0  0
    6.6918    0.0362    0.0000 C   0  0  0  0  0  0  0  0  0
    6.6918    0.8612    0.0000 C   0  0  0  0  0  0  0  0  0
    5.9072    1.1162    0.0000 O   0  0  0  0  0  0  0  0  0
    5.4222    0.4487    0.0000 C   0  0  0  0  0  0  0  0  0
    7.4063    1.2737    0.0000 C   0  0  0  0  0  0  0  0  0
    8.1207    0.8612    0.0000 C   0  0  0  0  0  0  0  0  0
    8.1207    0.0362    0.0000 C   0  0  0  0  0  0  0  0  0
    7.4063   -0.3763    0.0000 C   0  0  0  0  0  0  0  0  0
  1  2  1  0  0  0  0
  2  3  4  0  0  0  0
  2  7  4  0  0  0  0
  3  4  4  0  0  0  0
  4  5  4  0  0  0  0
  5  6  4  0  0  0  0
  5  8  1  0  0  0  0
  6  7  4  0  0  0  0
  8  9  1  0  0  0  0
  8 10  1  0  0  0  0
  8 14  1  0  0  0  0
 10 11  1  0  0  0  0
 11 12  1  0  0  0  0
 12 13  1  0  0  0  0
 12 15  1  0  0  0  0
 13 14  1  0  0  0  0
 15 16  1  0  0  0  0
 16 17  4  0  0  0  0
 16 20  4  0  0  0  0
 17 18  4  0  0  0  0
 17 24  4  0  0  0  0
 18 19  4  0  0  0  0
 18 21  4  0  0  0  0
 19 20  4  0  0  0  0
 21 22  4  0  0  0  0
 22 23  4  0  0  0  0
 23 24  4  0  0  0  0
M  END
>  <Name_Molregno>
649647

>  <DOPAMINE D2>
8.62

>  <DOPAMINE D3>
7.95

>  <DOPAMINE D4>
7.39

$$$$
649648
  Marvin  02231216192D 0   1.00000     0.00000     0

 26 30  0  0  0  0  0  0  0  0999 V2000
    3.2156   -3.5592    0.0000 O   0  0  0  0  0  0  0  0  0
    2.8801   -2.8055    0.0000 C   0  0  0  0  0  0  0  0  0
    2.0596   -2.8918    0.0000 C   0  0  0  0  0  0  0  0  0
    1.8881   -3.6987    0.0000 C   0  0  0  0  0  0  0  0  0
    2.6025   -4.1112    0.0000 C   0  0  0  0  0  0  0  0  0
    2.6025   -4.9362    0.0000 C   0  0  0  0  0  0  0  0  0
    1.8881   -5.3487    0.0000 C   0  0  0  0  0  0  0  0  0
    1.1736   -4.9362    0.0000 C   0  0  0  0  0  0  0  0  0
    1.1736   -4.1112    0.0000 C   0  0  0  0  0  0  0  0  0
    1.5076   -2.2787    0.0000 C   0  0  0  0  0  0  0  0  0
    1.7625   -1.4940    0.0000 N   0  0  0  0  0  0  0  0  0
    1.2105   -0.8810    0.0000 C   0  0  0  0  0  0  0  0  0
    1.4654   -0.0963    0.0000 C   0  0  0  0  0  0  0  0  0
    2.2724    0.0752    0.0000 C   0  0  0  0  0  0  0  0  0
    2.5273    0.8598    0.0000 N   0  0  0  0  0  0  0  0  0
    3.3119    1.1148    0.0000 C   0  0  0  0  0  0  0  0  0
    3.3119    1.9398    0.0000 C   0  0  0  0  0  0  0  0  0
    2.5273    2.1947    0.0000 N   0  0  0  0  0  0  0  0  0
    2.0424    1.5273    0.0000 C   0  0  0  0  0  0  0  0  0
    1.2174    1.5273    0.0000 O   0  0  0  0  0  0  0  0  0
    4.0264    2.3523    0.0000 C   0  0  0  0  0  0  0  0  0
    4.7409    1.9398    0.0000 C   0  0  0  0  0  0  0  0  0
    4.7409    1.1148    0.0000 C   0  0  0  0  0  0  0  0  0
    4.0264    0.7023    0.0000 C   0  0  0  0  0  0  0  0  0
    2.8244   -0.5379    0.0000 C   0  0  0  0  0  0  0  0  0
    2.5695   -1.3225    0.0000 C   0  0  0  0  0  0  0  0  0
  1  2  4  0  0  0  0
  1  5  4  0  0  0  0
  2  3  4  0  0  0  0
  3  4  4  0  0  0  0
  3 10  1  0  0  0  0
  4  5  4  0  0  0  0
  4  9  4  0  0  0  0
  5  6  4  0  0  0  0
  6  7  4  0  0  0  0
  7  8  4  0  0  0  0
  8  9  4  0  0  0  0
 10 11  1  0  0  0  0
 11 12  1  0  0  0  0
 11 26  1  0  0  0  0
 12 13  1  0  0  0  0
 13 14  1  0  0  0  0
 14 15  1  0  0  0  0
 14 25  1  0  0  0  0
 15 16  1  0  0  0  0
 15 19  1  0  0  0  0
 16 17  4  0  0  0  0
 16 24  4  0  0  0  0
 17 18  1  0  0  0  0
 17 21  4  0  0  0  0
 18 19  1  0  0  0  0
 19 20  2  0  0  0  0
 21 22  4  0  0  0  0
 22 23  4  0  0  0  0
 23 24  4  0  0  0  0
 25 26  1  0  0  0  0
M  END
>  <Name_Molregno>
649648

>  <DOPAMINE D2>
7.87

>  <DOPAMINE D3>
8.52

>  <DOPAMINE D4>
6.79

$$$$
649688
  Marvin  02231216192D 0   1.00000     0.00000     0

 26 30  0  0  0  0  0  0  0  0999 V2000
    3.2156   -3.5592    0.0000 S   0  0  0  0  0  0  0  0  0
    2.8801   -2.8055    0.0000 C   0  0  0  0  0  0  0  0  0
    2.0596   -2.8918    0.0000 C   0  0  0  0  0  0  0  0  0
    1.8881   -3.6987    0.0000 C   0  0  0  0  0  0  0  0  0
    2.6025   -4.1112    0.0000 C   0  0  0  0  0  0  0  0  0
    2.6025   -4.9362    0.0000 C   0  0  0  0  0  0  0  0  0
    1.8881   -5.3487    0.0000 C   0  0  0  0  0  0  0  0  0
    1.1736   -4.9362    0.0000 C   0  0  0  0  0  0  0  0  0
    1.1736   -4.1112    0.0000 C   0  0  0  0  0  0  0  0  0
    1.5076   -2.2787    0.0000 C   0  0  0  0  0  0  0  0  0
    1.7625   -1.4940    0.0000 N   0  0  0  0  0  0  0  0  0
    1.2105   -0.8810    0.0000 C   0  0  0  0  0  0  0  0  0
    1.4654   -0.0963    0.0000 C   0  0  0  0  0  0  0  0  0
    2.2724    0.0752    0.0000 C   0  0  0  0  0  0  0  0  0
    2.5273    0.8598    0.0000 N   0  0  0  0  0  0  0  0  0
    3.3119    1.1148    0.0000 C   0  0  0  0  0  0  0  0  0
    3.3119    1.9398    0.0000 C   0  0  0  0  0  0  0  0  0
    2.5273    2.1947    0.0000 N   0  0  0  0  0  0  0  0  0
    2.0424    1.5273    0.0000 C   0  0  0  0  0  0  0  0  0
    1.2174    1.5273    0.0000 O   0  0  0  0  0  0  0  0  0
    4.0264    2.3523    0.0000 C   0  0  0  0  0  0  0  0  0
    4.7409    1.9398    0.0000 C   0  0  0  0  0  0  0  0  0
    4.7409    1.1148    0.0000 C   0  0  0  0  0  0  0  0  0
    4.0264    0.7023    0.0000 C   0  0  0  0  0  0  0  0  0
    2.8244   -0.5379    0.0000 C   0  0  0  0  0  0  0  0  0
    2.5695   -1.3225    0.0000 C   0  0  0  0  0  0  0  0  0
  1  2  4  0  0  0  0
  1  5  4  0  0  0  0
  2  3  4  0  0  0  0
  3  4  4  0  0  0  0
  3 10  1  0  0  0  0
  4  5  4  0  0  0  0
  4  9  4  0  0  0  0
  5  6  4  0  0  0  0
  6  7  4  0  0  0  0
  7  8  4  0  0  0  0
  8  9  4  0  0  0  0
 10 11  1  0  0  0  0
 11 12  1  0  0  0  0
 11 26  1  0  0  0  0
 12 13  1  0  0  0  0
 13 14  1  0  0  0  0
 14 15  1  0  0  0  0
 14 25  1  0  0  0  0
 15 16  1  0  0  0  0
 15 19  1  0  0  0  0
 16 17  4  0  0  0  0
 16 24  4  0  0  0  0
 17 18  1  0  0  0  0
 17 21  4  0  0  0  0
 18 19  1  0  0  0  0
 19 20  2  0  0  0  0
 21 22  4  0  0  0  0
 22 23  4  0  0  0  0
 23 24  4  0  0  0  0
 25 26  1  0  0  0  0
M  END
>  <Name_Molregno>
649688

>  <DOPAMINE D2>
7.42

>  <DOPAMINE D3>
7.33

>  <DOPAMINE D4>
7.14

$$$$
649689
  Marvin  02231216192D 0   1.00000     0.00000     0

 28 32  0  0  0  0  0  0  0  0999 V2000
   -0.5217    0.7762    0.0000 O   0  0  0  0  0  0  0  0  0
   -1.1348    0.2242    0.0000 C   0  0  0  0  0  0  0  0  0
   -0.7993   -0.5295    0.0000 C   0  0  0  0  0  0  0  0  0
    0.0212   -0.4432    0.0000 C   0  0  0  0  0  0  0  0  0
    0.1927    0.3637    0.0000 C   0  0  0  0  0  0  0  0  0
    0.9774    0.6187    0.0000 C   0  0  0  0  0  0  0  0  0
    1.5905    0.0667    0.0000 C   0  0  0  0  0  0  0  0  0
    1.4189   -0.7403    0.0000 C   0  0  0  0  0  0  0  0  0
    0.6343   -0.9953    0.0000 C   0  0  0  0  0  0  0  0  0
   -1.2118   -1.2439    0.0000 C   0  0  0  0  0  0  0  0  0
   -2.0368   -1.2439    0.0000 N   0  0  0  0  0  0  0  0  0
   -2.4493   -1.9584    0.0000 C   0  0  0  0  0  0  0  0  0
   -3.2743   -1.9584    0.0000 C   0  0  0  0  0  0  0  0  0
   -3.6868   -1.2439    0.0000 C   0  0  0  0  0  0  0  0  0
   -4.1717   -1.9114    0.0000 N   0  0  0  0  0  0  0  0  0
   -4.9563   -1.6564    0.0000 C   0  0  0  0  0  0  0  0  0
   -4.9563   -0.8314    0.0000 N   0  0  0  0  0  0  0  0  0
   -5.6238   -0.3465    0.0000 C   0  0  0  0  0  0  0  0  0
   -4.1717   -0.5765    0.0000 C   0  0  0  0  0  0  0  0  0
   -3.9168    0.2081    0.0000 O   0  0  0  0  0  0  0  0  0
   -3.9168   -2.6960    0.0000 C   0  0  0  0  0  0  0  0  0
   -3.1098   -2.8675    0.0000 C   0  0  0  0  0  0  0  0  0
   -2.8548   -3.6521    0.0000 C   0  0  0  0  0  0  0  0  0
   -3.4069   -4.2652    0.0000 C   0  0  0  0  0  0  0  0  0
   -4.2139   -4.0937    0.0000 C   0  0  0  0  0  0  0  0  0
   -4.4688   -3.3091    0.0000 C   0  0  0  0  0  0  0  0  0
   -3.2743   -0.5295    0.0000 C   0  0  0  0  0  0  0  0  0
   -2.4493   -0.5295    0.0000 C   0  0  0  0  0  0  0  0  0
  1  2  4  0  0  0  0
  1  5  4  0  0  0  0
  2  3  4  0  0  0  0
  3  4  4  0  0  0  0
  3 10  1  0  0  0  0
  4  5  4  0  0  0  0
  4  9  4  0  0  0  0
  5  6  4  0  0  0  0
  6  7  4  0  0  0  0
  7  8  4  0  0  0  0
  8  9  4  0  0  0  0
 10 11  1  0  0  0  0
 11 12  1  0  0  0  0
 11 28  1  0  0  0  0
 12 13  1  0  0  0  0
 13 14  1  0  0  0  0
 14 15  1  0  0  0  0
 14 19  1  0  0  0  0
 14 27  1  0  0  0  0
 15 16  1  0  0  0  0
 15 21  1  0  0  0  0
 16 17  1  0  0  0  0
 17 18  1  0  0  0  0
 17 19  1  0  0  0  0
 19 20  2  0  0  0  0
 21 22  4  0  0  0  0
 21 26  4  0  0  0  0
 22 23  4  0  0  0  0
 23 24  4  0  0  0  0
 24 25  4  0  0  0  0
 25 26  4  0  0  0  0
 27 28  1  0  0  0  0
M  END
>  <Name_Molregno>
649689

>  <DOPAMINE D2>
8.15

>  <DOPAMINE D3>
8.68

>  <DOPAMINE D4>
6.31

$$$$
649690
  Marvin  02231216192D 0   1.00000     0.00000     0

 30 34  0  0  0  0  0  0  0  0999 V2000
   -8.1092   -4.0419    0.0000 F   0  0  0  0  0  0  0  0  0
   -7.5572   -3.4288    0.0000 C   0  0  0  0  0  0  0  0  0
   -6.7502   -3.6003    0.0000 C   0  0  0  0  0  0  0  0  0
   -6.1982   -2.9872    0.0000 N   0  0  0  0  0  0  0  0  0
   -6.3697   -2.1803    0.0000 C   0  0  0  0  0  0  0  0  0
   -5.6552   -1.7678    0.0000 N   0  0  0  0  0  0  0  0  0
   -5.0421   -2.3198    0.0000 C   0  0  0  0  0  0  0  0  0
   -4.7872   -1.5352    0.0000 C   0  0  0  0  0  0  0  0  0
   -3.9802   -1.3637    0.0000 C   0  0  0  0  0  0  0  0  0
   -3.4282   -1.9768    0.0000 N   0  0  0  0  0  0  0  0  0
   -3.6831   -2.7614    0.0000 C   0  0  0  0  0  0  0  0  0
   -4.4901   -2.9329    0.0000 C   0  0  0  0  0  0  0  0  0
   -2.6212   -1.8052    0.0000 C   0  0  0  0  0  0  0  0  0
   -2.3663   -1.0206    0.0000 C   0  0  0  0  0  0  0  0  0
   -1.5816   -0.7657    0.0000 C   0  0  0  0  0  0  0  0  0
   -1.5816    0.0593    0.0000 C   0  0  0  0  0  0  0  0  0
   -2.3663    0.3143    0.0000 O   0  0  0  0  0  0  0  0  0
   -2.8512   -0.3532    0.0000 C   0  0  0  0  0  0  0  0  0
   -0.8672    0.4718    0.0000 C   0  0  0  0  0  0  0  0  0
   -0.1527    0.0593    0.0000 C   0  0  0  0  0  0  0  0  0
   -0.1527   -0.7657    0.0000 C   0  0  0  0  0  0  0  0  0
   -0.8672   -1.1782    0.0000 C   0  0  0  0  0  0  0  0  0
   -5.3777   -3.0735    0.0000 C   0  0  0  0  0  0  0  0  0
   -4.9652   -3.7880    0.0000 O   0  0  0  0  0  0  0  0  0
   -5.5690   -0.9473    0.0000 C   0  0  0  0  0  0  0  0  0
   -6.2364   -0.4624    0.0000 C   0  0  0  0  0  0  0  0  0
   -6.1502    0.3581    0.0000 C   0  0  0  0  0  0  0  0  0
   -5.3965    0.6937    0.0000 C   0  0  0  0  0  0  0  0  0
   -4.7291    0.2087    0.0000 C   0  0  0  0  0  0  0  0  0
   -4.8153   -0.6117    0.0000 C   0  0  0  0  0  0  0  0  0
  1  2  1  0  0  0  0
  2  3  1  0  0  0  0
  3  4  1  0  0  0  0
  4  5  1  0  0  0  0
  4 23  1  0  0  0  0
  5  6  1  0  0  0  0
  6  7  1  0  0  0  0
  6 25  1  0  0  0  0
  7  8  1  0  0  0  0
  7 12  1  0  0  0  0
  7 23  1  0  0  0  0
  8  9  1  0  0  0  0
  9 10  1  0  0  0  0
 10 11  1  0  0  0  0
 10 13  1  0  0  0  0
 11 12  1  0  0  0  0
 13 14  1  0  0  0  0
 14 15  4  0  0  0  0
 14 18  4  0  0  0  0
 15 16  4  0  0  0  0
 15 22  4  0  0  0  0
 16 17  4  0  0  0  0
 16 19  4  0  0  0  0
 17 18  4  0  0  0  0
 19 20  4  0  0  0  0
 20 21  4  0  0  0  0
 21 22  4  0  0  0  0
 23 24  2  0  0  0  0
 25 26  4  0  0  0  0
 25 30  4  0  0  0  0
 26 27  4  0  0  0  0
 27 28  4  0  0  0  0
 28 29  4  0  0  0  0
 29 30  4  0  0  0  0
M  END
>  <Name_Molregno>
649690

>  <DOPAMINE D2>
8.1

>  <DOPAMINE D3>
8.03

>  <DOPAMINE D4>
6.02

$$$$
649737
  Marvin  02231216192D 0   1.00000     0.00000     0

 28 32  0  0  0  0  0  0  0  0999 V2000
   -0.5217    0.7762    0.0000 S   0  0  0  0  0  0  0  0  0
   -1.1348    0.2242    0.0000 C   0  0  0  0  0  0  0  0  0
   -0.7993   -0.5295    0.0000 C   0  0  0  0  0  0  0  0  0
    0.0212   -0.4432    0.0000 C   0  0  0  0  0  0  0  0  0
    0.1927    0.3637    0.0000 C   0  0  0  0  0  0  0  0  0
    0.9774    0.6187    0.0000 C   0  0  0  0  0  0  0  0  0
    1.5905    0.0667    0.0000 C   0  0  0  0  0  0  0  0  0
    1.4189   -0.7403    0.0000 C   0  0  0  0  0  0  0  0  0
    0.6343   -0.9953    0.0000 C   0  0  0  0  0  0  0  0  0
   -1.2118   -1.2439    0.0000 C   0  0  0  0  0  0  0  0  0
   -2.0368   -1.2439    0.0000 N   0  0  0  0  0  0  0  0  0
   -2.4493   -1.9584    0.0000 C   0  0  0  0  0  0  0  0  0
   -3.2743   -1.9584    0.0000 C   0  0  0  0  0  0  0  0  0
   -3.6868   -1.2439    0.0000 C   0  0  0  0  0  0  0  0  0
   -4.1717   -1.9114    0.0000 N   0  0  0  0  0  0  0  0  0
   -4.9563   -1.6564    0.0000 C   0  0  0  0  0  0  0  0  0
   -4.9563   -0.8314    0.0000 N   0  0  0  0  0  0  0  0  0
   -5.6238   -0.3465    0.0000 C   0  0  0  0  0  0  0  0  0
   -4.1717   -0.5765    0.0000 C   0  0  0  0  0  0  0  0  0
   -3.9168    0.2081    0.0000 O   0  0  0  0  0  0  0  0  0
   -3.9168   -2.6960    0.0000 C   0  0  0  0  0  0  0  0  0
   -3.1098   -2.8675    0.0000 C   0  0  0  0  0  0  0  0  0
   -2.8548   -3.6521    0.0000 C   0  0  0  0  0  0  0  0  0
   -3.4069   -4.2652    0.0000 C   0  0  0  0  0  0  0  0  0
   -4.2139   -4.0937    0.0000 C   0  0  0  0  0  0  0  0  0
   -4.4688   -3.3091    0.0000 C   0  0  0  0  0  0  0  0  0
   -3.2743   -0.5295    0.0000 C   0  0  0  0  0  0  0  0  0
   -2.4493   -0.5295    0.0000 C   0  0  0  0  0  0  0  0  0
  1  2  4  0  0  0  0
  1  5  4  0  0  0  0
  2  3  4  0  0  0  0
  3  4  4  0  0  0  0
  3 10  1  0  0  0  0
  4  5  4  0  0  0  0
  4  9  4  0  0  0  0
  5  6  4  0  0  0  0
  6  7  4  0  0  0  0
  7  8  4  0  0  0  0
  8  9  4  0  0  0  0
 10 11  1  0  0  0  0
 11 12  1  0  0  0  0
 11 28  1  0  0  0  0
 12 13  1  0  0  0  0
 13 14  1  0  0  0  0
 14 15  1  0  0  0  0
 14 19  1  0  0  0  0
 14 27  1  0  0  0  0
 15 16  1  0  0  0  0
 15 21  1  0  0  0  0
 16 17  1  0  0  0  0
 17 18  1  0  0  0  0
 17 19  1  0  0  0  0
 19 20  2  0  0  0  0
 21 22  4  0  0  0  0
 21 26  4  0  0  0  0
 22 23  4  0  0  0  0
 23 24  4  0  0  0  0
 24 25  4  0  0  0  0
 25 26  4  0  0  0  0
 27 28  1  0  0  0  0
M  END
>  <Name_Molregno>
649737

>  <DOPAMINE D2>
7.15

>  <DOPAMINE D3>
7.22

>  <DOPAMINE D4>
6.45

$$$$
649738
  Marvin  02231216192D 0   1.00000     0.00000     0

 36 41  0  0  0  0  0  0  0  0999 V2000
    0.1010   -2.4626    0.0000 F   0  0  0  0  0  0  0  0  0
    0.8547   -2.1270    0.0000 C   0  0  0  0  0  0  0  0  0
    1.5221   -2.6120    0.0000 C   0  0  0  0  0  0  0  0  0
    2.2758   -2.2764    0.0000 N   0  0  0  0  0  0  0  0  0
    2.4473   -1.4694    0.0000 N   0  0  0  0  0  0  0  0  0
    3.2678   -1.3832    0.0000 N   0  0  0  0  0  0  0  0  0
    3.6033   -2.1369    0.0000 C   0  0  0  0  0  0  0  0  0
    2.9902   -2.6889    0.0000 C   0  0  0  0  0  0  0  0  0
    4.4103   -2.3084    0.0000 C   0  0  0  0  0  0  0  0  0
    4.9623   -1.6953    0.0000 N   0  0  0  0  0  0  0  0  0
    4.7908   -0.8883    0.0000 C   0  0  0  0  0  0  0  0  0
    5.5053   -0.4758    0.0000 N   0  0  0  0  0  0  0  0  0
    6.1184   -1.0279    0.0000 C   0  0  0  0  0  0  0  0  0
    6.3733   -0.2432    0.0000 C   0  0  0  0  0  0  0  0  0
    7.1803   -0.0717    0.0000 C   0  0  0  0  0  0  0  0  0
    7.7323   -0.6848    0.0000 N   0  0  0  0  0  0  0  0  0
    7.4774   -1.4694    0.0000 C   0  0  0  0  0  0  0  0  0
    6.6704   -1.6410    0.0000 C   0  0  0  0  0  0  0  0  0
    8.5393   -0.5133    0.0000 C   0  0  0  0  0  0  0  0  0
    8.7942    0.2713    0.0000 C   0  0  0  0  0  0  0  0  0
    9.5789    0.5263    0.0000 C   0  0  0  0  0  0  0  0  0
    9.5789    1.3513    0.0000 C   0  0  0  0  0  0  0  0  0
    8.7942    1.6062    0.0000 O   0  0  0  0  0  0  0  0  0
    8.3093    0.9388    0.0000 C   0  0  0  0  0  0  0  0  0
   10.2933    1.7638    0.0000 C   0  0  0  0  0  0  0  0  0
   11.0078    1.3513    0.0000 C   0  0  0  0  0  0  0  0  0
   11.0078    0.5263    0.0000 C   0  0  0  0  0  0  0  0  0
   10.2933    0.1138    0.0000 C   0  0  0  0  0  0  0  0  0
    5.7828   -1.7815    0.0000 C   0  0  0  0  0  0  0  0  0
    6.1953   -2.4960    0.0000 O   0  0  0  0  0  0  0  0  0
    5.5915    0.3447    0.0000 C   0  0  0  0  0  0  0  0  0
    4.9241    0.8296    0.0000 C   0  0  0  0  0  0  0  0  0
    5.0103    1.6501    0.0000 C   0  0  0  0  0  0  0  0  0
    5.7640    1.9856    0.0000 C   0  0  0  0  0  0  0  0  0
    6.4314    1.5007    0.0000 C   0  0  0  0  0  0  0  0  0
    6.3452    0.6802    0.0000 C   0  0  0  0  0  0  0  0  0
  1  2  1  0  0  0  0
  2  3  1  0  0  0  0
  3  4  1  0  0  0  0
  4  5  4  0  0  0  0
  4  8  4  0  0  0  0
  5  6  4  0  0  0  0
  6  7  4  0  0  0  0
  7  8  4  0  0  0  0
  7  9  1  0  0  0  0
  9 10  1  0  0  0  0
 10 11  1  0  0  0  0
 10 29  1  0  0  0  0
 11 12  1  0  0  0  0
 12 13  1  0  0  0  0
 12 31  1  0  0  0  0
 13 14  1  0  0  0  0
 13 18  1  0  0  0  0
 13 29  1  0  0  0  0
 14 15  1  0  0  0  0
 15 16  1  0  0  0  0
 16 17  1  0  0  0  0
 16 19  1  0  0  0  0
 17 18  1  0  0  0  0
 19 20  1  0  0  0  0
 20 21  4  0  0  0  0
 20 24  4  0  0  0  0
 21 22  4  0  0  0  0
 21 28  4  0  0  0  0
 22 23  4  0  0  0  0
 22 25  4  0  0  0  0
 23 24  4  0  0  0  0
 25 26  4  0  0  0  0
 26 27  4  0  0  0  0
 27 28  4  0  0  0  0
 29 30  2  0  0  0  0
 31 32  4  0  0  0  0
 31 36  4  0  0  0  0
 32 33  4  0  0  0  0
 33 34  4  0  0  0  0
 34 35  4  0  0  0  0
 35 36  4  0  0  0  0
M  END
>  <Name_Molregno>
649738

>  <DOPAMINE D2>
8.7

>  <DOPAMINE D3>
9.05

>  <DOPAMINE D4>
6.01

$$$$
649742
  Marvin  02231216192D 0   1.00000     0.00000     0

 26 29  0  0  0  0  0  0  0  0999 V2000
    0.2323   -0.0312    0.0000 Cl  0  0  0  0  0  0  0  0  0
    0.9607   -0.4185    0.0000 C   0  0  0  0  0  0  0  0  0
    1.6603    0.0187    0.0000 C   0  0  0  0  0  0  0  0  0
    2.3888   -0.3687    0.0000 C   0  0  0  0  0  0  0  0  0
    2.4176   -1.1932    0.0000 C   0  0  0  0  0  0  0  0  0
    1.7179   -1.6303    0.0000 C   0  0  0  0  0  0  0  0  0
    0.9895   -1.2430    0.0000 C   0  0  0  0  0  0  0  0  0
    3.1460   -1.5805    0.0000 C   0  0  0  0  0  0  0  0  0
    2.6381   -2.2306    0.0000 O   0  0  0  0  0  0  0  0  0
    3.4009   -0.7959    0.0000 C   0  0  0  0  0  0  0  0  0
    4.2079   -0.6243    0.0000 C   0  0  0  0  0  0  0  0  0
    4.7599   -1.2374    0.0000 N   0  0  0  0  0  0  0  0  0
    4.5050   -2.0220    0.0000 C   0  0  0  0  0  0  0  0  0
    3.6980   -2.1936    0.0000 C   0  0  0  0  0  0  0  0  0
    5.5669   -1.0659    0.0000 C   0  0  0  0  0  0  0  0  0
    5.8219   -0.2813    0.0000 C   0  0  0  0  0  0  0  0  0
    6.6065   -0.0263    0.0000 C   0  0  0  0  0  0  0  0  0
    6.6065    0.7987    0.0000 C   0  0  0  0  0  0  0  0  0
    5.8219    1.0536    0.0000 N   0  0  0  0  0  0  0  0  0
    5.3369    0.3862    0.0000 C   0  0  0  0  0  0  0  0  0
    7.3209    1.2112    0.0000 C   0  0  0  0  0  0  0  0  0
    8.0354    0.7987    0.0000 C   0  0  0  0  0  0  0  0  0
    8.0354   -0.0263    0.0000 C   0  0  0  0  0  0  0  0  0
    7.3209   -0.4388    0.0000 C   0  0  0  0  0  0  0  0  0
    7.3209   -1.2638    0.0000 O   0  0  0  0  0  0  0  0  0
    8.0354   -1.6763    0.0000 C   0  0  0  0  0  0  0  0  0
  1  2  1  0  0  0  0
  2  3  4  0  0  0  0
  2  7  4  0  0  0  0
  3  4  4  0  0  0  0
  4  5  4  0  0  0  0
  5  6  4  0  0  0  0
  5  8  1  0  0  0  0
  6  7  4  0  0  0  0
  8  9  1  0  0  0  0
  8 10  1  0  0  0  0
  8 14  1  0  0  0  0
 10 11  1  0  0  0  0
 11 12  1  0  0  0  0
 12 13  1  0  0  0  0
 12 15  1  0  0  0  0
 13 14  1  0  0  0  0
 15 16  1  0  0  0  0
 16 17  4  0  0  0  0
 16 20  4  0  0  0  0
 17 18  4  0  0  0  0
 17 24  4  0  0  0  0
 18 19  4  0  0  0  0
 18 21  4  0  0  0  0
 19 20  4  0  0  0  0
 21 22  4  0  0  0  0
 22 23  4  0  0  0  0
 23 24  4  0  0  0  0
 24 25  1  0  0  0  0
 25 26  1  0  0  0  0
M  STY  1   1 DAT
M  SAL   1  1  19
M  SDT   1 MRV_IMPLICIT_H                                        
M  SDD   1     0.0000    0.0000    DR    ALL  0       0  
M  SED   1 IMPL_H1
M  END
>  <Name_Molregno>
649742

>  <DOPAMINE D2>
8.38

>  <DOPAMINE D3>
6.6

>  <DOPAMINE D4>
5.7

$$$$
649743
  Marvin  02231216192D 0   1.00000     0.00000     0

 26 29  0  0  0  0  0  0  0  0999 V2000
    1.0430    3.6553    0.0000 Cl  0  0  0  0  0  0  0  0  0
    1.5509    3.0051    0.0000 C   0  0  0  0  0  0  0  0  0
    2.3679    3.1200    0.0000 C   0  0  0  0  0  0  0  0  0
    2.8758    2.4699    0.0000 C   0  0  0  0  0  0  0  0  0
    2.5668    1.7049    0.0000 C   0  0  0  0  0  0  0  0  0
    1.7498    1.5901    0.0000 C   0  0  0  0  0  0  0  0  0
    1.2419    2.2402    0.0000 C   0  0  0  0  0  0  0  0  0
    3.0747    1.0548    0.0000 C   0  0  0  0  0  0  0  0  0
    2.3462    0.6675    0.0000 O   0  0  0  0  0  0  0  0  0
    3.6267    1.6679    0.0000 C   0  0  0  0  0  0  0  0  0
    4.4337    1.4964    0.0000 C   0  0  0  0  0  0  0  0  0
    4.6886    0.7118    0.0000 N   0  0  0  0  0  0  0  0  0
    4.1366    0.0987    0.0000 C   0  0  0  0  0  0  0  0  0
    3.3296    0.2702    0.0000 C   0  0  0  0  0  0  0  0  0
    5.4956    0.5402    0.0000 C   0  0  0  0  0  0  0  0  0
    5.7505   -0.2444    0.0000 C   0  0  0  0  0  0  0  0  0
    6.5352   -0.4993    0.0000 C   0  0  0  0  0  0  0  0  0
    7.2496   -0.0868    0.0000 C   0  0  0  0  0  0  0  0  0
    7.9641   -0.4993    0.0000 C   0  0  0  0  0  0  0  0  0
    8.6786   -0.0868    0.0000 O   0  0  0  0  0  0  0  0  0
    8.6786    0.7382    0.0000 C   0  0  0  0  0  0  0  0  0
    7.9641   -1.3243    0.0000 C   0  0  0  0  0  0  0  0  0
    7.2496   -1.7368    0.0000 C   0  0  0  0  0  0  0  0  0
    6.5352   -1.3243    0.0000 C   0  0  0  0  0  0  0  0  0
    5.7505   -1.5793    0.0000 N   0  0  0  0  0  0  0  0  0
    5.2656   -0.9118    0.0000 C   0  0  0  0  0  0  0  0  0
  1  2  1  0  0  0  0
  2  3  4  0  0  0  0
  2  7  4  0  0  0  0
  3  4  4  0  0  0  0
  4  5  4  0  0  0  0
  5  6  4  0  0  0  0
  5  8  1  0  0  0  0
  6  7  4  0  0  0  0
  8  9  1  0  0  0  0
  8 10  1  0  0  0  0
  8 14  1  0  0  0  0
 10 11  1  0  0  0  0
 11 12  1  0  0  0  0
 12 13  1  0  0  0  0
 12 15  1  0  0  0  0
 13 14  1  0  0  0  0
 15 16  1  0  0  0  0
 16 17  4  0  0  0  0
 16 26  4  0  0  0  0
 17 18  4  0  0  0  0
 17 24  4  0  0  0  0
 18 19  4  0  0  0  0
 19 20  1  0  0  0  0
 19 22  4  0  0  0  0
 20 21  1  0  0  0  0
 22 23  4  0  0  0  0
 23 24  4  0  0  0  0
 24 25  4  0  0  0  0
 25 26  4  0  0  0  0
M  STY  1   1 DAT
M  SAL   1  1  25
M  SDT   1 MRV_IMPLICIT_H                                        
M  SDD   1     0.0000    0.0000    DR    ALL  0       0  
M  SED   1 IMPL_H1
M  END
>  <Name_Molregno>
649743

>  <DOPAMINE D2>
8.38

>  <DOPAMINE D3>
6.69

>  <DOPAMINE D4>
5.46

$$$$
649744
  Marvin  02231216192D 0   1.00000     0.00000     0

 26 29  0  0  0  0  0  0  0  0999 V2000
    0.2323   -0.0312    0.0000 Br  0  0  0  0  0  0  0  0  0
    0.9607   -0.4185    0.0000 C   0  0  0  0  0  0  0  0  0
    1.6603    0.0187    0.0000 C   0  0  0  0  0  0  0  0  0
    2.3888   -0.3687    0.0000 C   0  0  0  0  0  0  0  0  0
    2.4176   -1.1932    0.0000 C   0  0  0  0  0  0  0  0  0
    1.7179   -1.6303    0.0000 C   0  0  0  0  0  0  0  0  0
    0.9895   -1.2430    0.0000 C   0  0  0  0  0  0  0  0  0
    3.1460   -1.5805    0.0000 C   0  0  0  0  0  0  0  0  0
    2.6381   -2.2306    0.0000 O   0  0  0  0  0  0  0  0  0
    3.4009   -0.7959    0.0000 C   0  0  0  0  0  0  0  0  0
    4.2079   -0.6243    0.0000 C   0  0  0  0  0  0  0  0  0
    4.7599   -1.2374    0.0000 N   0  0  0  0  0  0  0  0  0
    4.5050   -2.0220    0.0000 C   0  0  0  0  0  0  0  0  0
    3.6980   -2.1936    0.0000 C   0  0  0  0  0  0  0  0  0
    5.5669   -1.0659    0.0000 C   0  0  0  0  0  0  0  0  0
    5.8219   -0.2813    0.0000 C   0  0  0  0  0  0  0  0  0
    6.6065   -0.0263    0.0000 C   0  0  0  0  0  0  0  0  0
    6.6065    0.7987    0.0000 C   0  0  0  0  0  0  0  0  0
    5.8219    1.0536    0.0000 N   0  0  0  0  0  0  0  0  0
    5.3369    0.3862    0.0000 C   0  0  0  0  0  0  0  0  0
    7.3209    1.2112    0.0000 C   0  0  0  0  0  0  0  0  0
    8.0354    0.7987    0.0000 C   0  0  0  0  0  0  0  0  0
    8.0354   -0.0263    0.0000 C   0  0  0  0  0  0  0  0  0
    7.3209   -0.4388    0.0000 C   0  0  0  0  0  0  0  0  0
    7.3209   -1.2638    0.0000 O   0  0  0  0  0  0  0  0  0
    8.0354   -1.6763    0.0000 C   0  0  0  0  0  0  0  0  0
  1  2  1  0  0  0  0
  2  3  4  0  0  0  0
  2  7  4  0  0  0  0
  3  4  4  0  0  0  0
  4  5  4  0  0  0  0
  5  6  4  0  0  0  0
  5  8  1  0  0  0  0
  6  7  4  0  0  0  0
  8  9  1  0  0  0  0
  8 10  1  0  0  0  0
  8 14  1  0  0  0  0
 10 11  1  0  0  0  0
 11 12  1  0  0  0  0
 12 13  1  0  0  0  0
 12 15  1  0  0  0  0
 13 14  1  0  0  0  0
 15 16  1  0  0  0  0
 16 17  4  0  0  0  0
 16 20  4  0  0  0  0
 17 18  4  0  0  0  0
 17 24  4  0  0  0  0
 18 19  4  0  0  0  0
 18 21  4  0  0  0  0
 19 20  4  0  0  0  0
 21 22  4  0  0  0  0
 22 23  4  0  0  0  0
 23 24  4  0  0  0  0
 24 25  1  0  0  0  0
 25 26  1  0  0  0  0
M  STY  1   1 DAT
M  SAL   1  1  19
M  SDT   1 MRV_IMPLICIT_H                                        
M  SDD   1     0.0000    0.0000    DR    ALL  0       0  
M  SED   1 IMPL_H1
M  END
>  <Name_Molregno>
649744

>  <DOPAMINE D2>
8.64

>  <DOPAMINE D3>
6.72

>  <DOPAMINE D4>
6.08

$$$$
649745
  Marvin  02231216192D 0   1.00000     0.00000     0

 26 29  0  0  0  0  0  0  0  0999 V2000
    1.0430    3.6553    0.0000 Br  0  0  0  0  0  0  0  0  0
    1.5509    3.0051    0.0000 C   0  0  0  0  0  0  0  0  0
    2.3679    3.1200    0.0000 C   0  0  0  0  0  0  0  0  0
    2.8758    2.4699    0.0000 C   0  0  0  0  0  0  0  0  0
    2.5668    1.7049    0.0000 C   0  0  0  0  0  0  0  0  0
    1.7498    1.5901    0.0000 C   0  0  0  0  0  0  0  0  0
    1.2419    2.2402    0.0000 C   0  0  0  0  0  0  0  0  0
    3.0747    1.0548    0.0000 C   0  0  0  0  0  0  0  0  0
    2.3462    0.6675    0.0000 O   0  0  0  0  0  0  0  0  0
    3.6267    1.6679    0.0000 C   0  0  0  0  0  0  0  0  0
    4.4337    1.4964    0.0000 C   0  0  0  0  0  0  0  0  0
    4.6886    0.7118    0.0000 N   0  0  0  0  0  0  0  0  0
    4.1366    0.0987    0.0000 C   0  0  0  0  0  0  0  0  0
    3.3296    0.2702    0.0000 C   0  0  0  0  0  0  0  0  0
    5.4956    0.5402    0.0000 C   0  0  0  0  0  0  0  0  0
    5.7505   -0.2444    0.0000 C   0  0  0  0  0  0  0  0  0
    6.5352   -0.4993    0.0000 C   0  0  0  0  0  0  0  0  0
    7.2496   -0.0868    0.0000 C   0  0  0  0  0  0  0  0  0
    7.9641   -0.4993    0.0000 C   0  0  0  0  0  0  0  0  0
    8.6786   -0.0868    0.0000 O   0  0  0  0  0  0  0  0  0
    8.6786    0.7382    0.0000 C   0  0  0  0  0  0  0  0  0
    7.9641   -1.3243    0.0000 C   0  0  0  0  0  0  0  0  0
    7.2496   -1.7368    0.0000 C   0  0  0  0  0  0  0  0  0
    6.5352   -1.3243    0.0000 C   0  0  0  0  0  0  0  0  0
    5.7505   -1.5793    0.0000 N   0  0  0  0  0  0  0  0  0
    5.2656   -0.9118    0.0000 C   0  0  0  0  0  0  0  0  0
  1  2  1  0  0  0  0
  2  3  4  0  0  0  0
  2  7  4  0  0  0  0
  3  4  4  0  0  0  0
  4  5  4  0  0  0  0
  5  6  4  0  0  0  0
  5  8  1  0  0  0  0
  6  7  4  0  0  0  0
  8  9  1  0  0  0  0
  8 10  1  0  0  0  0
  8 14  1  0  0  0  0
 10 11  1  0  0  0  0
 11 12  1  0  0  0  0
 12 13  1  0  0  0  0
 12 15  1  0  0  0  0
 13 14  1  0  0  0  0
 15 16  1  0  0  0  0
 16 17  4  0  0  0  0
 16 26  4  0  0  0  0
 17 18  4  0  0  0  0
 17 24  4  0  0  0  0
 18 19  4  0  0  0  0
 19 20  1  0  0  0  0
 19 22  4  0  0  0  0
 20 21  1  0  0  0  0
 22 23  4  0  0  0  0
 23 24  4  0  0  0  0
 24 25  4  0  0  0  0
 25 26  4  0  0  0  0
M  STY  1   1 DAT
M  SAL   1  1  25
M  SDT   1 MRV_IMPLICIT_H                                        
M  SDD   1     0.0000    0.0000    DR    ALL  0       0  
M  SED   1 IMPL_H1
M  END
>  <Name_Molregno>
649745

>  <DOPAMINE D2>
8.6

>  <DOPAMINE D3>
7.01

>  <DOPAMINE D4>
6.15

$$$$
649778
  Marvin  02231216192D 0   1.00000     0.00000     0

 24 27  0  0  0  0  0  0  0  0999 V2000
    0.3176    0.0313    0.0000 Br  0  0  0  0  0  0  0  0  0
    1.0460   -0.3560    0.0000 C   0  0  0  0  0  0  0  0  0
    1.7457    0.0812    0.0000 C   0  0  0  0  0  0  0  0  0
    2.4741   -0.3061    0.0000 C   0  0  0  0  0  0  0  0  0
    2.5029   -1.1306    0.0000 C   0  0  0  0  0  0  0  0  0
    1.8032   -1.5678    0.0000 C   0  0  0  0  0  0  0  0  0
    1.0748   -1.1805    0.0000 C   0  0  0  0  0  0  0  0  0
    3.2313   -1.5179    0.0000 C   0  0  0  0  0  0  0  0  0
    2.7234   -2.1680    0.0000 O   0  0  0  0  0  0  0  0  0
    3.4863   -0.7333    0.0000 C   0  0  0  0  0  0  0  0  0
    4.2932   -0.5618    0.0000 C   0  0  0  0  0  0  0  0  0
    4.8453   -1.1749    0.0000 N   0  0  0  0  0  0  0  0  0
    4.5903   -1.9595    0.0000 C   0  0  0  0  0  0  0  0  0
    3.7833   -2.1310    0.0000 C   0  0  0  0  0  0  0  0  0
    5.6522   -1.0033    0.0000 C   0  0  0  0  0  0  0  0  0
    5.9072   -0.2187    0.0000 C   0  0  0  0  0  0  0  0  0
    6.6918    0.0362    0.0000 C   0  0  0  0  0  0  0  0  0
    6.6918    0.8612    0.0000 C   0  0  0  0  0  0  0  0  0
    5.9072    1.1162    0.0000 N   0  0  0  0  0  0  0  0  0
    5.4222    0.4487    0.0000 C   0  0  0  0  0  0  0  0  0
    7.4063    1.2737    0.0000 C   0  0  0  0  0  0  0  0  0
    8.1207    0.8612    0.0000 C   0  0  0  0  0  0  0  0  0
    8.1207    0.0362    0.0000 C   0  0  0  0  0  0  0  0  0
    7.4063   -0.3763    0.0000 C   0  0  0  0  0  0  0  0  0
  1  2  1  0  0  0  0
  2  3  4  0  0  0  0
  2  7  4  0  0  0  0
  3  4  4  0  0  0  0
  4  5  4  0  0  0  0
  5  6  4  0  0  0  0
  5  8  1  0  0  0  0
  6  7  4  0  0  0  0
  8  9  1  0  0  0  0
  8 10  1  0  0  0  0
  8 14  1  0  0  0  0
 10 11  1  0  0  0  0
 11 12  1  0  0  0  0
 12 13  1  0  0  0  0
 12 15  1  0  0  0  0
 13 14  1  0  0  0  0
 15 16  1  0  0  0  0
 16 17  4  0  0  0  0
 16 20  4  0  0  0  0
 17 18  4  0  0  0  0
 17 24  4  0  0  0  0
 18 19  4  0  0  0  0
 18 21  4  0  0  0  0
 19 20  4  0  0  0  0
 21 22  4  0  0  0  0
 22 23  4  0  0  0  0
 23 24  4  0  0  0  0
M  STY  1   1 DAT
M  SAL   1  1  19
M  SDT   1 MRV_IMPLICIT_H                                        
M  SDD   1     0.0000    0.0000    DR    ALL  0       0  
M  SED   1 IMPL_H1
M  END
>  <Name_Molregno>
649778

>  <DOPAMINE D2>
8.32

>  <DOPAMINE D3>
6.96

>  <DOPAMINE D4>
6.19

$$$$
651383
  Marvin  02231216192D 0   1.00000     0.00000     0

 24 27  0  0  0  0  0  0  0  0999 V2000
    0.3176    0.0313    0.0000 I   0  0  0  0  0  0  0  0  0
    1.0460   -0.3560    0.0000 C   0  0  0  0  0  0  0  0  0
    1.7457    0.0812    0.0000 C   0  0  0  0  0  0  0  0  0
    2.4741   -0.3061    0.0000 C   0  0  0  0  0  0  0  0  0
    2.5029   -1.1306    0.0000 C   0  0  0  0  0  0  0  0  0
    1.8032   -1.5678    0.0000 C   0  0  0  0  0  0  0  0  0
    1.0748   -1.1805    0.0000 C   0  0  0  0  0  0  0  0  0
    3.2313   -1.5179    0.0000 C   0  0  0  0  0  0  0  0  0
    2.7234   -2.1680    0.0000 O   0  0  0  0  0  0  0  0  0
    3.4863   -0.7333    0.0000 C   0  0  0  0  0  0  0  0  0
    4.2932   -0.5618    0.0000 C   0  0  0  0  0  0  0  0  0
    4.8453   -1.1749    0.0000 N   0  0  0  0  0  0  0  0  0
    4.5903   -1.9595    0.0000 C   0  0  0  0  0  0  0  0  0
    3.7833   -2.1310    0.0000 C   0  0  0  0  0  0  0  0  0
    5.6522   -1.0033    0.0000 C   0  0  0  0  0  0  0  0  0
    5.9072   -0.2187    0.0000 C   0  0  0  0  0  0  0  0  0
    6.6918    0.0362    0.0000 C   0  0  0  0  0  0  0  0  0
    6.6918    0.8612    0.0000 C   0  0  0  0  0  0  0  0  0
    5.9072    1.1162    0.0000 N   0  0  0  0  0  0  0  0  0
    5.4222    0.4487    0.0000 C   0  0  0  0  0  0  0  0  0
    7.4063    1.2737    0.0000 C   0  0  0  0  0  0  0  0  0
    8.1207    0.8612    0.0000 C   0  0  0  0  0  0  0  0  0
    8.1207    0.0362    0.0000 C   0  0  0  0  0  0  0  0  0
    7.4063   -0.3763    0.0000 C   0  0  0  0  0  0  0  0  0
  1  2  1  0  0  0  0
  2  3  4  0  0  0  0
  2  7  4  0  0  0  0
  3  4  4  0  0  0  0
  4  5  4  0  0  0  0
  5  6  4  0  0  0  0
  5  8  1  0  0  0  0
  6  7  4  0  0  0  0
  8  9  1  0  0  0  0
  8 10  1  0  0  0  0
  8 14  1  0  0  0  0
 10 11  1  0  0  0  0
 11 12  1  0  0  0  0
 12 13  1  0  0  0  0
 12 15  1  0  0  0  0
 13 14  1  0  0  0  0
 15 16  1  0  0  0  0
 16 17  4  0  0  0  0
 16 20  4  0  0  0  0
 17 18  4  0  0  0  0
 17 24  4  0  0  0  0
 18 19  4  0  0  0  0
 18 21  4  0  0  0  0
 19 20  4  0  0  0  0
 21 22  4  0  0  0  0
 22 23  4  0  0  0  0
 23 24  4  0  0  0  0
M  STY  1   1 DAT
M  SAL   1  1  19
M  SDT   1 MRV_IMPLICIT_H                                        
M  SDD   1     0.0000    0.0000    DR    ALL  0       0  
M  SED   1 IMPL_H1
M  END
>  <Name_Molregno>
651383

>  <DOPAMINE D2>
8.42

>  <DOPAMINE D3>
7.03

>  <DOPAMINE D4>
7.27

$$$$
651385
  Marvin  02231216192D 0   1.00000     0.00000     0

 26 29  0  0  0  0  0  0  0  0999 V2000
    0.2323   -0.0312    0.0000 I   0  0  0  0  0  0  0  0  0
    0.9607   -0.4185    0.0000 C   0  0  0  0  0  0  0  0  0
    1.6603    0.0187    0.0000 C   0  0  0  0  0  0  0  0  0
    2.3888   -0.3687    0.0000 C   0  0  0  0  0  0  0  0  0
    2.4176   -1.1932    0.0000 C   0  0  0  0  0  0  0  0  0
    1.7179   -1.6303    0.0000 C   0  0  0  0  0  0  0  0  0
    0.9895   -1.2430    0.0000 C   0  0  0  0  0  0  0  0  0
    3.1460   -1.5805    0.0000 C   0  0  0  0  0  0  0  0  0
    2.6381   -2.2306    0.0000 O   0  0  0  0  0  0  0  0  0
    3.4009   -0.7959    0.0000 C   0  0  0  0  0  0  0  0  0
    4.2079   -0.6243    0.0000 C   0  0  0  0  0  0  0  0  0
    4.7599   -1.2374    0.0000 N   0  0  0  0  0  0  0  0  0
    4.5050   -2.0220    0.0000 C   0  0  0  0  0  0  0  0  0
    3.6980   -2.1936    0.0000 C   0  0  0  0  0  0  0  0  0
    5.5669   -1.0659    0.0000 C   0  0  0  0  0  0  0  0  0
    5.8219   -0.2813    0.0000 C   0  0  0  0  0  0  0  0  0
    6.6065   -0.0263    0.0000 C   0  0  0  0  0  0  0  0  0
    6.6065    0.7987    0.0000 C   0  0  0  0  0  0  0  0  0
    5.8219    1.0536    0.0000 N   0  0  0  0  0  0  0  0  0
    5.3369    0.3862    0.0000 C   0  0  0  0  0  0  0  0  0
    7.3209    1.2112    0.0000 C   0  0  0  0  0  0  0  0  0
    8.0354    0.7987    0.0000 C   0  0  0  0  0  0  0  0  0
    8.0354   -0.0263    0.0000 C   0  0  0  0  0  0  0  0  0
    7.3209   -0.4388    0.0000 C   0  0  0  0  0  0  0  0  0
    7.3209   -1.2638    0.0000 O   0  0  0  0  0  0  0  0  0
    8.0354   -1.6763    0.0000 C   0  0  0  0  0  0  0  0  0
  1  2  1  0  0  0  0
  2  3  4  0  0  0  0
  2  7  4  0  0  0  0
  3  4  4  0  0  0  0
  4  5  4  0  0  0  0
  5  6  4  0  0  0  0
  5  8  1  0  0  0  0
  6  7  4  0  0  0  0
  8  9  1  0  0  0  0
  8 10  1  0  0  0  0
  8 14  1  0  0  0  0
 10 11  1  0  0  0  0
 11 12  1  0  0  0  0
 12 13  1  0  0  0  0
 12 15  1  0  0  0  0
 13 14  1  0  0  0  0
 15 16  1  0  0  0  0
 16 17  4  0  0  0  0
 16 20  4  0  0  0  0
 17 18  4  0  0  0  0
 17 24  4  0  0  0  0
 18 19  4  0  0  0  0
 18 21  4  0  0  0  0
 19 20  4  0  0  0  0
 21 22  4  0  0  0  0
 22 23  4  0  0  0  0
 23 24  4  0  0  0  0
 24 25  1  0  0  0  0
 25 26  1  0  0  0  0
M  STY  1   1 DAT
M  SAL   1  1  19
M  SDT   1 MRV_IMPLICIT_H                                        
M  SDD   1     0.0000    0.0000    DR    ALL  0       0  
M  SED   1 IMPL_H1
M  END
>  <Name_Molregno>
651385

>  <DOPAMINE D2>
9.05

>  <DOPAMINE D3>
6.91

>  <DOPAMINE D4>
7.22

$$$$
651386
  Marvin  02231216192D 0   1.00000     0.00000     0

 26 29  0  0  0  0  0  0  0  0999 V2000
    1.0430    3.6553    0.0000 I   0  0  0  0  0  0  0  0  0
    1.5509    3.0051    0.0000 C   0  0  0  0  0  0  0  0  0
    2.3679    3.1200    0.0000 C   0  0  0  0  0  0  0  0  0
    2.8758    2.4699    0.0000 C   0  0  0  0  0  0  0  0  0
    2.5668    1.7049    0.0000 C   0  0  0  0  0  0  0  0  0
    1.7498    1.5901    0.0000 C   0  0  0  0  0  0  0  0  0
    1.2419    2.2402    0.0000 C   0  0  0  0  0  0  0  0  0
    3.0747    1.0548    0.0000 C   0  0  0  0  0  0  0  0  0
    2.3462    0.6675    0.0000 O   0  0  0  0  0  0  0  0  0
    3.6267    1.6679    0.0000 C   0  0  0  0  0  0  0  0  0
    4.4337    1.4964    0.0000 C   0  0  0  0  0  0  0  0  0
    4.6886    0.7118    0.0000 N   0  0  0  0  0  0  0  0  0
    4.1366    0.0987    0.0000 C   0  0  0  0  0  0  0  0  0
    3.3296    0.2702    0.0000 C   0  0  0  0  0  0  0  0  0
    5.4956    0.5402    0.0000 C   0  0  0  0  0  0  0  0  0
    5.7505   -0.2444    0.0000 C   0  0  0  0  0  0  0  0  0
    6.5352   -0.4993    0.0000 C   0  0  0  0  0  0  0  0  0
    7.2496   -0.0868    0.0000 C   0  0  0  0  0  0  0  0  0
    7.9641   -0.4993    0.0000 C   0  0  0  0  0  0  0  0  0
    8.6786   -0.0868    0.0000 O   0  0  0  0  0  0  0  0  0
    8.6786    0.7382    0.0000 C   0  0  0  0  0  0  0  0  0
    7.9641   -1.3243    0.0000 C   0  0  0  0  0  0  0  0  0
    7.2496   -1.7368    0.0000 C   0  0  0  0  0  0  0  0  0
    6.5352   -1.3243    0.0000 C   0  0  0  0  0  0  0  0  0
    5.7505   -1.5793    0.0000 N   0  0  0  0  0  0  0  0  0
    5.2656   -0.9118    0.0000 C   0  0  0  0  0  0  0  0  0
  1  2  1  0  0  0  0
  2  3  4  0  0  0  0
  2  7  4  0  0  0  0
  3  4  4  0  0  0  0
  4  5  4  0  0  0  0
  5  6  4  0  0  0  0
  5  8  1  0  0  0  0
  6  7  4  0  0  0  0
  8  9  1  0  0  0  0
  8 10  1  0  0  0  0
  8 14  1  0  0  0  0
 10 11  1  0  0  0  0
 11 12  1  0  0  0  0
 12 13  1  0  0  0  0
 12 15  1  0  0  0  0
 13 14  1  0  0  0  0
 15 16  1  0  0  0  0
 16 17  4  0  0  0  0
 16 26  4  0  0  0  0
 17 18  4  0  0  0  0
 17 24  4  0  0  0  0
 18 19  4  0  0  0  0
 19 20  1  0  0  0  0
 19 22  4  0  0  0  0
 20 21  1  0  0  0  0
 22 23  4  0  0  0  0
 23 24  4  0  0  0  0
 24 25  4  0  0  0  0
 25 26  4  0  0  0  0
M  STY  1   1 DAT
M  SAL   1  1  25
M  SDT   1 MRV_IMPLICIT_H                                        
M  SDD   1     0.0000    0.0000    DR    ALL  0       0  
M  SED   1 IMPL_H1
M  END
>  <Name_Molregno>
651386

>  <DOPAMINE D2>
9.05

>  <DOPAMINE D3>
7

>  <DOPAMINE D4>
6.89

$$$$
651387
  Marvin  02231216192D 0   1.00000     0.00000     0

 25 28  0  0  0  0  0  0  0  0999 V2000
    0.3881   -1.3196    0.0000 O   0  0  0  0  0  0  0  0  0
    1.1025   -0.9071    0.0000 C   0  0  0  0  0  0  0  0  0
   -0.3264   -0.9071    0.0000 C   0  0  0  0  0  0  0  0  0
   -1.0409   -1.3196    0.0000 C   0  0  0  0  0  0  0  0  0
   -1.7553   -0.9071    0.0000 C   0  0  0  0  0  0  0  0  0
   -1.7553   -0.0821    0.0000 C   0  0  0  0  0  0  0  0  0
   -2.5400    0.1729    0.0000 N   0  0  0  0  0  0  0  0  0
   -3.0249   -0.4946    0.0000 C   0  0  0  0  0  0  0  0  0
   -2.5400   -1.1620    0.0000 C   0  0  0  0  0  0  0  0  0
   -2.7949   -1.9466    0.0000 C   0  0  0  0  0  0  0  0  0
   -3.6019   -2.1181    0.0000 N   0  0  0  0  0  0  0  0  0
   -3.8568   -2.9028    0.0000 C   0  0  0  0  0  0  0  0  0
   -4.6638   -3.0743    0.0000 C   0  0  0  0  0  0  0  0  0
   -5.2158   -2.4612    0.0000 C   0  0  0  0  0  0  0  0  0
   -5.7237   -3.1113    0.0000 O   0  0  0  0  0  0  0  0  0
   -4.9609   -1.6766    0.0000 C   0  0  0  0  0  0  0  0  0
   -4.1539   -1.5050    0.0000 C   0  0  0  0  0  0  0  0  0
   -5.9443   -2.0739    0.0000 C   0  0  0  0  0  0  0  0  0
   -6.6439   -2.5111    0.0000 C   0  0  0  0  0  0  0  0  0
   -7.3723   -2.1237    0.0000 C   0  0  0  0  0  0  0  0  0
   -7.4011   -1.2993    0.0000 C   0  0  0  0  0  0  0  0  0
   -6.7015   -0.8621    0.0000 C   0  0  0  0  0  0  0  0  0
   -5.9730   -1.2494    0.0000 C   0  0  0  0  0  0  0  0  0
   -1.0409    0.3304    0.0000 C   0  0  0  0  0  0  0  0  0
   -0.3264   -0.0821    0.0000 C   0  0  0  0  0  0  0  0  0
  1  2  1  0  0  0  0
  1  3  1  0  0  0  0
  3  4  4  0  0  0  0
  3 25  4  0  0  0  0
  4  5  4  0  0  0  0
  5  6  4  0  0  0  0
  5  9  4  0  0  0  0
  6  7  4  0  0  0  0
  6 24  4  0  0  0  0
  7  8  4  0  0  0  0
  8  9  4  0  0  0  0
  9 10  1  0  0  0  0
 10 11  1  0  0  0  0
 11 12  1  0  0  0  0
 11 17  1  0  0  0  0
 12 13  1  0  0  0  0
 13 14  1  0  0  0  0
 14 15  1  0  0  0  0
 14 16  1  0  0  0  0
 14 18  1  0  0  0  0
 16 17  1  0  0  0  0
 18 19  4  0  0  0  0
 18 23  4  0  0  0  0
 19 20  4  0  0  0  0
 20 21  4  0  0  0  0
 21 22  4  0  0  0  0
 22 23  4  0  0  0  0
 24 25  4  0  0  0  0
M  STY  1   1 DAT
M  SAL   1  1   7
M  SDT   1 MRV_IMPLICIT_H                                        
M  SDD   1     0.0000    0.0000    DR    ALL  0       0  
M  SED   1 IMPL_H1
M  END
>  <Name_Molregno>
651387

>  <DOPAMINE D2>
5.86

>  <DOPAMINE D3>
5.53

>  <DOPAMINE D4>
5

$$$$
651390
  Marvin  02231216192D 0   1.00000     0.00000     0

 28 31  0  0  0  0  0  0  0  0999 V2000
    1.0419    2.0444    0.0000 Br  0  0  0  0  0  0  0  0  0
    1.5498    1.3943    0.0000 C   0  0  0  0  0  0  0  0  0
    2.3668    1.5091    0.0000 C   0  0  0  0  0  0  0  0  0
    2.8747    0.8590    0.0000 C   0  0  0  0  0  0  0  0  0
    2.5657    0.0941    0.0000 C   0  0  0  0  0  0  0  0  0
    1.7487   -0.0208    0.0000 C   0  0  0  0  0  0  0  0  0
    1.2408    0.6293    0.0000 C   0  0  0  0  0  0  0  0  0
    3.0736   -0.5561    0.0000 C   0  0  0  0  0  0  0  0  0
    2.3452   -0.9434    0.0000 O   0  0  0  0  0  0  0  0  0
    3.6256    0.0570    0.0000 C   0  0  0  0  0  0  0  0  0
    4.4326   -0.1145    0.0000 C   0  0  0  0  0  0  0  0  0
    4.6875   -0.8991    0.0000 N   0  0  0  0  0  0  0  0  0
    4.1355   -1.5122    0.0000 C   0  0  0  0  0  0  0  0  0
    3.3285   -1.3407    0.0000 C   0  0  0  0  0  0  0  0  0
    5.4945   -1.0706    0.0000 C   0  0  0  0  0  0  0  0  0
    5.7495   -1.8553    0.0000 C   0  0  0  0  0  0  0  0  0
    6.5341   -2.1102    0.0000 C   0  0  0  0  0  0  0  0  0
    7.2485   -1.6977    0.0000 C   0  0  0  0  0  0  0  0  0
    7.9630   -2.1102    0.0000 C   0  0  0  0  0  0  0  0  0
    8.6775   -1.6977    0.0000 O   0  0  0  0  0  0  0  0  0
    8.6775   -0.8727    0.0000 C   0  0  0  0  0  0  0  0  0
    9.3920   -0.4602    0.0000 C   0  0  0  0  0  0  0  0  0
    9.3920    0.3648    0.0000 F   0  0  0  0  0  0  0  0  0
    7.9630   -2.9352    0.0000 C   0  0  0  0  0  0  0  0  0
    7.2485   -3.3477    0.0000 C   0  0  0  0  0  0  0  0  0
    6.5341   -2.9352    0.0000 C   0  0  0  0  0  0  0  0  0
    5.7495   -3.1901    0.0000 N   0  0  0  0  0  0  0  0  0
    5.2645   -2.5227    0.0000 C   0  0  0  0  0  0  0  0  0
  1  2  1  0  0  0  0
  2  3  4  0  0  0  0
  2  7  4  0  0  0  0
  3  4  4  0  0  0  0
  4  5  4  0  0  0  0
  5  6  4  0  0  0  0
  5  8  1  0  0  0  0
  6  7  4  0  0  0  0
  8  9  1  0  0  0  0
  8 10  1  0  0  0  0
  8 14  1  0  0  0  0
 10 11  1  0  0  0  0
 11 12  1  0  0  0  0
 12 13  1  0  0  0  0
 12 15  1  0  0  0  0
 13 14  1  0  0  0  0
 15 16  1  0  0  0  0
 16 17  4  0  0  0  0
 16 28  4  0  0  0  0
 17 18  4  0  0  0  0
 17 26  4  0  0  0  0
 18 19  4  0  0  0  0
 19 20  1  0  0  0  0
 19 24  4  0  0  0  0
 20 21  1  0  0  0  0
 21 22  1  0  0  0  0
 22 23  1  0  0  0  0
 24 25  4  0  0  0  0
 25 26  4  0  0  0  0
 26 27  4  0  0  0  0
 27 28  4  0  0  0  0
M  STY  1   1 DAT
M  SAL   1  1  27
M  SDT   1 MRV_IMPLICIT_H                                        
M  SDD   1     0.0000    0.0000    DR    ALL  0       0  
M  SED   1 IMPL_H1
M  END
>  <Name_Molregno>
651390

>  <DOPAMINE D2>
7.86

>  <DOPAMINE D3>
6.73

>  <DOPAMINE D4>
6.46

$$$$
651391
  Marvin  02231216192D 0   1.00000     0.00000     0

 28 32  0  0  0  0  0  0  0  0999 V2000
    0.5766   -0.8994    0.0000 O   0  0  0  0  0  0  0  0  0
   -0.1378   -1.3119    0.0000 C   0  0  0  0  0  0  0  0  0
    1.2911   -1.3119    0.0000 C   0  0  0  0  0  0  0  0  0
    2.0056   -0.8994    0.0000 C   0  0  0  0  0  0  0  0  0
    2.7200   -1.3119    0.0000 C   0  0  0  0  0  0  0  0  0
    3.3331   -0.7599    0.0000 N   0  0  0  0  0  0  0  0  0
    2.9976   -0.0062    0.0000 C   0  0  0  0  0  0  0  0  0
    2.1771   -0.0925    0.0000 C   0  0  0  0  0  0  0  0  0
    1.6251    0.5206    0.0000 C   0  0  0  0  0  0  0  0  0
    1.8800    1.3053    0.0000 N   0  0  0  0  0  0  0  0  0
    1.3280    1.9184    0.0000 C   0  0  0  0  0  0  0  0  0
    1.5829    2.7030    0.0000 C   0  0  0  0  0  0  0  0  0
    2.3899    2.8745    0.0000 C   0  0  0  0  0  0  0  0  0
    2.6448    3.6591    0.0000 N   0  0  0  0  0  0  0  0  0
    3.4294    3.9141    0.0000 C   0  0  0  0  0  0  0  0  0
    3.4294    4.7391    0.0000 C   0  0  0  0  0  0  0  0  0
    2.6448    4.9940    0.0000 N   0  0  0  0  0  0  0  0  0
    2.1599    4.3266    0.0000 C   0  0  0  0  0  0  0  0  0
    1.3349    4.3266    0.0000 O   0  0  0  0  0  0  0  0  0
    4.1439    5.1516    0.0000 C   0  0  0  0  0  0  0  0  0
    4.8584    4.7391    0.0000 C   0  0  0  0  0  0  0  0  0
    4.8584    3.9141    0.0000 C   0  0  0  0  0  0  0  0  0
    4.1439    3.5016    0.0000 C   0  0  0  0  0  0  0  0  0
    2.9419    2.2614    0.0000 C   0  0  0  0  0  0  0  0  0
    2.6870    1.4768    0.0000 C   0  0  0  0  0  0  0  0  0
    2.7200   -2.1369    0.0000 C   0  0  0  0  0  0  0  0  0
    2.0056   -2.5494    0.0000 C   0  0  0  0  0  0  0  0  0
    1.2911   -2.1369    0.0000 C   0  0  0  0  0  0  0  0  0
  1  2  1  0  0  0  0
  1  3  1  0  0  0  0
  3  4  4  0  0  0  0
  3 28  4  0  0  0  0
  4  5  4  0  0  0  0
  4  8  4  0  0  0  0
  5  6  4  0  0  0  0
  5 26  4  0  0  0  0
  6  7  4  0  0  0  0
  7  8  4  0  0  0  0
  8  9  1  0  0  0  0
  9 10  1  0  0  0  0
 10 11  1  0  0  0  0
 10 25  1  0  0  0  0
 11 12  1  0  0  0  0
 12 13  1  0  0  0  0
 13 14  1  0  0  0  0
 13 24  1  0  0  0  0
 14 15  1  0  0  0  0
 14 18  1  0  0  0  0
 15 16  4  0  0  0  0
 15 23  4  0  0  0  0
 16 17  1  0  0  0  0
 16 20  4  0  0  0  0
 17 18  1  0  0  0  0
 18 19  2  0  0  0  0
 20 21  4  0  0  0  0
 21 22  4  0  0  0  0
 22 23  4  0  0  0  0
 24 25  1  0  0  0  0
 26 27  4  0  0  0  0
 27 28  4  0  0  0  0
M  STY  1   1 DAT
M  SAL   1  1   6
M  SDT   1 MRV_IMPLICIT_H                                        
M  SDD   1     0.0000    0.0000    DR    ALL  0       0  
M  SED   1 IMPL_H1
M  END
>  <Name_Molregno>
651391

>  <DOPAMINE D2>
7.63

>  <DOPAMINE D3>
6.88

>  <DOPAMINE D4>
5.86

$$$$
651409
  Marvin  02231216192D 0   1.00000     0.00000     0

 28 31  0  0  0  0  0  0  0  0999 V2000
    0.0795   -0.1587    0.0000 Br  0  0  0  0  0  0  0  0  0
    0.8080   -0.5460    0.0000 C   0  0  0  0  0  0  0  0  0
    1.5076   -0.1088    0.0000 C   0  0  0  0  0  0  0  0  0
    2.2360   -0.4962    0.0000 C   0  0  0  0  0  0  0  0  0
    2.2648   -1.3207    0.0000 C   0  0  0  0  0  0  0  0  0
    1.5652   -1.7578    0.0000 C   0  0  0  0  0  0  0  0  0
    0.8367   -1.3705    0.0000 C   0  0  0  0  0  0  0  0  0
    2.9932   -1.7080    0.0000 C   0  0  0  0  0  0  0  0  0
    2.4853   -2.3581    0.0000 O   0  0  0  0  0  0  0  0  0
    3.2482   -0.9233    0.0000 C   0  0  0  0  0  0  0  0  0
    4.0552   -0.7518    0.0000 C   0  0  0  0  0  0  0  0  0
    4.6072   -1.3649    0.0000 N   0  0  0  0  0  0  0  0  0
    4.3523   -2.1495    0.0000 C   0  0  0  0  0  0  0  0  0
    3.5453   -2.3211    0.0000 C   0  0  0  0  0  0  0  0  0
    5.4142   -1.1934    0.0000 C   0  0  0  0  0  0  0  0  0
    5.6691   -0.4088    0.0000 C   0  0  0  0  0  0  0  0  0
    6.4537   -0.1538    0.0000 C   0  0  0  0  0  0  0  0  0
    6.4537    0.6712    0.0000 C   0  0  0  0  0  0  0  0  0
    5.6691    0.9261    0.0000 N   0  0  0  0  0  0  0  0  0
    5.1842    0.2587    0.0000 C   0  0  0  0  0  0  0  0  0
    7.1682    1.0837    0.0000 C   0  0  0  0  0  0  0  0  0
    7.8827    0.6712    0.0000 C   0  0  0  0  0  0  0  0  0
    7.8827   -0.1538    0.0000 C   0  0  0  0  0  0  0  0  0
    7.1682   -0.5663    0.0000 C   0  0  0  0  0  0  0  0  0
    7.1682   -1.3913    0.0000 O   0  0  0  0  0  0  0  0  0
    7.8827   -1.8038    0.0000 C   0  0  0  0  0  0  0  0  0
    7.8827   -2.6288    0.0000 C   0  0  0  0  0  0  0  0  0
    8.5971   -3.0413    0.0000 F   0  0  0  0  0  0  0  0  0
  1  2  1  0  0  0  0
  2  3  4  0  0  0  0
  2  7  4  0  0  0  0
  3  4  4  0  0  0  0
  4  5  4  0  0  0  0
  5  6  4  0  0  0  0
  5  8  1  0  0  0  0
  6  7  4  0  0  0  0
  8  9  1  0  0  0  0
  8 10  1  0  0  0  0
  8 14  1  0  0  0  0
 10 11  1  0  0  0  0
 11 12  1  0  0  0  0
 12 13  1  0  0  0  0
 12 15  1  0  0  0  0
 13 14  1  0  0  0  0
 15 16  1  0  0  0  0
 16 17  4  0  0  0  0
 16 20  4  0  0  0  0
 17 18  4  0  0  0  0
 17 24  4  0  0  0  0
 18 19  4  0  0  0  0
 18 21  4  0  0  0  0
 19 20  4  0  0  0  0
 21 22  4  0  0  0  0
 22 23  4  0  0  0  0
 23 24  4  0  0  0  0
 24 25  1  0  0  0  0
 25 26  1  0  0  0  0
 26 27  1  0  0  0  0
 27 28  1  0  0  0  0
M  STY  1   1 DAT
M  SAL   1  1  19
M  SDT   1 MRV_IMPLICIT_H                                        
M  SDD   1     0.0000    0.0000    DR    ALL  0       0  
M  SED   1 IMPL_H1
M  END
>  <Name_Molregno>
651409

>  <DOPAMINE D2>
7.56

>  <DOPAMINE D3>
6.07

>  <DOPAMINE D4>
6.18

$$$$
651415
  Marvin  02231216192D 0   1.00000     0.00000     0

 28 32  0  0  0  0  0  0  0  0999 V2000
   -5.8693   -5.4874    0.0000 O   0  0  0  0  0  0  0  0  0
   -5.8693   -6.3124    0.0000 C   0  0  0  0  0  0  0  0  0
   -5.1548   -5.0749    0.0000 C   0  0  0  0  0  0  0  0  0
   -5.1548   -4.2499    0.0000 C   0  0  0  0  0  0  0  0  0
   -4.4404   -3.8374    0.0000 C   0  0  0  0  0  0  0  0  0
   -3.7259   -4.2499    0.0000 C   0  0  0  0  0  0  0  0  0
   -3.1128   -3.6979    0.0000 N   0  0  0  0  0  0  0  0  0
   -3.4484   -2.9442    0.0000 C   0  0  0  0  0  0  0  0  0
   -4.2688   -3.0304    0.0000 C   0  0  0  0  0  0  0  0  0
   -4.8209   -2.4173    0.0000 C   0  0  0  0  0  0  0  0  0
   -4.5659   -1.6327    0.0000 N   0  0  0  0  0  0  0  0  0
   -5.1180   -1.0196    0.0000 C   0  0  0  0  0  0  0  0  0
   -4.8630   -0.2350    0.0000 C   0  0  0  0  0  0  0  0  0
   -4.0561   -0.0635    0.0000 C   0  0  0  0  0  0  0  0  0
   -3.8011    0.7212    0.0000 N   0  0  0  0  0  0  0  0  0
   -3.0165    0.9761    0.0000 C   0  0  0  0  0  0  0  0  0
   -3.0165    1.8011    0.0000 C   0  0  0  0  0  0  0  0  0
   -3.8011    2.0560    0.0000 N   0  0  0  0  0  0  0  0  0
   -4.2860    1.3886    0.0000 C   0  0  0  0  0  0  0  0  0
   -5.1110    1.3886    0.0000 O   0  0  0  0  0  0  0  0  0
   -2.3020    2.2136    0.0000 C   0  0  0  0  0  0  0  0  0
   -1.5876    1.8011    0.0000 C   0  0  0  0  0  0  0  0  0
   -1.5876    0.9761    0.0000 C   0  0  0  0  0  0  0  0  0
   -2.3020    0.5636    0.0000 C   0  0  0  0  0  0  0  0  0
   -3.5040   -0.6766    0.0000 C   0  0  0  0  0  0  0  0  0
   -3.7590   -1.4612    0.0000 C   0  0  0  0  0  0  0  0  0
   -3.7259   -5.0749    0.0000 C   0  0  0  0  0  0  0  0  0
   -4.4404   -5.4874    0.0000 C   0  0  0  0  0  0  0  0  0
  1  2  1  0  0  0  0
  1  3  1  0  0  0  0
  3  4  4  0  0  0  0
  3 28  4  0  0  0  0
  4  5  4  0  0  0  0
  5  6  4  0  0  0  0
  5  9  4  0  0  0  0
  6  7  4  0  0  0  0
  6 27  4  0  0  0  0
  7  8  4  0  0  0  0
  8  9  4  0  0  0  0
  9 10  1  0  0  0  0
 10 11  1  0  0  0  0
 11 12  1  0  0  0  0
 11 26  1  0  0  0  0
 12 13  1  0  0  0  0
 13 14  1  0  0  0  0
 14 15  1  0  0  0  0
 14 25  1  0  0  0  0
 15 16  1  0  0  0  0
 15 19  1  0  0  0  0
 16 17  4  0  0  0  0
 16 24  4  0  0  0  0
 17 18  1  0  0  0  0
 17 21  4  0  0  0  0
 18 19  1  0  0  0  0
 19 20  2  0  0  0  0
 21 22  4  0  0  0  0
 22 23  4  0  0  0  0
 23 24  4  0  0  0  0
 25 26  1  0  0  0  0
 27 28  4  0  0  0  0
M  STY  1   1 DAT
M  SAL   1  1   7
M  SDT   1 MRV_IMPLICIT_H                                        
M  SDD   1     0.0000    0.0000    DR    ALL  0       0  
M  SED   1 IMPL_H1
M  END
>  <Name_Molregno>
651415

>  <DOPAMINE D2>
7.9

>  <DOPAMINE D3>
7.17

>  <DOPAMINE D4>
5.65

$$$$
651416
  Marvin  02231216192D 0   1.00000     0.00000     0

 24 27  0  0  0  0  0  0  0  0999 V2000
    1.0618    2.5000    0.0000 Br  0  0  0  0  0  0  0  0  0
    1.5697    1.8499    0.0000 C   0  0  0  0  0  0  0  0  0
    2.3867    1.9647    0.0000 C   0  0  0  0  0  0  0  0  0
    2.8946    1.3146    0.0000 C   0  0  0  0  0  0  0  0  0
    2.5856    0.5497    0.0000 C   0  0  0  0  0  0  0  0  0
    1.7686    0.4349    0.0000 C   0  0  0  0  0  0  0  0  0
    1.2607    1.0850    0.0000 C   0  0  0  0  0  0  0  0  0
    3.0935   -0.1004    0.0000 C   0  0  0  0  0  0  0  0  0
    2.3651   -0.4877    0.0000 O   0  0  0  0  0  0  0  0  0
    3.6455    0.5127    0.0000 C   0  0  0  0  0  0  0  0  0
    4.4525    0.3411    0.0000 C   0  0  0  0  0  0  0  0  0
    4.7074   -0.4435    0.0000 N   0  0  0  0  0  0  0  0  0
    4.1554   -1.0566    0.0000 C   0  0  0  0  0  0  0  0  0
    3.3484   -0.8851    0.0000 C   0  0  0  0  0  0  0  0  0
    5.5144   -0.6150    0.0000 C   0  0  0  0  0  0  0  0  0
    5.7693   -1.3996    0.0000 C   0  0  0  0  0  0  0  0  0
    6.5540   -1.6546    0.0000 C   0  0  0  0  0  0  0  0  0
    7.2684   -1.2421    0.0000 C   0  0  0  0  0  0  0  0  0
    7.9829   -1.6546    0.0000 C   0  0  0  0  0  0  0  0  0
    7.9829   -2.4796    0.0000 C   0  0  0  0  0  0  0  0  0
    7.2684   -2.8921    0.0000 N   0  0  0  0  0  0  0  0  0
    6.5540   -2.4796    0.0000 C   0  0  0  0  0  0  0  0  0
    5.7693   -2.7345    0.0000 N   0  0  0  0  0  0  0  0  0
    5.2844   -2.0671    0.0000 C   0  0  0  0  0  0  0  0  0
  1  2  1  0  0  0  0
  2  3  4  0  0  0  0
  2  7  4  0  0  0  0
  3  4  4  0  0  0  0
  4  5  4  0  0  0  0
  5  6  4  0  0  0  0
  5  8  1  0  0  0  0
  6  7  4  0  0  0  0
  8  9  1  0  0  0  0
  8 10  1  0  0  0  0
  8 14  1  0  0  0  0
 10 11  1  0  0  0  0
 11 12  1  0  0  0  0
 12 13  1  0  0  0  0
 12 15  1  0  0  0  0
 13 14  1  0  0  0  0
 15 16  1  0  0  0  0
 16 17  4  0  0  0  0
 16 24  4  0  0  0  0
 17 18  4  0  0  0  0
 17 22  4  0  0  0  0
 18 19  4  0  0  0  0
 19 20  4  0  0  0  0
 20 21  4  0  0  0  0
 21 22  4  0  0  0  0
 22 23  4  0  0  0  0
 23 24  4  0  0  0  0
M  STY  1   1 DAT
M  SAL   1  1  23
M  SDT   1 MRV_IMPLICIT_H                                        
M  SDD   1     0.0000    0.0000    DR    ALL  0       0  
M  SED   1 IMPL_H1
M  END
>  <Name_Molregno>
651416

>  <DOPAMINE D2>
6.67

>  <DOPAMINE D3>
5.53

>  <DOPAMINE D4>
6.21

$$$$
690063
  Marvin  02231216192D 0   1.00000     0.00000     0

 25 27  0  0  0  0  0  0  0  0999 V2000
   -5.3688   -2.2266    0.0000 O   0  0  0  0  0  0  0  0  0
   -5.3688   -3.0516    0.0000 C   0  0  0  0  0  0  0  0  0
   -6.0833   -1.8141    0.0000 C   0  0  0  0  0  0  0  0  0
   -6.7978   -2.2266    0.0000 C   0  0  0  0  0  0  0  0  0
   -7.5122   -1.8141    0.0000 C   0  0  0  0  0  0  0  0  0
   -7.5122   -0.9891    0.0000 C   0  0  0  0  0  0  0  0  0
   -6.7978   -0.5766    0.0000 C   0  0  0  0  0  0  0  0  0
   -6.0833   -0.9891    0.0000 C   0  0  0  0  0  0  0  0  0
   -5.3688   -0.5766    0.0000 N   0  0  0  0  0  0  0  0  0
   -5.3688    0.2484    0.0000 C   0  0  0  0  0  0  0  0  0
   -4.6544    0.6609    0.0000 C   0  0  0  0  0  0  0  0  0
   -3.9399    0.2484    0.0000 N   0  0  0  0  0  0  0  0  0
   -3.9399   -0.5766    0.0000 C   0  0  0  0  0  0  0  0  0
   -4.6544   -0.9891    0.0000 C   0  0  0  0  0  0  0  0  0
   -3.2254    0.6609    0.0000 C   0  0  0  0  0  0  0  0  0
   -2.5109    0.2484    0.0000 C   0  0  0  0  0  0  0  0  0
   -1.7965    0.6609    0.0000 C   0  0  0  0  0  0  0  0  0
   -1.0820    0.2484    0.0000 C   0  0  0  0  0  0  0  0  0
   -0.3675    0.6609    0.0000 N   0  0  0  0  0  0  0  0  0
    0.3469    0.2484    0.0000 C   0  0  0  0  0  0  0  0  0
    1.0614    0.6609    0.0000 N   0  0  0  0  0  0  0  0  0
    1.7759    0.2484    0.0000 C   0  0  0  0  0  0  0  0  0
    1.7759   -0.5766    0.0000 C   0  0  0  0  0  0  0  0  0
    1.0614   -0.9891    0.0000 C   0  0  0  0  0  0  0  0  0
    0.3469   -0.5766    0.0000 C   0  0  0  0  0  0  0  0  0
  1  2  1  0  0  0  0
  1  3  1  0  0  0  0
  3  4  4  0  0  0  0
  3  8  4  0  0  0  0
  4  5  4  0  0  0  0
  5  6  4  0  0  0  0
  6  7  4  0  0  0  0
  7  8  4  0  0  0  0
  8  9  1  0  0  0  0
  9 10  1  0  0  0  0
  9 14  1  0  0  0  0
 10 11  1  0  0  0  0
 11 12  1  0  0  0  0
 12 13  1  0  0  0  0
 12 15  1  0  0  0  0
 13 14  1  0  0  0  0
 15 16  1  0  0  0  0
 16 17  1  0  0  0  0
 17 18  1  0  0  0  0
 18 19  1  0  0  0  0
 19 20  1  0  0  0  0
 20 21  4  0  0  0  0
 20 25  4  0  0  0  0
 21 22  4  0  0  0  0
 22 23  4  0  0  0  0
 23 24  4  0  0  0  0
 24 25  4  0  0  0  0
M  END
>  <Name_Molregno>
690063

>  <Alpha-1A>
7.64

>  <DOPAMINE D2>
9.1

>  <DOPAMINE D3>
6.7

$$$$
690064
  Marvin  02231216192D 0   1.00000     0.00000     0

 25 27  0  0  0  0  0  0  0  0999 V2000
   -6.5983    0.0021    0.0000 Cl  0  0  0  0  0  0  0  0  0
   -6.5983   -0.8229    0.0000 C   0  0  0  0  0  0  0  0  0
   -5.8838   -1.2354    0.0000 C   0  0  0  0  0  0  0  0  0
   -5.1693   -0.8229    0.0000 N   0  0  0  0  0  0  0  0  0
   -5.1693    0.0021    0.0000 C   0  0  0  0  0  0  0  0  0
   -4.4548    0.4146    0.0000 C   0  0  0  0  0  0  0  0  0
   -3.7404    0.0021    0.0000 N   0  0  0  0  0  0  0  0  0
   -3.7404   -0.8229    0.0000 C   0  0  0  0  0  0  0  0  0
   -4.4548   -1.2354    0.0000 C   0  0  0  0  0  0  0  0  0
   -3.0259    0.4146    0.0000 C   0  0  0  0  0  0  0  0  0
   -2.3114    0.0021    0.0000 C   0  0  0  0  0  0  0  0  0
   -1.5970    0.4146    0.0000 C   0  0  0  0  0  0  0  0  0
   -0.8825    0.0021    0.0000 C   0  0  0  0  0  0  0  0  0
   -0.1680    0.4146    0.0000 N   0  0  0  0  0  0  0  0  0
    0.5465    0.0021    0.0000 C   0  0  0  0  0  0  0  0  0
    1.2609    0.4146    0.0000 N   0  0  0  0  0  0  0  0  0
    1.9754    0.0021    0.0000 C   0  0  0  0  0  0  0  0  0
    1.9754   -0.8229    0.0000 C   0  0  0  0  0  0  0  0  0
    1.2609   -1.2354    0.0000 C   0  0  0  0  0  0  0  0  0
    0.5465   -0.8229    0.0000 C   0  0  0  0  0  0  0  0  0
   -5.8838   -2.0604    0.0000 C   0  0  0  0  0  0  0  0  0
   -6.5983   -2.4729    0.0000 C   0  0  0  0  0  0  0  0  0
   -7.3127   -2.0604    0.0000 C   0  0  0  0  0  0  0  0  0
   -7.3127   -1.2354    0.0000 C   0  0  0  0  0  0  0  0  0
   -8.0272   -0.8229    0.0000 Cl  0  0  0  0  0  0  0  0  0
  1  2  1  0  0  0  0
  2  3  4  0  0  0  0
  2 24  4  0  0  0  0
  3  4  1  0  0  0  0
  3 21  4  0  0  0  0
  4  5  1  0  0  0  0
  4  9  1  0  0  0  0
  5  6  1  0  0  0  0
  6  7  1  0  0  0  0
  7  8  1  0  0  0  0
  7 10  1  0  0  0  0
  8  9  1  0  0  0  0
 10 11  1  0  0  0  0
 11 12  1  0  0  0  0
 12 13  1  0  0  0  0
 13 14  1  0  0  0  0
 14 15  1  0  0  0  0
 15 16  4  0  0  0  0
 15 20  4  0  0  0  0
 16 17  4  0  0  0  0
 17 18  4  0  0  0  0
 18 19  4  0  0  0  0
 19 20  4  0  0  0  0
 21 22  4  0  0  0  0
 22 23  4  0  0  0  0
 23 24  4  0  0  0  0
 24 25  1  0  0  0  0
M  END
>  <Name_Molregno>
690064

>  <Alpha-1A>
7.48

>  <DOPAMINE D2>
9.4

>  <DOPAMINE D3>
7.6

$$$$
690065
  Marvin  02231216192D 0   1.00000     0.00000     0

 27 29  0  0  0  0  0  0  0  0999 V2000
   -1.2333   -0.3224    0.0000 F   0  0  0  0  0  0  0  0  0
   -0.5189   -0.7349    0.0000 C   0  0  0  0  0  0  0  0  0
   -0.9314   -1.4493    0.0000 F   0  0  0  0  0  0  0  0  0
   -0.1064   -0.0204    0.0000 F   0  0  0  0  0  0  0  0  0
    0.1956   -1.1474    0.0000 C   0  0  0  0  0  0  0  0  0
    0.9101   -0.7349    0.0000 C   0  0  0  0  0  0  0  0  0
    1.6245   -1.1474    0.0000 C   0  0  0  0  0  0  0  0  0
    2.3390   -0.7349    0.0000 N   0  0  0  0  0  0  0  0  0
    2.3390    0.0901    0.0000 C   0  0  0  0  0  0  0  0  0
    3.0535    0.5026    0.0000 C   0  0  0  0  0  0  0  0  0
    3.7679    0.0901    0.0000 N   0  0  0  0  0  0  0  0  0
    3.7679   -0.7349    0.0000 C   0  0  0  0  0  0  0  0  0
    3.0535   -1.1474    0.0000 C   0  0  0  0  0  0  0  0  0
    4.4824    0.5026    0.0000 C   0  0  0  0  0  0  0  0  0
    5.1969    0.0901    0.0000 C   0  0  0  0  0  0  0  0  0
    5.9114    0.5026    0.0000 C   0  0  0  0  0  0  0  0  0
    6.6258    0.0901    0.0000 C   0  0  0  0  0  0  0  0  0
    7.3403    0.5026    0.0000 N   0  0  0  0  0  0  0  0  0
    8.0548    0.0901    0.0000 C   0  0  0  0  0  0  0  0  0
    8.7692    0.5026    0.0000 N   0  0  0  0  0  0  0  0  0
    9.4837    0.0901    0.0000 C   0  0  0  0  0  0  0  0  0
    9.4837   -0.7349    0.0000 C   0  0  0  0  0  0  0  0  0
    8.7692   -1.1474    0.0000 C   0  0  0  0  0  0  0  0  0
    8.0548   -0.7349    0.0000 C   0  0  0  0  0  0  0  0  0
    1.6245   -1.9724    0.0000 C   0  0  0  0  0  0  0  0  0
    0.9101   -2.3849    0.0000 C   0  0  0  0  0  0  0  0  0
    0.1956   -1.9724    0.0000 C   0  0  0  0  0  0  0  0  0
  1  2  1  0  0  0  0
  2  3  1  0  0  0  0
  2  4  1  0  0  0  0
  2  5  1  0  0  0  0
  5  6  4  0  0  0  0
  5 27  4  0  0  0  0
  6  7  4  0  0  0  0
  7  8  1  0  0  0  0
  7 25  4  0  0  0  0
  8  9  1  0  0  0  0
  8 13  1  0  0  0  0
  9 10  1  0  0  0  0
 10 11  1  0  0  0  0
 11 12  1  0  0  0  0
 11 14  1  0  0  0  0
 12 13  1  0  0  0  0
 14 15  1  0  0  0  0
 15 16  1  0  0  0  0
 16 17  1  0  0  0  0
 17 18  1  0  0  0  0
 18 19  1  0  0  0  0
 19 20  4  0  0  0  0
 19 24  4  0  0  0  0
 20 21  4  0  0  0  0
 21 22  4  0  0  0  0
 22 23  4  0  0  0  0
 23 24  4  0  0  0  0
 25 26  4  0  0  0  0
 26 27  4  0  0  0  0
M  END
>  <Name_Molregno>
690065

>  <Alpha-1A>
6.23

>  <DOPAMINE D2>
7.77

>  <DOPAMINE D3>
6.7

$$$$
690129
  Marvin  02231216192D 0   1.00000     0.00000     0

 24 26  0  0  0  0  0  0  0  0999 V2000
   -5.6268   -2.3377    0.0000 F   0  0  0  0  0  0  0  0  0
   -6.3413   -1.9252    0.0000 C   0  0  0  0  0  0  0  0  0
   -7.0557   -2.3377    0.0000 C   0  0  0  0  0  0  0  0  0
   -7.7702   -1.9252    0.0000 C   0  0  0  0  0  0  0  0  0
   -7.7702   -1.1002    0.0000 C   0  0  0  0  0  0  0  0  0
   -7.0557   -0.6877    0.0000 C   0  0  0  0  0  0  0  0  0
   -6.3413   -1.1002    0.0000 C   0  0  0  0  0  0  0  0  0
   -5.6268   -0.6877    0.0000 N   0  0  0  0  0  0  0  0  0
   -5.6268    0.1373    0.0000 C   0  0  0  0  0  0  0  0  0
   -4.9123    0.5498    0.0000 C   0  0  0  0  0  0  0  0  0
   -4.1979    0.1373    0.0000 N   0  0  0  0  0  0  0  0  0
   -4.1979   -0.6877    0.0000 C   0  0  0  0  0  0  0  0  0
   -4.9123   -1.1002    0.0000 C   0  0  0  0  0  0  0  0  0
   -3.4834    0.5498    0.0000 C   0  0  0  0  0  0  0  0  0
   -2.7689    0.1373    0.0000 C   0  0  0  0  0  0  0  0  0
   -2.0544    0.5498    0.0000 C   0  0  0  0  0  0  0  0  0
   -1.3400    0.1373    0.0000 C   0  0  0  0  0  0  0  0  0
   -0.6255    0.5498    0.0000 N   0  0  0  0  0  0  0  0  0
    0.0890    0.1373    0.0000 C   0  0  0  0  0  0  0  0  0
    0.8034    0.5498    0.0000 N   0  0  0  0  0  0  0  0  0
    1.5179    0.1373    0.0000 C   0  0  0  0  0  0  0  0  0
    1.5179   -0.6877    0.0000 C   0  0  0  0  0  0  0  0  0
    0.8034   -1.1002    0.0000 C   0  0  0  0  0  0  0  0  0
    0.0890   -0.6877    0.0000 C   0  0  0  0  0  0  0  0  0
  1  2  1  0  0  0  0
  2  3  4  0  0  0  0
  2  7  4  0  0  0  0
  3  4  4  0  0  0  0
  4  5  4  0  0  0  0
  5  6  4  0  0  0  0
  6  7  4  0  0  0  0
  7  8  1  0  0  0  0
  8  9  1  0  0  0  0
  8 13  1  0  0  0  0
  9 10  1  0  0  0  0
 10 11  1  0  0  0  0
 11 12  1  0  0  0  0
 11 14  1  0  0  0  0
 12 13  1  0  0  0  0
 14 15  1  0  0  0  0
 15 16  1  0  0  0  0
 16 17  1  0  0  0  0
 17 18  1  0  0  0  0
 18 19  1  0  0  0  0
 19 20  4  0  0  0  0
 19 24  4  0  0  0  0
 20 21  4  0  0  0  0
 21 22  4  0  0  0  0
 22 23  4  0  0  0  0
 23 24  4  0  0  0  0
M  END
>  <Name_Molregno>
690129

>  <Alpha-1A>
7.77

>  <DOPAMINE D2>
7.96

>  <DOPAMINE D3>
6.88

$$$$
690130
  Marvin  02231216192D 0   1.00000     0.00000     0

 24 26  0  0  0  0  0  0  0  0999 V2000
    0.6565   -1.1325    0.0000 N   0  0  0  0  0  0  0  0  0
   -0.0580   -1.5450    0.0000 C   0  0  0  0  0  0  0  0  0
   -0.7725   -1.1325    0.0000 C   0  0  0  0  0  0  0  0  0
   -0.7725   -0.3075    0.0000 C   0  0  0  0  0  0  0  0  0
   -0.0580    0.1050    0.0000 C   0  0  0  0  0  0  0  0  0
    0.6565   -0.3075    0.0000 C   0  0  0  0  0  0  0  0  0
    1.3709    0.1050    0.0000 N   0  0  0  0  0  0  0  0  0
    2.0854   -0.3075    0.0000 C   0  0  0  0  0  0  0  0  0
    2.7999    0.1050    0.0000 C   0  0  0  0  0  0  0  0  0
    3.5143   -0.3075    0.0000 C   0  0  0  0  0  0  0  0  0
    4.2288    0.1050    0.0000 C   0  0  0  0  0  0  0  0  0
    4.9433   -0.3075    0.0000 N   0  0  0  0  0  0  0  0  0
    5.6578    0.1050    0.0000 C   0  0  0  0  0  0  0  0  0
    6.3722   -0.3075    0.0000 C   0  0  0  0  0  0  0  0  0
    6.3722   -1.1325    0.0000 N   0  0  0  0  0  0  0  0  0
    5.6578   -1.5450    0.0000 C   0  0  0  0  0  0  0  0  0
    4.9433   -1.1325    0.0000 C   0  0  0  0  0  0  0  0  0
    7.0867   -1.5450    0.0000 C   0  0  0  0  0  0  0  0  0
    7.8012   -1.1325    0.0000 C   0  0  0  0  0  0  0  0  0
    8.5156   -1.5450    0.0000 C   0  0  0  0  0  0  0  0  0
    8.5156   -2.3700    0.0000 C   0  0  0  0  0  0  0  0  0
    7.8012   -2.7825    0.0000 C   0  0  0  0  0  0  0  0  0
    7.0867   -2.3700    0.0000 C   0  0  0  0  0  0  0  0  0
    6.3722   -2.7825    0.0000 C   0  0  0  0  0  0  0  0  0
  1  2  4  0  0  0  0
  1  6  4  0  0  0  0
  2  3  4  0  0  0  0
  3  4  4  0  0  0  0
  4  5  4  0  0  0  0
  5  6  4  0  0  0  0
  6  7  1  0  0  0  0
  7  8  1  0  0  0  0
  8  9  1  0  0  0  0
  9 10  1  0  0  0  0
 10 11  1  0  0  0  0
 11 12  1  0  0  0  0
 12 13  1  0  0  0  0
 12 17  1  0  0  0  0
 13 14  1  0  0  0  0
 14 15  1  0  0  0  0
 15 16  1  0  0  0  0
 15 18  1  0  0  0  0
 16 17  1  0  0  0  0
 18 19  4  0  0  0  0
 18 23  4  0  0  0  0
 19 20  4  0  0  0  0
 20 21  4  0  0  0  0
 21 22  4  0  0  0  0
 22 23  4  0  0  0  0
 23 24  1  0  0  0  0
M  END
>  <Name_Molregno>
690130

>  <Alpha-1A>
7.85

>  <DOPAMINE D2>
7.49

>  <DOPAMINE D3>
6.42

$$$$
690131
  Marvin  02231216192D 0   1.00000     0.00000     0

 25 27  0  0  0  0  0  0  0  0999 V2000
    0.7152   -0.9963    0.0000 N   0  0  0  0  0  0  0  0  0
    0.0008   -1.4088    0.0000 C   0  0  0  0  0  0  0  0  0
   -0.7137   -0.9963    0.0000 C   0  0  0  0  0  0  0  0  0
   -0.7137   -0.1713    0.0000 C   0  0  0  0  0  0  0  0  0
    0.0008    0.2412    0.0000 C   0  0  0  0  0  0  0  0  0
    0.7152   -0.1713    0.0000 C   0  0  0  0  0  0  0  0  0
    1.4297    0.2412    0.0000 N   0  0  0  0  0  0  0  0  0
    2.1442   -0.1713    0.0000 C   0  0  0  0  0  0  0  0  0
    2.8586    0.2412    0.0000 C   0  0  0  0  0  0  0  0  0
    3.5731   -0.1713    0.0000 C   0  0  0  0  0  0  0  0  0
    4.2876    0.2412    0.0000 C   0  0  0  0  0  0  0  0  0
    5.0021   -0.1713    0.0000 N   0  0  0  0  0  0  0  0  0
    5.7165    0.2412    0.0000 C   0  0  0  0  0  0  0  0  0
    6.4310   -0.1713    0.0000 C   0  0  0  0  0  0  0  0  0
    6.4310   -0.9963    0.0000 N   0  0  0  0  0  0  0  0  0
    5.7165   -1.4088    0.0000 C   0  0  0  0  0  0  0  0  0
    5.0021   -0.9963    0.0000 C   0  0  0  0  0  0  0  0  0
    7.1455   -1.4088    0.0000 C   0  0  0  0  0  0  0  0  0
    7.8599   -0.9963    0.0000 C   0  0  0  0  0  0  0  0  0
    8.5744   -1.4088    0.0000 C   0  0  0  0  0  0  0  0  0
    8.5744   -2.2338    0.0000 C   0  0  0  0  0  0  0  0  0
    7.8599   -2.6463    0.0000 C   0  0  0  0  0  0  0  0  0
    7.8599   -3.4713    0.0000 C   0  0  0  0  0  0  0  0  0
    7.1455   -2.2338    0.0000 C   0  0  0  0  0  0  0  0  0
    6.4310   -2.6463    0.0000 C   0  0  0  0  0  0  0  0  0
  1  2  4  0  0  0  0
  1  6  4  0  0  0  0
  2  3  4  0  0  0  0
  3  4  4  0  0  0  0
  4  5  4  0  0  0  0
  5  6  4  0  0  0  0
  6  7  1  0  0  0  0
  7  8  1  0  0  0  0
  8  9  1  0  0  0  0
  9 10  1  0  0  0  0
 10 11  1  0  0  0  0
 11 12  1  0  0  0  0
 12 13  1  0  0  0  0
 12 17  1  0  0  0  0
 13 14  1  0  0  0  0
 14 15  1  0  0  0  0
 15 16  1  0  0  0  0
 15 18  1  0  0  0  0
 16 17  1  0  0  0  0
 18 19  4  0  0  0  0
 18 24  4  0  0  0  0
 19 20  4  0  0  0  0
 20 21  4  0  0  0  0
 21 22  4  0  0  0  0
 22 23  1  0  0  0  0
 22 24  4  0  0  0  0
 24 25  1  0  0  0  0
M  END
>  <Name_Molregno>
690131

>  <Alpha-1A>
7.4

>  <DOPAMINE D2>
7.92

>  <DOPAMINE D3>
6.68

$$$$
690132
  Marvin  02231216192D 0   1.00000     0.00000     0

 29 32  0  0  0  0  0  0  0  0999 V2000
   -8.1913    0.2131    0.0000 Cl  0  0  0  0  0  0  0  0  0
   -8.1913   -0.6119    0.0000 C   0  0  0  0  0  0  0  0  0
   -7.4768   -1.0244    0.0000 C   0  0  0  0  0  0  0  0  0
   -6.7623   -0.6119    0.0000 N   0  0  0  0  0  0  0  0  0
   -6.7623    0.2131    0.0000 C   0  0  0  0  0  0  0  0  0
   -6.0479    0.6256    0.0000 C   0  0  0  0  0  0  0  0  0
   -5.3334    0.2131    0.0000 N   0  0  0  0  0  0  0  0  0
   -5.3334   -0.6119    0.0000 C   0  0  0  0  0  0  0  0  0
   -6.0479   -1.0244    0.0000 C   0  0  0  0  0  0  0  0  0
   -4.6189    0.6256    0.0000 C   0  0  0  0  0  0  0  0  0
   -3.9044    0.2131    0.0000 C   0  0  0  0  0  0  0  0  0
   -3.1900    0.6256    0.0000 C   0  0  0  0  0  0  0  0  0
   -2.4755    0.2131    0.0000 C   0  0  0  0  0  0  0  0  0
   -1.7610    0.6256    0.0000 N   0  0  0  0  0  0  0  0  0
   -1.0466    0.2131    0.0000 C   0  0  0  0  0  0  0  0  0
   -1.0466   -0.6119    0.0000 N   0  0  0  0  0  0  0  0  0
   -0.3321   -1.0244    0.0000 C   0  0  0  0  0  0  0  0  0
    0.3824   -0.6119    0.0000 C   0  0  0  0  0  0  0  0  0
    0.3824    0.2131    0.0000 C   0  0  0  0  0  0  0  0  0
   -0.3321    0.6256    0.0000 C   0  0  0  0  0  0  0  0  0
    1.0969   -1.0244    0.0000 C   0  0  0  0  0  0  0  0  0
    1.0969   -1.8494    0.0000 C   0  0  0  0  0  0  0  0  0
    0.3824   -2.2619    0.0000 C   0  0  0  0  0  0  0  0  0
   -0.3321   -1.8494    0.0000 C   0  0  0  0  0  0  0  0  0
   -7.4768   -1.8494    0.0000 C   0  0  0  0  0  0  0  0  0
   -8.1913   -2.2619    0.0000 C   0  0  0  0  0  0  0  0  0
   -8.9057   -1.8494    0.0000 C   0  0  0  0  0  0  0  0  0
   -8.9057   -1.0244    0.0000 C   0  0  0  0  0  0  0  0  0
   -9.6202   -0.6119    0.0000 Cl  0  0  0  0  0  0  0  0  0
  1  2  1  0  0  0  0
  2  3  4  0  0  0  0
  2 28  4  0  0  0  0
  3  4  1  0  0  0  0
  3 25  4  0  0  0  0
  4  5  1  0  0  0  0
  4  9  1  0  0  0  0
  5  6  1  0  0  0  0
  6  7  1  0  0  0  0
  7  8  1  0  0  0  0
  7 10  1  0  0  0  0
  8  9  1  0  0  0  0
 10 11  1  0  0  0  0
 11 12  1  0  0  0  0
 12 13  1  0  0  0  0
 13 14  1  0  0  0  0
 14 15  1  0  0  0  0
 15 16  4  0  0  0  0
 15 20  4  0  0  0  0
 16 17  4  0  0  0  0
 17 18  4  0  0  0  0
 17 24  4  0  0  0  0
 18 19  4  0  0  0  0
 18 21  4  0  0  0  0
 19 20  4  0  0  0  0
 21 22  4  0  0  0  0
 22 23  4  0  0  0  0
 23 24  4  0  0  0  0
 25 26  4  0  0  0  0
 26 27  4  0  0  0  0
 27 28  4  0  0  0  0
 28 29  1  0  0  0  0
M  END
>  <Name_Molregno>
690132

>  <Alpha-1A>
7.34

>  <DOPAMINE D2>
9.22

>  <DOPAMINE D3>
7.64

$$$$
690196
  Marvin  02231216192D 0   1.00000     0.00000     0

 31 34  0  0  0  0  0  0  0  0999 V2000
   -9.5127    2.6233    0.0000 F   0  0  0  0  0  0  0  0  0
   -9.5127    1.7983    0.0000 C   0  0  0  0  0  0  0  0  0
  -10.3377    1.7983    0.0000 F   0  0  0  0  0  0  0  0  0
   -8.6877    1.7983    0.0000 F   0  0  0  0  0  0  0  0  0
   -9.5127    0.9733    0.0000 C   0  0  0  0  0  0  0  0  0
   -8.7982    0.5608    0.0000 C   0  0  0  0  0  0  0  0  0
   -8.7982   -0.2642    0.0000 C   0  0  0  0  0  0  0  0  0
   -8.0838   -0.6767    0.0000 N   0  0  0  0  0  0  0  0  0
   -7.3693   -0.2642    0.0000 C   0  0  0  0  0  0  0  0  0
   -6.6548   -0.6767    0.0000 C   0  0  0  0  0  0  0  0  0
   -6.6548   -1.5017    0.0000 N   0  0  0  0  0  0  0  0  0
   -7.3693   -1.9142    0.0000 C   0  0  0  0  0  0  0  0  0
   -8.0838   -1.5017    0.0000 C   0  0  0  0  0  0  0  0  0
   -5.9403   -1.9142    0.0000 C   0  0  0  0  0  0  0  0  0
   -5.2259   -1.5017    0.0000 C   0  0  0  0  0  0  0  0  0
   -4.5114   -1.9142    0.0000 C   0  0  0  0  0  0  0  0  0
   -3.7969   -1.5017    0.0000 C   0  0  0  0  0  0  0  0  0
   -3.0825   -1.9142    0.0000 N   0  0  0  0  0  0  0  0  0
   -2.3680   -1.5017    0.0000 C   0  0  0  0  0  0  0  0  0
   -1.6535   -1.9142    0.0000 N   0  0  0  0  0  0  0  0  0
   -0.9391   -1.5017    0.0000 C   0  0  0  0  0  0  0  0  0
   -0.9391   -0.6767    0.0000 C   0  0  0  0  0  0  0  0  0
   -1.6535   -0.2642    0.0000 C   0  0  0  0  0  0  0  0  0
   -2.3680   -0.6767    0.0000 C   0  0  0  0  0  0  0  0  0
   -0.2246   -0.2642    0.0000 C   0  0  0  0  0  0  0  0  0
    0.4899   -0.6767    0.0000 C   0  0  0  0  0  0  0  0  0
    0.4899   -1.5017    0.0000 C   0  0  0  0  0  0  0  0  0
   -0.2246   -1.9142    0.0000 C   0  0  0  0  0  0  0  0  0
   -9.5127   -0.6767    0.0000 C   0  0  0  0  0  0  0  0  0
  -10.2272   -0.2642    0.0000 C   0  0  0  0  0  0  0  0  0
  -10.2272    0.5608    0.0000 C   0  0  0  0  0  0  0  0  0
  1  2  1  0  0  0  0
  2  3  1  0  0  0  0
  2  4  1  0  0  0  0
  2  5  1  0  0  0  0
  5  6  4  0  0  0  0
  5 31  4  0  0  0  0
  6  7  4  0  0  0  0
  7  8  1  0  0  0  0
  7 29  4  0  0  0  0
  8  9  1  0  0  0  0
  8 13  1  0  0  0  0
  9 10  1  0  0  0  0
 10 11  1  0  0  0  0
 11 12  1  0  0  0  0
 11 14  1  0  0  0  0
 12 13  1  0  0  0  0
 14 15  1  0  0  0  0
 15 16  1  0  0  0  0
 16 17  1  0  0  0  0
 17 18  1  0  0  0  0
 18 19  1  0  0  0  0
 19 20  4  0  0  0  0
 19 24  4  0  0  0  0
 20 21  4  0  0  0  0
 21 22  4  0  0  0  0
 21 28  4  0  0  0  0
 22 23  4  0  0  0  0
 22 25  4  0  0  0  0
 23 24  4  0  0  0  0
 25 26  4  0  0  0  0
 26 27  4  0  0  0  0
 27 28  4  0  0  0  0
 29 30  4  0  0  0  0
 30 31  4  0  0  0  0
M  END
>  <Name_Molregno>
690196

>  <Alpha-1A>
7.92

>  <DOPAMINE D2>
8.8

>  <DOPAMINE D3>
7.28

$$$$
690197
  Marvin  02231216192D 0   1.00000     0.00000     0

 29 32  0  0  0  0  0  0  0  0999 V2000
    0.5161   -1.6702    0.0000 O   0  0  0  0  0  0  0  0  0
    0.5161   -2.4952    0.0000 C   0  0  0  0  0  0  0  0  0
   -0.1984   -1.2577    0.0000 C   0  0  0  0  0  0  0  0  0
   -0.9129   -1.6702    0.0000 C   0  0  0  0  0  0  0  0  0
   -1.6273   -1.2577    0.0000 C   0  0  0  0  0  0  0  0  0
   -1.6273   -0.4327    0.0000 C   0  0  0  0  0  0  0  0  0
   -0.9129   -0.0202    0.0000 C   0  0  0  0  0  0  0  0  0
   -0.1984   -0.4327    0.0000 C   0  0  0  0  0  0  0  0  0
    0.5161   -0.0202    0.0000 N   0  0  0  0  0  0  0  0  0
    0.5161    0.8048    0.0000 C   0  0  0  0  0  0  0  0  0
    1.2305    1.2173    0.0000 C   0  0  0  0  0  0  0  0  0
    1.9450    0.8048    0.0000 N   0  0  0  0  0  0  0  0  0
    1.9450   -0.0202    0.0000 C   0  0  0  0  0  0  0  0  0
    1.2305   -0.4327    0.0000 C   0  0  0  0  0  0  0  0  0
    2.6595    1.2173    0.0000 C   0  0  0  0  0  0  0  0  0
    3.3740    0.8048    0.0000 C   0  0  0  0  0  0  0  0  0
    4.0884    1.2173    0.0000 C   0  0  0  0  0  0  0  0  0
    4.8029    0.8048    0.0000 C   0  0  0  0  0  0  0  0  0
    5.5174    1.2173    0.0000 N   0  0  0  0  0  0  0  0  0
    6.2318    0.8048    0.0000 C   0  0  0  0  0  0  0  0  0
    6.2318   -0.0202    0.0000 N   0  0  0  0  0  0  0  0  0
    6.9463   -0.4327    0.0000 C   0  0  0  0  0  0  0  0  0
    7.6608   -0.0202    0.0000 C   0  0  0  0  0  0  0  0  0
    7.6608    0.8048    0.0000 C   0  0  0  0  0  0  0  0  0
    6.9463    1.2173    0.0000 C   0  0  0  0  0  0  0  0  0
    6.9463    2.0423    0.0000 C   0  0  0  0  0  0  0  0  0
    7.6608    2.4548    0.0000 C   0  0  0  0  0  0  0  0  0
    8.3753    2.0423    0.0000 C   0  0  0  0  0  0  0  0  0
    8.3753    1.2173    0.0000 C   0  0  0  0  0  0  0  0  0
  1  2  1  0  0  0  0
  1  3  1  0  0  0  0
  3  4  4  0  0  0  0
  3  8  4  0  0  0  0
  4  5  4  0  0  0  0
  5  6  4  0  0  0  0
  6  7  4  0  0  0  0
  7  8  4  0  0  0  0
  8  9  1  0  0  0  0
  9 10  1  0  0  0  0
  9 14  1  0  0  0  0
 10 11  1  0  0  0  0
 11 12  1  0  0  0  0
 12 13  1  0  0  0  0
 12 15  1  0  0  0  0
 13 14  1  0  0  0  0
 15 16  1  0  0  0  0
 16 17  1  0  0  0  0
 17 18  1  0  0  0  0
 18 19  1  0  0  0  0
 19 20  1  0  0  0  0
 20 21  4  0  0  0  0
 20 25  4  0  0  0  0
 21 22  4  0  0  0  0
 22 23  4  0  0  0  0
 23 24  4  0  0  0  0
 24 25  4  0  0  0  0
 24 29  4  0  0  0  0
 25 26  4  0  0  0  0
 26 27  4  0  0  0  0
 27 28  4  0  0  0  0
 28 29  4  0  0  0  0
M  END
>  <Name_Molregno>
690197

>  <Alpha-1A>
8.22

>  <DOPAMINE D2>
9

>  <DOPAMINE D3>
7.15

$$$$
690198
  Marvin  02231216192D 0   1.00000     0.00000     0

 29 32  0  0  0  0  0  0  0  0999 V2000
   -8.0713   -0.0129    0.0000 Cl  0  0  0  0  0  0  0  0  0
   -8.0713   -0.8379    0.0000 C   0  0  0  0  0  0  0  0  0
   -7.3569   -1.2504    0.0000 C   0  0  0  0  0  0  0  0  0
   -6.6424   -0.8379    0.0000 N   0  0  0  0  0  0  0  0  0
   -6.6424   -0.0129    0.0000 C   0  0  0  0  0  0  0  0  0
   -5.9279    0.3996    0.0000 C   0  0  0  0  0  0  0  0  0
   -5.2135   -0.0129    0.0000 N   0  0  0  0  0  0  0  0  0
   -5.2135   -0.8379    0.0000 C   0  0  0  0  0  0  0  0  0
   -5.9279   -1.2504    0.0000 C   0  0  0  0  0  0  0  0  0
   -4.4990    0.3996    0.0000 C   0  0  0  0  0  0  0  0  0
   -3.7845   -0.0129    0.0000 C   0  0  0  0  0  0  0  0  0
   -3.0700    0.3996    0.0000 C   0  0  0  0  0  0  0  0  0
   -2.3556   -0.0129    0.0000 C   0  0  0  0  0  0  0  0  0
   -1.6411    0.3996    0.0000 N   0  0  0  0  0  0  0  0  0
   -0.9266   -0.0129    0.0000 C   0  0  0  0  0  0  0  0  0
   -0.9266   -0.8379    0.0000 N   0  0  0  0  0  0  0  0  0
   -0.2122   -1.2504    0.0000 C   0  0  0  0  0  0  0  0  0
    0.5023   -0.8379    0.0000 C   0  0  0  0  0  0  0  0  0
    0.5023   -0.0129    0.0000 C   0  0  0  0  0  0  0  0  0
   -0.2122    0.3996    0.0000 C   0  0  0  0  0  0  0  0  0
   -0.2122    1.2246    0.0000 C   0  0  0  0  0  0  0  0  0
    0.5023    1.6371    0.0000 C   0  0  0  0  0  0  0  0  0
    1.2168    1.2246    0.0000 C   0  0  0  0  0  0  0  0  0
    1.2168    0.3996    0.0000 C   0  0  0  0  0  0  0  0  0
   -7.3569   -2.0754    0.0000 C   0  0  0  0  0  0  0  0  0
   -8.0713   -2.4879    0.0000 C   0  0  0  0  0  0  0  0  0
   -8.7858   -2.0754    0.0000 C   0  0  0  0  0  0  0  0  0
   -8.7858   -1.2504    0.0000 C   0  0  0  0  0  0  0  0  0
   -9.5003   -0.8379    0.0000 Cl  0  0  0  0  0  0  0  0  0
  1  2  1  0  0  0  0
  2  3  4  0  0  0  0
  2 28  4  0  0  0  0
  3  4  1  0  0  0  0
  3 25  4  0  0  0  0
  4  5  1  0  0  0  0
  4  9  1  0  0  0  0
  5  6  1  0  0  0  0
  6  7  1  0  0  0  0
  7  8  1  0  0  0  0
  7 10  1  0  0  0  0
  8  9  1  0  0  0  0
 10 11  1  0  0  0  0
 11 12  1  0  0  0  0
 12 13  1  0  0  0  0
 13 14  1  0  0  0  0
 14 15  1  0  0  0  0
 15 16  4  0  0  0  0
 15 20  4  0  0  0  0
 16 17  4  0  0  0  0
 17 18  4  0  0  0  0
 18 19  4  0  0  0  0
 19 20  4  0  0  0  0
 19 24  4  0  0  0  0
 20 21  4  0  0  0  0
 21 22  4  0  0  0  0
 22 23  4  0  0  0  0
 23 24  4  0  0  0  0
 25 26  4  0  0  0  0
 26 27  4  0  0  0  0
 27 28  4  0  0  0  0
 28 29  1  0  0  0  0
M  END
>  <Name_Molregno>
690198

>  <Alpha-1A>
7.22

>  <DOPAMINE D2>
8.51

>  <DOPAMINE D3>
7.72

$$$$
690199
  Marvin  02231216192D 0   1.00000     0.00000     0

 31 34  0  0  0  0  0  0  0  0999 V2000
  -11.2415   -0.7340    0.0000 F   0  0  0  0  0  0  0  0  0
  -10.5270   -1.1465    0.0000 C   0  0  0  0  0  0  0  0  0
  -10.9395   -1.8610    0.0000 F   0  0  0  0  0  0  0  0  0
  -10.1145   -0.4320    0.0000 F   0  0  0  0  0  0  0  0  0
   -9.8126   -1.5590    0.0000 C   0  0  0  0  0  0  0  0  0
   -9.0981   -1.1465    0.0000 C   0  0  0  0  0  0  0  0  0
   -8.3836   -1.5590    0.0000 C   0  0  0  0  0  0  0  0  0
   -7.6692   -1.1465    0.0000 N   0  0  0  0  0  0  0  0  0
   -7.6692   -0.3215    0.0000 C   0  0  0  0  0  0  0  0  0
   -6.9547    0.0910    0.0000 C   0  0  0  0  0  0  0  0  0
   -6.2402   -0.3215    0.0000 N   0  0  0  0  0  0  0  0  0
   -6.2402   -1.1465    0.0000 C   0  0  0  0  0  0  0  0  0
   -6.9547   -1.5590    0.0000 C   0  0  0  0  0  0  0  0  0
   -5.5257    0.0910    0.0000 C   0  0  0  0  0  0  0  0  0
   -4.8113   -0.3215    0.0000 C   0  0  0  0  0  0  0  0  0
   -4.0968    0.0910    0.0000 C   0  0  0  0  0  0  0  0  0
   -3.3823   -0.3215    0.0000 C   0  0  0  0  0  0  0  0  0
   -2.6679    0.0910    0.0000 N   0  0  0  0  0  0  0  0  0
   -1.9534   -0.3215    0.0000 C   0  0  0  0  0  0  0  0  0
   -1.9534   -1.1465    0.0000 N   0  0  0  0  0  0  0  0  0
   -1.2389   -1.5590    0.0000 C   0  0  0  0  0  0  0  0  0
   -0.5245   -1.1465    0.0000 C   0  0  0  0  0  0  0  0  0
   -0.5245   -0.3215    0.0000 C   0  0  0  0  0  0  0  0  0
   -1.2389    0.0910    0.0000 C   0  0  0  0  0  0  0  0  0
   -1.2389    0.9160    0.0000 C   0  0  0  0  0  0  0  0  0
   -0.5245    1.3285    0.0000 C   0  0  0  0  0  0  0  0  0
    0.1900    0.9160    0.0000 C   0  0  0  0  0  0  0  0  0
    0.1900    0.0910    0.0000 C   0  0  0  0  0  0  0  0  0
   -8.3836   -2.3840    0.0000 C   0  0  0  0  0  0  0  0  0
   -9.0981   -2.7965    0.0000 C   0  0  0  0  0  0  0  0  0
   -9.8126   -2.3840    0.0000 C   0  0  0  0  0  0  0  0  0
  1  2  1  0  0  0  0
  2  3  1  0  0  0  0
  2  4  1  0  0  0  0
  2  5  1  0  0  0  0
  5  6  4  0  0  0  0
  5 31  4  0  0  0  0
  6  7  4  0  0  0  0
  7  8  1  0  0  0  0
  7 29  4  0  0  0  0
  8  9  1  0  0  0  0
  8 13  1  0  0  0  0
  9 10  1  0  0  0  0
 10 11  1  0  0  0  0
 11 12  1  0  0  0  0
 11 14  1  0  0  0  0
 12 13  1  0  0  0  0
 14 15  1  0  0  0  0
 15 16  1  0  0  0  0
 16 17  1  0  0  0  0
 17 18  1  0  0  0  0
 18 19  1  0  0  0  0
 19 20  4  0  0  0  0
 19 24  4  0  0  0  0
 20 21  4  0  0  0  0
 21 22  4  0  0  0  0
 22 23  4  0  0  0  0
 23 24  4  0  0  0  0
 23 28  4  0  0  0  0
 24 25  4  0  0  0  0
 25 26  4  0  0  0  0
 26 27  4  0  0  0  0
 27 28  4  0  0  0  0
 29 30  4  0  0  0  0
 30 31  4  0  0  0  0
M  END
>  <Name_Molregno>
690199

>  <Alpha-1A>
7.17

>  <DOPAMINE D2>
9

>  <DOPAMINE D3>
7.24

$$$$
690249
  Marvin  02231216192D 0   1.00000     0.00000     0

 30 33  0  0  0  0  0  0  0  0999 V2000
   -8.1560   -2.4094    0.0000 F   0  0  0  0  0  0  0  0  0
   -8.8705   -1.9969    0.0000 C   0  0  0  0  0  0  0  0  0
   -9.5850   -2.4094    0.0000 C   0  0  0  0  0  0  0  0  0
  -10.2995   -1.9969    0.0000 C   0  0  0  0  0  0  0  0  0
  -10.2995   -1.1719    0.0000 C   0  0  0  0  0  0  0  0  0
   -9.5850   -0.7594    0.0000 C   0  0  0  0  0  0  0  0  0
   -8.8705   -1.1719    0.0000 C   0  0  0  0  0  0  0  0  0
   -8.1560   -0.7594    0.0000 N   0  0  0  0  0  0  0  0  0
   -8.1560    0.0656    0.0000 C   0  0  0  0  0  0  0  0  0
   -7.4416    0.4781    0.0000 C   0  0  0  0  0  0  0  0  0
   -6.7271    0.0656    0.0000 N   0  0  0  0  0  0  0  0  0
   -6.7271   -0.7594    0.0000 C   0  0  0  0  0  0  0  0  0
   -7.4416   -1.1719    0.0000 C   0  0  0  0  0  0  0  0  0
   -6.0126    0.4781    0.0000 C   0  0  0  0  0  0  0  0  0
   -5.2982    0.0656    0.0000 C   0  0  0  0  0  0  0  0  0
   -4.5837    0.4781    0.0000 C   0  0  0  0  0  0  0  0  0
   -3.8692    0.0656    0.0000 C   0  0  0  0  0  0  0  0  0
   -3.1547    0.4781    0.0000 N   0  0  0  0  0  0  0  0  0
   -2.4403    0.0656    0.0000 C   0  0  0  0  0  0  0  0  0
   -1.7258    0.4781    0.0000 N   0  0  0  0  0  0  0  0  0
   -1.0113    0.0656    0.0000 C   0  0  0  0  0  0  0  0  0
   -1.0113   -0.7594    0.0000 C   0  0  0  0  0  0  0  0  0
   -1.7258   -1.1719    0.0000 C   0  0  0  0  0  0  0  0  0
   -2.4403   -0.7594    0.0000 C   0  0  0  0  0  0  0  0  0
   -0.2969   -1.1719    0.0000 C   0  0  0  0  0  0  0  0  0
    0.4176   -0.7594    0.0000 C   0  0  0  0  0  0  0  0  0
    1.1321   -1.1719    0.0000 C   0  0  0  0  0  0  0  0  0
    1.1321   -1.9969    0.0000 C   0  0  0  0  0  0  0  0  0
    0.4176   -2.4094    0.0000 C   0  0  0  0  0  0  0  0  0
   -0.2969   -1.9969    0.0000 C   0  0  0  0  0  0  0  0  0
  1  2  1  0  0  0  0
  2  3  4  0  0  0  0
  2  7  4  0  0  0  0
  3  4  4  0  0  0  0
  4  5  4  0  0  0  0
  5  6  4  0  0  0  0
  6  7  4  0  0  0  0
  7  8  1  0  0  0  0
  8  9  1  0  0  0  0
  8 13  1  0  0  0  0
  9 10  1  0  0  0  0
 10 11  1  0  0  0  0
 11 12  1  0  0  0  0
 11 14  1  0  0  0  0
 12 13  1  0  0  0  0
 14 15  1  0  0  0  0
 15 16  1  0  0  0  0
 16 17  1  0  0  0  0
 17 18  1  0  0  0  0
 18 19  1  0  0  0  0
 19 20  4  0  0  0  0
 19 24  4  0  0  0  0
 20 21  4  0  0  0  0
 21 22  4  0  0  0  0
 22 23  4  0  0  0  0
 22 25  1  0  0  0  0
 23 24  4  0  0  0  0
 25 26  4  0  0  0  0
 25 30  4  0  0  0  0
 26 27  4  0  0  0  0
 27 28  4  0  0  0  0
 28 29  4  0  0  0  0
 29 30  4  0  0  0  0
M  END
>  <Name_Molregno>
690249

>  <Alpha-1A>
8

>  <DOPAMINE D2>
8.6

>  <DOPAMINE D3>
6.91

$$$$
690250
  Marvin  02231216192D 0   1.00000     0.00000     0

 31 34  0  0  0  0  0  0  0  0999 V2000
   -0.1142    0.0574    0.0000 Cl  0  0  0  0  0  0  0  0  0
   -0.1142   -0.7676    0.0000 C   0  0  0  0  0  0  0  0  0
    0.6002   -1.1801    0.0000 C   0  0  0  0  0  0  0  0  0
    1.3147   -0.7676    0.0000 N   0  0  0  0  0  0  0  0  0
    1.3147    0.0574    0.0000 C   0  0  0  0  0  0  0  0  0
    2.0292    0.4699    0.0000 C   0  0  0  0  0  0  0  0  0
    2.7436    0.0574    0.0000 N   0  0  0  0  0  0  0  0  0
    2.7436   -0.7676    0.0000 C   0  0  0  0  0  0  0  0  0
    2.0292   -1.1801    0.0000 C   0  0  0  0  0  0  0  0  0
    3.4581    0.4699    0.0000 C   0  0  0  0  0  0  0  0  0
    4.1726    0.0574    0.0000 C   0  0  0  0  0  0  0  0  0
    4.8871    0.4699    0.0000 C   0  0  0  0  0  0  0  0  0
    5.6015    0.0574    0.0000 C   0  0  0  0  0  0  0  0  0
    6.3160    0.4699    0.0000 N   0  0  0  0  0  0  0  0  0
    7.0305    0.0574    0.0000 C   0  0  0  0  0  0  0  0  0
    7.7449    0.4699    0.0000 N   0  0  0  0  0  0  0  0  0
    8.4594    0.0574    0.0000 C   0  0  0  0  0  0  0  0  0
    8.4594   -0.7676    0.0000 C   0  0  0  0  0  0  0  0  0
    7.7449   -1.1801    0.0000 C   0  0  0  0  0  0  0  0  0
    7.0305   -0.7676    0.0000 C   0  0  0  0  0  0  0  0  0
    9.1739   -1.1801    0.0000 C   0  0  0  0  0  0  0  0  0
    9.8884   -0.7676    0.0000 C   0  0  0  0  0  0  0  0  0
   10.6028   -1.1801    0.0000 C   0  0  0  0  0  0  0  0  0
   10.6028   -2.0051    0.0000 C   0  0  0  0  0  0  0  0  0
    9.8884   -2.4176    0.0000 C   0  0  0  0  0  0  0  0  0
    9.1739   -2.0051    0.0000 C   0  0  0  0  0  0  0  0  0
    0.6002   -2.0051    0.0000 C   0  0  0  0  0  0  0  0  0
   -0.1142   -2.4176    0.0000 C   0  0  0  0  0  0  0  0  0
   -0.8287   -2.0051    0.0000 C   0  0  0  0  0  0  0  0  0
   -0.8287   -1.1801    0.0000 C   0  0  0  0  0  0  0  0  0
   -1.5432   -0.7676    0.0000 Cl  0  0  0  0  0  0  0  0  0
  1  2  1  0  0  0  0
  2  3  4  0  0  0  0
  2 30  4  0  0  0  0
  3  4  1  0  0  0  0
  3 27  4  0  0  0  0
  4  5  1  0  0  0  0
  4  9  1  0  0  0  0
  5  6  1  0  0  0  0
  6  7  1  0  0  0  0
  7  8  1  0  0  0  0
  7 10  1  0  0  0  0
  8  9  1  0  0  0  0
 10 11  1  0  0  0  0
 11 12  1  0  0  0  0
 12 13  1  0  0  0  0
 13 14  1  0  0  0  0
 14 15  1  0  0  0  0
 15 16  4  0  0  0  0
 15 20  4  0  0  0  0
 16 17  4  0  0  0  0
 17 18  4  0  0  0  0
 18 19  4  0  0  0  0
 18 21  1  0  0  0  0
 19 20  4  0  0  0  0
 21 22  4  0  0  0  0
 21 26  4  0  0  0  0
 22 23  4  0  0  0  0
 23 24  4  0  0  0  0
 24 25  4  0  0  0  0
 25 26  4  0  0  0  0
 27 28  4  0  0  0  0
 28 29  4  0  0  0  0
 29 30  4  0  0  0  0
 30 31  1  0  0  0  0
M  END
>  <Name_Molregno>
690250

>  <Alpha-1A>
7.68

>  <DOPAMINE D2>
9.23

>  <DOPAMINE D3>
7.39

$$$$
690251
  Marvin  02231216192D 0   1.00000     0.00000     0

 33 36  0  0  0  0  0  0  0  0999 V2000
   -1.2726   -0.3567    0.0000 F   0  0  0  0  0  0  0  0  0
   -0.5582   -0.7692    0.0000 C   0  0  0  0  0  0  0  0  0
   -0.9707   -1.4837    0.0000 F   0  0  0  0  0  0  0  0  0
   -0.1457   -0.0548    0.0000 F   0  0  0  0  0  0  0  0  0
    0.1563   -1.1817    0.0000 C   0  0  0  0  0  0  0  0  0
    0.8708   -0.7692    0.0000 C   0  0  0  0  0  0  0  0  0
    1.5853   -1.1817    0.0000 C   0  0  0  0  0  0  0  0  0
    2.2997   -0.7692    0.0000 N   0  0  0  0  0  0  0  0  0
    2.2997    0.0558    0.0000 C   0  0  0  0  0  0  0  0  0
    3.0142    0.4683    0.0000 C   0  0  0  0  0  0  0  0  0
    3.7287    0.0558    0.0000 N   0  0  0  0  0  0  0  0  0
    3.7287   -0.7692    0.0000 C   0  0  0  0  0  0  0  0  0
    3.0142   -1.1817    0.0000 C   0  0  0  0  0  0  0  0  0
    4.4431    0.4683    0.0000 C   0  0  0  0  0  0  0  0  0
    5.1576    0.0558    0.0000 C   0  0  0  0  0  0  0  0  0
    5.8721    0.4683    0.0000 C   0  0  0  0  0  0  0  0  0
    6.5866    0.0558    0.0000 C   0  0  0  0  0  0  0  0  0
    7.3010    0.4683    0.0000 N   0  0  0  0  0  0  0  0  0
    8.0155    0.0558    0.0000 C   0  0  0  0  0  0  0  0  0
    8.7300    0.4683    0.0000 N   0  0  0  0  0  0  0  0  0
    9.4444    0.0558    0.0000 C   0  0  0  0  0  0  0  0  0
    9.4444   -0.7692    0.0000 C   0  0  0  0  0  0  0  0  0
    8.7300   -1.1817    0.0000 C   0  0  0  0  0  0  0  0  0
    8.0155   -0.7692    0.0000 C   0  0  0  0  0  0  0  0  0
   10.1589   -1.1817    0.0000 C   0  0  0  0  0  0  0  0  0
   10.8734   -0.7692    0.0000 C   0  0  0  0  0  0  0  0  0
   11.5878   -1.1817    0.0000 C   0  0  0  0  0  0  0  0  0
   11.5878   -2.0067    0.0000 C   0  0  0  0  0  0  0  0  0
   10.8734   -2.4192    0.0000 C   0  0  0  0  0  0  0  0  0
   10.1589   -2.0067    0.0000 C   0  0  0  0  0  0  0  0  0
    1.5853   -2.0067    0.0000 C   0  0  0  0  0  0  0  0  0
    0.8708   -2.4192    0.0000 C   0  0  0  0  0  0  0  0  0
    0.1563   -2.0067    0.0000 C   0  0  0  0  0  0  0  0  0
  1  2  1  0  0  0  0
  2  3  1  0  0  0  0
  2  4  1  0  0  0  0
  2  5  1  0  0  0  0
  5  6  4  0  0  0  0
  5 33  4  0  0  0  0
  6  7  4  0  0  0  0
  7  8  1  0  0  0  0
  7 31  4  0  0  0  0
  8  9  1  0  0  0  0
  8 13  1  0  0  0  0
  9 10  1  0  0  0  0
 10 11  1  0  0  0  0
 11 12  1  0  0  0  0
 11 14  1  0  0  0  0
 12 13  1  0  0  0  0
 14 15  1  0  0  0  0
 15 16  1  0  0  0  0
 16 17  1  0  0  0  0
 17 18  1  0  0  0  0
 18 19  1  0  0  0  0
 19 20  4  0  0  0  0
 19 24  4  0  0  0  0
 20 21  4  0  0  0  0
 21 22  4  0  0  0  0
 22 23  4  0  0  0  0
 22 25  1  0  0  0  0
 23 24  4  0  0  0  0
 25 26  4  0  0  0  0
 25 30  4  0  0  0  0
 26 27  4  0  0  0  0
 27 28  4  0  0  0  0
 28 29  4  0  0  0  0
 29 30  4  0  0  0  0
 31 32  4  0  0  0  0
 32 33  4  0  0  0  0
M  END
>  <Name_Molregno>
690251

>  <Alpha-1A>
6.64

>  <DOPAMINE D2>
8.96

>  <DOPAMINE D3>
6.84

$$$$
690252
  Marvin  02231216192D 0   1.00000     0.00000     0

 30 33  0  0  0  0  0  0  0  0999 V2000
   -9.5442   -0.5573    0.0000 F   0  0  0  0  0  0  0  0  0
   -9.5442    0.2677    0.0000 C   0  0  0  0  0  0  0  0  0
  -10.2587    0.6802    0.0000 C   0  0  0  0  0  0  0  0  0
  -10.2587    1.5052    0.0000 C   0  0  0  0  0  0  0  0  0
   -9.5442    1.9177    0.0000 C   0  0  0  0  0  0  0  0  0
   -8.8297    1.5052    0.0000 C   0  0  0  0  0  0  0  0  0
   -8.8297    0.6802    0.0000 C   0  0  0  0  0  0  0  0  0
   -8.1153    0.2677    0.0000 N   0  0  0  0  0  0  0  0  0
   -7.4008    0.6802    0.0000 C   0  0  0  0  0  0  0  0  0
   -6.6863    0.2677    0.0000 C   0  0  0  0  0  0  0  0  0
   -6.6863   -0.5573    0.0000 N   0  0  0  0  0  0  0  0  0
   -7.4008   -0.9698    0.0000 C   0  0  0  0  0  0  0  0  0
   -8.1153   -0.5573    0.0000 C   0  0  0  0  0  0  0  0  0
   -5.9719   -0.9698    0.0000 C   0  0  0  0  0  0  0  0  0
   -5.2574   -0.5573    0.0000 C   0  0  0  0  0  0  0  0  0
   -4.5429   -0.9698    0.0000 C   0  0  0  0  0  0  0  0  0
   -3.8284   -0.5573    0.0000 C   0  0  0  0  0  0  0  0  0
   -3.1140   -0.9698    0.0000 N   0  0  0  0  0  0  0  0  0
   -2.3995   -0.5573    0.0000 C   0  0  0  0  0  0  0  0  0
   -2.3995    0.2677    0.0000 N   0  0  0  0  0  0  0  0  0
   -1.6850    0.6802    0.0000 C   0  0  0  0  0  0  0  0  0
   -0.9706    0.2677    0.0000 C   0  0  0  0  0  0  0  0  0
   -0.9706   -0.5573    0.0000 C   0  0  0  0  0  0  0  0  0
   -1.6850   -0.9698    0.0000 C   0  0  0  0  0  0  0  0  0
   -0.2561   -0.9698    0.0000 C   0  0  0  0  0  0  0  0  0
    0.4584   -0.5573    0.0000 C   0  0  0  0  0  0  0  0  0
    1.1729   -0.9698    0.0000 C   0  0  0  0  0  0  0  0  0
    1.1729   -1.7948    0.0000 C   0  0  0  0  0  0  0  0  0
    0.4584   -2.2073    0.0000 C   0  0  0  0  0  0  0  0  0
   -0.2561   -1.7948    0.0000 C   0  0  0  0  0  0  0  0  0
  1  2  1  0  0  0  0
  2  3  4  0  0  0  0
  2  7  4  0  0  0  0
  3  4  4  0  0  0  0
  4  5  4  0  0  0  0
  5  6  4  0  0  0  0
  6  7  4  0  0  0  0
  7  8  1  0  0  0  0
  8  9  1  0  0  0  0
  8 13  1  0  0  0  0
  9 10  1  0  0  0  0
 10 11  1  0  0  0  0
 11 12  1  0  0  0  0
 11 14  1  0  0  0  0
 12 13  1  0  0  0  0
 14 15  1  0  0  0  0
 15 16  1  0  0  0  0
 16 17  1  0  0  0  0
 17 18  1  0  0  0  0
 18 19  1  0  0  0  0
 19 20  4  0  0  0  0
 19 24  4  0  0  0  0
 20 21  4  0  0  0  0
 21 22  4  0  0  0  0
 22 23  4  0  0  0  0
 23 24  4  0  0  0  0
 23 25  1  0  0  0  0
 25 26  4  0  0  0  0
 25 30  4  0  0  0  0
 26 27  4  0  0  0  0
 27 28  4  0  0  0  0
 28 29  4  0  0  0  0
 29 30  4  0  0  0  0
M  END
>  <Name_Molregno>
690252

>  <Alpha-1A>
8.05

>  <DOPAMINE D2>
8.82

>  <DOPAMINE D3>
6.51

$$$$
690307
  Marvin  02231216192D 0   1.00000     0.00000     0

 31 34  0  0  0  0  0  0  0  0999 V2000
   -8.7274    0.6915    0.0000 Cl  0  0  0  0  0  0  0  0  0
   -8.7274   -0.1335    0.0000 C   0  0  0  0  0  0  0  0  0
   -8.0130   -0.5460    0.0000 C   0  0  0  0  0  0  0  0  0
   -7.2985   -0.1335    0.0000 N   0  0  0  0  0  0  0  0  0
   -7.2985    0.6915    0.0000 C   0  0  0  0  0  0  0  0  0
   -6.5840    1.1040    0.0000 C   0  0  0  0  0  0  0  0  0
   -5.8696    0.6915    0.0000 N   0  0  0  0  0  0  0  0  0
   -5.8696   -0.1335    0.0000 C   0  0  0  0  0  0  0  0  0
   -6.5840   -0.5460    0.0000 C   0  0  0  0  0  0  0  0  0
   -5.1551    1.1040    0.0000 C   0  0  0  0  0  0  0  0  0
   -4.4406    0.6915    0.0000 C   0  0  0  0  0  0  0  0  0
   -3.7262    1.1040    0.0000 C   0  0  0  0  0  0  0  0  0
   -3.0117    0.6915    0.0000 C   0  0  0  0  0  0  0  0  0
   -2.2972    1.1040    0.0000 N   0  0  0  0  0  0  0  0  0
   -1.5827    0.6915    0.0000 C   0  0  0  0  0  0  0  0  0
   -0.8683    1.1040    0.0000 N   0  0  0  0  0  0  0  0  0
   -0.1538    0.6915    0.0000 C   0  0  0  0  0  0  0  0  0
   -0.1538   -0.1335    0.0000 C   0  0  0  0  0  0  0  0  0
   -0.8683   -0.5460    0.0000 C   0  0  0  0  0  0  0  0  0
   -1.5827   -0.1335    0.0000 C   0  0  0  0  0  0  0  0  0
   -0.8683   -1.3710    0.0000 C   0  0  0  0  0  0  0  0  0
   -0.1538   -1.7835    0.0000 C   0  0  0  0  0  0  0  0  0
   -0.1538   -2.6085    0.0000 C   0  0  0  0  0  0  0  0  0
   -0.8683   -3.0210    0.0000 C   0  0  0  0  0  0  0  0  0
   -1.5827   -2.6085    0.0000 C   0  0  0  0  0  0  0  0  0
   -1.5827   -1.7835    0.0000 C   0  0  0  0  0  0  0  0  0
   -8.0130   -1.3710    0.0000 C   0  0  0  0  0  0  0  0  0
   -8.7274   -1.7835    0.0000 C   0  0  0  0  0  0  0  0  0
   -9.4419   -1.3710    0.0000 C   0  0  0  0  0  0  0  0  0
   -9.4419   -0.5460    0.0000 C   0  0  0  0  0  0  0  0  0
  -10.1564   -0.1335    0.0000 Cl  0  0  0  0  0  0  0  0  0
  1  2  1  0  0  0  0
  2  3  4  0  0  0  0
  2 30  4  0  0  0  0
  3  4  1  0  0  0  0
  3 27  4  0  0  0  0
  4  5  1  0  0  0  0
  4  9  1  0  0  0  0
  5  6  1  0  0  0  0
  6  7  1  0  0  0  0
  7  8  1  0  0  0  0
  7 10  1  0  0  0  0
  8  9  1  0  0  0  0
 10 11  1  0  0  0  0
 11 12  1  0  0  0  0
 12 13  1  0  0  0  0
 13 14  1  0  0  0  0
 14 15  1  0  0  0  0
 15 16  4  0  0  0  0
 15 20  4  0  0  0  0
 16 17  4  0  0  0  0
 17 18  4  0  0  0  0
 18 19  4  0  0  0  0
 19 20  4  0  0  0  0
 19 21  1  0  0  0  0
 21 22  4  0  0  0  0
 21 26  4  0  0  0  0
 22 23  4  0  0  0  0
 23 24  4  0  0  0  0
 24 25  4  0  0  0  0
 25 26  4  0  0  0  0
 27 28  4  0  0  0  0
 28 29  4  0  0  0  0
 29 30  4  0  0  0  0
 30 31  1  0  0  0  0
M  END
>  <Name_Molregno>
690307

>  <Alpha-1A>
7.24

>  <DOPAMINE D2>
9.26

>  <DOPAMINE D3>
6.74

$$$$
690308
  Marvin  02231216192D 0   1.00000     0.00000     0

 33 36  0  0  0  0  0  0  0  0999 V2000
   -9.4727    3.1372    0.0000 F   0  0  0  0  0  0  0  0  0
   -9.4727    2.3122    0.0000 C   0  0  0  0  0  0  0  0  0
  -10.2977    2.3122    0.0000 F   0  0  0  0  0  0  0  0  0
   -8.6477    2.3122    0.0000 F   0  0  0  0  0  0  0  0  0
   -9.4727    1.4872    0.0000 C   0  0  0  0  0  0  0  0  0
   -8.7583    1.0747    0.0000 C   0  0  0  0  0  0  0  0  0
   -8.7583    0.2497    0.0000 C   0  0  0  0  0  0  0  0  0
   -8.0438   -0.1628    0.0000 N   0  0  0  0  0  0  0  0  0
   -7.3293    0.2497    0.0000 C   0  0  0  0  0  0  0  0  0
   -6.6148   -0.1628    0.0000 C   0  0  0  0  0  0  0  0  0
   -6.6148   -0.9878    0.0000 N   0  0  0  0  0  0  0  0  0
   -7.3293   -1.4003    0.0000 C   0  0  0  0  0  0  0  0  0
   -8.0438   -0.9878    0.0000 C   0  0  0  0  0  0  0  0  0
   -5.9004   -1.4003    0.0000 C   0  0  0  0  0  0  0  0  0
   -5.1859   -0.9878    0.0000 C   0  0  0  0  0  0  0  0  0
   -4.4714   -1.4003    0.0000 C   0  0  0  0  0  0  0  0  0
   -3.7570   -0.9878    0.0000 C   0  0  0  0  0  0  0  0  0
   -3.0425   -1.4003    0.0000 N   0  0  0  0  0  0  0  0  0
   -2.3280   -0.9878    0.0000 C   0  0  0  0  0  0  0  0  0
   -2.3280   -0.1628    0.0000 N   0  0  0  0  0  0  0  0  0
   -1.6135    0.2497    0.0000 C   0  0  0  0  0  0  0  0  0
   -0.8991   -0.1628    0.0000 C   0  0  0  0  0  0  0  0  0
   -0.8991   -0.9878    0.0000 C   0  0  0  0  0  0  0  0  0
   -1.6135   -1.4003    0.0000 C   0  0  0  0  0  0  0  0  0
   -0.1846   -1.4003    0.0000 C   0  0  0  0  0  0  0  0  0
    0.5299   -0.9878    0.0000 C   0  0  0  0  0  0  0  0  0
    1.2443   -1.4003    0.0000 C   0  0  0  0  0  0  0  0  0
    1.2443   -2.2253    0.0000 C   0  0  0  0  0  0  0  0  0
    0.5299   -2.6378    0.0000 C   0  0  0  0  0  0  0  0  0
   -0.1846   -2.2253    0.0000 C   0  0  0  0  0  0  0  0  0
   -9.4727   -0.1628    0.0000 C   0  0  0  0  0  0  0  0  0
  -10.1872    0.2497    0.0000 C   0  0  0  0  0  0  0  0  0
  -10.1872    1.0747    0.0000 C   0  0  0  0  0  0  0  0  0
  1  2  1  0  0  0  0
  2  3  1  0  0  0  0
  2  4  1  0  0  0  0
  2  5  1  0  0  0  0
  5  6  4  0  0  0  0
  5 33  4  0  0  0  0
  6  7  4  0  0  0  0
  7  8  1  0  0  0  0
  7 31  4  0  0  0  0
  8  9  1  0  0  0  0
  8 13  1  0  0  0  0
  9 10  1  0  0  0  0
 10 11  1  0  0  0  0
 11 12  1  0  0  0  0
 11 14  1  0  0  0  0
 12 13  1  0  0  0  0
 14 15  1  0  0  0  0
 15 16  1  0  0  0  0
 16 17  1  0  0  0  0
 17 18  1  0  0  0  0
 18 19  1  0  0  0  0
 19 20  4  0  0  0  0
 19 24  4  0  0  0  0
 20 21  4  0  0  0  0
 21 22  4  0  0  0  0
 22 23  4  0  0  0  0
 23 24  4  0  0  0  0
 23 25  1  0  0  0  0
 25 26  4  0  0  0  0
 25 30  4  0  0  0  0
 26 27  4  0  0  0  0
 27 28  4  0  0  0  0
 28 29  4  0  0  0  0
 29 30  4  0  0  0  0
 31 32  4  0  0  0  0
 32 33  4  0  0  0  0
M  END
>  <Name_Molregno>
690308

>  <Alpha-1A>
6.92

>  <DOPAMINE D2>
9.12

>  <DOPAMINE D3>
6.71

$$$$
690309
  Marvin  02231216192D 0   1.00000     0.00000     0

 32 35  0  0  0  0  0  0  0  0999 V2000
   -1.2942   -0.6049    0.0000 F   0  0  0  0  0  0  0  0  0
   -0.5797   -1.0174    0.0000 C   0  0  0  0  0  0  0  0  0
   -0.9922   -1.7319    0.0000 F   0  0  0  0  0  0  0  0  0
   -0.1672   -0.3030    0.0000 F   0  0  0  0  0  0  0  0  0
    0.1347   -1.4299    0.0000 C   0  0  0  0  0  0  0  0  0
    0.8492   -1.0174    0.0000 C   0  0  0  0  0  0  0  0  0
    1.5637   -1.4299    0.0000 C   0  0  0  0  0  0  0  0  0
    2.2782   -1.0174    0.0000 N   0  0  0  0  0  0  0  0  0
    2.2782   -0.1924    0.0000 C   0  0  0  0  0  0  0  0  0
    2.9926    0.2201    0.0000 C   0  0  0  0  0  0  0  0  0
    3.7071   -0.1924    0.0000 N   0  0  0  0  0  0  0  0  0
    3.7071   -1.0174    0.0000 C   0  0  0  0  0  0  0  0  0
    2.9926   -1.4299    0.0000 C   0  0  0  0  0  0  0  0  0
    4.4216    0.2201    0.0000 C   0  0  0  0  0  0  0  0  0
    5.1360   -0.1924    0.0000 C   0  0  0  0  0  0  0  0  0
    5.8505    0.2201    0.0000 C   0  0  0  0  0  0  0  0  0
    6.5650   -0.1924    0.0000 C   0  0  0  0  0  0  0  0  0
    7.2795    0.2201    0.0000 N   0  0  0  0  0  0  0  0  0
    7.9939   -0.1924    0.0000 C   0  0  0  0  0  0  0  0  0
    8.7476    0.1431    0.0000 O   0  0  0  0  0  0  0  0  0
    9.2996   -0.4700    0.0000 C   0  0  0  0  0  0  0  0  0
    8.8871   -1.1845    0.0000 C   0  0  0  0  0  0  0  0  0
    8.0802   -1.0129    0.0000 N   0  0  0  0  0  0  0  0  0
   10.1201   -0.3837    0.0000 C   0  0  0  0  0  0  0  0  0
   10.4557    0.3699    0.0000 C   0  0  0  0  0  0  0  0  0
   11.2761    0.4562    0.0000 C   0  0  0  0  0  0  0  0  0
   11.7611   -0.2113    0.0000 C   0  0  0  0  0  0  0  0  0
   11.4255   -0.9649    0.0000 C   0  0  0  0  0  0  0  0  0
   10.6050   -1.0512    0.0000 C   0  0  0  0  0  0  0  0  0
    1.5637   -2.2549    0.0000 C   0  0  0  0  0  0  0  0  0
    0.8492   -2.6674    0.0000 C   0  0  0  0  0  0  0  0  0
    0.1347   -2.2549    0.0000 C   0  0  0  0  0  0  0  0  0
  1  2  1  0  0  0  0
  2  3  1  0  0  0  0
  2  4  1  0  0  0  0
  2  5  1  0  0  0  0
  5  6  4  0  0  0  0
  5 32  4  0  0  0  0
  6  7  4  0  0  0  0
  7  8  1  0  0  0  0
  7 30  4  0  0  0  0
  8  9  1  0  0  0  0
  8 13  1  0  0  0  0
  9 10  1  0  0  0  0
 10 11  1  0  0  0  0
 11 12  1  0  0  0  0
 11 14  1  0  0  0  0
 12 13  1  0  0  0  0
 14 15  1  0  0  0  0
 15 16  1  0  0  0  0
 16 17  1  0  0  0  0
 17 18  1  0  0  0  0
 18 19  1  0  0  0  0
 19 20  4  0  0  0  0
 19 23  4  0  0  0  0
 20 21  4  0  0  0  0
 21 22  4  0  0  0  0
 21 24  1  0  0  0  0
 22 23  4  0  0  0  0
 24 25  4  0  0  0  0
 24 29  4  0  0  0  0
 25 26  4  0  0  0  0
 26 27  4  0  0  0  0
 27 28  4  0  0  0  0
 28 29  4  0  0  0  0
 30 31  4  0  0  0  0
 31 32  4  0  0  0  0
M  END
>  <Name_Molregno>
690309

>  <Alpha-1A>
6.57

>  <DOPAMINE D2>
8.02

>  <DOPAMINE D3>
5.63

$$$$
690310
  Marvin  02231216192D 0   1.00000     0.00000     0

 32 35  0  0  0  0  0  0  0  0999 V2000
   -0.0797   -0.5873    0.0000 S   0  0  0  0  0  0  0  0  0
   -0.8867   -0.7589    0.0000 C   0  0  0  0  0  0  0  0  0
   -1.2992   -0.0444    0.0000 C   0  0  0  0  0  0  0  0  0
   -0.7472    0.5687    0.0000 N   0  0  0  0  0  0  0  0  0
    0.0065    0.2331    0.0000 C   0  0  0  0  0  0  0  0  0
    0.7210    0.6456    0.0000 N   0  0  0  0  0  0  0  0  0
    1.4354    0.2331    0.0000 C   0  0  0  0  0  0  0  0  0
    2.1499    0.6456    0.0000 C   0  0  0  0  0  0  0  0  0
    2.8644    0.2331    0.0000 C   0  0  0  0  0  0  0  0  0
    3.5788    0.6456    0.0000 C   0  0  0  0  0  0  0  0  0
    4.2933    0.2331    0.0000 N   0  0  0  0  0  0  0  0  0
    5.0078    0.6456    0.0000 C   0  0  0  0  0  0  0  0  0
    5.7223    0.2331    0.0000 C   0  0  0  0  0  0  0  0  0
    5.7223   -0.5919    0.0000 N   0  0  0  0  0  0  0  0  0
    5.0078   -1.0044    0.0000 C   0  0  0  0  0  0  0  0  0
    4.2933   -0.5919    0.0000 C   0  0  0  0  0  0  0  0  0
    6.4367   -1.0044    0.0000 C   0  0  0  0  0  0  0  0  0
    7.1512   -0.5919    0.0000 C   0  0  0  0  0  0  0  0  0
    7.8657   -1.0044    0.0000 C   0  0  0  0  0  0  0  0  0
    7.8657   -1.8294    0.0000 C   0  0  0  0  0  0  0  0  0
    7.1512   -2.2419    0.0000 C   0  0  0  0  0  0  0  0  0
    6.4367   -1.8294    0.0000 C   0  0  0  0  0  0  0  0  0
    8.5801   -0.5919    0.0000 C   0  0  0  0  0  0  0  0  0
    9.2946   -0.1794    0.0000 F   0  0  0  0  0  0  0  0  0
    8.1676    0.1226    0.0000 F   0  0  0  0  0  0  0  0  0
    8.9926   -1.3063    0.0000 F   0  0  0  0  0  0  0  0  0
   -2.1197    0.0418    0.0000 C   0  0  0  0  0  0  0  0  0
   -2.6046   -0.6256    0.0000 C   0  0  0  0  0  0  0  0  0
   -3.4251   -0.5394    0.0000 C   0  0  0  0  0  0  0  0  0
   -3.7607    0.2143    0.0000 C   0  0  0  0  0  0  0  0  0
   -3.2757    0.8818    0.0000 C   0  0  0  0  0  0  0  0  0
   -2.4553    0.7955    0.0000 C   0  0  0  0  0  0  0  0  0
  1  2  4  0  0  0  0
  1  5  4  0  0  0  0
  2  3  4  0  0  0  0
  3  4  4  0  0  0  0
  3 27  1  0  0  0  0
  4  5  4  0  0  0  0
  5  6  1  0  0  0  0
  6  7  1  0  0  0  0
  7  8  1  0  0  0  0
  8  9  1  0  0  0  0
  9 10  1  0  0  0  0
 10 11  1  0  0  0  0
 11 12  1  0  0  0  0
 11 16  1  0  0  0  0
 12 13  1  0  0  0  0
 13 14  1  0  0  0  0
 14 15  1  0  0  0  0
 14 17  1  0  0  0  0
 15 16  1  0  0  0  0
 17 18  4  0  0  0  0
 17 22  4  0  0  0  0
 18 19  4  0  0  0  0
 19 20  4  0  0  0  0
 19 23  1  0  0  0  0
 20 21  4  0  0  0  0
 21 22  4  0  0  0  0
 23 24  1  0  0  0  0
 23 25  1  0  0  0  0
 23 26  1  0  0  0  0
 27 28  4  0  0  0  0
 27 32  4  0  0  0  0
 28 29  4  0  0  0  0
 29 30  4  0  0  0  0
 30 31  4  0  0  0  0
 31 32  4  0  0  0  0
M  END
>  <Name_Molregno>
690310

>  <Alpha-1A>
7.14

>  <DOPAMINE D2>
7.89

>  <DOPAMINE D3>
5.61

$$$$
2-(dimethylamino)-6-((4-(2-methoxyphenyl)piperazin-1-yl)methyl)-3H-pyrrolo[2,3-d
  Marvin  02231216192D 0   1.00000     0.00000     0

 28 31  0  0  0  0  0  0  0  0999 V2000
   -4.3231   -1.3680    0.0000 O   0  0  0  0  0  0  0  0  0
   -3.9106   -2.0825    0.0000 C   0  0  0  0  0  0  0  0  0
   -5.1481   -1.3680    0.0000 C   0  0  0  0  0  0  0  0  0
   -5.5606   -2.0825    0.0000 C   0  0  0  0  0  0  0  0  0
   -6.3856   -2.0825    0.0000 C   0  0  0  0  0  0  0  0  0
   -6.7981   -1.3680    0.0000 C   0  0  0  0  0  0  0  0  0
   -6.3856   -0.6536    0.0000 C   0  0  0  0  0  0  0  0  0
   -5.5606   -0.6536    0.0000 C   0  0  0  0  0  0  0  0  0
   -5.1481    0.0609    0.0000 N   0  0  0  0  0  0  0  0  0
   -5.5606    0.7754    0.0000 C   0  0  0  0  0  0  0  0  0
   -5.1481    1.4898    0.0000 C   0  0  0  0  0  0  0  0  0
   -4.3231    1.4898    0.0000 N   0  0  0  0  0  0  0  0  0
   -3.9106    0.7754    0.0000 C   0  0  0  0  0  0  0  0  0
   -4.3231    0.0609    0.0000 C   0  0  0  0  0  0  0  0  0
   -3.9106    2.2043    0.0000 C   0  0  0  0  0  0  0  0  0
   -3.0856    2.2043    0.0000 C   0  0  0  0  0  0  0  0  0
   -2.6007    2.8718    0.0000 N   0  0  0  0  0  0  0  0  0
   -1.8160    2.6168    0.0000 C   0  0  0  0  0  0  0  0  0
   -1.1016    3.0293    0.0000 N   0  0  0  0  0  0  0  0  0
   -0.3871    2.6168    0.0000 C   0  0  0  0  0  0  0  0  0
   -0.3871    1.7918    0.0000 N   0  0  0  0  0  0  0  0  0
   -1.1016    1.3793    0.0000 C   0  0  0  0  0  0  0  0  0
   -1.1016    0.5543    0.0000 O   0  0  0  0  0  0  0  0  0
   -1.8160    1.7918    0.0000 C   0  0  0  0  0  0  0  0  0
   -2.6007    1.5369    0.0000 C   0  0  0  0  0  0  0  0  0
    0.3274    3.0293    0.0000 N   0  0  0  0  0  0  0  0  0
    0.3274    3.8543    0.0000 C   0  0  0  0  0  0  0  0  0
    1.0418    2.6168    0.0000 C   0  0  0  0  0  0  0  0  0
  1  2  1  0  0  0  0
  1  3  1  0  0  0  0
  3  4  4  0  0  0  0
  3  8  4  0  0  0  0
  4  5  4  0  0  0  0
  5  6  4  0  0  0  0
  6  7  4  0  0  0  0
  7  8  4  0  0  0  0
  8  9  1  0  0  0  0
  9 10  1  0  0  0  0
  9 14  1  0  0  0  0
 10 11  1  0  0  0  0
 11 12  1  0  0  0  0
 12 13  1  0  0  0  0
 12 15  1  0  0  0  0
 13 14  1  0  0  0  0
 15 16  1  0  0  0  0
 16 17  4  0  0  0  0
 16 25  4  0  0  0  0
 17 18  4  0  0  0  0
 18 19  1  0  0  0  0
 18 24  4  0  0  0  0
 19 20  1  0  0  0  0
 20 21  2  0  0  0  0
 20 26  1  0  0  0  0
 21 22  1  0  0  0  0
 22 23  2  0  0  0  0
 22 24  1  0  0  0  0
 24 25  4  0  0  0  0
 26 27  1  0  0  0  0
 26 28  1  0  0  0  0
M  STY  1   1 DAT
M  SAL   1  1  17
M  SDT   1 MRV_IMPLICIT_H                                        
M  SDD   1     0.0000    0.0000    DR    ALL  0       0  
M  SED   1 IMPL_H1
M  END
>  <Name_Molregno>
2-(dimethylamino)-6-((4-(2-methoxyphenyl)piperazin-1-yl)methyl)-3H-pyrrolo[2,3-d]pyrimidin-4(7H)-one

>  <DOPAMINE D2>
6.83

>  <DOPAMINE D3>
6.02

$$$$
8-Chloro-11-{4-[4-(3-piperidin-1-yl-propoxy)-benzyl]-piperazin-1-yl}-5H-dibenzo[
  Marvin  02231216192D 0   1.00000     0.00000     0

  8  7  0  0  0  0  0  0  0  0999 V2000
   -0.0537   -0.0112    0.0000 O   0  0  0  0  0  0  0  0  0
    0.6607   -0.4238    0.0000 N   0  0  0  0  0  0  0  0  0
    1.3752   -0.0112    0.0000 N   0  0  0  0  0  0  0  0  0
    2.0897   -0.4238    0.0000 C   0  0  0  0  0  0  0  0  0
    2.8041   -0.0113    0.0000 C   0  0  0  0  0  0  0  0  0
    3.5186   -0.4238    0.0000 C   0  0  0  0  0  0  0  0  0
    4.2331   -0.0113    0.0000 C   0  0  0  0  0  0  0  0  0
    1.3752    0.8138    0.0000 C   0  0  0  0  0  0  0  0  0
  1  2  2  0  0  0  0
  2  3  1  0  0  0  0
  3  4  1  0  0  0  0
  3  8  1  0  0  0  0
  4  5  1  0  0  0  0
  5  6  1  0  0  0  0
  6  7  1  0  0  0  0
M  END
>  <Name_Molregno>
8-Chloro-11-{4-[4-(3-piperidin-1-yl-propoxy)-benzyl]-piperazin-1-yl}-5H-dibenzo[b,e][1,4]diazepine

>  <DOPAMINE D1>
6.06

>  <DOPAMINE D2>
6.55

>  <DOPAMINE D3>
6.65

>  <DOPAMINE D5>
6.04

>  <HISTAMINE H1>
6.72

>  <HISTAMINE H3>
8.49

$$$$
9-OH-risperidone
  Marvin  02231216192D 0   1.00000     0.00000     0

 31 35  0  0  1  0  0  0  0  0999 V2000
    1.7758   -2.6889    0.0000 F   0  0  0  0  0  0  0  0  0
    2.0308   -1.9043    0.0000 C   0  0  0  0  0  0  0  0  0
    1.4788   -1.2912    0.0000 C   0  0  0  0  0  0  0  0  0
    1.7337   -0.5066    0.0000 C   0  0  0  0  0  0  0  0  0
    1.3212    0.2079    0.0000 O   0  0  0  0  0  0  0  0  0
    1.8732    0.8210    0.0000 N   0  0  0  0  0  0  0  0  0
    2.6269    0.4854    0.0000 C   0  0  0  0  0  0  0  0  0
    2.5407   -0.3350    0.0000 C   0  0  0  0  0  0  0  0  0
    3.0927   -0.9481    0.0000 C   0  0  0  0  0  0  0  0  0
    2.8378   -1.7327    0.0000 C   0  0  0  0  0  0  0  0  0
    3.3414    0.8979    0.0000 C   0  0  0  0  0  0  0  0  0
    3.3414    1.7229    0.0000 C   0  0  0  0  0  0  0  0  0
    4.0558    2.1354    0.0000 C   0  0  0  0  0  0  0  0  0
    4.7703    1.7229    0.0000 N   0  0  0  0  0  0  0  0  0
    4.7703    0.8979    0.0000 C   0  0  0  0  0  0  0  0  0
    4.0558    0.4854    0.0000 C   0  0  0  0  0  0  0  0  0
    5.4848    2.1354    0.0000 C   0  0  0  0  0  0  0  0  0
    6.1993    1.7229    0.0000 C   0  0  0  0  0  0  0  0  0
    6.9137    2.1354    0.0000 C   0  0  0  0  0  0  0  0  0
    7.6282    1.7229    0.0000 C   0  0  0  0  0  0  0  0  0
    7.6282    0.8979    0.0000 O   0  0  0  0  0  0  0  0  0
    8.3427    2.1354    0.0000 N   0  0  0  0  0  0  0  0  0
    8.3427    2.9604    0.0000 C   0  0  0  0  0  0  0  0  0
    7.6282    3.3729    0.0000 N   0  0  0  0  0  0  0  0  0
    6.9137    2.9604    0.0000 C   0  0  0  0  0  0  0  0  0
    6.1993    3.3729    0.0000 C   0  0  0  0  0  0  0  0  0
    9.0571    3.3729    0.0000 C   0  0  0  0  0  0  0  0  0
    9.0571    4.1979    0.0000 O   0  0  0  0  0  0  0  0  0
    9.7716    2.9604    0.0000 C   0  0  0  0  0  0  0  0  0
    9.7716    2.1354    0.0000 C   0  0  0  0  0  0  0  0  0
    9.0571    1.7229    0.0000 C   0  0  0  0  0  0  0  0  0
  1  2  1  0  0  0  0
  2  3  4  0  0  0  0
  2 10  4  0  0  0  0
  3  4  4  0  0  0  0
  4  5  4  0  0  0  0
  4  8  4  0  0  0  0
  5  6  4  0  0  0  0
  6  7  4  0  0  0  0
  7  8  4  0  0  0  0
  7 11  1  0  0  0  0
  8  9  4  0  0  0  0
  9 10  4  0  0  0  0
 11 12  1  0  0  0  0
 11 16  1  0  0  0  0
 12 13  1  0  0  0  0
 13 14  1  0  0  0  0
 14 15  1  0  0  0  0
 14 17  1  0  0  0  0
 15 16  1  0  0  0  0
 17 18  1  0  0  0  0
 18 19  1  0  0  0  0
 19 20  1  0  0  0  0
 19 25  2  0  0  0  0
 20 21  2  0  0  0  0
 20 22  1  0  0  0  0
 22 23  1  0  0  0  0
 22 31  1  0  0  0  0
 23 24  2  0  0  0  0
 23 27  1  0  0  0  0
 24 25  1  0  0  0  0
 25 26  1  0  0  0  0
 27 28  1  0  0  0  0
 27 29  1  0  0  0  0
 29 30  1  0  0  0  0
 30 31  1  0  0  0  0
M  END
>  <Name_Molregno>
9-OH-risperidone

>  <5-HT1A>
6.24

>  <5-HT1B>
7.51

>  <5-HT1D>
7.44

>  <5-HT1E>
5.49

>  <5-HT2A>
9

>  <5-HT2C>
7.32

>  <5-HT3>
5

>  <5-HT5>
6.56

>  <5-HT6>
5.62

>  <5-HT7>
8.57

>  <Alpha-1A>
8.6

>  <Alpha-1B>
9.15

>  <Alpha-2A>
7.92

>  <Alpha-2B>
7.63

>  <Alpha-2C>
8.2

>  <Beta-1>
5.15

>  <Beta-2>
5.15

>  <DOPAMINE D1>
7.39

>  <DOPAMINE D2>
8.61

>  <DOPAMINE D3>
9.07

>  <DOPAMINE D4>
7.4

>  <DOPAMINE D5>
7.54

>  <Dopamine transporter>
5

>  <HISTAMINE H1>
8.07

>  <HISTAMINE H2>
6.92

>  <HISTAMINE H4>
5.06

>  <Muscarinic acetylcholine receptor M1>
5

>  <Muscarinic acetylcholine receptor M2>
5

>  <Muscarinic acetylcholine receptor M3>
5

>  <Muscarinic acetylcholine receptor M4>
5

>  <Muscarinic acetylcholine receptor M5>
5

>  <Norepinephrine transporter>
5

>  <Serotonin transporter>
5.71

$$$$
ADTN
  Marvin  02231216192D 0   1.00000     0.00000     0

 29 32  0  0  1  0  0  0  0  0999 V2000
    0.1622    1.4730    0.0000 O   0  0  0  0  0  0  0  0  0
    0.1622    2.2980    0.0000 C   0  0  0  0  0  0  0  0  0
    0.8767    2.7105    0.0000 O   0  0  0  0  0  0  0  0  0
   -0.5522    2.7105    0.0000 C   0  0  0  0  0  0  0  0  0
   -1.2667    2.2980    0.0000 C   0  0  0  0  0  0  0  0  0
   -1.9812    2.7105    0.0000 C   0  0  0  0  0  0  0  0  0
   -1.9812    3.5355    0.0000 C   0  0  0  0  0  0  0  0  0
   -1.2667    3.9480    0.0000 C   0  0  0  0  0  0  0  0  0
   -0.5522    3.5355    0.0000 C   0  0  0  0  0  0  0  0  0
    0.8767    1.0605    0.0000 C   0  0  0  0  0  0  0  0  0
    1.5912    1.4730    0.0000 C   0  0  0  0  0  0  0  0  0
    2.3057    1.0605    0.0000 C   0  0  0  0  0  0  0  0  0
    3.0201    1.4730    0.0000 C   0  0  0  0  0  0  0  0  0
    3.7346    1.0605    0.0000 C   0  0  0  0  0  0  0  0  0
    4.4491    1.4730    0.0000 N   0  0  0  0  0  0  0  0  0
    3.7346    0.2355    0.0000 C   0  0  0  0  0  0  0  0  0
    3.0201   -0.1770    0.0000 C   0  0  0  0  0  0  0  0  0
    2.3057    0.2355    0.0000 C   0  0  0  0  0  0  0  0  0
    1.5912   -0.1770    0.0000 C   0  0  0  0  0  0  0  0  0
    0.8767    0.2355    0.0000 C   0  0  0  0  0  0  0  0  0
    0.1622   -0.1770    0.0000 O   0  0  0  0  0  0  0  0  0
    0.1622   -1.0020    0.0000 C   0  0  0  0  0  0  0  0  0
    0.8767   -1.4145    0.0000 O   0  0  0  0  0  0  0  0  0
   -0.5522   -1.4145    0.0000 C   0  0  0  0  0  0  0  0  0
   -0.5522   -2.2395    0.0000 C   0  0  0  0  0  0  0  0  0
   -1.2667   -2.6520    0.0000 C   0  0  0  0  0  0  0  0  0
   -1.9812   -2.2395    0.0000 C   0  0  0  0  0  0  0  0  0
   -1.9812   -1.4145    0.0000 C   0  0  0  0  0  0  0  0  0
   -1.2667   -1.0020    0.0000 C   0  0  0  0  0  0  0  0  0
  1  2  1  0  0  0  0
  1 10  1  0  0  0  0
  2  3  2  0  0  0  0
  2  4  1  0  0  0  0
  4  5  4  0  0  0  0
  4  9  4  0  0  0  0
  5  6  4  0  0  0  0
  6  7  4  0  0  0  0
  7  8  4  0  0  0  0
  8  9  4  0  0  0  0
 10 11  4  0  0  0  0
 10 20  4  0  0  0  0
 11 12  4  0  0  0  0
 12 13  1  0  0  0  0
 12 18  4  0  0  0  0
 13 14  1  0  0  0  0
 14 15  1  0  0  0  0
 14 16  1  0  0  0  0
 16 17  1  0  0  0  0
 17 18  1  0  0  0  0
 18 19  4  0  0  0  0
 19 20  4  0  0  0  0
 20 21  1  0  0  0  0
 21 22  1  0  0  0  0
 22 23  2  0  0  0  0
 22 24  1  0  0  0  0
 24 25  4  0  0  0  0
 24 29  4  0  0  0  0
 25 26  4  0  0  0  0
 26 27  4  0  0  0  0
 27 28  4  0  0  0  0
 28 29  4  0  0  0  0
M  END
>  <Name_Molregno>
ADTN

>  <DOPAMINE D2>
6.28

>  <DOPAMINE D3>
6.8

$$$$
ADTN-DIPROPYL6,7
  Marvin  02231216192D 0   1.00000     0.00000     0

 19 20  0  0  1  0  0  0  0  0999 V2000
   -0.2820    0.7943    0.0000 O   0  0  0  0  0  0  0  0  0
   -1.1070    0.7943    0.0000 C   0  0  0  0  0  0  0  0  0
   -1.5195    0.0798    0.0000 C   0  0  0  0  0  0  0  0  0
   -2.3445    0.0798    0.0000 C   0  0  0  0  0  0  0  0  0
   -2.7570   -0.6347    0.0000 C   0  0  0  0  0  0  0  0  0
   -3.5820   -0.6347    0.0000 C   0  0  0  0  0  0  0  0  0
   -3.9945   -1.3491    0.0000 N   0  0  0  0  0  0  0  0  0
   -4.8195   -1.3491    0.0000 C   0  0  0  0  0  0  0  0  0
   -5.2320   -2.0636    0.0000 C   0  0  0  0  0  0  0  0  0
   -6.0570   -2.0636    0.0000 C   0  0  0  0  0  0  0  0  0
   -3.5820   -2.0636    0.0000 C   0  0  0  0  0  0  0  0  0
   -2.7570   -2.0636    0.0000 C   0  0  0  0  0  0  0  0  0
   -2.3445   -2.7781    0.0000 C   0  0  0  0  0  0  0  0  0
   -3.9945    0.0798    0.0000 C   0  0  0  0  0  0  0  0  0
   -3.5820    0.7943    0.0000 C   0  0  0  0  0  0  0  0  0
   -2.7570    0.7943    0.0000 C   0  0  0  0  0  0  0  0  0
   -2.3445    1.5087    0.0000 C   0  0  0  0  0  0  0  0  0
   -1.5195    1.5087    0.0000 C   0  0  0  0  0  0  0  0  0
   -1.1070    2.2232    0.0000 O   0  0  0  0  0  0  0  0  0
  1  2  1  0  0  0  0
  2  3  4  0  0  0  0
  2 18  4  0  0  0  0
  3  4  4  0  0  0  0
  4  5  1  0  0  0  0
  4 16  4  0  0  0  0
  5  6  1  0  0  0  0
  6  7  1  0  0  0  0
  6 14  1  0  0  0  0
  7  8  1  0  0  0  0
  7 11  1  0  0  0  0
  8  9  1  0  0  0  0
  9 10  1  0  0  0  0
 11 12  1  0  0  0  0
 12 13  1  0  0  0  0
 14 15  1  0  0  0  0
 15 16  1  0  0  0  0
 16 17  4  0  0  0  0
 17 18  4  0  0  0  0
 18 19  1  0  0  0  0
M  END
>  <Name_Molregno>
ADTN-DIPROPYL6,7

>  <DOPAMINE D2>
7.6

>  <DOPAMINE D3>
9.17

>  <DOPAMINE D4>
8.06

$$$$
AMITRIPTYLINE
  Marvin  02231216192D 0   1.00000     0.00000     0

 21 23  0  0  0  0  0  0  0  0999 V2000
    0.4326    2.9044    0.0000 N   0  0  0  0  0  0  0  0  0
    1.1470    2.4919    0.0000 C   0  0  0  0  0  0  0  0  0
    1.8615    2.9044    0.0000 C   0  0  0  0  0  0  0  0  0
    2.5760    2.4919    0.0000 C   0  0  0  0  0  0  0  0  0
    2.5760    1.6669    0.0000 C   0  0  0  0  0  0  0  0  0
    3.3193    1.3089    0.0000 C   0  0  0  0  0  0  0  0  0
    3.5029    0.5046    0.0000 C   0  0  0  0  0  0  0  0  0
    2.9885   -0.1404    0.0000 C   0  0  0  0  0  0  0  0  0
    2.1635   -0.1404    0.0000 C   0  0  0  0  0  0  0  0  0
    1.6491    0.5046    0.0000 C   0  0  0  0  0  0  0  0  0
    1.8327    1.3089    0.0000 C   0  0  0  0  0  0  0  0  0
    1.2279    1.8701    0.0000 C   0  0  0  0  0  0  0  0  0
    0.4396    1.6269    0.0000 C   0  0  0  0  0  0  0  0  0
    0.2560    0.8226    0.0000 C   0  0  0  0  0  0  0  0  0
    0.8608    0.2615    0.0000 C   0  0  0  0  0  0  0  0  0
    4.2912    0.2615    0.0000 C   0  0  0  0  0  0  0  0  0
    4.8960    0.8226    0.0000 C   0  0  0  0  0  0  0  0  0
    4.7124    1.6269    0.0000 C   0  0  0  0  0  0  0  0  0
    3.9241    1.8701    0.0000 C   0  0  0  0  0  0  0  0  0
   -0.2819    2.4919    0.0000 C   0  0  0  0  0  0  0  0  0
    0.4326    3.7294    0.0000 C   0  0  0  0  0  0  0  0  0
  1  2  1  0  0  0  0
  1 20  1  0  0  0  0
  1 21  1  0  0  0  0
  2  3  1  0  0  0  0
  3  4  1  0  0  0  0
  4  5  2  0  0  0  0
  5  6  1  0  0  0  0
  5 11  1  0  0  0  0
  6  7  4  0  0  0  0
  6 19  4  0  0  0  0
  7  8  1  0  0  0  0
  7 16  4  0  0  0  0
  8  9  1  0  0  0  0
  9 10  1  0  0  0  0
 10 11  4  0  0  0  0
 10 15  4  0  0  0  0
 11 12  4  0  0  0  0
 12 13  4  0  0  0  0
 13 14  4  0  0  0  0
 14 15  4  0  0  0  0
 16 17  4  0  0  0  0
 17 18  4  0  0  0  0
 18 19  4  0  0  0  0
M  END
>  <Name_Molregno>
AMITRIPTYLINE

>  <5-HT1A>
6.35

>  <5-HT2A>
7.64

>  <5-HT6>
7.02

>  <DOPAMINE D1>
7.05

>  <DOPAMINE D2>
6.42

>  <DOPAMINE D3>
6.69

>  <DOPAMINE D5>
6.77

>  <Dopamine transporter>
5.4

>  <HISTAMINE H1>
9.08

>  <HISTAMINE H3>
6

>  <HISTAMINE H4>
7.47

>  <Muscarinic acetylcholine receptor M1>
7.89

>  <Muscarinic acetylcholine receptor M2>
7.93

>  <Muscarinic acetylcholine receptor M3>
7.65

>  <Muscarinic acetylcholine receptor M4>
8.14

>  <Muscarinic acetylcholine receptor M5>
7.71

>  <Norepinephrine transporter>
7.45

>  <Serotonin transporter>
8

$$$$
AMOXAPINE
  Marvin  02231216192D 0   1.00000     0.00000     0

 22 25  0  0  0  0  0  0  0  0999 V2000
    4.1595    1.7861    0.0000 Cl  0  0  0  0  0  0  0  0  0
    3.3712    1.5429    0.0000 C   0  0  0  0  0  0  0  0  0
    2.7664    2.1041    0.0000 C   0  0  0  0  0  0  0  0  0
    1.9781    1.8609    0.0000 C   0  0  0  0  0  0  0  0  0
    1.7945    1.0566    0.0000 C   0  0  0  0  0  0  0  0  0
    1.0512    0.6986    0.0000 O   0  0  0  0  0  0  0  0  0
    0.3079    1.0566    0.0000 C   0  0  0  0  0  0  0  0  0
    0.1243    1.8609    0.0000 C   0  0  0  0  0  0  0  0  0
    0.6387    2.5059    0.0000 N   0  0  0  0  0  0  0  0  0
    1.4637    2.5059    0.0000 C   0  0  0  0  0  0  0  0  0
    1.8217    3.2492    0.0000 N   0  0  0  0  0  0  0  0  0
    1.3569    3.9309    0.0000 C   0  0  0  0  0  0  0  0  0
    1.7149    4.6742    0.0000 C   0  0  0  0  0  0  0  0  0
    2.5376    4.7358    0.0000 N   0  0  0  0  0  0  0  0  0
    3.0023    4.0542    0.0000 C   0  0  0  0  0  0  0  0  0
    2.6444    3.3109    0.0000 C   0  0  0  0  0  0  0  0  0
   -0.6640    2.1041    0.0000 C   0  0  0  0  0  0  0  0  0
   -1.2688    1.5429    0.0000 C   0  0  0  0  0  0  0  0  0
   -1.0852    0.7386    0.0000 C   0  0  0  0  0  0  0  0  0
   -0.2969    0.4954    0.0000 C   0  0  0  0  0  0  0  0  0
    2.3993    0.4954    0.0000 C   0  0  0  0  0  0  0  0  0
    3.1876    0.7386    0.0000 C   0  0  0  0  0  0  0  0  0
  1  2  1  0  0  0  0
  2  3  4  0  0  0  0
  2 22  4  0  0  0  0
  3  4  4  0  0  0  0
  4  5  4  0  0  0  0
  4 10  1  0  0  0  0
  5  6  1  0  0  0  0
  5 21  4  0  0  0  0
  6  7  1  0  0  0  0
  7  8  4  0  0  0  0
  7 20  4  0  0  0  0
  8  9  1  0  0  0  0
  8 17  4  0  0  0  0
  9 10  2  0  0  0  0
 10 11  1  0  0  0  0
 11 12  1  0  0  0  0
 11 16  1  0  0  0  0
 12 13  1  0  0  0  0
 13 14  1  0  0  0  0
 14 15  1  0  0  0  0
 15 16  1  0  0  0  0
 17 18  4  0  0  0  0
 18 19  4  0  0  0  0
 19 20  4  0  0  0  0
 21 22  4  0  0  0  0
M  END
>  <Name_Molregno>
AMOXAPINE

>  <5-HT2A>
9.3

>  <5-HT6>
7.3

>  <5-HT7>
6.3

>  <DOPAMINE D2>
7.89

>  <DOPAMINE D3>
7.74

>  <DOPAMINE D4>
8.05

>  <Dopamine transporter>
5.37

>  <Norepinephrine transporter>
7.8

>  <Serotonin transporter>
7.24

$$$$
Amphetamine
  Marvin  02231216192D 0   1.00000     0.00000     0

 10 10  0  0  1  0  0  0  0  0999 V2000
    1.5187    1.4161    0.0000 N   0  0  0  0  0  0  0  0  0
    1.5187    0.5911    0.0000 C   0  0  0  0  0  0  0  0  0
    2.2332    0.1786    0.0000 C   0  0  0  0  0  0  0  0  0
    2.2332   -0.6464    0.0000 C   0  0  0  0  0  0  0  0  0
    2.9477   -1.0589    0.0000 C   0  0  0  0  0  0  0  0  0
    2.9477   -1.8839    0.0000 C   0  0  0  0  0  0  0  0  0
    2.2332   -2.2964    0.0000 C   0  0  0  0  0  0  0  0  0
    1.5187   -1.8839    0.0000 C   0  0  0  0  0  0  0  0  0
    1.5187   -1.0589    0.0000 C   0  0  0  0  0  0  0  0  0
    0.8043    0.1786    0.0000 C   0  0  0  0  0  0  0  0  0
  1  2  1  0  0  0  0
  2  3  1  0  0  0  0
  2 10  1  0  0  0  0
  3  4  1  0  0  0  0
  4  5  4  0  0  0  0
  4  9  4  0  0  0  0
  5  6  4  0  0  0  0
  6  7  4  0  0  0  0
  7  8  4  0  0  0  0
  8  9  4  0  0  0  0
M  END
>  <Name_Molregno>
Amphetamine

>  <5-HT1A>
5.18

>  <DOPAMINE D1>
5

>  <DOPAMINE D2>
5

>  <DOPAMINE D3>
5

>  <Dopamine transporter>
6.57

>  <Norepinephrine transporter>
8.15

>  <Serotonin transporter>
5.75

$$$$
APOMORPHINE
  Marvin  02231216192D 0   1.00000     0.00000     0

 20 23  0  0  1  0  0  0  0  0999 V2000
    3.2214   -1.7908    0.0000 O   0  0  0  0  0  0  0  0  0
    3.2214   -0.9658    0.0000 C   0  0  0  0  0  0  0  0  0
    2.5070   -0.5533    0.0000 C   0  0  0  0  0  0  0  0  0
    2.5070    0.2717    0.0000 C   0  0  0  0  0  0  0  0  0
    1.7925    0.6842    0.0000 C   0  0  0  0  0  0  0  0  0
    1.0780    0.2717    0.0000 C   0  0  0  0  0  0  0  0  0
    0.3635    0.6842    0.0000 N   0  0  0  0  0  0  0  0  0
   -0.3509    0.2717    0.0000 C   0  0  0  0  0  0  0  0  0
   -0.3509   -0.5533    0.0000 C   0  0  0  0  0  0  0  0  0
    0.3635   -0.9658    0.0000 C   0  0  0  0  0  0  0  0  0
    1.0780   -0.5533    0.0000 C   0  0  0  0  0  0  0  0  0
    1.7925   -0.9658    0.0000 C   0  0  0  0  0  0  0  0  0
    1.7925   -1.7908    0.0000 C   0  0  0  0  0  0  0  0  0
    1.0780   -2.2033    0.0000 C   0  0  0  0  0  0  0  0  0
    0.3635   -1.7908    0.0000 C   0  0  0  0  0  0  0  0  0
    0.3635    1.5092    0.0000 C   0  0  0  0  0  0  0  0  0
    3.2214    0.6842    0.0000 C   0  0  0  0  0  0  0  0  0
    3.9359    0.2717    0.0000 C   0  0  0  0  0  0  0  0  0
    3.9359   -0.5533    0.0000 C   0  0  0  0  0  0  0  0  0
    4.6504   -0.9658    0.0000 O   0  0  0  0  0  0  0  0  0
  1  2  1  0  0  0  0
  2  3  4  0  0  0  0
  2 19  4  0  0  0  0
  3  4  4  0  0  0  0
  3 12  1  0  0  0  0
  4  5  1  0  0  0  0
  4 17  4  0  0  0  0
  5  6  1  0  0  0  0
  6  7  1  0  0  0  0
  6 11  1  0  0  0  0
  7  8  1  0  0  0  0
  7 16  1  0  0  0  0
  8  9  1  0  0  0  0
  9 10  1  0  0  0  0
 10 11  4  0  0  0  0
 10 15  4  0  0  0  0
 11 12  4  0  0  0  0
 12 13  4  0  0  0  0
 13 14  4  0  0  0  0
 14 15  4  0  0  0  0
 17 18  4  0  0  0  0
 18 19  4  0  0  0  0
 19 20  1  0  0  0  0
M  END
>  <Name_Molregno>
APOMORPHINE

>  <5-HT1A>
6.12

>  <5-HT1B>
5.53

>  <5-HT1D>
5.91

>  <5-HT2A>
6.63

>  <5-HT2C>
6.99

>  <Alpha-1A>
5.7

>  <Alpha-1B>
6.17

>  <Alpha-2A>
6.85

>  <Alpha-2B>
7.18

>  <Alpha-2C>
7.44

>  <Beta-1>
5

>  <Beta-2>
5

>  <DOPAMINE D1>
6.4

>  <DOPAMINE D2>
7.34

>  <DOPAMINE D3>
7.65

>  <DOPAMINE D4>
7.92

>  <DOPAMINE D5>
7.14

$$$$
ARIPIPRAZOLE
  Marvin  02231216192D 0   1.00000     0.00000     0

 30 33  0  0  0  0  0  0  0  0999 V2000
   -8.7485    0.0493    0.0000 Cl  0  0  0  0  0  0  0  0  0
   -8.7485   -0.7757    0.0000 C   0  0  0  0  0  0  0  0  0
   -8.0340   -1.1882    0.0000 C   0  0  0  0  0  0  0  0  0
   -7.3195   -0.7757    0.0000 N   0  0  0  0  0  0  0  0  0
   -7.3195    0.0493    0.0000 C   0  0  0  0  0  0  0  0  0
   -6.6051    0.4618    0.0000 C   0  0  0  0  0  0  0  0  0
   -5.8906    0.0493    0.0000 N   0  0  0  0  0  0  0  0  0
   -5.8906   -0.7757    0.0000 C   0  0  0  0  0  0  0  0  0
   -6.6051   -1.1882    0.0000 C   0  0  0  0  0  0  0  0  0
   -5.1761    0.4618    0.0000 C   0  0  0  0  0  0  0  0  0
   -4.4616    0.0493    0.0000 C   0  0  0  0  0  0  0  0  0
   -3.7472    0.4618    0.0000 C   0  0  0  0  0  0  0  0  0
   -3.0327    0.0493    0.0000 C   0  0  0  0  0  0  0  0  0
   -2.3182    0.4618    0.0000 O   0  0  0  0  0  0  0  0  0
   -1.6038    0.0493    0.0000 C   0  0  0  0  0  0  0  0  0
   -0.8893    0.4618    0.0000 C   0  0  0  0  0  0  0  0  0
   -0.1748    0.0493    0.0000 C   0  0  0  0  0  0  0  0  0
    0.5397    0.4618    0.0000 N   0  0  0  0  0  0  0  0  0
    1.2541    0.0493    0.0000 C   0  0  0  0  0  0  0  0  0
    1.9686    0.4618    0.0000 O   0  0  0  0  0  0  0  0  0
    1.2541   -0.7757    0.0000 C   0  0  0  0  0  0  0  0  0
    0.5397   -1.1882    0.0000 C   0  0  0  0  0  0  0  0  0
   -0.1748   -0.7757    0.0000 C   0  0  0  0  0  0  0  0  0
   -0.8893   -1.1882    0.0000 C   0  0  0  0  0  0  0  0  0
   -1.6038   -0.7757    0.0000 C   0  0  0  0  0  0  0  0  0
   -8.0340   -2.0132    0.0000 C   0  0  0  0  0  0  0  0  0
   -8.7485   -2.4257    0.0000 C   0  0  0  0  0  0  0  0  0
   -9.4629   -2.0132    0.0000 C   0  0  0  0  0  0  0  0  0
   -9.4629   -1.1882    0.0000 C   0  0  0  0  0  0  0  0  0
  -10.1774   -0.7757    0.0000 Cl  0  0  0  0  0  0  0  0  0
  1  2  1  0  0  0  0
  2  3  4  0  0  0  0
  2 29  4  0  0  0  0
  3  4  1  0  0  0  0
  3 26  4  0  0  0  0
  4  5  1  0  0  0  0
  4  9  1  0  0  0  0
  5  6  1  0  0  0  0
  6  7  1  0  0  0  0
  7  8  1  0  0  0  0
  7 10  1  0  0  0  0
  8  9  1  0  0  0  0
 10 11  1  0  0  0  0
 11 12  1  0  0  0  0
 12 13  1  0  0  0  0
 13 14  1  0  0  0  0
 14 15  1  0  0  0  0
 15 16  4  0  0  0  0
 15 25  4  0  0  0  0
 16 17  4  0  0  0  0
 17 18  1  0  0  0  0
 17 23  4  0  0  0  0
 18 19  1  0  0  0  0
 19 20  2  0  0  0  0
 19 21  1  0  0  0  0
 21 22  1  0  0  0  0
 22 23  1  0  0  0  0
 23 24  4  0  0  0  0
 24 25  4  0  0  0  0
 26 27  4  0  0  0  0
 27 28  4  0  0  0  0
 28 29  4  0  0  0  0
 29 30  1  0  0  0  0
M  END
>  <Name_Molregno>
ARIPIPRAZOLE

>  <5-HT1A>
8.21

>  <5-HT1B>
6.08

>  <5-HT1D>
7.18

>  <5-HT1E>
5.1

>  <5-HT2A>
7.85

>  <5-HT2C>
7.48

>  <5-HT3>
6.25

>  <5-HT5>
5.91

>  <5-HT6>
6.32

>  <5-HT7>
7.81

>  <Alpha-1A>
7.59

>  <Alpha-1B>
7.46

>  <Alpha-2A>
7.13

>  <Alpha-2B>
6.99

>  <Alpha-2C>
7.42

>  <Beta-1>
6.85

>  <Beta-2>
6.79

>  <DOPAMINE D1>
6.06

>  <DOPAMINE D2>
8.72

>  <DOPAMINE D3>
8.45

>  <DOPAMINE D4>
6.51

>  <DOPAMINE D5>
5.69

>  <Dopamine transporter>
5.49

>  <HISTAMINE H1>
7.56

>  <HISTAMINE H2>
5

>  <HISTAMINE H4>
5

>  <Muscarinic acetylcholine receptor M1>
5.17

>  <Muscarinic acetylcholine receptor M2>
5.45

>  <Muscarinic acetylcholine receptor M3>
5.33

>  <Muscarinic acetylcholine receptor M4>
5.82

>  <Muscarinic acetylcholine receptor M5>
5.63

>  <Norepinephrine transporter>
5.68

>  <Serotonin transporter>
6.48

$$$$
benzofuranyl
  Marvin  02231216192D 0   1.00000     0.00000     0

 12 13  0  0  0  0  0  0  0  0999 V2000
   -0.0778    0.0110    0.0000 O   0  0  0  0  0  0  0  0  0
    0.7069    0.2659    0.0000 C   0  0  0  0  0  0  0  0  0
    0.7069    1.0909    0.0000 C   0  0  0  0  0  0  0  0  0
   -0.0778    1.3459    0.0000 C   0  0  0  0  0  0  0  0  0
   -0.5627    0.6784    0.0000 C   0  0  0  0  0  0  0  0  0
   -1.3877    0.6784    0.0000 C   0  0  0  0  0  0  0  0  0
   -1.8002   -0.0360    0.0000 O   0  0  0  0  0  0  0  0  0
   -1.8002    1.3929    0.0000 C   0  0  0  0  0  0  0  0  0
    1.4213    1.5034    0.0000 C   0  0  0  0  0  0  0  0  0
    2.1358    1.0909    0.0000 C   0  0  0  0  0  0  0  0  0
    2.1358    0.2659    0.0000 C   0  0  0  0  0  0  0  0  0
    1.4213   -0.1466    0.0000 C   0  0  0  0  0  0  0  0  0
  1  2  4  0  0  0  0
  1  5  4  0  0  0  0
  2  3  4  0  0  0  0
  2 12  4  0  0  0  0
  3  4  4  0  0  0  0
  3  9  4  0  0  0  0
  4  5  4  0  0  0  0
  5  6  1  0  0  0  0
  6  7  2  0  0  0  0
  6  8  1  0  0  0  0
  9 10  4  0  0  0  0
 10 11  4  0  0  0  0
 11 12  4  0  0  0  0
M  END
>  <Name_Molregno>
benzofuranyl

>  <DOPAMINE D2>
6.5

>  <DOPAMINE D3>
8.76

>  <DOPAMINE D4>
6.54

$$$$
B-HT920
  Marvin  02231216192D 0   1.00000     0.00000     0

 14 15  0  0  0  0  0  0  0  0999 V2000
   -3.1193    0.1933    0.0000 S   0  0  0  0  0  0  0  0  0
   -2.3347   -0.0617    0.0000 C   0  0  0  0  0  0  0  0  0
   -1.6896    0.4527    0.0000 C   0  0  0  0  0  0  0  0  0
   -0.8853    0.2691    0.0000 C   0  0  0  0  0  0  0  0  0
   -0.5274   -0.4742    0.0000 N   0  0  0  0  0  0  0  0  0
   -0.8853   -1.2175    0.0000 C   0  0  0  0  0  0  0  0  0
   -1.6896   -1.4010    0.0000 C   0  0  0  0  0  0  0  0  0
   -2.3347   -0.8867    0.0000 C   0  0  0  0  0  0  0  0  0
   -3.1193   -1.1416    0.0000 N   0  0  0  0  0  0  0  0  0
   -3.6042   -0.4742    0.0000 C   0  0  0  0  0  0  0  0  0
   -4.4292   -0.4742    0.0000 N   0  0  0  0  0  0  0  0  0
    0.2976   -0.4742    0.0000 C   0  0  0  0  0  0  0  0  0
    0.7101   -1.1886    0.0000 C   0  0  0  0  0  0  0  0  0
    1.5351   -1.1886    0.0000 C   0  0  0  0  0  0  0  0  0
  1  2  4  0  0  0  0
  1 10  4  0  0  0  0
  2  3  1  0  0  0  0
  2  8  4  0  0  0  0
  3  4  1  0  0  0  0
  4  5  1  0  0  0  0
  5  6  1  0  0  0  0
  5 12  1  0  0  0  0
  6  7  1  0  0  0  0
  7  8  1  0  0  0  0
  8  9  4  0  0  0  0
  9 10  4  0  0  0  0
 10 11  1  0  0  0  0
 12 13  1  0  0  0  0
 13 14  2  0  0  0  0
M  END
>  <Name_Molregno>
B-HT920

>  <5-HT1A>
5.77

>  <5-HT1B>
5

>  <5-HT1D>
5

>  <5-HT2A>
5

>  <5-HT2C>
5

>  <Alpha-1A>
5

>  <Alpha-1B>
5.41

>  <Alpha-2A>
6.91

>  <Alpha-2B>
6.69

>  <Alpha-2C>
6.69

>  <Beta-1>
5

>  <Beta-2>
5

>  <DOPAMINE D1>
5

>  <DOPAMINE D2>
6.88

>  <DOPAMINE D3>
7.8

>  <DOPAMINE D4>
6.48

>  <DOPAMINE D5>
5.46

$$$$
BROMOCRIPTINE
  Marvin  02231216192D 0   1.00000     0.00000     0

 43 49  0  0  1  0  0  0  0  0999 V2000
    6.2699    4.4922    0.0000 Br  0  0  0  0  0  0  0  0  0
    6.7473    3.8193    0.0000 C   0  0  0  0  0  0  0  0  0
    7.5723    3.8193    0.0000 N   0  0  0  0  0  0  0  0  0
    7.8776    2.9622    0.0000 C   0  0  0  0  0  0  0  0  0
    7.1598    2.5497    0.0000 C   0  0  0  0  0  0  0  0  0
    6.4473    2.9622    0.0000 C   0  0  0  0  0  0  0  0  0
    5.7348    2.5497    0.0000 C   0  0  0  0  0  0  0  0  0
    5.7348    1.7247    0.0000 C   0  0  0  0  0  0  0  0  0
    5.0198    1.3130    0.0000 N   0  0  0  0  0  0  0  0  0
    5.0188    0.4880    0.0000 C   0  0  0  0  0  0  0  0  0
    5.7328    0.0747    0.0000 C   0  0  0  0  0  0  0  0  0
    6.4478    0.4863    0.0000 C   0  0  0  0  0  0  0  0  0
    6.4488    1.3113    0.0000 C   0  0  0  0  0  0  0  0  0
    7.1598    1.7247    0.0000 C   0  0  0  0  0  0  0  0  0
    7.8776    1.3122    0.0000 C   0  0  0  0  0  0  0  0  0
    8.5901    1.7247    0.0000 C   0  0  0  0  0  0  0  0  0
    8.5901    2.5497    0.0000 C   0  0  0  0  0  0  0  0  0
    5.7318   -0.7503    0.0000 C   0  0  0  0  0  0  0  0  0
    6.4458   -1.1637    0.0000 O   0  0  0  0  0  0  0  0  0
    5.0168   -1.1620    0.0000 N   0  0  0  0  0  0  0  0  0
    5.0159   -1.9870    0.0000 C   0  0  0  0  0  0  0  0  0
    5.1864   -2.7941    0.0000 O   0  0  0  0  0  0  0  0  0
    4.4715   -3.2058    0.0000 C   0  0  0  0  0  0  0  0  0
    5.1383   -3.6915    0.0000 O   0  0  0  0  0  0  0  0  0
    3.8590   -2.6530    0.0000 N   0  0  0  0  0  0  0  0  0
    3.0741   -2.9070    0.0000 C   0  0  0  0  0  0  0  0  0
    2.4617   -2.3543    0.0000 C   0  0  0  0  0  0  0  0  0
    1.6767   -2.6083    0.0000 C   0  0  0  0  0  0  0  0  0
    1.0643   -2.0555    0.0000 C   0  0  0  0  0  0  0  0  0
    1.5042   -3.4150    0.0000 C   0  0  0  0  0  0  0  0  0
    2.9016   -3.7138    0.0000 C   0  0  0  0  0  0  0  0  0
    2.1167   -3.9678    0.0000 O   0  0  0  0  0  0  0  0  0
    3.5140   -4.2665    0.0000 N   0  0  0  0  0  0  0  0  0
    4.2990   -4.0125    0.0000 C   0  0  0  0  0  0  0  0  0
    4.7831   -4.6806    0.0000 C   0  0  0  0  0  0  0  0  0
    4.2974   -5.3474    0.0000 C   0  0  0  0  0  0  0  0  0
    3.5131   -5.0915    0.0000 C   0  0  0  0  0  0  0  0  0
    4.1955   -1.8997    0.0000 C   0  0  0  0  0  0  0  0  0
    3.7838   -1.1848    0.0000 O   0  0  0  0  0  0  0  0  0
    5.8364   -1.9017    0.0000 C   0  0  0  0  0  0  0  0  0
    6.5514   -1.4901    0.0000 C   0  0  0  0  0  0  0  0  0
    6.3206   -2.5697    0.0000 C   0  0  0  0  0  0  0  0  0
    4.3058    1.7264    0.0000 C   0  0  0  0  0  0  0  0  0
  1  2  1  0  0  0  0
  2  3  4  0  0  0  0
  2  6  4  0  0  0  0
  3  4  4  0  0  0  0
  4  5  4  0  0  0  0
  4 17  4  0  0  0  0
  5  6  4  0  0  0  0
  5 14  4  0  0  0  0
  6  7  1  0  0  0  0
  7  8  1  0  0  0  0
  8  9  1  0  0  0  0
  8 13  1  0  0  0  0
  9 10  1  0  0  0  0
  9 43  1  0  0  0  0
 10 11  1  0  0  0  0
 11 12  1  0  0  0  0
 11 18  1  0  0  0  0
 12 13  2  0  0  0  0
 13 14  1  0  0  0  0
 14 15  4  0  0  0  0
 15 16  4  0  0  0  0
 16 17  4  0  0  0  0
 18 19  2  0  0  0  0
 18 20  1  0  0  0  0
 20 21  1  0  0  0  0
 21 22  1  0  0  0  0
 21 38  1  0  0  0  0
 21 40  1  0  0  0  0
 22 23  1  0  0  0  0
 23 24  1  0  0  0  0
 23 25  1  0  0  0  0
 23 34  1  0  0  0  0
 25 26  1  0  0  0  0
 25 38  1  0  0  0  0
 26 27  1  0  0  0  0
 26 31  1  0  0  0  0
 27 28  1  0  0  0  0
 28 29  1  0  0  0  0
 28 30  1  0  0  0  0
 31 32  2  0  0  0  0
 31 33  1  0  0  0  0
 33 34  1  0  0  0  0
 33 37  1  0  0  0  0
 34 35  1  0  0  0  0
 35 36  1  0  0  0  0
 36 37  1  0  0  0  0
 38 39  2  0  0  0  0
 40 41  1  0  0  0  0
 40 42  1  0  0  0  0
M  STY  1   1 DAT
M  SAL   1  1   3
M  SDT   1 MRV_IMPLICIT_H                                        
M  SDD   1     0.0000    0.0000    DR    ALL  0       0  
M  SED   1 IMPL_H1
M  END
>  <Name_Molregno>
BROMOCRIPTINE

>  <5-HT1A>
7.7

>  <5-HT1B>
6.45

>  <5-HT1D>
7.97

>  <5-HT2A>
6.97

>  <5-HT2C>
6.13

>  <5-HT6>
7.39

>  <Alpha-1A>
8.38

>  <Alpha-1B>
8.86

>  <Alpha-2A>
7.96

>  <Alpha-2B>
7.46

>  <Alpha-2C>
7.55

>  <Beta-1>
6.23

>  <Beta-2>
6.13

>  <DOPAMINE D1>
6

>  <DOPAMINE D2>
8.31

>  <DOPAMINE D3>
8.02

>  <DOPAMINE D4>
6.33

>  <DOPAMINE D5>
6.31

$$$$
BROMPERIDOL
  Marvin  02231216192D 0   1.00000     0.00000     0

 26 28  0  0  0  0  0  0  0  0999 V2000
    1.7138    2.6466    0.0000 Br  0  0  0  0  0  0  0  0  0
    1.9960    1.8714    0.0000 C   0  0  0  0  0  0  0  0  0
    2.8084    1.7281    0.0000 C   0  0  0  0  0  0  0  0  0
    3.0906    0.9529    0.0000 C   0  0  0  0  0  0  0  0  0
    2.5603    0.3209    0.0000 C   0  0  0  0  0  0  0  0  0
    1.7478    0.4642    0.0000 C   0  0  0  0  0  0  0  0  0
    1.4657    1.2394    0.0000 C   0  0  0  0  0  0  0  0  0
    2.8425   -0.4543    0.0000 C   0  0  0  0  0  0  0  0  0
    2.0300   -0.5976    0.0000 O   0  0  0  0  0  0  0  0  0
    3.5569   -0.0418    0.0000 C   0  0  0  0  0  0  0  0  0
    4.2714   -0.4543    0.0000 C   0  0  0  0  0  0  0  0  0
    4.2714   -1.2793    0.0000 N   0  0  0  0  0  0  0  0  0
    3.5569   -1.6918    0.0000 C   0  0  0  0  0  0  0  0  0
    2.8425   -1.2793    0.0000 C   0  0  0  0  0  0  0  0  0
    4.9859   -1.6918    0.0000 C   0  0  0  0  0  0  0  0  0
    5.7003   -1.2793    0.0000 C   0  0  0  0  0  0  0  0  0
    6.4148   -1.6918    0.0000 C   0  0  0  0  0  0  0  0  0
    7.1293   -1.2793    0.0000 C   0  0  0  0  0  0  0  0  0
    7.1293   -0.4543    0.0000 O   0  0  0  0  0  0  0  0  0
    7.8438   -1.6918    0.0000 C   0  0  0  0  0  0  0  0  0
    8.5582   -1.2793    0.0000 C   0  0  0  0  0  0  0  0  0
    9.2727   -1.6918    0.0000 C   0  0  0  0  0  0  0  0  0
    9.2727   -2.5168    0.0000 C   0  0  0  0  0  0  0  0  0
    9.9872   -2.9293    0.0000 F   0  0  0  0  0  0  0  0  0
    8.5582   -2.9293    0.0000 C   0  0  0  0  0  0  0  0  0
    7.8438   -2.5168    0.0000 C   0  0  0  0  0  0  0  0  0
  1  2  1  0  0  0  0
  2  3  4  0  0  0  0
  2  7  4  0  0  0  0
  3  4  4  0  0  0  0
  4  5  4  0  0  0  0
  5  6  4  0  0  0  0
  5  8  1  0  0  0  0
  6  7  4  0  0  0  0
  8  9  1  0  0  0  0
  8 10  1  0  0  0  0
  8 14  1  0  0  0  0
 10 11  1  0  0  0  0
 11 12  1  0  0  0  0
 12 13  1  0  0  0  0
 12 15  1  0  0  0  0
 13 14  1  0  0  0  0
 15 16  1  0  0  0  0
 16 17  1  0  0  0  0
 17 18  1  0  0  0  0
 18 19  2  0  0  0  0
 18 20  1  0  0  0  0
 20 21  4  0  0  0  0
 20 26  4  0  0  0  0
 21 22  4  0  0  0  0
 22 23  4  0  0  0  0
 23 24  1  0  0  0  0
 23 25  4  0  0  0  0
 25 26  4  0  0  0  0
M  END
>  <Name_Molregno>
BROMPERIDOL

>  <DOPAMINE D2>
8.84

>  <DOPAMINE D3>
9.17

>  <DOPAMINE D4>
7.32

>  <Muscarinic acetylcholine receptor M1>
5.12

>  <Muscarinic acetylcholine receptor M2>
5.74

>  <Muscarinic acetylcholine receptor M3>
5.15

>  <Muscarinic acetylcholine receptor M4>
5.77

>  <Muscarinic acetylcholine receptor M5>
5.32

$$$$
BULBOCAPNINE
  Marvin  02231216192D 0   1.00000     0.00000     0

 24 28  0  0  1  0  0  0  0  0999 V2000
   -0.1281    0.0412    0.0000 O   0  0  0  0  0  0  0  0  0
   -0.7412   -0.5109    0.0000 C   0  0  0  0  0  0  0  0  0
   -0.7412   -1.3359    0.0000 C   0  0  0  0  0  0  0  0  0
   -0.0267   -1.7484    0.0000 C   0  0  0  0  0  0  0  0  0
   -0.0267   -2.5734    0.0000 C   0  0  0  0  0  0  0  0  0
   -0.7412   -2.9859    0.0000 C   0  0  0  0  0  0  0  0  0
   -1.4557   -2.5734    0.0000 C   0  0  0  0  0  0  0  0  0
   -2.1701   -2.9859    0.0000 N   0  0  0  0  0  0  0  0  0
   -2.8846   -2.5734    0.0000 C   0  0  0  0  0  0  0  0  0
   -2.8846   -1.7484    0.0000 C   0  0  0  0  0  0  0  0  0
   -2.1701   -1.3359    0.0000 C   0  0  0  0  0  0  0  0  0
   -1.4557   -1.7484    0.0000 C   0  0  0  0  0  0  0  0  0
   -2.1701   -0.5109    0.0000 C   0  0  0  0  0  0  0  0  0
   -1.4557   -0.0984    0.0000 C   0  0  0  0  0  0  0  0  0
   -1.2841    0.7086    0.0000 O   0  0  0  0  0  0  0  0  0
   -0.4637    0.7948    0.0000 C   0  0  0  0  0  0  0  0  0
   -2.1701   -3.8109    0.0000 C   0  0  0  0  0  0  0  0  0
    0.6877   -2.9859    0.0000 C   0  0  0  0  0  0  0  0  0
    1.4022   -2.5734    0.0000 C   0  0  0  0  0  0  0  0  0
    1.4022   -1.7484    0.0000 C   0  0  0  0  0  0  0  0  0
    2.1167   -1.3359    0.0000 O   0  0  0  0  0  0  0  0  0
    2.1167   -0.5109    0.0000 C   0  0  0  0  0  0  0  0  0
    0.6877   -1.3359    0.0000 C   0  0  0  0  0  0  0  0  0
    0.6877   -0.5109    0.0000 O   0  0  0  0  0  0  0  0  0
  1  2  1  0  0  0  0
  1 16  1  0  0  0  0
  2  3  4  0  0  0  0
  2 14  4  0  0  0  0
  3  4  1  0  0  0  0
  3 12  4  0  0  0  0
  4  5  4  0  0  0  0
  4 23  4  0  0  0  0
  5  6  1  0  0  0  0
  5 18  4  0  0  0  0
  6  7  1  0  0  0  0
  7  8  1  0  0  0  0
  7 12  1  0  0  0  0
  8  9  1  0  0  0  0
  8 17  1  0  0  0  0
  9 10  1  0  0  0  0
 10 11  1  0  0  0  0
 11 12  4  0  0  0  0
 11 13  4  0  0  0  0
 13 14  4  0  0  0  0
 14 15  1  0  0  0  0
 15 16  1  0  0  0  0
 18 19  4  0  0  0  0
 19 20  4  0  0  0  0
 20 21  1  0  0  0  0
 20 23  4  0  0  0  0
 21 22  1  0  0  0  0
 23 24  1  0  0  0  0
M  END
>  <Name_Molregno>
BULBOCAPNINE

>  <DOPAMINE D2>
5.82

>  <DOPAMINE D3>
5.28

$$$$
Cabergoline
  Marvin  02231216192D 0   1.00000     0.00000     0

 33 36  0  0  1  0  0  0  0  0999 V2000
    0.1488   -3.1643    0.0000 O   0  0  0  0  0  0  0  0  0
   -0.5651   -2.7509    0.0000 C   0  0  0  0  0  0  0  0  0
   -1.2801   -3.1625    0.0000 N   0  0  0  0  0  0  0  0  0
   -1.2811   -3.9875    0.0000 C   0  0  0  0  0  0  0  0  0
   -1.9961   -4.3992    0.0000 C   0  0  0  0  0  0  0  0  0
   -1.9970   -5.2242    0.0000 C   0  0  0  0  0  0  0  0  0
   -2.7120   -5.6358    0.0000 N   0  0  0  0  0  0  0  0  0
   -2.7130   -6.4608    0.0000 C   0  0  0  0  0  0  0  0  0
   -3.4260   -5.2225    0.0000 C   0  0  0  0  0  0  0  0  0
   -1.9941   -2.7492    0.0000 C   0  0  0  0  0  0  0  0  0
   -2.7090   -3.1608    0.0000 O   0  0  0  0  0  0  0  0  0
   -1.9931   -1.9242    0.0000 N   0  0  0  0  0  0  0  0  0
   -2.7071   -1.5108    0.0000 C   0  0  0  0  0  0  0  0  0
   -3.4220   -1.9225    0.0000 C   0  0  0  0  0  0  0  0  0
   -0.5641   -1.9259    0.0000 C   0  0  0  0  0  0  0  0  0
    0.1508   -1.5143    0.0000 C   0  0  0  0  0  0  0  0  0
    0.1518   -0.6893    0.0000 C   0  0  0  0  0  0  0  0  0
   -0.5622   -0.2759    0.0000 C   0  0  0  0  0  0  0  0  0
   -1.2771   -0.6875    0.0000 N   0  0  0  0  0  0  0  0  0
   -1.2781   -1.5125    0.0000 C   0  0  0  0  0  0  0  0  0
   -1.9911   -0.2742    0.0000 C   0  0  0  0  0  0  0  0  0
   -2.7061   -0.6858    0.0000 C   0  0  0  0  0  0  0  0  0
   -3.4201   -0.2725    0.0000 C   0  0  0  0  0  0  0  0  0
   -0.5607    0.5482    0.0000 C   0  0  0  0  0  0  0  0  0
    0.1518    0.9607    0.0000 C   0  0  0  0  0  0  0  0  0
    0.8643    0.5482    0.0000 C   0  0  0  0  0  0  0  0  0
    0.8643   -0.2768    0.0000 C   0  0  0  0  0  0  0  0  0
    1.5822   -0.6893    0.0000 C   0  0  0  0  0  0  0  0  0
    2.2947   -0.2768    0.0000 C   0  0  0  0  0  0  0  0  0
    2.2947    0.5482    0.0000 C   0  0  0  0  0  0  0  0  0
    1.5822    0.9607    0.0000 C   0  0  0  0  0  0  0  0  0
    1.2768    1.8179    0.0000 N   0  0  0  0  0  0  0  0  0
    0.4518    1.8179    0.0000 C   0  0  0  0  0  0  0  0  0
  1  2  2  0  0  0  0
  2  3  1  0  0  0  0
  2 15  1  0  0  0  0
  3  4  1  0  0  0  0
  3 10  1  0  0  0  0
  4  5  1  0  0  0  0
  5  6  1  0  0  0  0
  6  7  1  0  0  0  0
  7  8  1  0  0  0  0
  7  9  1  0  0  0  0
 10 11  2  0  0  0  0
 10 12  1  0  0  0  0
 12 13  1  0  0  0  0
 13 14  1  0  0  0  0
 15 16  1  0  0  0  0
 15 20  1  0  0  0  0
 16 17  1  0  0  0  0
 17 18  1  0  0  0  0
 17 27  1  0  0  0  0
 18 19  1  0  0  0  0
 18 24  1  0  0  0  0
 19 20  1  0  0  0  0
 19 21  1  0  0  0  0
 21 22  1  0  0  0  0
 22 23  2  0  0  0  0
 24 25  1  0  0  0  0
 25 26  4  0  0  0  0
 25 33  4  0  0  0  0
 26 27  4  0  0  0  0
 26 31  4  0  0  0  0
 27 28  4  0  0  0  0
 28 29  4  0  0  0  0
 29 30  4  0  0  0  0
 30 31  4  0  0  0  0
 31 32  4  0  0  0  0
 32 33  4  0  0  0  0
M  STY  1   1 DAT
M  SAL   1  1  32
M  SDT   1 MRV_IMPLICIT_H                                        
M  SDD   1     0.0000    0.0000    DR    ALL  0       0  
M  SED   1 IMPL_H1
M  END
>  <Name_Molregno>
Cabergoline

>  <5-HT1A>
7.7

>  <5-HT1B>
6.32

>  <5-HT1D>
8.06

>  <5-HT2A>
8.21

>  <5-HT2C>
6.16

>  <Alpha-1A>
6.54

>  <Alpha-1B>
7.22

>  <Alpha-2A>
7.92

>  <Alpha-2B>
7.14

>  <Alpha-2C>
7.65

>  <Beta-1>
5

>  <Beta-2>
5

>  <DOPAMINE D1>
6.67

>  <DOPAMINE D2>
9.12

>  <DOPAMINE D3>
9.1

>  <DOPAMINE D4>
7.25

>  <DOPAMINE D5>
7.65

$$$$
Carpipramine
  Marvin  02231216192D 0   1.00000     0.00000     0

 33 37  0  0  0  0  0  0  0  0999 V2000
    4.4908   -0.5990    0.0000 O   0  0  0  0  0  0  0  0  0
    4.2086    0.1762    0.0000 C   0  0  0  0  0  0  0  0  0
    4.7389    0.8082    0.0000 N   0  0  0  0  0  0  0  0  0
    3.3962    0.3195    0.0000 C   0  0  0  0  0  0  0  0  0
    3.6783    1.0947    0.0000 N   0  0  0  0  0  0  0  0  0
    3.1480    1.7267    0.0000 C   0  0  0  0  0  0  0  0  0
    3.4302    2.5019    0.0000 C   0  0  0  0  0  0  0  0  0
    4.2427    2.6452    0.0000 C   0  0  0  0  0  0  0  0  0
    4.7730    2.0132    0.0000 C   0  0  0  0  0  0  0  0  0
    4.4908    1.2380    0.0000 C   0  0  0  0  0  0  0  0  0
    3.3962   -0.5055    0.0000 C   0  0  0  0  0  0  0  0  0
    2.6817   -0.9180    0.0000 C   0  0  0  0  0  0  0  0  0
    1.9672   -0.5055    0.0000 N   0  0  0  0  0  0  0  0  0
    1.9672    0.3195    0.0000 C   0  0  0  0  0  0  0  0  0
    2.6817    0.7320    0.0000 C   0  0  0  0  0  0  0  0  0
    1.2528   -0.9180    0.0000 C   0  0  0  0  0  0  0  0  0
    1.2528   -1.7430    0.0000 C   0  0  0  0  0  0  0  0  0
    0.5383   -2.1555    0.0000 C   0  0  0  0  0  0  0  0  0
    0.5383   -2.9805    0.0000 N   0  0  0  0  0  0  0  0  0
    1.2816   -3.3385    0.0000 C   0  0  0  0  0  0  0  0  0
    1.4652   -4.1428    0.0000 C   0  0  0  0  0  0  0  0  0
    0.9508   -4.7878    0.0000 C   0  0  0  0  0  0  0  0  0
    0.1258   -4.7878    0.0000 C   0  0  0  0  0  0  0  0  0
   -0.3886   -4.1428    0.0000 C   0  0  0  0  0  0  0  0  0
   -0.2050   -3.3385    0.0000 C   0  0  0  0  0  0  0  0  0
   -0.8098   -2.7774    0.0000 C   0  0  0  0  0  0  0  0  0
   -1.5981   -3.0205    0.0000 C   0  0  0  0  0  0  0  0  0
   -1.7817   -3.8248    0.0000 C   0  0  0  0  0  0  0  0  0
   -1.1769   -4.3860    0.0000 C   0  0  0  0  0  0  0  0  0
    2.2535   -4.3860    0.0000 C   0  0  0  0  0  0  0  0  0
    2.8583   -3.8248    0.0000 C   0  0  0  0  0  0  0  0  0
    2.6747   -3.0205    0.0000 C   0  0  0  0  0  0  0  0  0
    1.8863   -2.7774    0.0000 C   0  0  0  0  0  0  0  0  0
  1  2  2  0  0  0  0
  2  3  1  0  0  0  0
  2  4  1  0  0  0  0
  4  5  1  0  0  0  0
  4 11  1  0  0  0  0
  4 15  1  0  0  0  0
  5  6  1  0  0  0  0
  5 10  1  0  0  0  0
  6  7  1  0  0  0  0
  7  8  1  0  0  0  0
  8  9  1  0  0  0  0
  9 10  1  0  0  0  0
 11 12  1  0  0  0  0
 12 13  1  0  0  0  0
 13 14  1  0  0  0  0
 13 16  1  0  0  0  0
 14 15  1  0  0  0  0
 16 17  1  0  0  0  0
 17 18  1  0  0  0  0
 18 19  1  0  0  0  0
 19 20  1  0  0  0  0
 19 25  1  0  0  0  0
 20 21  4  0  0  0  0
 20 33  4  0  0  0  0
 21 22  1  0  0  0  0
 21 30  4  0  0  0  0
 22 23  1  0  0  0  0
 23 24  1  0  0  0  0
 24 25  4  0  0  0  0
 24 29  4  0  0  0  0
 25 26  4  0  0  0  0
 26 27  4  0  0  0  0
 27 28  4  0  0  0  0
 28 29  4  0  0  0  0
 30 31  4  0  0  0  0
 31 32  4  0  0  0  0
 32 33  4  0  0  0  0
M  END
>  <Name_Molregno>
Carpipramine

>  <DOPAMINE D2>
8.06

>  <DOPAMINE D3>
7.82

$$$$
CGS12066B
  Marvin  02231216192D 0   1.00000     0.00000     0

 24 27  0  0  0  0  0  0  0  0999 V2000
   -0.9796   -3.3948    0.0000 F   0  0  0  0  0  0  0  0  0
   -0.1550   -3.4206    0.0000 C   0  0  0  0  0  0  0  0  0
   -0.1808   -4.2452    0.0000 F   0  0  0  0  0  0  0  0  0
   -0.1293   -2.5960    0.0000 F   0  0  0  0  0  0  0  0  0
    0.6696   -3.4463    0.0000 C   0  0  0  0  0  0  0  0  0
    1.1042   -2.7451    0.0000 C   0  0  0  0  0  0  0  0  0
    1.9288   -2.7708    0.0000 C   0  0  0  0  0  0  0  0  0
    2.3634   -2.0696    0.0000 N   0  0  0  0  0  0  0  0  0
    3.1880   -2.0954    0.0000 C   0  0  0  0  0  0  0  0  0
    3.6226   -1.3941    0.0000 N   0  0  0  0  0  0  0  0  0
    3.2326   -0.6671    0.0000 C   0  0  0  0  0  0  0  0  0
    3.6672    0.0341    0.0000 C   0  0  0  0  0  0  0  0  0
    4.4918    0.0084    0.0000 N   0  0  0  0  0  0  0  0  0
    4.8818   -0.7186    0.0000 C   0  0  0  0  0  0  0  0  0
    4.4472   -1.4199    0.0000 C   0  0  0  0  0  0  0  0  0
    4.9264    0.7096    0.0000 C   0  0  0  0  0  0  0  0  0
    3.5780   -2.8224    0.0000 C   0  0  0  0  0  0  0  0  0
    3.1434   -3.5236    0.0000 N   0  0  0  0  0  0  0  0  0
    2.3188   -3.4979    0.0000 C   0  0  0  0  0  0  0  0  0
    1.8842   -4.1991    0.0000 C   0  0  0  0  0  0  0  0  0
    1.0596   -4.1733    0.0000 C   0  0  0  0  0  0  0  0  0
    3.6760   -4.1536    0.0000 C   0  0  0  0  0  0  0  0  0
    4.4398   -3.8418    0.0000 C   0  0  0  0  0  0  0  0  0
    4.3792   -3.0190    0.0000 C   0  0  0  0  0  0  0  0  0
  1  2  1  0  0  0  0
  2  3  1  0  0  0  0
  2  4  1  0  0  0  0
  2  5  1  0  0  0  0
  5  6  4  0  0  0  0
  5 21  4  0  0  0  0
  6  7  4  0  0  0  0
  7  8  4  0  0  0  0
  7 19  4  0  0  0  0
  8  9  4  0  0  0  0
  9 10  1  0  0  0  0
  9 17  4  0  0  0  0
 10 11  1  0  0  0  0
 10 15  1  0  0  0  0
 11 12  1  0  0  0  0
 12 13  1  0  0  0  0
 13 14  1  0  0  0  0
 13 16  1  0  0  0  0
 14 15  1  0  0  0  0
 17 18  4  0  0  0  0
 17 24  4  0  0  0  0
 18 19  4  0  0  0  0
 18 22  4  0  0  0  0
 19 20  4  0  0  0  0
 20 21  4  0  0  0  0
 22 23  4  0  0  0  0
 23 24  4  0  0  0  0
M  END
>  <Name_Molregno>
CGS12066B

>  <5-HT1A>
7.36

>  <5-HT1B>
9.2

>  <5-HT1D>
8.59

>  <5-HT2A>
5.37

>  <5-HT2C>
5.6

>  <DOPAMINE D1>
5.82

>  <DOPAMINE D2>
5.76

>  <DOPAMINE D3>
6.24

$$$$
CHLORIMIPRAMINE
  Marvin  02231216192D 0   1.00000     0.00000     0

 22 24  0  0  0  0  0  0  0  0999 V2000
   -3.6433    1.4834    0.0000 Cl  0  0  0  0  0  0  0  0  0
   -3.8269    0.6791    0.0000 C   0  0  0  0  0  0  0  0  0
   -3.2221    0.1179    0.0000 C   0  0  0  0  0  0  0  0  0
   -3.4057   -0.6864    0.0000 C   0  0  0  0  0  0  0  0  0
   -2.7241   -1.1511    0.0000 N   0  0  0  0  0  0  0  0  0
   -2.6624   -1.9738    0.0000 C   0  0  0  0  0  0  0  0  0
   -3.2672   -2.5350    0.0000 C   0  0  0  0  0  0  0  0  0
   -4.0830   -2.4120    0.0000 C   0  0  0  0  0  0  0  0  0
   -4.4955   -1.6975    0.0000 C   0  0  0  0  0  0  0  0  0
   -4.1941   -0.9296    0.0000 C   0  0  0  0  0  0  0  0  0
   -4.7988   -0.3684    0.0000 C   0  0  0  0  0  0  0  0  0
   -4.6153    0.4359    0.0000 C   0  0  0  0  0  0  0  0  0
   -3.0836   -3.3393    0.0000 C   0  0  0  0  0  0  0  0  0
   -2.2953   -3.5825    0.0000 C   0  0  0  0  0  0  0  0  0
   -1.6905   -3.0213    0.0000 C   0  0  0  0  0  0  0  0  0
   -1.8741   -2.2170    0.0000 C   0  0  0  0  0  0  0  0  0
   -2.0096   -0.7386    0.0000 C   0  0  0  0  0  0  0  0  0
   -1.2951   -1.1511    0.0000 C   0  0  0  0  0  0  0  0  0
   -0.5807   -0.7386    0.0000 C   0  0  0  0  0  0  0  0  0
    0.1338   -1.1511    0.0000 N   0  0  0  0  0  0  0  0  0
    0.8483   -0.7386    0.0000 C   0  0  0  0  0  0  0  0  0
    0.1338   -1.9761    0.0000 C   0  0  0  0  0  0  0  0  0
  1  2  1  0  0  0  0
  2  3  4  0  0  0  0
  2 12  4  0  0  0  0
  3  4  4  0  0  0  0
  4  5  1  0  0  0  0
  4 10  4  0  0  0  0
  5  6  1  0  0  0  0
  5 17  1  0  0  0  0
  6  7  4  0  0  0  0
  6 16  4  0  0  0  0
  7  8  1  0  0  0  0
  7 13  4  0  0  0  0
  8  9  1  0  0  0  0
  9 10  1  0  0  0  0
 10 11  4  0  0  0  0
 11 12  4  0  0  0  0
 13 14  4  0  0  0  0
 14 15  4  0  0  0  0
 15 16  4  0  0  0  0
 17 18  1  0  0  0  0
 18 19  1  0  0  0  0
 19 20  1  0  0  0  0
 20 21  1  0  0  0  0
 20 22  1  0  0  0  0
M  END
>  <Name_Molregno>
CHLORIMIPRAMINE

>  <5-HT1A>
5

>  <5-HT1B>
5

>  <5-HT1D>
5

>  <5-HT2A>
7.45

>  <5-HT2C>
7.19

>  <Alpha-1A>
8.49

>  <Alpha-2A>
6.28

>  <DOPAMINE D1>
6.66

>  <DOPAMINE D2>
6.95

>  <DOPAMINE D3>
7.41

>  <Dopamine transporter>
5.61

>  <Norepinephrine transporter>
7.37

>  <Serotonin transporter>
9.81

$$$$
chlorproethazine
  Marvin  02231216192D 0   1.00000     0.00000     0

 23 25  0  0  0  0  0  0  0  0999 V2000
   -5.7566   -2.6620    0.0000 Cl  0  0  0  0  0  0  0  0  0
   -5.3441   -1.9475    0.0000 C   0  0  0  0  0  0  0  0  0
   -4.5191   -1.9475    0.0000 C   0  0  0  0  0  0  0  0  0
   -4.1066   -1.2331    0.0000 C   0  0  0  0  0  0  0  0  0
   -3.2816   -1.2331    0.0000 N   0  0  0  0  0  0  0  0  0
   -2.8691   -0.5186    0.0000 C   0  0  0  0  0  0  0  0  0
   -3.2816    0.1959    0.0000 C   0  0  0  0  0  0  0  0  0
   -4.1066    0.1959    0.0000 S   0  0  0  0  0  0  0  0  0
   -4.5191   -0.5186    0.0000 C   0  0  0  0  0  0  0  0  0
   -5.3441   -0.5186    0.0000 C   0  0  0  0  0  0  0  0  0
   -5.7566   -1.2331    0.0000 C   0  0  0  0  0  0  0  0  0
   -2.8691    0.9103    0.0000 C   0  0  0  0  0  0  0  0  0
   -2.0441    0.9103    0.0000 C   0  0  0  0  0  0  0  0  0
   -1.6316    0.1959    0.0000 C   0  0  0  0  0  0  0  0  0
   -2.0441   -0.5186    0.0000 C   0  0  0  0  0  0  0  0  0
   -2.8691   -1.9475    0.0000 C   0  0  0  0  0  0  0  0  0
   -2.0441   -1.9475    0.0000 C   0  0  0  0  0  0  0  0  0
   -1.6316   -2.6620    0.0000 C   0  0  0  0  0  0  0  0  0
   -0.8066   -2.6620    0.0000 N   0  0  0  0  0  0  0  0  0
   -0.3941   -3.3765    0.0000 C   0  0  0  0  0  0  0  0  0
    0.4309   -3.3765    0.0000 C   0  0  0  0  0  0  0  0  0
   -0.3941   -1.9475    0.0000 C   0  0  0  0  0  0  0  0  0
    0.4309   -1.9475    0.0000 C   0  0  0  0  0  0  0  0  0
  1  2  1  0  0  0  0
  2  3  4  0  0  0  0
  2 11  4  0  0  0  0
  3  4  4  0  0  0  0
  4  5  1  0  0  0  0
  4  9  4  0  0  0  0
  5  6  1  0  0  0  0
  5 16  1  0  0  0  0
  6  7  4  0  0  0  0
  6 15  4  0  0  0  0
  7  8  1  0  0  0  0
  7 12  4  0  0  0  0
  8  9  1  0  0  0  0
  9 10  4  0  0  0  0
 10 11  4  0  0  0  0
 12 13  4  0  0  0  0
 13 14  4  0  0  0  0
 14 15  4  0  0  0  0
 16 17  1  0  0  0  0
 17 18  1  0  0  0  0
 18 19  1  0  0  0  0
 19 20  1  0  0  0  0
 19 22  1  0  0  0  0
 20 21  1  0  0  0  0
 22 23  1  0  0  0  0
M  END
>  <Name_Molregno>
chlorproethazine

>  <DOPAMINE D2>
7.98

>  <DOPAMINE D3>
7.98

>  <DOPAMINE D4>
7.64

$$$$
CHLORPROMAZINE
  Marvin  02231216192D 0   1.00000     0.00000     0

 21 23  0  0  0  0  0  0  0  0999 V2000
   -1.3730   -3.5598    0.0000 Cl  0  0  0  0  0  0  0  0  0
   -2.0875   -3.1473    0.0000 C   0  0  0  0  0  0  0  0  0
   -2.0875   -2.3223    0.0000 C   0  0  0  0  0  0  0  0  0
   -2.8019   -1.9098    0.0000 C   0  0  0  0  0  0  0  0  0
   -2.8019   -1.0848    0.0000 N   0  0  0  0  0  0  0  0  0
   -3.5164   -0.6723    0.0000 C   0  0  0  0  0  0  0  0  0
   -4.2309   -1.0848    0.0000 C   0  0  0  0  0  0  0  0  0
   -4.2309   -1.9098    0.0000 S   0  0  0  0  0  0  0  0  0
   -3.5164   -2.3223    0.0000 C   0  0  0  0  0  0  0  0  0
   -3.5164   -3.1473    0.0000 C   0  0  0  0  0  0  0  0  0
   -2.8019   -3.5598    0.0000 C   0  0  0  0  0  0  0  0  0
   -4.9453   -0.6723    0.0000 C   0  0  0  0  0  0  0  0  0
   -4.9453    0.1527    0.0000 C   0  0  0  0  0  0  0  0  0
   -4.2309    0.5652    0.0000 C   0  0  0  0  0  0  0  0  0
   -3.5164    0.1527    0.0000 C   0  0  0  0  0  0  0  0  0
   -2.0875   -0.6723    0.0000 C   0  0  0  0  0  0  0  0  0
   -1.3730   -1.0848    0.0000 C   0  0  0  0  0  0  0  0  0
   -0.6585   -0.6723    0.0000 C   0  0  0  0  0  0  0  0  0
    0.0560   -1.0848    0.0000 N   0  0  0  0  0  0  0  0  0
    0.7704   -0.6723    0.0000 C   0  0  0  0  0  0  0  0  0
    0.0560   -1.9098    0.0000 C   0  0  0  0  0  0  0  0  0
  1  2  1  0  0  0  0
  2  3  4  0  0  0  0
  2 11  4  0  0  0  0
  3  4  4  0  0  0  0
  4  5  1  0  0  0  0
  4  9  4  0  0  0  0
  5  6  1  0  0  0  0
  5 16  1  0  0  0  0
  6  7  4  0  0  0  0
  6 15  4  0  0  0  0
  7  8  1  0  0  0  0
  7 12  4  0  0  0  0
  8  9  1  0  0  0  0
  9 10  4  0  0  0  0
 10 11  4  0  0  0  0
 12 13  4  0  0  0  0
 13 14  4  0  0  0  0
 14 15  4  0  0  0  0
 16 17  1  0  0  0  0
 17 18  1  0  0  0  0
 18 19  1  0  0  0  0
 19 20  1  0  0  0  0
 19 21  1  0  0  0  0
M  END
>  <Name_Molregno>
CHLORPROMAZINE

>  <5-HT1A>
5.98

>  <5-HT1B>
5.83

>  <5-HT1D>
6.34

>  <5-HT1E>
6.46

>  <5-HT2A>
8.36

>  <5-HT2C>
7.74

>  <5-HT3>
6.01

>  <5-HT5>
6.93

>  <5-HT6>
7.59

>  <5-HT7>
7.54

>  <Alpha-1A>
9.55

>  <Alpha-1B>
9.09

>  <Alpha-2A>
6.71

>  <Alpha-2B>
7.81

>  <Alpha-2C>
7.36

>  <Beta-1>
5

>  <Beta-2>
5

>  <DOPAMINE D1>
7.1

>  <DOPAMINE D2>
8.51

>  <DOPAMINE D3>
8.58

>  <DOPAMINE D4>
8.03

>  <DOPAMINE D5>
6.82

>  <Dopamine transporter>
5

>  <HISTAMINE H1>
8.47

>  <HISTAMINE H2>
6.76

>  <HISTAMINE H3>
6

>  <HISTAMINE H4>
6.3

>  <Muscarinic acetylcholine receptor M1>
7.36

>  <Muscarinic acetylcholine receptor M2>
6.67

>  <Muscarinic acetylcholine receptor M3>
7.25

>  <Muscarinic acetylcholine receptor M4>
7.11

>  <Muscarinic acetylcholine receptor M5>
7.5

>  <Norepinephrine transporter>
5.61

>  <Serotonin transporter>
6.54

$$$$
CHLORPROTHIXENE
  Marvin  02231216192D 0   1.00000     0.00000     0

 21 23  0  0  0  0  0  0  0  0999 V2000
    5.5918   -1.4384    0.0000 Cl  0  0  0  0  0  0  0  0  0
    4.8773   -1.0259    0.0000 C   0  0  0  0  0  0  0  0  0
    4.1628   -1.4384    0.0000 C   0  0  0  0  0  0  0  0  0
    3.4484   -1.0259    0.0000 C   0  0  0  0  0  0  0  0  0
    3.4484   -0.2009    0.0000 C   0  0  0  0  0  0  0  0  0
    2.7339    0.2116    0.0000 S   0  0  0  0  0  0  0  0  0
    2.0194   -0.2009    0.0000 C   0  0  0  0  0  0  0  0  0
    2.0194   -1.0259    0.0000 C   0  0  0  0  0  0  0  0  0
    1.3049   -1.4384    0.0000 C   0  0  0  0  0  0  0  0  0
    0.5905   -1.0259    0.0000 C   0  0  0  0  0  0  0  0  0
    0.5905   -0.2009    0.0000 C   0  0  0  0  0  0  0  0  0
    1.3049    0.2116    0.0000 C   0  0  0  0  0  0  0  0  0
    2.7339   -1.4384    0.0000 C   0  0  0  0  0  0  0  0  0
    2.7339   -2.2634    0.0000 C   0  0  0  0  0  0  0  0  0
    2.0194   -2.6759    0.0000 C   0  0  0  0  0  0  0  0  0
    2.0194   -3.5009    0.0000 C   0  0  0  0  0  0  0  0  0
    1.3049   -3.9134    0.0000 N   0  0  0  0  0  0  0  0  0
    1.3049   -4.7384    0.0000 C   0  0  0  0  0  0  0  0  0
    0.5905   -3.5009    0.0000 C   0  0  0  0  0  0  0  0  0
    4.1628    0.2116    0.0000 C   0  0  0  0  0  0  0  0  0
    4.8773   -0.2009    0.0000 C   0  0  0  0  0  0  0  0  0
  1  2  1  0  0  0  0
  2  3  4  0  0  0  0
  2 21  4  0  0  0  0
  3  4  4  0  0  0  0
  4  5  4  0  0  0  0
  4 13  1  0  0  0  0
  5  6  1  0  0  0  0
  5 20  4  0  0  0  0
  6  7  1  0  0  0  0
  7  8  4  0  0  0  0
  7 12  4  0  0  0  0
  8  9  4  0  0  0  0
  8 13  1  0  0  0  0
  9 10  4  0  0  0  0
 10 11  4  0  0  0  0
 11 12  4  0  0  0  0
 13 14  2  0  0  0  0
 14 15  1  0  0  0  0
 15 16  1  0  0  0  0
 16 17  1  0  0  0  0
 17 18  1  0  0  0  0
 17 19  1  0  0  0  0
 20 21  4  0  0  0  0
M  END
>  <Name_Molregno>
CHLORPROTHIXENE

>  <5-HT2A>
9.37

>  <DOPAMINE D1>
7.74

>  <DOPAMINE D2>
8.37

>  <DOPAMINE D3>
8.34

>  <DOPAMINE D4>
9.19

>  <DOPAMINE D5>
8.05

>  <HISTAMINE H1>
8.43

>  <HISTAMINE H3>
6

>  <Muscarinic acetylcholine receptor M1>
7.96

>  <Muscarinic acetylcholine receptor M2>
7.55

>  <Muscarinic acetylcholine receptor M3>
7.66

>  <Muscarinic acetylcholine receptor M4>
7.74

>  <Muscarinic acetylcholine receptor M5>
7.6

$$$$
cis-Thiothixene
  Marvin  02231216192D 0   1.00000     0.00000     0

 30 33  0  0  0  0  0  0  0  0999 V2000
    1.0940   -3.6931    0.0000 S   0  0  0  0  0  0  0  0  0
    1.8085   -3.2806    0.0000 C   0  0  0  0  0  0  0  0  0
    1.8085   -2.4556    0.0000 C   0  0  0  0  0  0  0  0  0
    2.5230   -2.0431    0.0000 C   0  0  0  0  0  0  0  0  0
    3.2375   -2.4556    0.0000 C   0  0  0  0  0  0  0  0  0
    3.9519   -2.0431    0.0000 S   0  0  0  0  0  0  0  0  0
    3.5394   -1.3286    0.0000 O   0  0  0  0  0  0  0  0  0
    4.3644   -2.7575    0.0000 O   0  0  0  0  0  0  0  0  0
    4.6664   -1.6306    0.0000 N   0  0  0  0  0  0  0  0  0
    5.3809   -2.0431    0.0000 C   0  0  0  0  0  0  0  0  0
    4.6664   -0.8056    0.0000 C   0  0  0  0  0  0  0  0  0
    3.2375   -3.2806    0.0000 C   0  0  0  0  0  0  0  0  0
    2.5230   -3.6931    0.0000 C   0  0  0  0  0  0  0  0  0
    1.0940   -2.0431    0.0000 C   0  0  0  0  0  0  0  0  0
    0.3796   -2.4556    0.0000 C   0  0  0  0  0  0  0  0  0
    0.3796   -3.2806    0.0000 C   0  0  0  0  0  0  0  0  0
   -0.3349   -3.6931    0.0000 C   0  0  0  0  0  0  0  0  0
   -1.0494   -3.2806    0.0000 C   0  0  0  0  0  0  0  0  0
   -1.0494   -2.4556    0.0000 C   0  0  0  0  0  0  0  0  0
   -0.3349   -2.0431    0.0000 C   0  0  0  0  0  0  0  0  0
    1.0940   -1.2181    0.0000 C   0  0  0  0  0  0  0  0  0
    0.3796   -0.8056    0.0000 C   0  0  0  0  0  0  0  0  0
   -0.3349   -1.2181    0.0000 C   0  0  0  0  0  0  0  0  0
   -1.0494   -0.8056    0.0000 N   0  0  0  0  0  0  0  0  0
   -1.7638   -1.2181    0.0000 C   0  0  0  0  0  0  0  0  0
   -2.4783   -0.8056    0.0000 C   0  0  0  0  0  0  0  0  0
   -2.4783    0.0194    0.0000 N   0  0  0  0  0  0  0  0  0
   -1.7638    0.4319    0.0000 C   0  0  0  0  0  0  0  0  0
   -1.0494    0.0194    0.0000 C   0  0  0  0  0  0  0  0  0
   -3.1928    0.4319    0.0000 C   0  0  0  0  0  0  0  0  0
  1  2  1  0  0  0  0
  1 16  1  0  0  0  0
  2  3  4  0  0  0  0
  2 13  4  0  0  0  0
  3  4  4  0  0  0  0
  3 14  1  0  0  0  0
  4  5  4  0  0  0  0
  5  6  1  0  0  0  0
  5 12  4  0  0  0  0
  6  7  2  0  0  0  0
  6  8  2  0  0  0  0
  6  9  1  0  0  0  0
  9 10  1  0  0  0  0
  9 11  1  0  0  0  0
 12 13  4  0  0  0  0
 14 15  1  0  0  0  0
 14 21  2  0  0  0  0
 15 16  4  0  0  0  0
 15 20  4  0  0  0  0
 16 17  4  0  0  0  0
 17 18  4  0  0  0  0
 18 19  4  0  0  0  0
 19 20  4  0  0  0  0
 21 22  1  0  0  0  0
 22 23  1  0  0  0  0
 23 24  1  0  0  0  0
 24 25  1  0  0  0  0
 24 29  1  0  0  0  0
 25 26  1  0  0  0  0
 26 27  1  0  0  0  0
 27 28  1  0  0  0  0
 27 30  1  0  0  0  0
 28 29  1  0  0  0  0
M  END
>  <Name_Molregno>
cis-Thiothixene

>  <5-HT1A>
6.39

>  <5-HT1B>
6.82

>  <5-HT1D>
6.18

>  <5-HT1E>
5

>  <5-HT2A>
7.42

>  <5-HT2C>
5.87

>  <5-HT3>
5.73

>  <5-HT5>
6.44

>  <5-HT6>
6.62

>  <5-HT7>
7.82

>  <Alpha-1A>
7.94

>  <Alpha-1B>
7.46

>  <Alpha-2A>
7.1

>  <Alpha-2B>
7.3

>  <Alpha-2C>
7.28

>  <Beta-1>
5

>  <Beta-2>
5

>  <DOPAMINE D1>
7.29

>  <DOPAMINE D2>
9.56

>  <DOPAMINE D3>
9.41

>  <DOPAMINE D4>
6.86

>  <DOPAMINE D5>
6.58

>  <Dopamine transporter>
5

>  <HISTAMINE H1>
8.23

>  <HISTAMINE H2>
6.39

>  <HISTAMINE H4>
5

>  <Muscarinic acetylcholine receptor M1>
5.3

>  <Muscarinic acetylcholine receptor M2>
5.34

>  <Muscarinic acetylcholine receptor M3>
5.27

>  <Muscarinic acetylcholine receptor M4>
5.4

>  <Muscarinic acetylcholine receptor M5>
5.32

>  <Norepinephrine transporter>
5

>  <Serotonin transporter>
5.41

$$$$
CITALOPRAM
  Marvin  02231216192D 0   1.00000     0.00000     0

 24 26  0  0  1  0  0  0  0  0999 V2000
   -2.6333   -5.3696    0.0000 F   0  0  0  0  0  0  0  0  0
   -2.2977   -4.6160    0.0000 C   0  0  0  0  0  0  0  0  0
   -2.7827   -3.9485    0.0000 C   0  0  0  0  0  0  0  0  0
   -2.4471   -3.1948    0.0000 C   0  0  0  0  0  0  0  0  0
   -1.6266   -3.1086    0.0000 C   0  0  0  0  0  0  0  0  0
   -1.1417   -3.7760    0.0000 C   0  0  0  0  0  0  0  0  0
   -1.4772   -4.5297    0.0000 C   0  0  0  0  0  0  0  0  0
   -1.2911   -2.3549    0.0000 C   0  0  0  0  0  0  0  0  0
   -0.8061   -1.6875    0.0000 O   0  0  0  0  0  0  0  0  0
   -1.2911   -1.0201    0.0000 C   0  0  0  0  0  0  0  0  0
   -2.0757   -1.2750    0.0000 C   0  0  0  0  0  0  0  0  0
   -2.0757   -2.1000    0.0000 C   0  0  0  0  0  0  0  0  0
   -2.7901   -2.5125    0.0000 C   0  0  0  0  0  0  0  0  0
   -3.5046   -2.1000    0.0000 C   0  0  0  0  0  0  0  0  0
   -3.5046   -1.2750    0.0000 C   0  0  0  0  0  0  0  0  0
   -2.7901   -0.8625    0.0000 C   0  0  0  0  0  0  0  0  0
   -4.2191   -0.8625    0.0000 C   0  0  0  0  0  0  0  0  0
   -4.9336   -0.4500    0.0000 N   0  0  0  0  0  0  0  0  0
   -0.5766   -2.7674    0.0000 C   0  0  0  0  0  0  0  0  0
    0.1379   -2.3549    0.0000 C   0  0  0  0  0  0  0  0  0
    0.8524   -2.7674    0.0000 C   0  0  0  0  0  0  0  0  0
    1.5668   -2.3549    0.0000 N   0  0  0  0  0  0  0  0  0
    1.5668   -1.5299    0.0000 C   0  0  0  0  0  0  0  0  0
    2.2813   -2.7674    0.0000 C   0  0  0  0  0  0  0  0  0
  1  2  1  0  0  0  0
  2  3  4  0  0  0  0
  2  7  4  0  0  0  0
  3  4  4  0  0  0  0
  4  5  4  0  0  0  0
  5  6  4  0  0  0  0
  5  8  1  0  0  0  0
  6  7  4  0  0  0  0
  8  9  1  0  0  0  0
  8 12  1  0  0  0  0
  8 19  1  0  0  0  0
  9 10  1  0  0  0  0
 10 11  1  0  0  0  0
 11 12  4  0  0  0  0
 11 16  4  0  0  0  0
 12 13  4  0  0  0  0
 13 14  4  0  0  0  0
 14 15  4  0  0  0  0
 15 16  4  0  0  0  0
 15 17  1  0  0  0  0
 17 18  3  0  0  0  0
 19 20  1  0  0  0  0
 20 21  1  0  0  0  0
 21 22  1  0  0  0  0
 22 23  1  0  0  0  0
 22 24  1  0  0  0  0
M  END
>  <Name_Molregno>
CITALOPRAM

>  <5-HT1A>
5

>  <5-HT1B>
5

>  <5-HT1D>
5

>  <5-HT2A>
5.1

>  <5-HT2C>
6.21

>  <Alpha-1A>
5

>  <Alpha-2A>
5

>  <DOPAMINE D2>
5

>  <DOPAMINE D3>
5

>  <Dopamine transporter>
5

>  <Muscarinic acetylcholine receptor M1>
5.88

>  <Norepinephrine transporter>
5.17

>  <Serotonin transporter>
8.45

$$$$
CLOZAPINE
  Marvin  02231216192D 0   1.00000     0.00000     0

 23 26  0  0  0  0  0  0  0  0999 V2000
   -0.5622   -2.2603    0.0000 Cl  0  0  0  0  0  0  0  0  0
    0.2262   -2.5035    0.0000 C   0  0  0  0  0  0  0  0  0
    0.8309   -1.9424    0.0000 C   0  0  0  0  0  0  0  0  0
    1.6193   -2.1855    0.0000 C   0  0  0  0  0  0  0  0  0
    2.1337   -1.5405    0.0000 N   0  0  0  0  0  0  0  0  0
    2.9587   -1.5405    0.0000 C   0  0  0  0  0  0  0  0  0
    3.3166   -0.7972    0.0000 N   0  0  0  0  0  0  0  0  0
    2.8519   -0.1156    0.0000 C   0  0  0  0  0  0  0  0  0
    3.2098    0.6277    0.0000 C   0  0  0  0  0  0  0  0  0
    4.0325    0.6894    0.0000 N   0  0  0  0  0  0  0  0  0
    4.4973    0.0077    0.0000 C   0  0  0  0  0  0  0  0  0
    4.1393   -0.7356    0.0000 C   0  0  0  0  0  0  0  0  0
    4.3905    1.4327    0.0000 C   0  0  0  0  0  0  0  0  0
    3.4730   -2.1855    0.0000 C   0  0  0  0  0  0  0  0  0
    3.2895   -2.9898    0.0000 C   0  0  0  0  0  0  0  0  0
    2.5462   -3.3478    0.0000 N   0  0  0  0  0  0  0  0  0
    1.8029   -2.9898    0.0000 C   0  0  0  0  0  0  0  0  0
    1.1981   -3.5510    0.0000 C   0  0  0  0  0  0  0  0  0
    0.4098   -3.3078    0.0000 C   0  0  0  0  0  0  0  0  0
    3.8942   -3.5510    0.0000 C   0  0  0  0  0  0  0  0  0
    4.6826   -3.3078    0.0000 C   0  0  0  0  0  0  0  0  0
    4.8662   -2.5035    0.0000 C   0  0  0  0  0  0  0  0  0
    4.2614   -1.9424    0.0000 C   0  0  0  0  0  0  0  0  0
  1  2  1  0  0  0  0
  2  3  4  0  0  0  0
  2 19  4  0  0  0  0
  3  4  4  0  0  0  0
  4  5  1  0  0  0  0
  4 17  4  0  0  0  0
  5  6  1  0  0  0  0
  6  7  1  0  0  0  0
  6 14  2  0  0  0  0
  7  8  1  0  0  0  0
  7 12  1  0  0  0  0
  8  9  1  0  0  0  0
  9 10  1  0  0  0  0
 10 11  1  0  0  0  0
 10 13  1  0  0  0  0
 11 12  1  0  0  0  0
 14 15  1  0  0  0  0
 14 23  1  0  0  0  0
 15 16  2  0  0  0  0
 15 20  1  0  0  0  0
 16 17  1  0  0  0  0
 17 18  4  0  0  0  0
 18 19  4  0  0  0  0
 20 21  2  0  0  0  0
 21 22  1  0  0  0  0
 22 23  2  0  0  0  0
M  END
>  <Name_Molregno>
CLOZAPINE

>  <5-HT1A>
6.88

>  <5-HT1B>
6.33

>  <5-HT1D>
6.27

>  <5-HT1E>
6.19

>  <5-HT2A>
8.22

>  <5-HT2C>
8

>  <5-HT3>
6.62

>  <5-HT5>
5.41

>  <5-HT6>
7.9

>  <5-HT7>
8.05

>  <Alpha-1A>
8.8

>  <Alpha-1B>
8.15

>  <Alpha-2A>
7.15

>  <Alpha-2B>
7.61

>  <Alpha-2C>
7.88

>  <Beta-1>
5.15

>  <Beta-2>
5.39

>  <DOPAMINE D1>
6.69

>  <DOPAMINE D2>
6.9

>  <DOPAMINE D3>
6.62

>  <DOPAMINE D4>
7.62

>  <DOPAMINE D5>
6.62

>  <Dopamine transporter>
5

>  <HISTAMINE H1>
8.81

>  <HISTAMINE H2>
6.82

>  <HISTAMINE H3>
5.25

>  <HISTAMINE H4>
6.15

>  <Muscarinic acetylcholine receptor M1>
8.26

>  <Muscarinic acetylcholine receptor M2>
7.17

>  <Muscarinic acetylcholine receptor M3>
7.59

>  <Muscarinic acetylcholine receptor M4>
7.85

>  <Muscarinic acetylcholine receptor M5>
7.79

>  <Norepinephrine transporter>
5.5

>  <Serotonin transporter>
5.73

$$$$
CLOZAPINE-2
  Marvin  02231216192D 0   1.00000     0.00000     0

 23 26  0  0  0  0  0  0  0  0999 V2000
   -0.5622   -2.2603    0.0000 Cl  0  0  0  0  0  0  0  0  0
    0.2262   -2.5035    0.0000 C   0  0  0  0  0  0  0  0  0
    0.8309   -1.9424    0.0000 C   0  0  0  0  0  0  0  0  0
    1.6193   -2.1855    0.0000 C   0  0  0  0  0  0  0  0  0
    2.1337   -1.5405    0.0000 N   0  0  0  0  0  0  0  0  0
    2.9587   -1.5405    0.0000 C   0  0  0  0  0  0  0  0  0
    3.3166   -0.7972    0.0000 N   0  0  0  0  0  0  0  0  0
    2.8519   -0.1156    0.0000 C   0  0  0  0  0  0  0  0  0
    3.2098    0.6277    0.0000 C   0  0  0  0  0  0  0  0  0
    4.0325    0.6894    0.0000 N   0  0  0  0  0  0  0  0  0
    4.4973    0.0077    0.0000 C   0  0  0  0  0  0  0  0  0
    4.1393   -0.7356    0.0000 C   0  0  0  0  0  0  0  0  0
    4.3905    1.4327    0.0000 C   0  0  0  0  0  0  0  0  0
    3.4730   -2.1855    0.0000 C   0  0  0  0  0  0  0  0  0
    3.2895   -2.9898    0.0000 C   0  0  0  0  0  0  0  0  0
    2.5462   -3.3478    0.0000 N   0  0  0  0  0  0  0  0  0
    1.8029   -2.9898    0.0000 C   0  0  0  0  0  0  0  0  0
    1.1981   -3.5510    0.0000 C   0  0  0  0  0  0  0  0  0
    0.4098   -3.3078    0.0000 C   0  0  0  0  0  0  0  0  0
    3.8942   -3.5510    0.0000 C   0  0  0  0  0  0  0  0  0
    4.6826   -3.3078    0.0000 C   0  0  0  0  0  0  0  0  0
    4.8662   -2.5035    0.0000 C   0  0  0  0  0  0  0  0  0
    4.2614   -1.9424    0.0000 C   0  0  0  0  0  0  0  0  0
  1  2  1  0  0  0  0
  2  3  4  0  0  0  0
  2 19  4  0  0  0  0
  3  4  4  0  0  0  0
  4  5  1  0  0  0  0
  4 17  4  0  0  0  0
  5  6  2  0  0  0  0
  6  7  1  0  0  0  0
  6 14  1  0  0  0  0
  7  8  1  0  0  0  0
  7 12  1  0  0  0  0
  8  9  1  0  0  0  0
  9 10  1  0  0  0  0
 10 11  1  0  0  0  0
 10 13  1  0  0  0  0
 11 12  1  0  0  0  0
 14 15  4  0  0  0  0
 14 23  4  0  0  0  0
 15 16  1  0  0  0  0
 15 20  4  0  0  0  0
 16 17  1  0  0  0  0
 17 18  4  0  0  0  0
 18 19  4  0  0  0  0
 20 21  4  0  0  0  0
 21 22  4  0  0  0  0
 22 23  4  0  0  0  0
M  END
>  <Name_Molregno>
CLOZAPINE-2

>  <5-HT1A>
6.92

>  <5-HT2A>
8.15

>  <5-HT2C>
7.92

>  <5-HT3>
6.4

>  <5-HT5>
6

>  <5-HT6>
7.85

>  <5-HT7>
7.47

>  <Alpha-2A>
7.62

>  <Alpha-2C>
8.54

>  <DOPAMINE D1>
7

>  <DOPAMINE D2>
7.03

>  <DOPAMINE D3>
6.48

>  <DOPAMINE D4>
7.6

>  <DOPAMINE D5>
6.7

>  <HISTAMINE H1>
8.77

>  <HISTAMINE H3>
6.1

>  <HISTAMINE H4>
6.75

>  <Muscarinic acetylcholine receptor M1>
8.47

>  <Muscarinic acetylcholine receptor M4>
7.9

>  <Serotonin transporter>
5.41

$$$$
Cyamemazine
  Marvin  02231216192D 0   1.00000     0.00000     0

 23 25  0  0  1  0  0  0  0  0999 V2000
   -0.6214   -0.6088    0.0000 S   0  0  0  0  0  0  0  0  0
   -0.6214   -1.4338    0.0000 C   0  0  0  0  0  0  0  0  0
    0.0931   -1.8463    0.0000 C   0  0  0  0  0  0  0  0  0
    0.8076   -1.4338    0.0000 N   0  0  0  0  0  0  0  0  0
    0.8076   -0.6088    0.0000 C   0  0  0  0  0  0  0  0  0
    0.0931   -0.1963    0.0000 C   0  0  0  0  0  0  0  0  0
    0.0931    0.6287    0.0000 C   0  0  0  0  0  0  0  0  0
    0.8076    1.0412    0.0000 C   0  0  0  0  0  0  0  0  0
    1.5220    0.6287    0.0000 C   0  0  0  0  0  0  0  0  0
    1.5220   -0.1963    0.0000 C   0  0  0  0  0  0  0  0  0
    1.5220   -1.8463    0.0000 C   0  0  0  0  0  0  0  0  0
    2.2365   -1.4338    0.0000 C   0  0  0  0  0  0  0  0  0
    2.9510   -1.8463    0.0000 C   0  0  0  0  0  0  0  0  0
    3.6655   -1.4338    0.0000 N   0  0  0  0  0  0  0  0  0
    4.3799   -1.8463    0.0000 C   0  0  0  0  0  0  0  0  0
    3.6655   -0.6088    0.0000 C   0  0  0  0  0  0  0  0  0
    2.2365   -0.6088    0.0000 C   0  0  0  0  0  0  0  0  0
    0.0931   -2.6713    0.0000 C   0  0  0  0  0  0  0  0  0
   -0.6214   -3.0838    0.0000 C   0  0  0  0  0  0  0  0  0
   -1.3358   -2.6713    0.0000 C   0  0  0  0  0  0  0  0  0
   -1.3358   -1.8463    0.0000 C   0  0  0  0  0  0  0  0  0
   -0.6214   -3.9088    0.0000 C   0  0  0  0  0  0  0  0  0
   -0.6214   -4.7338    0.0000 N   0  0  0  0  0  0  0  0  0
  1  2  1  0  0  0  0
  1  6  1  0  0  0  0
  2  3  4  0  0  0  0
  2 21  4  0  0  0  0
  3  4  1  0  0  0  0
  3 18  4  0  0  0  0
  4  5  1  0  0  0  0
  4 11  1  0  0  0  0
  5  6  4  0  0  0  0
  5 10  4  0  0  0  0
  6  7  4  0  0  0  0
  7  8  4  0  0  0  0
  8  9  4  0  0  0  0
  9 10  4  0  0  0  0
 11 12  1  0  0  0  0
 12 13  1  0  0  0  0
 12 17  1  0  0  0  0
 13 14  1  0  0  0  0
 14 15  1  0  0  0  0
 14 16  1  0  0  0  0
 18 19  4  0  0  0  0
 19 20  4  0  0  0  0
 19 22  1  0  0  0  0
 20 21  4  0  0  0  0
 22 23  3  0  0  0  0
M  END
>  <Name_Molregno>
Cyamemazine

>  <5-HT1A>
6.29

>  <5-HT2A>
8.82

>  <5-HT2C>
7.92

>  <5-HT3>
5.53

>  <5-HT7>
7.66

>  <DOPAMINE D1>
8.42

>  <DOPAMINE D2>
8.24

>  <DOPAMINE D3>
8.6

>  <DOPAMINE D4>
8.28

>  <Muscarinic acetylcholine receptor M1>
7.89

>  <Muscarinic acetylcholine receptor M2>
7.38

>  <Muscarinic acetylcholine receptor M3>
7.49

>  <Muscarinic acetylcholine receptor M4>
7.92

>  <Muscarinic acetylcholine receptor M5>
7.46

$$$$
CYPROHEPTADINE
  Marvin  02231216192D 0   1.00000     0.00000     0

 22 25  0  0  0  0  0  0  0  0999 V2000
    2.3061   -2.3673    0.0000 N   0  0  0  0  0  0  0  0  0
    1.5917   -1.9548    0.0000 C   0  0  0  0  0  0  0  0  0
    1.5917   -1.1298    0.0000 C   0  0  0  0  0  0  0  0  0
    2.3061   -0.7173    0.0000 C   0  0  0  0  0  0  0  0  0
    3.0206   -1.1298    0.0000 C   0  0  0  0  0  0  0  0  0
    3.0206   -1.9548    0.0000 C   0  0  0  0  0  0  0  0  0
    2.3061    0.1077    0.0000 C   0  0  0  0  0  0  0  0  0
    3.0494    0.4657    0.0000 C   0  0  0  0  0  0  0  0  0
    3.2330    1.2700    0.0000 C   0  0  0  0  0  0  0  0  0
    2.7186    1.9150    0.0000 C   0  0  0  0  0  0  0  0  0
    1.8936    1.9150    0.0000 C   0  0  0  0  0  0  0  0  0
    1.3792    1.2700    0.0000 C   0  0  0  0  0  0  0  0  0
    1.5628    0.4657    0.0000 C   0  0  0  0  0  0  0  0  0
    0.9581   -0.0955    0.0000 C   0  0  0  0  0  0  0  0  0
    0.1697    0.1477    0.0000 C   0  0  0  0  0  0  0  0  0
   -0.0139    0.9520    0.0000 C   0  0  0  0  0  0  0  0  0
    0.5909    1.5132    0.0000 C   0  0  0  0  0  0  0  0  0
    4.0214    1.5132    0.0000 C   0  0  0  0  0  0  0  0  0
    4.6261    0.9520    0.0000 C   0  0  0  0  0  0  0  0  0
    4.4425    0.1477    0.0000 C   0  0  0  0  0  0  0  0  0
    3.6542   -0.0955    0.0000 C   0  0  0  0  0  0  0  0  0
    2.3061   -3.1923    0.0000 C   0  0  0  0  0  0  0  0  0
  1  2  1  0  0  0  0
  1  6  1  0  0  0  0
  1 22  1  0  0  0  0
  2  3  1  0  0  0  0
  3  4  1  0  0  0  0
  4  5  1  0  0  0  0
  4  7  2  0  0  0  0
  5  6  1  0  0  0  0
  7  8  1  0  0  0  0
  7 13  1  0  0  0  0
  8  9  4  0  0  0  0
  8 21  4  0  0  0  0
  9 10  1  0  0  0  0
  9 18  4  0  0  0  0
 10 11  2  0  0  0  0
 11 12  1  0  0  0  0
 12 13  4  0  0  0  0
 12 17  4  0  0  0  0
 13 14  4  0  0  0  0
 14 15  4  0  0  0  0
 15 16  4  0  0  0  0
 16 17  4  0  0  0  0
 18 19  4  0  0  0  0
 19 20  4  0  0  0  0
 20 21  4  0  0  0  0
M  END
>  <Name_Molregno>
CYPROHEPTADINE

>  <5-HT1A>
7.12

>  <5-HT1D>
5.89

>  <5-HT2A>
8.42

>  <5-HT2C>
8.65

>  <5-HT6>
6.85

>  <5-HT7>
6.91

>  <DOPAMINE D1>
6.93

>  <DOPAMINE D2>
6.95

>  <DOPAMINE D3>
8.1

>  <HISTAMINE H1>
10.22

>  <HISTAMINE H3>
5

>  <HISTAMINE H4>
5.85

>  <Muscarinic acetylcholine receptor M1>
7.92

>  <Muscarinic acetylcholine receptor M2>
8.15

>  <Muscarinic acetylcholine receptor M3>
7.92

>  <Muscarinic acetylcholine receptor M4>
8.1

>  <Muscarinic acetylcholine receptor M5>
7.93

$$$$
D-cystine
  Marvin  02231216192D 0   1.00000     0.00000     0

 14 13  0  0  1  0  0  0  0  0999 V2000
    0.5597    0.5534    0.0000 S   0  0  0  0  0  0  0  0  0
   -0.1548    0.1409    0.0000 S   0  0  0  0  0  0  0  0  0
   -0.8693    0.5534    0.0000 C   0  0  0  0  0  0  0  0  0
   -1.5838    0.1409    0.0000 C   0  0  0  0  0  0  0  0  0
   -1.5838   -0.6841    0.0000 N   0  0  0  0  0  0  0  0  0
   -2.2982    0.5534    0.0000 C   0  0  0  0  0  0  0  0  0
   -3.0127    0.1409    0.0000 O   0  0  0  0  0  0  0  0  0
   -2.2982    1.3784    0.0000 O   0  0  0  0  0  0  0  0  0
    1.2741    0.1409    0.0000 C   0  0  0  0  0  0  0  0  0
    1.9886    0.5534    0.0000 C   0  0  0  0  0  0  0  0  0
    1.9886    1.3784    0.0000 N   0  0  0  0  0  0  0  0  0
    2.7031    0.1409    0.0000 C   0  0  0  0  0  0  0  0  0
    3.4175    0.5534    0.0000 O   0  0  0  0  0  0  0  0  0
    2.7031   -0.6841    0.0000 O   0  0  0  0  0  0  0  0  0
  1  2  1  0  0  0  0
  1  9  1  0  0  0  0
  2  3  1  0  0  0  0
  3  4  1  0  0  0  0
  4  5  1  0  0  0  0
  4  6  1  0  0  0  0
  6  7  1  0  0  0  0
  6  8  2  0  0  0  0
  9 10  1  0  0  0  0
 10 11  1  0  0  0  0
 10 12  1  0  0  0  0
 12 13  1  0  0  0  0
 12 14  2  0  0  0  0
M  END
>  <Name_Molregno>
D-cystine

>  <5-HT1A>
5

>  <5-HT1B>
5

>  <5-HT1D>
5

>  <5-HT3>
5

>  <5-HT5>
5

>  <5-HT6>
5

>  <5-HT7>
5

>  <Alpha-1A>
5

>  <Alpha-1B>
5

>  <Alpha-2A>
5

>  <Alpha-2B>
5

>  <Alpha-2C>
5

>  <DOPAMINE D1>
5

>  <DOPAMINE D2>
5

>  <DOPAMINE D3>
5

>  <DOPAMINE D5>
5

>  <Dopamine transporter>
5

>  <HISTAMINE H1>
5

>  <HISTAMINE H2>
5

>  <HISTAMINE H4>
5

>  <Muscarinic acetylcholine receptor M1>
5

>  <Muscarinic acetylcholine receptor M2>
5

>  <Muscarinic acetylcholine receptor M3>
5

>  <Muscarinic acetylcholine receptor M4>
5

>  <Muscarinic acetylcholine receptor M5>
5

>  <Norepinephrine transporter>
5

>  <Serotonin transporter>
5

$$$$
DHE
  Marvin  02231216192D 0   1.00000     0.00000     0

 43 50  0  0  1  0  0  0  0  0999 V2000
   -2.1239   -1.0172    0.0000 O   0  0  0  0  0  0  0  0  0
   -1.3035   -1.1045    0.0000 C   0  0  0  0  0  0  0  0  0
   -1.3025   -0.2795    0.0000 N   0  0  0  0  0  0  0  0  0
   -0.5876    0.1322    0.0000 C   0  0  0  0  0  0  0  0  0
    0.1264   -0.2812    0.0000 O   0  0  0  0  0  0  0  0  0
   -0.5866    0.9572    0.0000 C   0  0  0  0  0  0  0  0  0
    0.1284    1.3688    0.0000 C   0  0  0  0  0  0  0  0  0
    0.1294    2.1938    0.0000 C   0  0  0  0  0  0  0  0  0
   -0.5846    2.6072    0.0000 C   0  0  0  0  0  0  0  0  0
   -1.2996    2.1955    0.0000 N   0  0  0  0  0  0  0  0  0
   -1.3006    1.3705    0.0000 C   0  0  0  0  0  0  0  0  0
   -2.0136    2.6089    0.0000 C   0  0  0  0  0  0  0  0  0
   -0.5831    3.4313    0.0000 C   0  0  0  0  0  0  0  0  0
    0.1294    3.8438    0.0000 C   0  0  0  0  0  0  0  0  0
    0.8419    3.4313    0.0000 C   0  0  0  0  0  0  0  0  0
    0.8419    2.6063    0.0000 C   0  0  0  0  0  0  0  0  0
    1.5597    2.1938    0.0000 C   0  0  0  0  0  0  0  0  0
    2.2722    2.6063    0.0000 C   0  0  0  0  0  0  0  0  0
    2.2722    3.4313    0.0000 C   0  0  0  0  0  0  0  0  0
    1.5597    3.8438    0.0000 C   0  0  0  0  0  0  0  0  0
    1.2544    4.7010    0.0000 N   0  0  0  0  0  0  0  0  0
    0.4294    4.7010    0.0000 C   0  0  0  0  0  0  0  0  0
   -0.4830   -1.0192    0.0000 C   0  0  0  0  0  0  0  0  0
   -1.1330   -1.9116    0.0000 C   0  0  0  0  0  0  0  0  0
   -0.3797   -2.2481    0.0000 O   0  0  0  0  0  0  0  0  0
   -1.8479   -2.3233    0.0000 N   0  0  0  0  0  0  0  0  0
   -2.0204   -3.1301    0.0000 C   0  0  0  0  0  0  0  0  0
   -1.4080   -3.6828    0.0000 C   0  0  0  0  0  0  0  0  0
   -1.5805   -4.4896    0.0000 C   0  0  0  0  0  0  0  0  0
   -0.9681   -5.0424    0.0000 C   0  0  0  0  0  0  0  0  0
   -1.1406   -5.8491    0.0000 C   0  0  0  0  0  0  0  0  0
   -1.9255   -6.1031    0.0000 C   0  0  0  0  0  0  0  0  0
   -2.5379   -5.5504    0.0000 C   0  0  0  0  0  0  0  0  0
   -2.3654   -4.7436    0.0000 C   0  0  0  0  0  0  0  0  0
   -2.8054   -3.3841    0.0000 C   0  0  0  0  0  0  0  0  0
   -2.9779   -4.1908    0.0000 O   0  0  0  0  0  0  0  0  0
   -3.4178   -2.8313    0.0000 N   0  0  0  0  0  0  0  0  0
   -3.2453   -2.0245    0.0000 C   0  0  0  0  0  0  0  0  0
   -3.9593   -1.6112    0.0000 C   0  0  0  0  0  0  0  0  0
   -4.5730   -2.1625    0.0000 C   0  0  0  0  0  0  0  0  0
   -4.2384   -2.9165    0.0000 C   0  0  0  0  0  0  0  0  0
   -2.4604   -1.7705    0.0000 C   0  0  0  0  0  0  0  0  0
   -3.0117   -1.1568    0.0000 O   0  0  0  0  0  0  0  0  0
  1  2  1  0  0  0  0
  1 42  1  0  0  0  0
  2  3  1  0  0  0  0
  2 23  1  0  0  0  0
  2 24  1  0  0  0  0
  3  4  1  0  0  0  0
  4  5  2  0  0  0  0
  4  6  1  0  0  0  0
  6  7  1  0  0  0  0
  6 11  1  0  0  0  0
  7  8  1  0  0  0  0
  8  9  1  0  0  0  0
  8 16  1  0  0  0  0
  9 10  1  0  0  0  0
  9 13  1  0  0  0  0
 10 11  1  0  0  0  0
 10 12  1  0  0  0  0
 13 14  1  0  0  0  0
 14 15  4  0  0  0  0
 14 22  4  0  0  0  0
 15 16  4  0  0  0  0
 15 20  4  0  0  0  0
 16 17  4  0  0  0  0
 17 18  4  0  0  0  0
 18 19  4  0  0  0  0
 19 20  4  0  0  0  0
 20 21  4  0  0  0  0
 21 22  4  0  0  0  0
 24 25  2  0  0  0  0
 24 26  1  0  0  0  0
 26 27  1  0  0  0  0
 26 42  1  0  0  0  0
 27 28  1  0  0  0  0
 27 35  1  0  0  0  0
 28 29  1  0  0  0  0
 29 30  4  0  0  0  0
 29 34  4  0  0  0  0
 30 31  4  0  0  0  0
 31 32  4  0  0  0  0
 32 33  4  0  0  0  0
 33 34  4  0  0  0  0
 35 36  2  0  0  0  0
 35 37  1  0  0  0  0
 37 38  1  0  0  0  0
 37 41  1  0  0  0  0
 38 39  1  0  0  0  0
 38 42  1  0  0  0  0
 39 40  1  0  0  0  0
 40 41  1  0  0  0  0
 42 43  1  0  0  0  0
M  STY  1   1 DAT
M  SAL   1  1  21
M  SDT   1 MRV_IMPLICIT_H                                        
M  SDD   1     0.0000    0.0000    DR    ALL  0       0  
M  SED   1 IMPL_H1
M  END
>  <Name_Molregno>
DHE

>  <5-HT1A>
8.82

>  <5-HT1B>
9.62

>  <5-HT1D>
9.89

>  <5-HT6>
8.27

>  <5-HT7>
8.04

>  <DOPAMINE D1>
5.56

>  <DOPAMINE D2>
8.3

>  <DOPAMINE D3>
7.8

$$$$
DL-homocysteic-acid
  Marvin  02231216192D 0   1.00000     0.00000     0

 11 10  0  0  1  0  0  0  0  0999 V2000
   -2.6928   -0.0066    0.0000 S   0  0  0  0  0  0  0  0  0
   -3.4073   -0.4191    0.0000 O   0  0  0  0  0  0  0  0  0
   -2.2803   -0.7210    0.0000 O   0  0  0  0  0  0  0  0  0
   -3.1053    0.7079    0.0000 O   0  0  0  0  0  0  0  0  0
   -1.9783    0.4059    0.0000 C   0  0  0  0  0  0  0  0  0
   -1.2639   -0.0066    0.0000 C   0  0  0  0  0  0  0  0  0
   -0.5494    0.4059    0.0000 C   0  0  0  0  0  0  0  0  0
   -0.5494    1.2309    0.0000 N   0  0  0  0  0  0  0  0  0
    0.1651   -0.0066    0.0000 C   0  0  0  0  0  0  0  0  0
    0.8795    0.4059    0.0000 O   0  0  0  0  0  0  0  0  0
    0.1651   -0.8316    0.0000 O   0  0  0  0  0  0  0  0  0
  1  2  2  0  0  0  0
  1  3  2  0  0  0  0
  1  4  1  0  0  0  0
  1  5  1  0  0  0  0
  5  6  1  0  0  0  0
  6  7  1  0  0  0  0
  7  8  1  0  0  0  0
  7  9  1  0  0  0  0
  9 10  1  0  0  0  0
  9 11  2  0  0  0  0
M  END
>  <Name_Molregno>
DL-homocysteic-acid

>  <5-HT1A>
5

>  <5-HT1B>
5

>  <5-HT1D>
5

>  <5-HT3>
5

>  <5-HT5>
5

>  <5-HT6>
5

>  <5-HT7>
5

>  <Alpha-1A>
5

>  <Alpha-1B>
5

>  <Alpha-2A>
5

>  <Alpha-2B>
5

>  <Alpha-2C>
5

>  <DOPAMINE D1>
5

>  <DOPAMINE D2>
5

>  <DOPAMINE D3>
5

>  <DOPAMINE D5>
5

>  <Dopamine transporter>
5

>  <Muscarinic acetylcholine receptor M1>
5

>  <Muscarinic acetylcholine receptor M2>
5

>  <Muscarinic acetylcholine receptor M3>
5

>  <Muscarinic acetylcholine receptor M4>
5

>  <Muscarinic acetylcholine receptor M5>
5

>  <Norepinephrine transporter>
5

>  <Serotonin transporter>
5

$$$$
DL-homocysteine
  Marvin  02231216192D 0   1.00000     0.00000     0

  8  7  0  0  1  0  0  0  0  0999 V2000
   -0.0519    0.0021    0.0000 S   0  0  0  0  0  0  0  0  0
    0.6626    0.4146    0.0000 C   0  0  0  0  0  0  0  0  0
    1.3770    0.0021    0.0000 C   0  0  0  0  0  0  0  0  0
    2.0915    0.4146    0.0000 C   0  0  0  0  0  0  0  0  0
    2.0915    1.2396    0.0000 N   0  0  0  0  0  0  0  0  0
    2.8060    0.0021    0.0000 C   0  0  0  0  0  0  0  0  0
    3.5205    0.4146    0.0000 O   0  0  0  0  0  0  0  0  0
    2.8060   -0.8229    0.0000 O   0  0  0  0  0  0  0  0  0
  1  2  1  0  0  0  0
  2  3  1  0  0  0  0
  3  4  1  0  0  0  0
  4  5  1  0  0  0  0
  4  6  1  0  0  0  0
  6  7  1  0  0  0  0
  6  8  2  0  0  0  0
M  END
>  <Name_Molregno>
DL-homocysteine

>  <5-HT1A>
5

>  <5-HT1B>
5

>  <5-HT1D>
5

>  <5-HT3>
5

>  <5-HT5>
5

>  <5-HT6>
5

>  <5-HT7>
5

>  <Alpha-1A>
5

>  <Alpha-1B>
5

>  <Alpha-2A>
5

>  <Alpha-2B>
5

>  <Alpha-2C>
5

>  <DOPAMINE D1>
5

>  <DOPAMINE D2>
5

>  <DOPAMINE D3>
5

>  <DOPAMINE D5>
5

>  <Dopamine transporter>
5

>  <HISTAMINE H1>
5

>  <HISTAMINE H2>
5

>  <HISTAMINE H4>
5

>  <Muscarinic acetylcholine receptor M1>
5

>  <Muscarinic acetylcholine receptor M2>
5

>  <Muscarinic acetylcholine receptor M3>
5

>  <Muscarinic acetylcholine receptor M4>
5

>  <Muscarinic acetylcholine receptor M5>
5

>  <Norepinephrine transporter>
5

>  <Serotonin transporter>
5

$$$$
D-methionine
  Marvin  02231216192D 0   1.00000     0.00000     0

  9  8  0  0  1  0  0  0  0  0999 V2000
   -0.3763    1.2394    0.0000 S   0  0  0  0  0  0  0  0  0
    0.3381    0.8269    0.0000 C   0  0  0  0  0  0  0  0  0
    1.0526    1.2394    0.0000 C   0  0  0  0  0  0  0  0  0
    1.7671    0.8269    0.0000 C   0  0  0  0  0  0  0  0  0
    1.7671    0.0019    0.0000 N   0  0  0  0  0  0  0  0  0
    2.4816    1.2394    0.0000 C   0  0  0  0  0  0  0  0  0
    3.1960    0.8269    0.0000 O   0  0  0  0  0  0  0  0  0
    2.4816    2.0644    0.0000 O   0  0  0  0  0  0  0  0  0
   -1.0908    0.8269    0.0000 C   0  0  0  0  0  0  0  0  0
  1  2  1  0  0  0  0
  1  9  1  0  0  0  0
  2  3  1  0  0  0  0
  3  4  1  0  0  0  0
  4  5  1  0  0  0  0
  4  6  1  0  0  0  0
  6  7  1  0  0  0  0
  6  8  2  0  0  0  0
M  END
>  <Name_Molregno>
D-methionine

>  <5-HT1A>
5

>  <5-HT1B>
5

>  <5-HT1D>
5

>  <5-HT3>
5

>  <5-HT5>
5

>  <5-HT6>
5

>  <5-HT7>
5

>  <Alpha-1A>
5

>  <Alpha-1B>
5

>  <Alpha-2A>
5

>  <Alpha-2B>
5

>  <Alpha-2C>
5

>  <DOPAMINE D1>
5

>  <DOPAMINE D2>
5

>  <DOPAMINE D3>
5

>  <DOPAMINE D5>
5

>  <Dopamine transporter>
5

>  <HISTAMINE H1>
5

>  <HISTAMINE H2>
5

>  <HISTAMINE H4>
5

>  <Muscarinic acetylcholine receptor M1>
5

>  <Muscarinic acetylcholine receptor M2>
5

>  <Muscarinic acetylcholine receptor M3>
5

>  <Muscarinic acetylcholine receptor M4>
5

>  <Muscarinic acetylcholine receptor M5>
5

>  <Norepinephrine transporter>
5

>  <Serotonin transporter>
5

$$$$
DOMPERIDONE
  Marvin  02231216192D 0   1.00000     0.00000     0

 30 34  0  0  0  0  0  0  0  0999 V2000
    1.2720   -4.3177    0.0000 Cl  0  0  0  0  0  0  0  0  0
    1.7569   -3.6502    0.0000 C   0  0  0  0  0  0  0  0  0
    1.4213   -2.8966    0.0000 C   0  0  0  0  0  0  0  0  0
    1.9063   -2.2291    0.0000 C   0  0  0  0  0  0  0  0  0
    1.7347   -1.4222    0.0000 N   0  0  0  0  0  0  0  0  0
    2.4492   -1.0097    0.0000 C   0  0  0  0  0  0  0  0  0
    2.5355   -0.1892    0.0000 O   0  0  0  0  0  0  0  0  0
    3.0623   -1.5617    0.0000 N   0  0  0  0  0  0  0  0  0
    2.7268   -2.3154    0.0000 C   0  0  0  0  0  0  0  0  0
    3.0623   -3.0690    0.0000 C   0  0  0  0  0  0  0  0  0
    2.5774   -3.7365    0.0000 C   0  0  0  0  0  0  0  0  0
    3.8693   -1.3902    0.0000 C   0  0  0  0  0  0  0  0  0
    4.1242   -0.6055    0.0000 C   0  0  0  0  0  0  0  0  0
    4.9312   -0.4340    0.0000 C   0  0  0  0  0  0  0  0  0
    5.4832   -1.0471    0.0000 N   0  0  0  0  0  0  0  0  0
    5.2283   -1.8317    0.0000 C   0  0  0  0  0  0  0  0  0
    4.4213   -2.0033    0.0000 C   0  0  0  0  0  0  0  0  0
    6.2902   -0.8756    0.0000 C   0  0  0  0  0  0  0  0  0
    6.5451   -0.0910    0.0000 C   0  0  0  0  0  0  0  0  0
    7.3521    0.0806    0.0000 C   0  0  0  0  0  0  0  0  0
    7.6070    0.8652    0.0000 N   0  0  0  0  0  0  0  0  0
    8.3917    1.1201    0.0000 C   0  0  0  0  0  0  0  0  0
    8.3917    1.9451    0.0000 C   0  0  0  0  0  0  0  0  0
    7.6070    2.2001    0.0000 N   0  0  0  0  0  0  0  0  0
    7.1221    1.5326    0.0000 C   0  0  0  0  0  0  0  0  0
    6.2971    1.5326    0.0000 O   0  0  0  0  0  0  0  0  0
    9.1061    2.3576    0.0000 C   0  0  0  0  0  0  0  0  0
    9.8206    1.9451    0.0000 C   0  0  0  0  0  0  0  0  0
    9.8206    1.1201    0.0000 C   0  0  0  0  0  0  0  0  0
    9.1061    0.7076    0.0000 C   0  0  0  0  0  0  0  0  0
  1  2  1  0  0  0  0
  2  3  4  0  0  0  0
  2 11  4  0  0  0  0
  3  4  4  0  0  0  0
  4  5  1  0  0  0  0
  4  9  4  0  0  0  0
  5  6  1  0  0  0  0
  6  7  2  0  0  0  0
  6  8  1  0  0  0  0
  8  9  1  0  0  0  0
  8 12  1  0  0  0  0
  9 10  4  0  0  0  0
 10 11  4  0  0  0  0
 12 13  1  0  0  0  0
 12 17  1  0  0  0  0
 13 14  1  0  0  0  0
 14 15  1  0  0  0  0
 15 16  1  0  0  0  0
 15 18  1  0  0  0  0
 16 17  1  0  0  0  0
 18 19  1  0  0  0  0
 19 20  1  0  0  0  0
 20 21  1  0  0  0  0
 21 22  1  0  0  0  0
 21 25  1  0  0  0  0
 22 23  4  0  0  0  0
 22 30  4  0  0  0  0
 23 24  1  0  0  0  0
 23 27  4  0  0  0  0
 24 25  1  0  0  0  0
 25 26  2  0  0  0  0
 27 28  4  0  0  0  0
 28 29  4  0  0  0  0
 29 30  4  0  0  0  0
M  END
>  <Name_Molregno>
DOMPERIDONE

>  <DOPAMINE D2>
9.07

>  <DOPAMINE D3>
8.37

$$$$
DOPAMINE
  Marvin  02231216192D 0   1.00000     0.00000     0

 11 11  0  0  0  0  0  0  0  0999 V2000
    3.1358    1.8244    0.0000 O   0  0  0  0  0  0  0  0  0
    2.4213    1.4119    0.0000 C   0  0  0  0  0  0  0  0  0
    2.4213    0.5869    0.0000 C   0  0  0  0  0  0  0  0  0
    1.7068    0.1744    0.0000 C   0  0  0  0  0  0  0  0  0
    0.9924    0.5869    0.0000 C   0  0  0  0  0  0  0  0  0
    0.9924    1.4119    0.0000 C   0  0  0  0  0  0  0  0  0
    1.7068    1.8244    0.0000 C   0  0  0  0  0  0  0  0  0
    1.7068    2.6494    0.0000 O   0  0  0  0  0  0  0  0  0
    1.7068   -0.6506    0.0000 C   0  0  0  0  0  0  0  0  0
    0.9924   -1.0631    0.0000 C   0  0  0  0  0  0  0  0  0
    0.9924   -1.8881    0.0000 N   0  0  0  0  0  0  0  0  0
  1  2  1  0  0  0  0
  2  3  4  0  0  0  0
  2  7  4  0  0  0  0
  3  4  4  0  0  0  0
  4  5  4  0  0  0  0
  4  9  1  0  0  0  0
  5  6  4  0  0  0  0
  6  7  4  0  0  0  0
  7  8  1  0  0  0  0
  9 10  1  0  0  0  0
 10 11  1  0  0  0  0
M  END
>  <Name_Molregno>
DOPAMINE

>  <5-HT1A>
5.08

>  <5-HT2A>
5

>  <5-HT3>
5

>  <5-HT7>
5

>  <DOPAMINE D1>
5.72

>  <DOPAMINE D2>
6.7

>  <DOPAMINE D3>
7.41

>  <DOPAMINE D4>
7.64

>  <DOPAMINE D5>
6.64

>  <Dopamine transporter>
5.79

>  <Norepinephrine transporter>
6.49

$$$$
ETICLOPRIDE
  Marvin  02231216192D 0   1.00000     0.00000     0

 23 24  0  0  1  0  0  0  0  0999 V2000
    0.4207   -0.0120    0.0000 Cl  0  0  0  0  0  0  0  0  0
    1.1351    0.4005    0.0000 C   0  0  0  0  0  0  0  0  0
    1.1351    1.2255    0.0000 C   0  0  0  0  0  0  0  0  0
    1.8496    1.6380    0.0000 C   0  0  0  0  0  0  0  0  0
    1.8496    2.4630    0.0000 C   0  0  0  0  0  0  0  0  0
    1.1351    2.8755    0.0000 C   0  0  0  0  0  0  0  0  0
    2.5641    1.2255    0.0000 C   0  0  0  0  0  0  0  0  0
    3.2785    1.6380    0.0000 O   0  0  0  0  0  0  0  0  0
    2.5641    0.4005    0.0000 C   0  0  0  0  0  0  0  0  0
    3.2785   -0.0120    0.0000 C   0  0  0  0  0  0  0  0  0
    3.9930    0.4005    0.0000 O   0  0  0  0  0  0  0  0  0
    3.2785   -0.8370    0.0000 N   0  0  0  0  0  0  0  0  0
    3.9930   -1.2495    0.0000 C   0  0  0  0  0  0  0  0  0
    3.9930   -2.0745    0.0000 C   0  0  0  0  0  0  0  0  0
    4.6605   -2.5594    0.0000 N   0  0  0  0  0  0  0  0  0
    4.4055   -3.3441    0.0000 C   0  0  0  0  0  0  0  0  0
    3.5805   -3.3441    0.0000 C   0  0  0  0  0  0  0  0  0
    3.3256   -2.5594    0.0000 C   0  0  0  0  0  0  0  0  0
    5.4451   -2.3045    0.0000 C   0  0  0  0  0  0  0  0  0
    6.0582   -2.8565    0.0000 C   0  0  0  0  0  0  0  0  0
    1.8496   -0.0120    0.0000 C   0  0  0  0  0  0  0  0  0
    1.8496   -0.8370    0.0000 O   0  0  0  0  0  0  0  0  0
    2.5641   -1.2495    0.0000 C   0  0  0  0  0  0  0  0  0
  1  2  1  0  0  0  0
  2  3  4  0  0  0  0
  2 21  4  0  0  0  0
  3  4  4  0  0  0  0
  4  5  1  0  0  0  0
  4  7  4  0  0  0  0
  5  6  1  0  0  0  0
  7  8  1  0  0  0  0
  7  9  4  0  0  0  0
  9 10  1  0  0  0  0
  9 21  4  0  0  0  0
 10 11  2  0  0  0  0
 10 12  1  0  0  0  0
 12 13  1  0  0  0  0
 13 14  1  0  0  0  0
 14 15  1  0  0  0  0
 14 18  1  0  0  0  0
 15 16  1  0  0  0  0
 15 19  1  0  0  0  0
 16 17  1  0  0  0  0
 17 18  1  0  0  0  0
 19 20  1  0  0  0  0
 21 22  1  0  0  0  0
 22 23  1  0  0  0  0
M  END
>  <Name_Molregno>
ETICLOPRIDE

>  <5-HT1A>
5.75

>  <DOPAMINE D1>
5

>  <DOPAMINE D2>
10

>  <DOPAMINE D3>
10

>  <DOPAMINE D4>
7.61

>  <DOPAMINE D5>
5

$$$$
Fluparoxan
  Marvin  02231216192D 0   1.00000     0.00000     0

 14 16  0  0  1  0  0  0  0  0999 V2000
   -2.9096    0.8157    0.0000 F   0  0  0  0  0  0  0  0  0
   -2.9096   -0.0093    0.0000 C   0  0  0  0  0  0  0  0  0
   -2.1951   -0.4218    0.0000 C   0  0  0  0  0  0  0  0  0
   -1.4806   -0.0093    0.0000 O   0  0  0  0  0  0  0  0  0
   -0.7662   -0.4218    0.0000 C   0  0  0  0  0  0  0  0  0
   -0.7662   -1.2468    0.0000 C   0  0  0  0  0  0  0  0  0
   -1.4806   -1.6593    0.0000 O   0  0  0  0  0  0  0  0  0
   -2.1951   -1.2468    0.0000 C   0  0  0  0  0  0  0  0  0
   -2.9096   -1.6593    0.0000 C   0  0  0  0  0  0  0  0  0
   -3.6240   -1.2468    0.0000 C   0  0  0  0  0  0  0  0  0
   -3.6240   -0.4218    0.0000 C   0  0  0  0  0  0  0  0  0
    0.0185   -1.5018    0.0000 C   0  0  0  0  0  0  0  0  0
    0.5034   -0.8343    0.0000 N   0  0  0  0  0  0  0  0  0
    0.0185   -0.1669    0.0000 C   0  0  0  0  0  0  0  0  0
  1  2  1  0  0  0  0
  2  3  4  0  0  0  0
  2 11  4  0  0  0  0
  3  4  1  0  0  0  0
  3  8  4  0  0  0  0
  4  5  1  0  0  0  0
  5  6  1  0  0  0  0
  5 14  1  0  0  0  0
  6  7  1  0  0  0  0
  6 12  1  0  0  0  0
  7  8  1  0  0  0  0
  8  9  4  0  0  0  0
  9 10  4  0  0  0  0
 10 11  4  0  0  0  0
 12 13  1  0  0  0  0
 13 14  1  0  0  0  0
M  END
>  <Name_Molregno>
Fluparoxan

>  <5-HT1A>
6.8

>  <5-HT1B>
6

>  <5-HT1D>
6

>  <5-HT2A>
6

>  <5-HT2C>
6

>  <Alpha-1A>
6.3

>  <Alpha-1B>
6

>  <Alpha-2A>
8.13

>  <Alpha-2B>
8.9

>  <Alpha-2C>
8.8

>  <DOPAMINE D2>
6

>  <DOPAMINE D3>
6

>  <Serotonin transporter>
6

$$$$
FLUPENTHIXOL-Alpha
  Marvin  02231216192D 0   1.00000     0.00000     0

 30 33  0  0  0  0  0  0  0  0999 V2000
    2.2729   -3.8406    0.0000 S   0  0  0  0  0  0  0  0  0
    2.9874   -3.4281    0.0000 C   0  0  0  0  0  0  0  0  0
    2.9874   -2.6031    0.0000 C   0  0  0  0  0  0  0  0  0
    3.7018   -2.1906    0.0000 C   0  0  0  0  0  0  0  0  0
    4.4163   -2.6031    0.0000 C   0  0  0  0  0  0  0  0  0
    4.4163   -3.4281    0.0000 C   0  0  0  0  0  0  0  0  0
    3.7018   -3.8406    0.0000 C   0  0  0  0  0  0  0  0  0
    5.1308   -2.1906    0.0000 C   0  0  0  0  0  0  0  0  0
    5.8453   -1.7781    0.0000 F   0  0  0  0  0  0  0  0  0
    4.7183   -1.4762    0.0000 F   0  0  0  0  0  0  0  0  0
    5.5433   -2.9051    0.0000 F   0  0  0  0  0  0  0  0  0
    2.2729   -2.1906    0.0000 C   0  0  0  0  0  0  0  0  0
    1.5584   -2.6031    0.0000 C   0  0  0  0  0  0  0  0  0
    1.5584   -3.4281    0.0000 C   0  0  0  0  0  0  0  0  0
    0.8440   -3.8406    0.0000 C   0  0  0  0  0  0  0  0  0
    0.1295   -3.4281    0.0000 C   0  0  0  0  0  0  0  0  0
    0.1295   -2.6031    0.0000 C   0  0  0  0  0  0  0  0  0
    0.8440   -2.1906    0.0000 C   0  0  0  0  0  0  0  0  0
    2.2729   -1.3656    0.0000 C   0  0  0  0  0  0  0  0  0
    1.5584   -0.9531    0.0000 C   0  0  0  0  0  0  0  0  0
    0.8440   -1.3656    0.0000 C   0  0  0  0  0  0  0  0  0
    0.1295   -0.9531    0.0000 N   0  0  0  0  0  0  0  0  0
   -0.5850   -1.3656    0.0000 C   0  0  0  0  0  0  0  0  0
   -1.2994   -0.9531    0.0000 C   0  0  0  0  0  0  0  0  0
   -1.2994   -0.1281    0.0000 N   0  0  0  0  0  0  0  0  0
   -0.5850    0.2844    0.0000 C   0  0  0  0  0  0  0  0  0
    0.1295   -0.1281    0.0000 C   0  0  0  0  0  0  0  0  0
   -2.0139    0.2844    0.0000 C   0  0  0  0  0  0  0  0  0
   -2.0139    1.1094    0.0000 C   0  0  0  0  0  0  0  0  0
   -2.7284    1.5219    0.0000 O   0  0  0  0  0  0  0  0  0
  1  2  1  0  0  0  0
  1 14  1  0  0  0  0
  2  3  4  0  0  0  0
  2  7  4  0  0  0  0
  3  4  4  0  0  0  0
  3 12  1  0  0  0  0
  4  5  4  0  0  0  0
  5  6  4  0  0  0  0
  5  8  1  0  0  0  0
  6  7  4  0  0  0  0
  8  9  1  0  0  0  0
  8 10  1  0  0  0  0
  8 11  1  0  0  0  0
 12 13  1  0  0  0  0
 12 19  2  0  0  0  0
 13 14  4  0  0  0  0
 13 18  4  0  0  0  0
 14 15  4  0  0  0  0
 15 16  4  0  0  0  0
 16 17  4  0  0  0  0
 17 18  4  0  0  0  0
 19 20  1  0  0  0  0
 20 21  1  0  0  0  0
 21 22  1  0  0  0  0
 22 23  1  0  0  0  0
 22 27  1  0  0  0  0
 23 24  1  0  0  0  0
 24 25  1  0  0  0  0
 25 26  1  0  0  0  0
 25 28  1  0  0  0  0
 26 27  1  0  0  0  0
 28 29  1  0  0  0  0
 29 30  1  0  0  0  0
M  END
>  <Name_Molregno>
FLUPENTHIXOL-Alpha

>  <5-HT1A>
5.1

>  <5-HT2A>
7.06

>  <DOPAMINE D1>
8.44

>  <DOPAMINE D2>
8.74

>  <DOPAMINE D3>
8.15

>  <DOPAMINE D4>
7.23

>  <DOPAMINE D5>
8.1

>  <HISTAMINE H1>
8.65

$$$$
FLUPHENAZINE
  Marvin  02231216192D 0   1.00000     0.00000     0

 38 41  0  0  0  0  0  0  0  0999 V2000
   -7.1492   -1.5262    0.0000 S   0  0  0  0  0  0  0  0  0
   -7.1492   -2.3512    0.0000 C   0  0  0  0  0  0  0  0  0
   -6.4348   -2.7637    0.0000 C   0  0  0  0  0  0  0  0  0
   -5.7203   -2.3512    0.0000 N   0  0  0  0  0  0  0  0  0
   -5.7203   -1.5262    0.0000 C   0  0  0  0  0  0  0  0  0
   -6.4348   -1.1137    0.0000 C   0  0  0  0  0  0  0  0  0
   -6.4348   -0.2887    0.0000 C   0  0  0  0  0  0  0  0  0
   -5.7203    0.1238    0.0000 C   0  0  0  0  0  0  0  0  0
   -5.0058   -0.2887    0.0000 C   0  0  0  0  0  0  0  0  0
   -5.0058   -1.1137    0.0000 C   0  0  0  0  0  0  0  0  0
   -5.0058   -2.7637    0.0000 C   0  0  0  0  0  0  0  0  0
   -4.2914   -2.3512    0.0000 C   0  0  0  0  0  0  0  0  0
   -3.5769   -2.7637    0.0000 C   0  0  0  0  0  0  0  0  0
   -2.8624   -2.3512    0.0000 N   0  0  0  0  0  0  0  0  0
   -2.8624   -1.5262    0.0000 C   0  0  0  0  0  0  0  0  0
   -2.1479   -1.1137    0.0000 C   0  0  0  0  0  0  0  0  0
   -1.4335   -1.5262    0.0000 N   0  0  0  0  0  0  0  0  0
   -1.4335   -2.3512    0.0000 C   0  0  0  0  0  0  0  0  0
   -2.1479   -2.7637    0.0000 C   0  0  0  0  0  0  0  0  0
   -0.7190   -1.1137    0.0000 C   0  0  0  0  0  0  0  0  0
   -0.0045   -1.5262    0.0000 C   0  0  0  0  0  0  0  0  0
    0.7099   -1.1137    0.0000 O   0  0  0  0  0  0  0  0  0
    1.4244   -1.5262    0.0000 C   0  0  0  0  0  0  0  0  0
    1.4244   -2.3512    0.0000 O   0  0  0  0  0  0  0  0  0
    2.1389   -1.1137    0.0000 C   0  0  0  0  0  0  0  0  0
    2.8534   -1.5262    0.0000 C   0  0  0  0  0  0  0  0  0
    3.5678   -1.1137    0.0000 C   0  0  0  0  0  0  0  0  0
    4.2823   -1.5262    0.0000 C   0  0  0  0  0  0  0  0  0
    4.9968   -1.1137    0.0000 C   0  0  0  0  0  0  0  0  0
    5.7112   -1.5262    0.0000 C   0  0  0  0  0  0  0  0  0
   -6.4348   -3.5887    0.0000 C   0  0  0  0  0  0  0  0  0
   -7.1492   -4.0012    0.0000 C   0  0  0  0  0  0  0  0  0
   -7.8637   -3.5887    0.0000 C   0  0  0  0  0  0  0  0  0
   -7.8637   -2.7637    0.0000 C   0  0  0  0  0  0  0  0  0
   -7.1492   -4.8262    0.0000 C   0  0  0  0  0  0  0  0  0
   -7.1492   -5.6512    0.0000 F   0  0  0  0  0  0  0  0  0
   -7.9742   -4.8262    0.0000 F   0  0  0  0  0  0  0  0  0
   -6.3242   -4.8262    0.0000 F   0  0  0  0  0  0  0  0  0
  1  2  1  0  0  0  0
  1  6  1  0  0  0  0
  2  3  4  0  0  0  0
  2 34  4  0  0  0  0
  3  4  1  0  0  0  0
  3 31  4  0  0  0  0
  4  5  1  0  0  0  0
  4 11  1  0  0  0  0
  5  6  4  0  0  0  0
  5 10  4  0  0  0  0
  6  7  4  0  0  0  0
  7  8  4  0  0  0  0
  8  9  4  0  0  0  0
  9 10  4  0  0  0  0
 11 12  1  0  0  0  0
 12 13  1  0  0  0  0
 13 14  1  0  0  0  0
 14 15  1  0  0  0  0
 14 19  1  0  0  0  0
 15 16  1  0  0  0  0
 16 17  1  0  0  0  0
 17 18  1  0  0  0  0
 17 20  1  0  0  0  0
 18 19  1  0  0  0  0
 20 21  1  0  0  0  0
 21 22  1  0  0  0  0
 22 23  1  0  0  0  0
 23 24  2  0  0  0  0
 23 25  1  0  0  0  0
 25 26  1  0  0  0  0
 26 27  1  0  0  0  0
 27 28  1  0  0  0  0
 28 29  1  0  0  0  0
 29 30  1  0  0  0  0
 31 32  4  0  0  0  0
 32 33  4  0  0  0  0
 32 35  1  0  0  0  0
 33 34  4  0  0  0  0
 35 36  1  0  0  0  0
 35 37  1  0  0  0  0
 35 38  1  0  0  0  0
M  END
>  <Name_Molregno>
FLUPHENAZINE

>  <5-HT1A>
6.41

>  <5-HT1B>
6.48

>  <5-HT1D>
6.48

>  <5-HT1E>
6.27

>  <5-HT2A>
7.87

>  <5-HT2C>
6.05

>  <5-HT3>
5

>  <5-HT5>
6.84

>  <5-HT6>
7.46

>  <5-HT7>
8.1

>  <Alpha-1A>
8.19

>  <Alpha-1B>
7.89

>  <Alpha-2A>
6.5

>  <Alpha-2B>
7.09

>  <Alpha-2C>
7.54

>  <Beta-1>
5

>  <Beta-2>
5

>  <DOPAMINE D1>
7.55

>  <DOPAMINE D2>
9.22

>  <DOPAMINE D3>
9.33

>  <DOPAMINE D4>
7.52

>  <DOPAMINE D5>
7.82

>  <Dopamine transporter>
5

>  <HISTAMINE H1>
7.72

>  <HISTAMINE H2>
6.25

>  <HISTAMINE H3>
6

>  <HISTAMINE H4>
5

>  <Muscarinic acetylcholine receptor M1>
5.96

>  <Muscarinic acetylcholine receptor M2>
5.14

>  <Muscarinic acetylcholine receptor M3>
5.84

>  <Muscarinic acetylcholine receptor M4>
5.27

>  <Muscarinic acetylcholine receptor M5>
6.45

>  <Norepinephrine transporter>
5.51

>  <Serotonin transporter>
5.23

$$$$
FLUPHENAZINE-2
  Marvin  02231216192D 0   1.00000     0.00000     0

 30 33  0  0  0  0  0  0  0  0999 V2000
    2.0347   -4.2531    0.0000 S   0  0  0  0  0  0  0  0  0
    2.7492   -3.8406    0.0000 C   0  0  0  0  0  0  0  0  0
    2.7492   -3.0156    0.0000 C   0  0  0  0  0  0  0  0  0
    2.0347   -2.6031    0.0000 N   0  0  0  0  0  0  0  0  0
    1.3203   -3.0156    0.0000 C   0  0  0  0  0  0  0  0  0
    1.3203   -3.8406    0.0000 C   0  0  0  0  0  0  0  0  0
    0.6058   -4.2531    0.0000 C   0  0  0  0  0  0  0  0  0
   -0.1087   -3.8406    0.0000 C   0  0  0  0  0  0  0  0  0
   -0.1087   -3.0156    0.0000 C   0  0  0  0  0  0  0  0  0
    0.6058   -2.6031    0.0000 C   0  0  0  0  0  0  0  0  0
    2.0347   -1.7781    0.0000 C   0  0  0  0  0  0  0  0  0
    1.3203   -1.3656    0.0000 C   0  0  0  0  0  0  0  0  0
    1.3203   -0.5406    0.0000 C   0  0  0  0  0  0  0  0  0
    0.6058   -0.1281    0.0000 N   0  0  0  0  0  0  0  0  0
   -0.1087   -0.5406    0.0000 C   0  0  0  0  0  0  0  0  0
   -0.8231   -0.1281    0.0000 C   0  0  0  0  0  0  0  0  0
   -0.8231    0.6969    0.0000 N   0  0  0  0  0  0  0  0  0
   -0.1087    1.1094    0.0000 C   0  0  0  0  0  0  0  0  0
    0.6058    0.6969    0.0000 C   0  0  0  0  0  0  0  0  0
   -1.5376    1.1094    0.0000 C   0  0  0  0  0  0  0  0  0
   -1.5376    1.9344    0.0000 C   0  0  0  0  0  0  0  0  0
   -2.2521    2.3469    0.0000 O   0  0  0  0  0  0  0  0  0
    3.4637   -2.6031    0.0000 C   0  0  0  0  0  0  0  0  0
    4.1782   -3.0156    0.0000 C   0  0  0  0  0  0  0  0  0
    4.1782   -3.8406    0.0000 C   0  0  0  0  0  0  0  0  0
    3.4637   -4.2531    0.0000 C   0  0  0  0  0  0  0  0  0
    4.8926   -2.6031    0.0000 C   0  0  0  0  0  0  0  0  0
    5.6071   -2.1906    0.0000 F   0  0  0  0  0  0  0  0  0
    5.3051   -3.3176    0.0000 F   0  0  0  0  0  0  0  0  0
    4.4801   -1.8887    0.0000 F   0  0  0  0  0  0  0  0  0
  1  2  1  0  0  0  0
  1  6  1  0  0  0  0
  2  3  4  0  0  0  0
  2 26  4  0  0  0  0
  3  4  1  0  0  0  0
  3 23  4  0  0  0  0
  4  5  1  0  0  0  0
  4 11  1  0  0  0  0
  5  6  4  0  0  0  0
  5 10  4  0  0  0  0
  6  7  4  0  0  0  0
  7  8  4  0  0  0  0
  8  9  4  0  0  0  0
  9 10  4  0  0  0  0
 11 12  1  0  0  0  0
 12 13  1  0  0  0  0
 13 14  1  0  0  0  0
 14 15  1  0  0  0  0
 14 19  1  0  0  0  0
 15 16  1  0  0  0  0
 16 17  1  0  0  0  0
 17 18  1  0  0  0  0
 17 20  1  0  0  0  0
 18 19  1  0  0  0  0
 20 21  1  0  0  0  0
 21 22  1  0  0  0  0
 23 24  4  0  0  0  0
 24 25  4  0  0  0  0
 24 27  1  0  0  0  0
 25 26  4  0  0  0  0
 27 28  1  0  0  0  0
 27 29  1  0  0  0  0
 27 30  1  0  0  0  0
M  END
>  <Name_Molregno>
FLUPHENAZINE-2

>  <5-HT6>
7.3

>  <DOPAMINE D1>
6.75

>  <DOPAMINE D2>
8.84

>  <DOPAMINE D3>
8.49

>  <DOPAMINE D5>
7.68

>  <HISTAMINE H1>
7.4

>  <HISTAMINE H3>
6

$$$$
FLUSPIRILENE
  Marvin  02231216192D 0   1.00000     0.00000     0

 35 39  0  0  0  0  0  0  0  0999 V2000
    3.1924   -2.1696    0.0000 F   0  0  0  0  0  0  0  0  0
    2.3674   -2.1696    0.0000 C   0  0  0  0  0  0  0  0  0
    1.9549   -2.8841    0.0000 C   0  0  0  0  0  0  0  0  0
    1.1299   -2.8841    0.0000 C   0  0  0  0  0  0  0  0  0
    0.7174   -2.1696    0.0000 C   0  0  0  0  0  0  0  0  0
    1.1299   -1.4552    0.0000 C   0  0  0  0  0  0  0  0  0
    1.9549   -1.4552    0.0000 C   0  0  0  0  0  0  0  0  0
   -0.1076   -2.1696    0.0000 C   0  0  0  0  0  0  0  0  0
   -0.5201   -2.8841    0.0000 C   0  0  0  0  0  0  0  0  0
   -1.3451   -2.8841    0.0000 C   0  0  0  0  0  0  0  0  0
   -1.7576   -3.5986    0.0000 C   0  0  0  0  0  0  0  0  0
   -2.5826   -3.5986    0.0000 N   0  0  0  0  0  0  0  0  0
   -2.9951   -4.3130    0.0000 C   0  0  0  0  0  0  0  0  0
   -3.8201   -4.3130    0.0000 C   0  0  0  0  0  0  0  0  0
   -4.2326   -3.5986    0.0000 C   0  0  0  0  0  0  0  0  0
   -4.7175   -4.2660    0.0000 N   0  0  0  0  0  0  0  0  0
   -5.5021   -4.0111    0.0000 C   0  0  0  0  0  0  0  0  0
   -5.5021   -3.1861    0.0000 N   0  0  0  0  0  0  0  0  0
   -4.7175   -2.9311    0.0000 C   0  0  0  0  0  0  0  0  0
   -4.4626   -2.1465    0.0000 O   0  0  0  0  0  0  0  0  0
   -4.4626   -5.0506    0.0000 C   0  0  0  0  0  0  0  0  0
   -3.6556   -5.2222    0.0000 C   0  0  0  0  0  0  0  0  0
   -3.4007   -6.0068    0.0000 C   0  0  0  0  0  0  0  0  0
   -3.9527   -6.6199    0.0000 C   0  0  0  0  0  0  0  0  0
   -4.7597   -6.4483    0.0000 C   0  0  0  0  0  0  0  0  0
   -5.0146   -5.6637    0.0000 C   0  0  0  0  0  0  0  0  0
   -3.8201   -2.8841    0.0000 C   0  0  0  0  0  0  0  0  0
   -2.9951   -2.8841    0.0000 C   0  0  0  0  0  0  0  0  0
   -0.5201   -1.4552    0.0000 C   0  0  0  0  0  0  0  0  0
   -1.3451   -1.4552    0.0000 C   0  0  0  0  0  0  0  0  0
   -1.7576   -0.7407    0.0000 C   0  0  0  0  0  0  0  0  0
   -1.3451   -0.0262    0.0000 C   0  0  0  0  0  0  0  0  0
   -1.7576    0.6883    0.0000 F   0  0  0  0  0  0  0  0  0
   -0.5201   -0.0262    0.0000 C   0  0  0  0  0  0  0  0  0
   -0.1076   -0.7407    0.0000 C   0  0  0  0  0  0  0  0  0
  1  2  1  0  0  0  0
  2  3  4  0  0  0  0
  2  7  4  0  0  0  0
  3  4  4  0  0  0  0
  4  5  4  0  0  0  0
  5  6  4  0  0  0  0
  5  8  1  0  0  0  0
  6  7  4  0  0  0  0
  8  9  1  0  0  0  0
  8 29  1  0  0  0  0
  9 10  1  0  0  0  0
 10 11  1  0  0  0  0
 11 12  1  0  0  0  0
 12 13  1  0  0  0  0
 12 28  1  0  0  0  0
 13 14  1  0  0  0  0
 14 15  1  0  0  0  0
 15 16  1  0  0  0  0
 15 19  1  0  0  0  0
 15 27  1  0  0  0  0
 16 17  1  0  0  0  0
 16 21  1  0  0  0  0
 17 18  1  0  0  0  0
 18 19  1  0  0  0  0
 19 20  2  0  0  0  0
 21 22  4  0  0  0  0
 21 26  4  0  0  0  0
 22 23  4  0  0  0  0
 23 24  4  0  0  0  0
 24 25  4  0  0  0  0
 25 26  4  0  0  0  0
 27 28  1  0  0  0  0
 29 30  4  0  0  0  0
 29 35  4  0  0  0  0
 30 31  4  0  0  0  0
 31 32  4  0  0  0  0
 32 33  1  0  0  0  0
 32 34  4  0  0  0  0
 34 35  4  0  0  0  0
M  END
>  <Name_Molregno>
FLUSPIRILENE

>  <5-HT1A>
7.25

>  <5-HT1B>
5.95

>  <5-HT1D>
5.3

>  <5-HT1E>
5.65

>  <5-HT2A>
8.02

>  <Alpha-2A>
6.24

>  <Alpha-2B>
7.32

>  <Alpha-2C>
7.21

>  <Beta-1>
6.23

>  <Beta-2>
6.29

>  <DOPAMINE D2>
9.37

>  <DOPAMINE D3>
8.73

>  <DOPAMINE D4>
8.26

>  <HISTAMINE H1>
7.92

>  <Serotonin transporter>
6

$$$$
GBR-12909
  Marvin  02231216192D 0   1.00000     0.00000     0

 33 36  0  0  0  0  0  0  0  0999 V2000
    1.8465    2.7773    0.0000 F   0  0  0  0  0  0  0  0  0
    1.8465    1.9523    0.0000 C   0  0  0  0  0  0  0  0  0
    2.5610    1.5398    0.0000 C   0  0  0  0  0  0  0  0  0
    2.5610    0.7148    0.0000 C   0  0  0  0  0  0  0  0  0
    1.8465    0.3023    0.0000 C   0  0  0  0  0  0  0  0  0
    1.1320    0.7148    0.0000 C   0  0  0  0  0  0  0  0  0
    1.1320    1.5398    0.0000 C   0  0  0  0  0  0  0  0  0
    1.8465   -0.5227    0.0000 C   0  0  0  0  0  0  0  0  0
    2.5610   -0.9352    0.0000 O   0  0  0  0  0  0  0  0  0
    2.5610   -1.7602    0.0000 C   0  0  0  0  0  0  0  0  0
    3.2755   -2.1727    0.0000 C   0  0  0  0  0  0  0  0  0
    3.2755   -2.9977    0.0000 N   0  0  0  0  0  0  0  0  0
    3.9899   -3.4102    0.0000 C   0  0  0  0  0  0  0  0  0
    3.9899   -4.2352    0.0000 C   0  0  0  0  0  0  0  0  0
    3.2755   -4.6477    0.0000 N   0  0  0  0  0  0  0  0  0
    2.5610   -4.2352    0.0000 C   0  0  0  0  0  0  0  0  0
    2.5610   -3.4102    0.0000 C   0  0  0  0  0  0  0  0  0
    3.2755   -5.4727    0.0000 C   0  0  0  0  0  0  0  0  0
    2.5610   -5.8852    0.0000 C   0  0  0  0  0  0  0  0  0
    2.5610   -6.7102    0.0000 C   0  0  0  0  0  0  0  0  0
    3.2755   -7.1227    0.0000 C   0  0  0  0  0  0  0  0  0
    3.9899   -6.7102    0.0000 C   0  0  0  0  0  0  0  0  0
    4.7044   -7.1227    0.0000 C   0  0  0  0  0  0  0  0  0
    4.7044   -7.9477    0.0000 C   0  0  0  0  0  0  0  0  0
    3.9899   -8.3602    0.0000 C   0  0  0  0  0  0  0  0  0
    3.2755   -7.9477    0.0000 C   0  0  0  0  0  0  0  0  0
    1.1320   -0.9352    0.0000 C   0  0  0  0  0  0  0  0  0
    1.1320   -1.7602    0.0000 C   0  0  0  0  0  0  0  0  0
    0.4176   -2.1727    0.0000 C   0  0  0  0  0  0  0  0  0
   -0.2969   -1.7602    0.0000 C   0  0  0  0  0  0  0  0  0
   -1.0114   -2.1727    0.0000 F   0  0  0  0  0  0  0  0  0
   -0.2969   -0.9352    0.0000 C   0  0  0  0  0  0  0  0  0
    0.4176   -0.5227    0.0000 C   0  0  0  0  0  0  0  0  0
  1  2  1  0  0  0  0
  2  3  4  0  0  0  0
  2  7  4  0  0  0  0
  3  4  4  0  0  0  0
  4  5  4  0  0  0  0
  5  6  4  0  0  0  0
  5  8  1  0  0  0  0
  6  7  4  0  0  0  0
  8  9  1  0  0  0  0
  8 27  1  0  0  0  0
  9 10  1  0  0  0  0
 10 11  1  0  0  0  0
 11 12  1  0  0  0  0
 12 13  1  0  0  0  0
 12 17  1  0  0  0  0
 13 14  1  0  0  0  0
 14 15  1  0  0  0  0
 15 16  1  0  0  0  0
 15 18  1  0  0  0  0
 16 17  1  0  0  0  0
 18 19  1  0  0  0  0
 19 20  1  0  0  0  0
 20 21  1  0  0  0  0
 21 22  4  0  0  0  0
 21 26  4  0  0  0  0
 22 23  4  0  0  0  0
 23 24  4  0  0  0  0
 24 25  4  0  0  0  0
 25 26  4  0  0  0  0
 27 28  4  0  0  0  0
 27 33  4  0  0  0  0
 28 29  4  0  0  0  0
 29 30  4  0  0  0  0
 30 31  1  0  0  0  0
 30 32  4  0  0  0  0
 32 33  4  0  0  0  0
M  END
>  <Name_Molregno>
GBR-12909

>  <5-HT1A>
5.33

>  <DOPAMINE D1>
5

>  <DOPAMINE D2>
6.13

>  <DOPAMINE D3>
6.96

>  <Dopamine transporter>
8.16

>  <HISTAMINE H1>
8.03

$$$$
HALOPERIDOL
  Marvin  02231216192D 0   1.00000     0.00000     0

 26 28  0  0  0  0  0  0  0  0999 V2000
    1.7138    2.6466    0.0000 Cl  0  0  0  0  0  0  0  0  0
    1.9960    1.8714    0.0000 C   0  0  0  0  0  0  0  0  0
    2.8084    1.7281    0.0000 C   0  0  0  0  0  0  0  0  0
    3.0906    0.9529    0.0000 C   0  0  0  0  0  0  0  0  0
    2.5603    0.3209    0.0000 C   0  0  0  0  0  0  0  0  0
    1.7478    0.4642    0.0000 C   0  0  0  0  0  0  0  0  0
    1.4657    1.2394    0.0000 C   0  0  0  0  0  0  0  0  0
    2.8425   -0.4543    0.0000 C   0  0  0  0  0  0  0  0  0
    2.0300   -0.5976    0.0000 O   0  0  0  0  0  0  0  0  0
    3.5569   -0.0418    0.0000 C   0  0  0  0  0  0  0  0  0
    4.2714   -0.4543    0.0000 C   0  0  0  0  0  0  0  0  0
    4.2714   -1.2793    0.0000 N   0  0  0  0  0  0  0  0  0
    3.5569   -1.6918    0.0000 C   0  0  0  0  0  0  0  0  0
    2.8425   -1.2793    0.0000 C   0  0  0  0  0  0  0  0  0
    4.9859   -1.6918    0.0000 C   0  0  0  0  0  0  0  0  0
    5.7003   -1.2793    0.0000 C   0  0  0  0  0  0  0  0  0
    6.4148   -1.6918    0.0000 C   0  0  0  0  0  0  0  0  0
    7.1293   -1.2793    0.0000 C   0  0  0  0  0  0  0  0  0
    7.1293   -0.4543    0.0000 O   0  0  0  0  0  0  0  0  0
    7.8438   -1.6918    0.0000 C   0  0  0  0  0  0  0  0  0
    8.5582   -1.2793    0.0000 C   0  0  0  0  0  0  0  0  0
    9.2727   -1.6918    0.0000 C   0  0  0  0  0  0  0  0  0
    9.2727   -2.5168    0.0000 C   0  0  0  0  0  0  0  0  0
    9.9872   -2.9293    0.0000 F   0  0  0  0  0  0  0  0  0
    8.5582   -2.9293    0.0000 C   0  0  0  0  0  0  0  0  0
    7.8438   -2.5168    0.0000 C   0  0  0  0  0  0  0  0  0
  1  2  1  0  0  0  0
  2  3  4  0  0  0  0
  2  7  4  0  0  0  0
  3  4  4  0  0  0  0
  4  5  4  0  0  0  0
  5  6  4  0  0  0  0
  5  8  1  0  0  0  0
  6  7  4  0  0  0  0
  8  9  1  0  0  0  0
  8 10  1  0  0  0  0
  8 14  1  0  0  0  0
 10 11  1  0  0  0  0
 11 12  1  0  0  0  0
 12 13  1  0  0  0  0
 12 15  1  0  0  0  0
 13 14  1  0  0  0  0
 15 16  1  0  0  0  0
 16 17  1  0  0  0  0
 17 18  1  0  0  0  0
 18 19  2  0  0  0  0
 18 20  1  0  0  0  0
 20 21  4  0  0  0  0
 20 26  4  0  0  0  0
 21 22  4  0  0  0  0
 22 23  4  0  0  0  0
 23 24  1  0  0  0  0
 23 25  4  0  0  0  0
 25 26  4  0  0  0  0
M  END
>  <Name_Molregno>
HALOPERIDOL

>  <5-HT1A>
5.67

>  <5-HT1B>
6.63

>  <5-HT1D>
5.56

>  <5-HT1E>
5.15

>  <5-HT2A>
7.01

>  <5-HT2C>
5.24

>  <5-HT3>
5

>  <5-HT5>
5.65

>  <5-HT6>
5.28

>  <5-HT7>
6.32

>  <Alpha-1A>
7.92

>  <Alpha-1B>
8.1

>  <Alpha-2A>
6.04

>  <Alpha-2B>
6.32

>  <Alpha-2C>
6.34

>  <Beta-1>
5

>  <Beta-2>
5.15

>  <DOPAMINE D1>
7.22

>  <DOPAMINE D2>
8.75

>  <DOPAMINE D3>
8.33

>  <DOPAMINE D4>
8.29

>  <DOPAMINE D5>
7.03

>  <Dopamine transporter>
5

>  <HISTAMINE H1>
6.04

>  <HISTAMINE H2>
6

>  <HISTAMINE H4>
5

>  <Muscarinic acetylcholine receptor M1>
5.4

>  <Muscarinic acetylcholine receptor M2>
5

>  <Muscarinic acetylcholine receptor M3>
5

>  <Muscarinic acetylcholine receptor M4>
5

>  <Muscarinic acetylcholine receptor M5>
5.59

>  <Norepinephrine transporter>
5.68

>  <Serotonin transporter>
5.74

$$$$
ILOPERIDONE
  Marvin  02231216192D 0   1.00000     0.00000     0

 31 34  0  0  0  0  0  0  0  0999 V2000
    9.8408   -5.0338    0.0000 F   0  0  0  0  0  0  0  0  0
    9.1263   -4.6213    0.0000 C   0  0  0  0  0  0  0  0  0
    8.4119   -5.0338    0.0000 C   0  0  0  0  0  0  0  0  0
    7.6974   -4.6213    0.0000 C   0  0  0  0  0  0  0  0  0
    6.9128   -4.8762    0.0000 O   0  0  0  0  0  0  0  0  0
    6.4279   -4.2088    0.0000 N   0  0  0  0  0  0  0  0  0
    6.9128   -3.5413    0.0000 C   0  0  0  0  0  0  0  0  0
    7.6974   -3.7963    0.0000 C   0  0  0  0  0  0  0  0  0
    8.4119   -3.3838    0.0000 C   0  0  0  0  0  0  0  0  0
    9.1263   -3.7963    0.0000 C   0  0  0  0  0  0  0  0  0
    6.6578   -2.7567    0.0000 C   0  0  0  0  0  0  0  0  0
    5.8509   -2.5852    0.0000 C   0  0  0  0  0  0  0  0  0
    5.5959   -1.8006    0.0000 C   0  0  0  0  0  0  0  0  0
    6.1480   -1.1875    0.0000 N   0  0  0  0  0  0  0  0  0
    6.9549   -1.3590    0.0000 C   0  0  0  0  0  0  0  0  0
    7.2099   -2.1436    0.0000 C   0  0  0  0  0  0  0  0  0
    5.8930   -0.4028    0.0000 C   0  0  0  0  0  0  0  0  0
    5.0861   -0.2313    0.0000 C   0  0  0  0  0  0  0  0  0
    4.8311    0.5533    0.0000 C   0  0  0  0  0  0  0  0  0
    4.0241    0.7248    0.0000 O   0  0  0  0  0  0  0  0  0
    3.7692    1.5095    0.0000 C   0  0  0  0  0  0  0  0  0
    2.9622    1.6810    0.0000 C   0  0  0  0  0  0  0  0  0
    2.7073    2.4656    0.0000 C   0  0  0  0  0  0  0  0  0
    3.2593    3.0787    0.0000 C   0  0  0  0  0  0  0  0  0
    4.0663    2.9072    0.0000 C   0  0  0  0  0  0  0  0  0
    4.3212    2.1225    0.0000 C   0  0  0  0  0  0  0  0  0
    5.1282    1.9510    0.0000 O   0  0  0  0  0  0  0  0  0
    5.6802    2.5641    0.0000 C   0  0  0  0  0  0  0  0  0
    3.0044    3.8633    0.0000 C   0  0  0  0  0  0  0  0  0
    2.1974    4.0348    0.0000 O   0  0  0  0  0  0  0  0  0
    3.5564    4.4764    0.0000 C   0  0  0  0  0  0  0  0  0
  1  2  1  0  0  0  0
  2  3  4  0  0  0  0
  2 10  4  0  0  0  0
  3  4  4  0  0  0  0
  4  5  4  0  0  0  0
  4  8  4  0  0  0  0
  5  6  4  0  0  0  0
  6  7  4  0  0  0  0
  7  8  4  0  0  0  0
  7 11  1  0  0  0  0
  8  9  4  0  0  0  0
  9 10  4  0  0  0  0
 11 12  1  0  0  0  0
 11 16  1  0  0  0  0
 12 13  1  0  0  0  0
 13 14  1  0  0  0  0
 14 15  1  0  0  0  0
 14 17  1  0  0  0  0
 15 16  1  0  0  0  0
 17 18  1  0  0  0  0
 18 19  1  0  0  0  0
 19 20  1  0  0  0  0
 20 21  1  0  0  0  0
 21 22  4  0  0  0  0
 21 26  4  0  0  0  0
 22 23  4  0  0  0  0
 23 24  4  0  0  0  0
 24 25  4  0  0  0  0
 24 29  1  0  0  0  0
 25 26  4  0  0  0  0
 26 27  1  0  0  0  0
 27 28  1  0  0  0  0
 29 30  2  0  0  0  0
 29 31  1  0  0  0  0
M  END
>  <Name_Molregno>
ILOPERIDONE

>  <5-HT1A>
7.18

>  <5-HT1B>
7.05

>  <5-HT1D>
7.82

>  <5-HT2A>
9.46

>  <5-HT2C>
7.27

>  <5-HT3>
5

>  <5-HT6>
7.2

>  <5-HT7>
6.95

>  <Alpha-2A>
6.79

>  <Alpha-2B>
6.79

>  <Alpha-2C>
7.79

>  <Beta-1>
5

>  <Beta-2>
5

>  <DOPAMINE D1>
7.02

>  <DOPAMINE D2>
8.23

>  <DOPAMINE D3>
8

>  <DOPAMINE D4>
7.96

>  <DOPAMINE D5>
6.5

>  <Dopamine transporter>
5.53

>  <HISTAMINE H1>
7.91

>  <Muscarinic acetylcholine receptor M1>
5.31

>  <Muscarinic acetylcholine receptor M2>
5.48

>  <Muscarinic acetylcholine receptor M3>
5

>  <Muscarinic acetylcholine receptor M4>
5.08

>  <Muscarinic acetylcholine receptor M5>
5

>  <Norepinephrine transporter>
5.83

$$$$
IMIPRAMINE
  Marvin  02231216192D 0   1.00000     0.00000     0

 21 23  0  0  0  0  0  0  0  0999 V2000
   -0.5243    1.2470    0.0000 N   0  0  0  0  0  0  0  0  0
    0.1902    0.8345    0.0000 C   0  0  0  0  0  0  0  0  0
    0.9046    1.2470    0.0000 C   0  0  0  0  0  0  0  0  0
    1.6191    0.8345    0.0000 C   0  0  0  0  0  0  0  0  0
    2.3336    1.2470    0.0000 N   0  0  0  0  0  0  0  0  0
    2.2719    2.0697    0.0000 C   0  0  0  0  0  0  0  0  0
    2.8767    2.6309    0.0000 C   0  0  0  0  0  0  0  0  0
    3.6925    2.5079    0.0000 C   0  0  0  0  0  0  0  0  0
    4.1050    1.7934    0.0000 C   0  0  0  0  0  0  0  0  0
    3.8036    1.0255    0.0000 C   0  0  0  0  0  0  0  0  0
    3.0152    0.7823    0.0000 C   0  0  0  0  0  0  0  0  0
    2.8316   -0.0220    0.0000 C   0  0  0  0  0  0  0  0  0
    3.4364   -0.5832    0.0000 C   0  0  0  0  0  0  0  0  0
    4.2248   -0.3400    0.0000 C   0  0  0  0  0  0  0  0  0
    4.4083    0.4643    0.0000 C   0  0  0  0  0  0  0  0  0
    2.6931    3.4352    0.0000 C   0  0  0  0  0  0  0  0  0
    1.9048    3.6784    0.0000 C   0  0  0  0  0  0  0  0  0
    1.3000    3.1172    0.0000 C   0  0  0  0  0  0  0  0  0
    1.4836    2.3129    0.0000 C   0  0  0  0  0  0  0  0  0
   -1.2388    0.8345    0.0000 C   0  0  0  0  0  0  0  0  0
   -0.5243    2.0720    0.0000 C   0  0  0  0  0  0  0  0  0
  1  2  1  0  0  0  0
  1 20  1  0  0  0  0
  1 21  1  0  0  0  0
  2  3  1  0  0  0  0
  3  4  1  0  0  0  0
  4  5  1  0  0  0  0
  5  6  1  0  0  0  0
  5 11  1  0  0  0  0
  6  7  4  0  0  0  0
  6 19  4  0  0  0  0
  7  8  1  0  0  0  0
  7 16  4  0  0  0  0
  8  9  1  0  0  0  0
  9 10  1  0  0  0  0
 10 11  4  0  0  0  0
 10 15  4  0  0  0  0
 11 12  4  0  0  0  0
 12 13  4  0  0  0  0
 13 14  4  0  0  0  0
 14 15  4  0  0  0  0
 16 17  4  0  0  0  0
 17 18  4  0  0  0  0
 18 19  4  0  0  0  0
M  END
>  <Name_Molregno>
IMIPRAMINE

>  <5-HT1A>
5.12

>  <DOPAMINE D1>
5

>  <DOPAMINE D2>
6.17

>  <DOPAMINE D3>
6.41

>  <Dopamine transporter>
5.04

>  <HISTAMINE H1>
7.62

>  <Muscarinic acetylcholine receptor M1>
7.38

>  <Muscarinic acetylcholine receptor M2>
8.48

>  <Muscarinic acetylcholine receptor M3>
7.22

>  <Muscarinic acetylcholine receptor M4>
6.95

>  <Muscarinic acetylcholine receptor M5>
7.08

>  <Norepinephrine transporter>
7.18

>  <Serotonin transporter>
8.6

$$$$
Iodosulpride
  Marvin  02231216192D 0   1.00000     0.00000     0

 27 29  0  0  1  0  0  0  0  0999 V2000
    3.2421    2.6485    0.0000 I   0  0  0  0  0  0  0  0  0
    3.4137    1.8415    0.0000 C   0  0  0  0  0  0  0  0  0
    4.1983    1.5866    0.0000 C   0  0  0  0  0  0  0  0  0
    4.3698    0.7796    0.0000 C   0  0  0  0  0  0  0  0  0
    5.1544    0.5247    0.0000 O   0  0  0  0  0  0  0  0  0
    5.3260   -0.2823    0.0000 C   0  0  0  0  0  0  0  0  0
    3.7567    0.2276    0.0000 C   0  0  0  0  0  0  0  0  0
    2.9721    0.4825    0.0000 C   0  0  0  0  0  0  0  0  0
    2.8006    1.2895    0.0000 C   0  0  0  0  0  0  0  0  0
    2.0160    1.5444    0.0000 S   0  0  0  0  0  0  0  0  0
    1.7610    0.7598    0.0000 O   0  0  0  0  0  0  0  0  0
    2.2709    2.3290    0.0000 O   0  0  0  0  0  0  0  0  0
    1.2313    1.7993    0.0000 C   0  0  0  0  0  0  0  0  0
    1.0598    2.6063    0.0000 C   0  0  0  0  0  0  0  0  0
    3.9283   -0.5794    0.0000 C   0  0  0  0  0  0  0  0  0
    4.7129   -0.8344    0.0000 O   0  0  0  0  0  0  0  0  0
    3.3152   -1.1314    0.0000 N   0  0  0  0  0  0  0  0  0
    3.4867   -1.9384    0.0000 C   0  0  0  0  0  0  0  0  0
    2.8736   -2.4905    0.0000 C   0  0  0  0  0  0  0  0  0
    2.9598   -3.3109    0.0000 N   0  0  0  0  0  0  0  0  0
    2.2062   -3.6465    0.0000 C   0  0  0  0  0  0  0  0  0
    1.6541   -3.0334    0.0000 C   0  0  0  0  0  0  0  0  0
    2.0666   -2.3189    0.0000 C   0  0  0  0  0  0  0  0  0
    3.6743   -3.7234    0.0000 C   0  0  0  0  0  0  0  0  0
    3.6743   -4.5484    0.0000 C   0  0  0  0  0  0  0  0  0
    4.0868   -5.2629    0.0000 C   0  0  0  0  0  0  0  0  0
    3.2618   -5.2629    0.0000 C   0  0  0  0  0  0  0  0  0
  1  2  1  0  0  0  0
  2  3  4  0  0  0  0
  2  9  4  0  0  0  0
  3  4  4  0  0  0  0
  4  5  1  0  0  0  0
  4  7  4  0  0  0  0
  5  6  1  0  0  0  0
  7  8  4  0  0  0  0
  7 15  1  0  0  0  0
  8  9  4  0  0  0  0
  9 10  1  0  0  0  0
 10 11  2  0  0  0  0
 10 12  2  0  0  0  0
 10 13  1  0  0  0  0
 13 14  1  0  0  0  0
 15 16  2  0  0  0  0
 15 17  1  0  0  0  0
 17 18  1  0  0  0  0
 18 19  1  0  0  0  0
 19 20  1  0  0  0  0
 19 23  1  0  0  0  0
 20 21  1  0  0  0  0
 20 24  1  0  0  0  0
 21 22  1  0  0  0  0
 22 23  1  0  0  0  0
 24 25  1  0  0  0  0
 25 26  1  0  0  0  0
 25 27  1  0  0  0  0
 26 27  1  0  0  0  0
M  END
>  <Name_Molregno>
Iodosulpride

>  <DOPAMINE D2>
9.3

>  <DOPAMINE D3>
8.89

$$$$
L745870
  Marvin  02231216192D 0   1.00000     0.00000     0

 23 26  0  0  0  0  0  0  0  0999 V2000
    0.0748   -0.9429    0.0000 Cl  0  0  0  0  0  0  0  0  0
    0.8818   -0.7714    0.0000 C   0  0  0  0  0  0  0  0  0
    1.1368    0.0132    0.0000 C   0  0  0  0  0  0  0  0  0
    1.9437    0.1847    0.0000 C   0  0  0  0  0  0  0  0  0
    2.4958   -0.4284    0.0000 C   0  0  0  0  0  0  0  0  0
    3.3027   -0.2568    0.0000 N   0  0  0  0  0  0  0  0  0
    3.5577    0.5278    0.0000 C   0  0  0  0  0  0  0  0  0
    4.3646    0.6993    0.0000 C   0  0  0  0  0  0  0  0  0
    4.9167    0.0862    0.0000 N   0  0  0  0  0  0  0  0  0
    4.6617   -0.6984    0.0000 C   0  0  0  0  0  0  0  0  0
    3.8548   -0.8699    0.0000 C   0  0  0  0  0  0  0  0  0
    5.7237    0.2578    0.0000 C   0  0  0  0  0  0  0  0  0
    5.9786    1.0424    0.0000 C   0  0  0  0  0  0  0  0  0
    6.7632    1.2973    0.0000 C   0  0  0  0  0  0  0  0  0
    6.7632    2.1223    0.0000 C   0  0  0  0  0  0  0  0  0
    7.4777    2.5348    0.0000 N   0  0  0  0  0  0  0  0  0
    8.1922    2.1223    0.0000 C   0  0  0  0  0  0  0  0  0
    8.1922    1.2973    0.0000 C   0  0  0  0  0  0  0  0  0
    7.4777    0.8848    0.0000 C   0  0  0  0  0  0  0  0  0
    5.9786    2.3773    0.0000 N   0  0  0  0  0  0  0  0  0
    5.4937    1.7098    0.0000 C   0  0  0  0  0  0  0  0  0
    2.2408   -1.2130    0.0000 C   0  0  0  0  0  0  0  0  0
    1.4339   -1.3845    0.0000 C   0  0  0  0  0  0  0  0  0
  1  2  1  0  0  0  0
  2  3  4  0  0  0  0
  2 23  4  0  0  0  0
  3  4  4  0  0  0  0
  4  5  4  0  0  0  0
  5  6  1  0  0  0  0
  5 22  4  0  0  0  0
  6  7  1  0  0  0  0
  6 11  1  0  0  0  0
  7  8  1  0  0  0  0
  8  9  1  0  0  0  0
  9 10  1  0  0  0  0
  9 12  1  0  0  0  0
 10 11  1  0  0  0  0
 12 13  1  0  0  0  0
 13 14  4  0  0  0  0
 13 21  4  0  0  0  0
 14 15  4  0  0  0  0
 14 19  4  0  0  0  0
 15 16  4  0  0  0  0
 15 20  4  0  0  0  0
 16 17  4  0  0  0  0
 17 18  4  0  0  0  0
 18 19  4  0  0  0  0
 20 21  4  0  0  0  0
 22 23  4  0  0  0  0
M  STY  1   1 DAT
M  SAL   1  1  16
M  SDT   1 MRV_IMPLICIT_H                                        
M  SDD   1     0.0000    0.0000    DR    ALL  0       0  
M  SED   1 IMPL_H1
M  END
>  <Name_Molregno>
L745870

>  <DOPAMINE D2>
6.46

>  <DOPAMINE D3>
6

>  <DOPAMINE D4>
8.33

$$$$
L-cysteic-acid
  Marvin  02231216192D 0   1.00000     0.00000     0

 10  9  0  0  1  0  0  0  0  0999 V2000
   -1.9749    0.1579    0.0000 S   0  0  0  0  0  0  0  0  0
   -2.6894    0.5704    0.0000 O   0  0  0  0  0  0  0  0  0
   -2.3874   -0.5565    0.0000 O   0  0  0  0  0  0  0  0  0
   -1.5624    0.8724    0.0000 O   0  0  0  0  0  0  0  0  0
   -1.2605   -0.2546    0.0000 C   0  0  0  0  0  0  0  0  0
   -0.5460    0.1579    0.0000 C   0  0  0  0  0  0  0  0  0
   -0.5460    0.9829    0.0000 N   0  0  0  0  0  0  0  0  0
    0.1685   -0.2546    0.0000 C   0  0  0  0  0  0  0  0  0
    0.8829    0.1579    0.0000 O   0  0  0  0  0  0  0  0  0
    0.1685   -1.0796    0.0000 O   0  0  0  0  0  0  0  0  0
  1  2  2  0  0  0  0
  1  3  2  0  0  0  0
  1  4  1  0  0  0  0
  1  5  1  0  0  0  0
  5  6  1  0  0  0  0
  6  7  1  0  0  0  0
  6  8  1  0  0  0  0
  8  9  1  0  0  0  0
  8 10  2  0  0  0  0
M  END
>  <Name_Molregno>
L-cysteic-acid

>  <5-HT1A>
5

>  <5-HT1B>
5

>  <5-HT1D>
5

>  <5-HT3>
5

>  <5-HT5>
5

>  <5-HT6>
5

>  <5-HT7>
5

>  <Alpha-1A>
5

>  <Alpha-1B>
5

>  <Alpha-2A>
5

>  <Alpha-2C>
5

>  <DOPAMINE D1>
5

>  <DOPAMINE D2>
5

>  <DOPAMINE D3>
5

>  <DOPAMINE D5>
5

>  <Dopamine transporter>
5

>  <HISTAMINE H1>
5

>  <HISTAMINE H2>
5

>  <HISTAMINE H4>
5

>  <Muscarinic acetylcholine receptor M1>
5

>  <Muscarinic acetylcholine receptor M2>
5

>  <Muscarinic acetylcholine receptor M3>
5

>  <Muscarinic acetylcholine receptor M4>
5

>  <Muscarinic acetylcholine receptor M5>
5

>  <Norepinephrine transporter>
5

>  <Serotonin transporter>
5

$$$$
L-cysteine
  Marvin  02231216192D 0   1.00000     0.00000     0

  7  6  0  0  1  0  0  0  0  0999 V2000
    1.5580    2.1190    0.0000 S   0  0  0  0  0  0  0  0  0
    1.1455    1.4045    0.0000 C   0  0  0  0  0  0  0  0  0
    1.5580    0.6901    0.0000 C   0  0  0  0  0  0  0  0  0
    2.3830    0.6901    0.0000 N   0  0  0  0  0  0  0  0  0
    1.1455   -0.0244    0.0000 C   0  0  0  0  0  0  0  0  0
    1.5580   -0.7389    0.0000 O   0  0  0  0  0  0  0  0  0
    0.3205   -0.0244    0.0000 O   0  0  0  0  0  0  0  0  0
  1  2  1  0  0  0  0
  2  3  1  0  0  0  0
  3  4  1  0  0  0  0
  3  5  1  0  0  0  0
  5  6  1  0  0  0  0
  5  7  2  0  0  0  0
M  END
>  <Name_Molregno>
L-cysteine

>  <5-HT1A>
5

>  <5-HT1B>
5

>  <5-HT1D>
5

>  <5-HT3>
5

>  <5-HT5>
5

>  <5-HT6>
5

>  <5-HT7>
5

>  <Alpha-1A>
5

>  <Alpha-1B>
5

>  <Alpha-2A>
5

>  <Alpha-2B>
5

>  <Alpha-2C>
5

>  <DOPAMINE D1>
5

>  <DOPAMINE D2>
5

>  <DOPAMINE D3>
5

>  <DOPAMINE D5>
5

>  <Dopamine transporter>
5

>  <HISTAMINE H1>
5

>  <HISTAMINE H2>
5

>  <HISTAMINE H4>
5

>  <Muscarinic acetylcholine receptor M1>
5

>  <Muscarinic acetylcholine receptor M2>
5

>  <Muscarinic acetylcholine receptor M3>
5

>  <Muscarinic acetylcholine receptor M4>
5

>  <Muscarinic acetylcholine receptor M5>
5

>  <Norepinephrine transporter>
5

>  <Serotonin transporter>
5

$$$$
L-cysteine-sulfinic-acid
  Marvin  02231216192D 0   1.00000     0.00000     0

  9  8  0  0  1  0  0  0  0  0999 V2000
   -2.0945    0.5537    0.0000 S   0  0  0  0  0  0  0  0  0
   -2.8090    0.1412    0.0000 O   0  0  0  0  0  0  0  0  0
   -2.0945    1.3787    0.0000 O   0  0  0  0  0  0  0  0  0
   -1.3800    0.1412    0.0000 C   0  0  0  0  0  0  0  0  0
   -0.6656    0.5537    0.0000 C   0  0  0  0  0  0  0  0  0
   -0.6656    1.3787    0.0000 N   0  0  0  0  0  0  0  0  0
    0.0489    0.1412    0.0000 C   0  0  0  0  0  0  0  0  0
    0.7634    0.5537    0.0000 O   0  0  0  0  0  0  0  0  0
    0.0489   -0.6838    0.0000 O   0  0  0  0  0  0  0  0  0
  1  2  2  0  0  0  0
  1  3  1  0  0  0  0
  1  4  1  0  0  0  0
  4  5  1  0  0  0  0
  5  6  1  0  0  0  0
  5  7  1  0  0  0  0
  7  8  1  0  0  0  0
  7  9  2  0  0  0  0
M  END
>  <Name_Molregno>
L-cysteine-sulfinic-acid

>  <5-HT1A>
5

>  <5-HT1B>
5

>  <5-HT1D>
5

>  <5-HT3>
5

>  <5-HT5>
5

>  <5-HT6>
5

>  <5-HT7>
5

>  <Alpha-1A>
5

>  <Alpha-1B>
5

>  <Alpha-2A>
5

>  <Alpha-2B>
5

>  <Alpha-2C>
5

>  <DOPAMINE D1>
5

>  <DOPAMINE D2>
5

>  <DOPAMINE D3>
5

>  <DOPAMINE D5>
5

>  <Dopamine transporter>
5

>  <HISTAMINE H1>
5

>  <HISTAMINE H2>
5

>  <HISTAMINE H4>
5

>  <Muscarinic acetylcholine receptor M1>
5

>  <Muscarinic acetylcholine receptor M2>
5

>  <Muscarinic acetylcholine receptor M3>
5

>  <Muscarinic acetylcholine receptor M4>
5

>  <Muscarinic acetylcholine receptor M5>
5

>  <Norepinephrine transporter>
5

>  <Serotonin transporter>
5

$$$$
LOXAPINE
  Marvin  02231216192D 0   1.00000     0.00000     0

 23 26  0  0  0  0  0  0  0  0999 V2000
    3.9671    1.6854    0.0000 Cl  0  0  0  0  0  0  0  0  0
    3.1788    1.4422    0.0000 C   0  0  0  0  0  0  0  0  0
    2.5740    2.0033    0.0000 C   0  0  0  0  0  0  0  0  0
    1.7856    1.7602    0.0000 C   0  0  0  0  0  0  0  0  0
    1.6021    0.9558    0.0000 C   0  0  0  0  0  0  0  0  0
    0.8588    0.5979    0.0000 O   0  0  0  0  0  0  0  0  0
    0.1155    0.9558    0.0000 C   0  0  0  0  0  0  0  0  0
   -0.0681    1.7602    0.0000 C   0  0  0  0  0  0  0  0  0
    0.4463    2.4052    0.0000 N   0  0  0  0  0  0  0  0  0
    1.2713    2.4052    0.0000 C   0  0  0  0  0  0  0  0  0
    1.6292    3.1485    0.0000 N   0  0  0  0  0  0  0  0  0
    1.1645    3.8301    0.0000 C   0  0  0  0  0  0  0  0  0
    1.5224    4.5734    0.0000 C   0  0  0  0  0  0  0  0  0
    2.3451    4.6351    0.0000 N   0  0  0  0  0  0  0  0  0
    2.8099    3.9534    0.0000 C   0  0  0  0  0  0  0  0  0
    2.4519    3.2101    0.0000 C   0  0  0  0  0  0  0  0  0
    2.7031    5.3784    0.0000 C   0  0  0  0  0  0  0  0  0
   -0.8565    2.0033    0.0000 C   0  0  0  0  0  0  0  0  0
   -1.4612    1.4422    0.0000 C   0  0  0  0  0  0  0  0  0
   -1.2776    0.6379    0.0000 C   0  0  0  0  0  0  0  0  0
   -0.4893    0.3947    0.0000 C   0  0  0  0  0  0  0  0  0
    2.2068    0.3947    0.0000 C   0  0  0  0  0  0  0  0  0
    2.9952    0.6379    0.0000 C   0  0  0  0  0  0  0  0  0
  1  2  1  0  0  0  0
  2  3  4  0  0  0  0
  2 23  4  0  0  0  0
  3  4  4  0  0  0  0
  4  5  4  0  0  0  0
  4 10  1  0  0  0  0
  5  6  1  0  0  0  0
  5 22  4  0  0  0  0
  6  7  1  0  0  0  0
  7  8  4  0  0  0  0
  7 21  4  0  0  0  0
  8  9  1  0  0  0  0
  8 18  4  0  0  0  0
  9 10  2  0  0  0  0
 10 11  1  0  0  0  0
 11 12  1  0  0  0  0
 11 16  1  0  0  0  0
 12 13  1  0  0  0  0
 13 14  1  0  0  0  0
 14 15  1  0  0  0  0
 14 17  1  0  0  0  0
 15 16  1  0  0  0  0
 18 19  4  0  0  0  0
 19 20  4  0  0  0  0
 20 21  4  0  0  0  0
 22 23  4  0  0  0  0
M  END
>  <Name_Molregno>
LOXAPINE

>  <5-HT1A>
5.59

>  <5-HT1B>
6.41

>  <5-HT1D>
5.46

>  <5-HT1E>
5.85

>  <5-HT2A>
8.43

>  <5-HT2C>
7.9

>  <5-HT3>
6.72

>  <5-HT5>
6.11

>  <5-HT6>
7.46

>  <5-HT7>
7.06

>  <Alpha-1A>
7.51

>  <Alpha-1B>
7.28

>  <Alpha-2A>
6.82

>  <Alpha-2B>
6.97

>  <Alpha-2C>
7.1

>  <Beta-1>
5

>  <Beta-2>
5

>  <DOPAMINE D1>
7.27

>  <DOPAMINE D2>
7.74

>  <DOPAMINE D3>
7.64

>  <DOPAMINE D4>
8.04

>  <DOPAMINE D5>
7.12

>  <Dopamine transporter>
5

>  <HISTAMINE H1>
8.33

>  <HISTAMINE H2>
6.68

>  <HISTAMINE H4>
5.32

>  <Muscarinic acetylcholine receptor M1>
6.98

>  <Muscarinic acetylcholine receptor M2>
6.38

>  <Muscarinic acetylcholine receptor M3>
6.74

>  <Muscarinic acetylcholine receptor M4>
6.09

>  <Muscarinic acetylcholine receptor M5>
6.83

>  <Norepinephrine transporter>
5.24

>  <Serotonin transporter>
5

$$$$
MAPROTILINE
  Marvin  02231216192D 0   1.00000     0.00000     0

 21 24  0  0  0  0  0  0  0  0999 V2000
    1.1690   -3.5982    0.0000 N   0  0  0  0  0  0  0  0  0
    1.8855   -3.1892    0.0000 C   0  0  0  0  0  0  0  0  0
    1.8895   -2.3643    0.0000 C   0  0  0  0  0  0  0  0  0
    2.6060   -1.9553    0.0000 C   0  0  0  0  0  0  0  0  0
    2.6101   -1.1303    0.0000 C   0  0  0  0  0  0  0  0  0
    2.7498   -0.0917    0.0000 C   0  0  0  0  0  0  0  0  0
    2.5051    0.5142    0.0000 C   0  0  0  0  0  0  0  0  0
    2.4674   -0.3819    0.0000 C   0  0  0  0  0  0  0  0  0
    3.2060   -0.7142    0.0000 C   0  0  0  0  0  0  0  0  0
    3.3678   -1.5232    0.0000 C   0  0  0  0  0  0  0  0  0
    4.1493   -1.7876    0.0000 C   0  0  0  0  0  0  0  0  0
    4.7690   -1.2429    0.0000 C   0  0  0  0  0  0  0  0  0
    4.6072   -0.4340    0.0000 C   0  0  0  0  0  0  0  0  0
    3.8257   -0.1696    0.0000 C   0  0  0  0  0  0  0  0  0
    1.6636   -0.7338    0.0000 C   0  0  0  0  0  0  0  0  0
    1.7795   -1.5506    0.0000 C   0  0  0  0  0  0  0  0  0
    1.1301   -2.0594    0.0000 C   0  0  0  0  0  0  0  0  0
    0.3648   -1.7514    0.0000 C   0  0  0  0  0  0  0  0  0
    0.2488   -0.9346    0.0000 C   0  0  0  0  0  0  0  0  0
    0.8983   -0.4258    0.0000 C   0  0  0  0  0  0  0  0  0
    1.1649   -4.4232    0.0000 C   0  0  0  0  0  0  0  0  0
  1  2  1  0  0  0  0
  1 21  1  0  0  0  0
  2  3  1  0  0  0  0
  3  4  1  0  0  0  0
  4  5  1  0  0  0  0
  5  6  1  0  0  0  0
  5 10  1  0  0  0  0
  5 16  1  0  0  0  0
  6  7  1  0  0  0  0
  7  8  1  0  0  0  0
  8  9  1  0  0  0  0
  8 15  1  0  0  0  0
  9 10  4  0  0  0  0
  9 14  4  0  0  0  0
 10 11  4  0  0  0  0
 11 12  4  0  0  0  0
 12 13  4  0  0  0  0
 13 14  4  0  0  0  0
 15 16  4  0  0  0  0
 15 20  4  0  0  0  0
 16 17  4  0  0  0  0
 17 18  4  0  0  0  0
 18 19  4  0  0  0  0
 19 20  4  0  0  0  0
M  END
>  <Name_Molregno>
MAPROTILINE

>  <DOPAMINE D1>
6.4

>  <DOPAMINE D2>
6.18

>  <DOPAMINE D3>
6.3

>  <DOPAMINE D5>
6.37

>  <Dopamine transporter>
6

>  <HISTAMINE H1>
8.89

>  <HISTAMINE H3>
6

>  <Norepinephrine transporter>
7.95

>  <Serotonin transporter>
5.24

$$$$
MELPERONE
  Marvin  02231216192D 0   1.00000     0.00000     0

 19 20  0  0  0  0  0  0  0  0999 V2000
    0.1244    2.1151    0.0000 F   0  0  0  0  0  0  0  0  0
    0.8389    1.7026    0.0000 C   0  0  0  0  0  0  0  0  0
    1.5534    2.1151    0.0000 C   0  0  0  0  0  0  0  0  0
    2.2678    1.7026    0.0000 C   0  0  0  0  0  0  0  0  0
    2.2678    0.8776    0.0000 C   0  0  0  0  0  0  0  0  0
    1.5534    0.4651    0.0000 C   0  0  0  0  0  0  0  0  0
    0.8389    0.8776    0.0000 C   0  0  0  0  0  0  0  0  0
    2.9823    0.4651    0.0000 C   0  0  0  0  0  0  0  0  0
    2.9823   -0.3599    0.0000 O   0  0  0  0  0  0  0  0  0
    3.6968    0.8776    0.0000 C   0  0  0  0  0  0  0  0  0
    4.4113    0.4651    0.0000 C   0  0  0  0  0  0  0  0  0
    5.1257    0.8776    0.0000 C   0  0  0  0  0  0  0  0  0
    5.8402    0.4651    0.0000 N   0  0  0  0  0  0  0  0  0
    6.5547    0.8776    0.0000 C   0  0  0  0  0  0  0  0  0
    7.2691    0.4651    0.0000 C   0  0  0  0  0  0  0  0  0
    7.2691   -0.3599    0.0000 C   0  0  0  0  0  0  0  0  0
    6.5547   -0.7724    0.0000 C   0  0  0  0  0  0  0  0  0
    5.8402   -0.3599    0.0000 C   0  0  0  0  0  0  0  0  0
    7.9836   -0.7724    0.0000 C   0  0  0  0  0  0  0  0  0
  1  2  1  0  0  0  0
  2  3  4  0  0  0  0
  2  7  4  0  0  0  0
  3  4  4  0  0  0  0
  4  5  4  0  0  0  0
  5  6  4  0  0  0  0
  5  8  1  0  0  0  0
  6  7  4  0  0  0  0
  8  9  2  0  0  0  0
  8 10  1  0  0  0  0
 10 11  1  0  0  0  0
 11 12  1  0  0  0  0
 12 13  1  0  0  0  0
 13 14  1  0  0  0  0
 13 18  1  0  0  0  0
 14 15  1  0  0  0  0
 15 16  1  0  0  0  0
 16 17  1  0  0  0  0
 16 19  1  0  0  0  0
 17 18  1  0  0  0  0
M  END
>  <Name_Molregno>
MELPERONE

>  <5-HT1A>
5.66

>  <5-HT1D>
5.47

>  <5-HT2A>
6.74

>  <5-HT2C>
5.68

>  <DOPAMINE D2>
7.04

>  <DOPAMINE D3>
7.45

>  <DOPAMINE D4>
6.33

>  <HISTAMINE H1>
6.24

>  <Muscarinic acetylcholine receptor M1>
5

>  <Muscarinic acetylcholine receptor M2>
5.62

>  <Muscarinic acetylcholine receptor M3>
5

>  <Muscarinic acetylcholine receptor M4>
5.36

>  <Muscarinic acetylcholine receptor M5>
5

$$$$
METOCLOPRAMIDE
  Marvin  02231216192D 0   1.00000     0.00000     0

 20 20  0  0  0  0  0  0  0  0999 V2000
   -0.1329    0.9766    0.0000 Cl  0  0  0  0  0  0  0  0  0
    0.2796    0.2621    0.0000 C   0  0  0  0  0  0  0  0  0
    1.1046    0.2621    0.0000 C   0  0  0  0  0  0  0  0  0
    1.5171   -0.4524    0.0000 C   0  0  0  0  0  0  0  0  0
    2.3421   -0.4524    0.0000 C   0  0  0  0  0  0  0  0  0
    2.7546    0.2621    0.0000 O   0  0  0  0  0  0  0  0  0
    2.7546   -1.1669    0.0000 N   0  0  0  0  0  0  0  0  0
    3.5796   -1.1669    0.0000 C   0  0  0  0  0  0  0  0  0
    3.9921   -1.8813    0.0000 C   0  0  0  0  0  0  0  0  0
    4.8171   -1.8813    0.0000 N   0  0  0  0  0  0  0  0  0
    5.2296   -2.5958    0.0000 C   0  0  0  0  0  0  0  0  0
    6.0546   -2.5958    0.0000 C   0  0  0  0  0  0  0  0  0
    5.2296   -1.1669    0.0000 C   0  0  0  0  0  0  0  0  0
    6.0546   -1.1669    0.0000 C   0  0  0  0  0  0  0  0  0
    1.1046   -1.1669    0.0000 C   0  0  0  0  0  0  0  0  0
    1.5171   -1.8813    0.0000 O   0  0  0  0  0  0  0  0  0
    1.1046   -2.5958    0.0000 C   0  0  0  0  0  0  0  0  0
    0.2796   -1.1669    0.0000 C   0  0  0  0  0  0  0  0  0
   -0.1329   -0.4524    0.0000 C   0  0  0  0  0  0  0  0  0
   -0.9579   -0.4524    0.0000 N   0  0  0  0  0  0  0  0  0
  1  2  1  0  0  0  0
  2  3  4  0  0  0  0
  2 19  4  0  0  0  0
  3  4  4  0  0  0  0
  4  5  1  0  0  0  0
  4 15  4  0  0  0  0
  5  6  2  0  0  0  0
  5  7  1  0  0  0  0
  7  8  1  0  0  0  0
  8  9  1  0  0  0  0
  9 10  1  0  0  0  0
 10 11  1  0  0  0  0
 10 13  1  0  0  0  0
 11 12  1  0  0  0  0
 13 14  1  0  0  0  0
 15 16  1  0  0  0  0
 15 18  4  0  0  0  0
 16 17  1  0  0  0  0
 18 19  4  0  0  0  0
 19 20  1  0  0  0  0
M  END
>  <Name_Molregno>
METOCLOPRAMIDE

>  <5-HT1A>
5

>  <5-HT1D>
5

>  <5-HT3>
6.16

>  <DOPAMINE D1>
5

>  <DOPAMINE D2>
7.19

>  <DOPAMINE D3>
7.69

$$$$
MIANSERIN
  Marvin  02231216192D 0   1.00000     0.00000     0

 20 23  0  0  1  0  0  0  0  0999 V2000
   -0.0097    0.0139    0.0000 N   0  0  0  0  0  0  0  0  0
    0.8153    0.0139    0.0000 C   0  0  0  0  0  0  0  0  0
    1.3296   -0.6312    0.0000 C   0  0  0  0  0  0  0  0  0
    1.1460   -1.4355    0.0000 C   0  0  0  0  0  0  0  0  0
    0.4028   -1.7934    0.0000 C   0  0  0  0  0  0  0  0  0
   -0.3405   -1.4355    0.0000 C   0  0  0  0  0  0  0  0  0
   -0.5241   -0.6312    0.0000 C   0  0  0  0  0  0  0  0  0
   -1.3125   -0.3880    0.0000 C   0  0  0  0  0  0  0  0  0
   -1.9172   -0.9491    0.0000 C   0  0  0  0  0  0  0  0  0
   -1.7337   -1.7534    0.0000 C   0  0  0  0  0  0  0  0  0
   -0.9453   -1.9966    0.0000 C   0  0  0  0  0  0  0  0  0
    1.7508   -1.9966    0.0000 C   0  0  0  0  0  0  0  0  0
    2.5392   -1.7534    0.0000 C   0  0  0  0  0  0  0  0  0
    2.7227   -0.9491    0.0000 C   0  0  0  0  0  0  0  0  0
    2.1180   -0.3880    0.0000 C   0  0  0  0  0  0  0  0  0
    1.2278    0.7283    0.0000 C   0  0  0  0  0  0  0  0  0
    0.8153    1.4428    0.0000 N   0  0  0  0  0  0  0  0  0
   -0.0097    1.4428    0.0000 C   0  0  0  0  0  0  0  0  0
   -0.4222    0.7283    0.0000 C   0  0  0  0  0  0  0  0  0
    1.2278    2.1573    0.0000 C   0  0  0  0  0  0  0  0  0
  1  2  1  0  0  0  0
  1  7  1  0  0  0  0
  1 19  1  0  0  0  0
  2  3  1  0  0  0  0
  2 16  1  0  0  0  0
  3  4  4  0  0  0  0
  3 15  4  0  0  0  0
  4  5  1  0  0  0  0
  4 12  4  0  0  0  0
  5  6  1  0  0  0  0
  6  7  4  0  0  0  0
  6 11  4  0  0  0  0
  7  8  4  0  0  0  0
  8  9  4  0  0  0  0
  9 10  4  0  0  0  0
 10 11  4  0  0  0  0
 12 13  4  0  0  0  0
 13 14  4  0  0  0  0
 14 15  4  0  0  0  0
 16 17  1  0  0  0  0
 17 18  1  0  0  0  0
 17 20  1  0  0  0  0
 18 19  1  0  0  0  0
M  END
>  <Name_Molregno>
MIANSERIN

>  <5-HT1A>
6.15

>  <5-HT1D>
6.53

>  <5-HT2A>
8.13

>  <5-HT2C>
8.5

>  <5-HT6>
7.2

>  <5-HT7>
7.28

>  <Alpha-2A>
8.32

>  <Alpha-2B>
7.57

>  <Alpha-2C>
8.42

>  <DOPAMINE D1>
6.11

>  <DOPAMINE D2>
5.69

>  <DOPAMINE D3>
5.55

>  <Dopamine transporter>
5.03

>  <HISTAMINE H1>
9.13

>  <HISTAMINE H4>
6.12

>  <Norepinephrine transporter>
7.15

>  <Serotonin transporter>
5.4

$$$$
MIRTAZAPINE
  Marvin  02231216192D 0   1.00000     0.00000     0

 20 23  0  0  1  0  0  0  0  0999 V2000
   -2.9515    1.3173    0.0000 N   0  0  0  0  0  0  0  0  0
   -2.1632    1.0741    0.0000 C   0  0  0  0  0  0  0  0  0
   -1.6488    1.7191    0.0000 N   0  0  0  0  0  0  0  0  0
   -0.8238    1.7191    0.0000 C   0  0  0  0  0  0  0  0  0
   -0.3094    1.0741    0.0000 C   0  0  0  0  0  0  0  0  0
   -0.4930    0.2698    0.0000 C   0  0  0  0  0  0  0  0  0
   -1.2363   -0.0881    0.0000 C   0  0  0  0  0  0  0  0  0
   -1.9796    0.2698    0.0000 C   0  0  0  0  0  0  0  0  0
   -2.5844   -0.2913    0.0000 C   0  0  0  0  0  0  0  0  0
   -3.3727   -0.0482    0.0000 C   0  0  0  0  0  0  0  0  0
   -3.5563    0.7562    0.0000 C   0  0  0  0  0  0  0  0  0
    0.1118   -0.2913    0.0000 C   0  0  0  0  0  0  0  0  0
    0.9001   -0.0482    0.0000 C   0  0  0  0  0  0  0  0  0
    1.0837    0.7562    0.0000 C   0  0  0  0  0  0  0  0  0
    0.4789    1.3173    0.0000 C   0  0  0  0  0  0  0  0  0
   -0.4113    2.4336    0.0000 C   0  0  0  0  0  0  0  0  0
   -0.8238    3.1481    0.0000 N   0  0  0  0  0  0  0  0  0
   -1.6488    3.1481    0.0000 C   0  0  0  0  0  0  0  0  0
   -2.0613    2.4336    0.0000 C   0  0  0  0  0  0  0  0  0
   -0.4113    3.8626    0.0000 C   0  0  0  0  0  0  0  0  0
  1  2  4  0  0  0  0
  1 11  4  0  0  0  0
  2  3  1  0  0  0  0
  2  8  4  0  0  0  0
  3  4  1  0  0  0  0
  3 19  1  0  0  0  0
  4  5  1  0  0  0  0
  4 16  1  0  0  0  0
  5  6  4  0  0  0  0
  5 15  4  0  0  0  0
  6  7  1  0  0  0  0
  6 12  4  0  0  0  0
  7  8  1  0  0  0  0
  8  9  4  0  0  0  0
  9 10  4  0  0  0  0
 10 11  4  0  0  0  0
 12 13  4  0  0  0  0
 13 14  4  0  0  0  0
 14 15  4  0  0  0  0
 16 17  1  0  0  0  0
 17 18  1  0  0  0  0
 17 20  1  0  0  0  0
 18 19  1  0  0  0  0
M  END
>  <Name_Molregno>
MIRTAZAPINE

>  <5-HT1A>
7.74

>  <5-HT2A>
7.16

>  <5-HT2C>
7.41

>  <5-HT7>
6.58

>  <Alpha-2A>
7.7

>  <Alpha-2C>
7.74

>  <DOPAMINE D1>
5.38

>  <DOPAMINE D2>
5.26

>  <DOPAMINE D3>
6.06

>  <DOPAMINE D4>
7.6

>  <Dopamine transporter>
5

>  <HISTAMINE H1>
8.8

>  <Norepinephrine transporter>
5.29

>  <Serotonin transporter>
5

$$$$
MOLINDONE
  Marvin  02231216192D 0   1.00000     0.00000     0

 20 22  0  0  1  0  0  0  0  0999 V2000
    0.1066   -1.7192    0.0000 O   0  0  0  0  0  0  0  0  0
   -0.6079   -2.1317    0.0000 C   0  0  0  0  0  0  0  0  0
   -1.3224   -1.7192    0.0000 C   0  0  0  0  0  0  0  0  0
   -1.3224   -0.8942    0.0000 N   0  0  0  0  0  0  0  0  0
   -0.6079   -0.4817    0.0000 C   0  0  0  0  0  0  0  0  0
    0.1066   -0.8942    0.0000 C   0  0  0  0  0  0  0  0  0
   -2.0368   -0.4817    0.0000 C   0  0  0  0  0  0  0  0  0
   -2.7513   -0.8942    0.0000 C   0  0  0  0  0  0  0  0  0
   -2.7513   -1.7192    0.0000 C   0  0  0  0  0  0  0  0  0
   -3.4658   -2.1317    0.0000 C   0  0  0  0  0  0  0  0  0
   -4.1803   -1.7192    0.0000 C   0  0  0  0  0  0  0  0  0
   -4.9649   -1.9741    0.0000 N   0  0  0  0  0  0  0  0  0
   -5.4498   -1.3067    0.0000 C   0  0  0  0  0  0  0  0  0
   -6.2748   -1.3067    0.0000 C   0  0  0  0  0  0  0  0  0
   -4.9649   -0.6392    0.0000 C   0  0  0  0  0  0  0  0  0
   -4.1803   -0.8942    0.0000 C   0  0  0  0  0  0  0  0  0
   -3.4658   -0.4817    0.0000 C   0  0  0  0  0  0  0  0  0
   -3.4658    0.3433    0.0000 O   0  0  0  0  0  0  0  0  0
   -5.2198    0.1454    0.0000 C   0  0  0  0  0  0  0  0  0
   -4.6678    0.7585    0.0000 C   0  0  0  0  0  0  0  0  0
  1  2  1  0  0  0  0
  1  6  1  0  0  0  0
  2  3  1  0  0  0  0
  3  4  1  0  0  0  0
  4  5  1  0  0  0  0
  4  7  1  0  0  0  0
  5  6  1  0  0  0  0
  7  8  1  0  0  0  0
  8  9  1  0  0  0  0
  8 17  1  0  0  0  0
  9 10  1  0  0  0  0
 10 11  1  0  0  0  0
 11 12  4  0  0  0  0
 11 16  4  0  0  0  0
 12 13  4  0  0  0  0
 13 14  1  0  0  0  0
 13 15  4  0  0  0  0
 15 16  4  0  0  0  0
 15 19  1  0  0  0  0
 16 17  1  0  0  0  0
 17 18  2  0  0  0  0
 19 20  1  0  0  0  0
M  STY  1   1 DAT
M  SAL   1  1  12
M  SDT   1 MRV_IMPLICIT_H                                        
M  SDD   1     0.0000    0.0000    DR    ALL  0       0  
M  SED   1 IMPL_H1
M  END
>  <Name_Molregno>
MOLINDONE

>  <5-HT1A>
5.42

>  <5-HT2A>
5.41

>  <5-HT2C>
5

>  <5-HT6>
6

>  <5-HT7>
6.05

>  <Alpha-1A>
5.58

>  <Alpha-2A>
5.96

>  <Alpha-2B>
6.25

>  <Alpha-2C>
6.76

>  <DOPAMINE D2>
7.74

>  <DOPAMINE D3>
7.39

>  <DOPAMINE D4>
5.99

>  <HISTAMINE H1>
5.17

>  <Muscarinic acetylcholine receptor M3>
5

$$$$
MOPERONE
  Marvin  02231216192D 0   1.00000     0.00000     0

 26 28  0  0  0  0  0  0  0  0999 V2000
    0.4137    2.9661    0.0000 F   0  0  0  0  0  0  0  0  0
    1.1282    2.5536    0.0000 C   0  0  0  0  0  0  0  0  0
    1.8426    2.9661    0.0000 C   0  0  0  0  0  0  0  0  0
    2.5571    2.5536    0.0000 C   0  0  0  0  0  0  0  0  0
    2.5571    1.7286    0.0000 C   0  0  0  0  0  0  0  0  0
    1.8426    1.3161    0.0000 C   0  0  0  0  0  0  0  0  0
    1.1282    1.7286    0.0000 C   0  0  0  0  0  0  0  0  0
    3.2716    1.3161    0.0000 C   0  0  0  0  0  0  0  0  0
    3.2716    0.4911    0.0000 O   0  0  0  0  0  0  0  0  0
    3.9861    1.7286    0.0000 C   0  0  0  0  0  0  0  0  0
    4.7005    1.3161    0.0000 C   0  0  0  0  0  0  0  0  0
    5.4150    1.7286    0.0000 C   0  0  0  0  0  0  0  0  0
    6.1295    1.3161    0.0000 N   0  0  0  0  0  0  0  0  0
    6.8439    1.7286    0.0000 C   0  0  0  0  0  0  0  0  0
    7.5584    1.3161    0.0000 C   0  0  0  0  0  0  0  0  0
    7.5584    0.4911    0.0000 C   0  0  0  0  0  0  0  0  0
    8.3709    0.6343    0.0000 O   0  0  0  0  0  0  0  0  0
    6.8439    0.0786    0.0000 C   0  0  0  0  0  0  0  0  0
    6.1295    0.4911    0.0000 C   0  0  0  0  0  0  0  0  0
    7.8406   -0.2842    0.0000 C   0  0  0  0  0  0  0  0  0
    8.6530   -0.4274    0.0000 C   0  0  0  0  0  0  0  0  0
    8.9352   -1.2027    0.0000 C   0  0  0  0  0  0  0  0  0
    8.4049   -1.8347    0.0000 C   0  0  0  0  0  0  0  0  0
    7.5924   -1.6914    0.0000 C   0  0  0  0  0  0  0  0  0
    7.3103   -0.9162    0.0000 C   0  0  0  0  0  0  0  0  0
    8.6871   -2.6099    0.0000 C   0  0  0  0  0  0  0  0  0
  1  2  1  0  0  0  0
  2  3  4  0  0  0  0
  2  7  4  0  0  0  0
  3  4  4  0  0  0  0
  4  5  4  0  0  0  0
  5  6  4  0  0  0  0
  5  8  1  0  0  0  0
  6  7  4  0  0  0  0
  8  9  2  0  0  0  0
  8 10  1  0  0  0  0
 10 11  1  0  0  0  0
 11 12  1  0  0  0  0
 12 13  1  0  0  0  0
 13 14  1  0  0  0  0
 13 19  1  0  0  0  0
 14 15  1  0  0  0  0
 15 16  1  0  0  0  0
 16 17  1  0  0  0  0
 16 18  1  0  0  0  0
 16 20  1  0  0  0  0
 18 19  1  0  0  0  0
 20 21  4  0  0  0  0
 20 25  4  0  0  0  0
 21 22  4  0  0  0  0
 22 23  4  0  0  0  0
 23 24  4  0  0  0  0
 23 26  1  0  0  0  0
 24 25  4  0  0  0  0
M  END
>  <Name_Molregno>
MOPERONE

>  <DOPAMINE D2>
8.96

>  <DOPAMINE D3>
9.5

>  <DOPAMINE D4>
8.14

$$$$
N-0434
  Marvin  02231216192D 0   1.00000     0.00000     0

 23 25  0  0  1  0  0  0  0  0999 V2000
    5.9421    1.8333    0.0000 O   0  0  0  0  0  0  0  0  0
    5.1171    1.8333    0.0000 C   0  0  0  0  0  0  0  0  0
    4.7046    1.1188    0.0000 C   0  0  0  0  0  0  0  0  0
    5.1171    0.4043    0.0000 C   0  0  0  0  0  0  0  0  0
    4.7046   -0.3102    0.0000 C   0  0  0  0  0  0  0  0  0
    3.8796   -0.3102    0.0000 C   0  0  0  0  0  0  0  0  0
    3.4671   -1.0246    0.0000 N   0  0  0  0  0  0  0  0  0
    2.6421   -1.0246    0.0000 C   0  0  0  0  0  0  0  0  0
    2.2296   -1.7391    0.0000 C   0  0  0  0  0  0  0  0  0
    1.4046   -1.7391    0.0000 C   0  0  0  0  0  0  0  0  0
    0.9921   -2.4536    0.0000 C   0  0  0  0  0  0  0  0  0
    0.1671   -2.4536    0.0000 C   0  0  0  0  0  0  0  0  0
   -0.2454   -1.7391    0.0000 C   0  0  0  0  0  0  0  0  0
    0.1671   -1.0246    0.0000 C   0  0  0  0  0  0  0  0  0
    0.9921   -1.0246    0.0000 C   0  0  0  0  0  0  0  0  0
    3.8796   -1.7391    0.0000 C   0  0  0  0  0  0  0  0  0
    4.7046   -1.7391    0.0000 C   0  0  0  0  0  0  0  0  0
    5.1171   -2.4536    0.0000 C   0  0  0  0  0  0  0  0  0
    3.4671    0.4043    0.0000 C   0  0  0  0  0  0  0  0  0
    3.8796    1.1188    0.0000 C   0  0  0  0  0  0  0  0  0
    3.4671    1.8333    0.0000 C   0  0  0  0  0  0  0  0  0
    3.8796    2.5477    0.0000 C   0  0  0  0  0  0  0  0  0
    4.7046    2.5477    0.0000 C   0  0  0  0  0  0  0  0  0
  1  2  1  0  0  0  0
  2  3  4  0  0  0  0
  2 23  4  0  0  0  0
  3  4  1  0  0  0  0
  3 20  4  0  0  0  0
  4  5  1  0  0  0  0
  5  6  1  0  0  0  0
  6  7  1  0  0  0  0
  6 19  1  0  0  0  0
  7  8  1  0  0  0  0
  7 16  1  0  0  0  0
  8  9  1  0  0  0  0
  9 10  1  0  0  0  0
 10 11  4  0  0  0  0
 10 15  4  0  0  0  0
 11 12  4  0  0  0  0
 12 13  4  0  0  0  0
 13 14  4  0  0  0  0
 14 15  4  0  0  0  0
 16 17  1  0  0  0  0
 17 18  1  0  0  0  0
 19 20  1  0  0  0  0
 20 21  4  0  0  0  0
 21 22  4  0  0  0  0
 22 23  4  0  0  0  0
M  END
>  <Name_Molregno>
N-0434

>  <DOPAMINE D2>
8.23

>  <DOPAMINE D3>
9.59

$$$$
NAD-299
  Marvin  02231216192D 0   1.00000     0.00000     0

 23 26  0  0  1  0  0  0  0  0999 V2000
   -4.1257    1.1386    0.0000 F   0  0  0  0  0  0  0  0  0
   -4.1257    0.3136    0.0000 C   0  0  0  0  0  0  0  0  0
   -3.4112   -0.0989    0.0000 C   0  0  0  0  0  0  0  0  0
   -2.6967    0.3136    0.0000 O   0  0  0  0  0  0  0  0  0
   -1.9823   -0.0989    0.0000 C   0  0  0  0  0  0  0  0  0
   -1.9823   -0.9239    0.0000 C   0  0  0  0  0  0  0  0  0
   -1.2678   -1.3364    0.0000 N   0  0  0  0  0  0  0  0  0
   -1.2678   -2.1614    0.0000 C   0  0  0  0  0  0  0  0  0
   -0.6844   -2.7448    0.0000 C   0  0  0  0  0  0  0  0  0
   -1.2678   -3.3281    0.0000 C   0  0  0  0  0  0  0  0  0
   -1.8512   -2.7448    0.0000 C   0  0  0  0  0  0  0  0  0
   -0.5533   -0.9239    0.0000 C   0  0  0  0  0  0  0  0  0
   -0.3398   -0.1270    0.0000 C   0  0  0  0  0  0  0  0  0
    0.4571   -0.3405    0.0000 C   0  0  0  0  0  0  0  0  0
    0.2436   -1.1374    0.0000 C   0  0  0  0  0  0  0  0  0
   -2.6967   -1.3364    0.0000 C   0  0  0  0  0  0  0  0  0
   -3.4112   -0.9239    0.0000 C   0  0  0  0  0  0  0  0  0
   -4.1257   -1.3364    0.0000 C   0  0  0  0  0  0  0  0  0
   -4.8402   -0.9239    0.0000 C   0  0  0  0  0  0  0  0  0
   -4.8402   -0.0989    0.0000 C   0  0  0  0  0  0  0  0  0
   -4.1257   -2.1614    0.0000 C   0  0  0  0  0  0  0  0  0
   -4.8402   -2.5739    0.0000 O   0  0  0  0  0  0  0  0  0
   -3.4112   -2.5739    0.0000 N   0  0  0  0  0  0  0  0  0
  1  2  1  0  0  0  0
  2  3  4  0  0  0  0
  2 20  4  0  0  0  0
  3  4  1  0  0  0  0
  3 17  4  0  0  0  0
  4  5  1  0  0  0  0
  5  6  1  0  0  0  0
  6  7  1  0  0  0  0
  6 16  1  0  0  0  0
  7  8  1  0  0  0  0
  7 12  1  0  0  0  0
  8  9  1  0  0  0  0
  8 11  1  0  0  0  0
  9 10  1  0  0  0  0
 10 11  1  0  0  0  0
 12 13  1  0  0  0  0
 12 15  1  0  0  0  0
 13 14  1  0  0  0  0
 14 15  1  0  0  0  0
 16 17  1  0  0  0  0
 17 18  4  0  0  0  0
 18 19  4  0  0  0  0
 18 21  1  0  0  0  0
 19 20  4  0  0  0  0
 21 22  2  0  0  0  0
 21 23  1  0  0  0  0
M  END
>  <Name_Molregno>
NAD-299

>  <DOPAMINE D2>
6

>  <DOPAMINE D3>
6

$$$$
N-DESMETHYLCLOZAPINE
  Marvin  02231216192D 0   1.00000     0.00000     0

 22 25  0  0  0  0  0  0  0  0999 V2000
   -0.3818   -1.7384    0.0000 Cl  0  0  0  0  0  0  0  0  0
    0.4065   -1.9816    0.0000 C   0  0  0  0  0  0  0  0  0
    1.0113   -1.4204    0.0000 C   0  0  0  0  0  0  0  0  0
    1.7996   -1.6636    0.0000 C   0  0  0  0  0  0  0  0  0
    2.3140   -1.0186    0.0000 N   0  0  0  0  0  0  0  0  0
    3.1390   -1.0186    0.0000 C   0  0  0  0  0  0  0  0  0
    3.4969   -0.2753    0.0000 N   0  0  0  0  0  0  0  0  0
    3.0322    0.4063    0.0000 C   0  0  0  0  0  0  0  0  0
    3.3902    1.1496    0.0000 C   0  0  0  0  0  0  0  0  0
    4.2129    1.2113    0.0000 N   0  0  0  0  0  0  0  0  0
    4.6776    0.5296    0.0000 C   0  0  0  0  0  0  0  0  0
    4.3196   -0.2137    0.0000 C   0  0  0  0  0  0  0  0  0
    3.6534   -1.6636    0.0000 C   0  0  0  0  0  0  0  0  0
    3.4698   -2.4679    0.0000 C   0  0  0  0  0  0  0  0  0
    2.7265   -2.8259    0.0000 N   0  0  0  0  0  0  0  0  0
    1.9832   -2.4679    0.0000 C   0  0  0  0  0  0  0  0  0
    1.3784   -3.0291    0.0000 C   0  0  0  0  0  0  0  0  0
    0.5901   -2.7859    0.0000 C   0  0  0  0  0  0  0  0  0
    4.0746   -3.0291    0.0000 C   0  0  0  0  0  0  0  0  0
    4.8629   -2.7859    0.0000 C   0  0  0  0  0  0  0  0  0
    5.0465   -1.9816    0.0000 C   0  0  0  0  0  0  0  0  0
    4.4417   -1.4204    0.0000 C   0  0  0  0  0  0  0  0  0
  1  2  1  0  0  0  0
  2  3  4  0  0  0  0
  2 18  4  0  0  0  0
  3  4  4  0  0  0  0
  4  5  1  0  0  0  0
  4 16  4  0  0  0  0
  5  6  1  0  0  0  0
  6  7  1  0  0  0  0
  6 13  2  0  0  0  0
  7  8  1  0  0  0  0
  7 12  1  0  0  0  0
  8  9  1  0  0  0  0
  9 10  1  0  0  0  0
 10 11  1  0  0  0  0
 11 12  1  0  0  0  0
 13 14  1  0  0  0  0
 13 22  1  0  0  0  0
 14 15  2  0  0  0  0
 14 19  1  0  0  0  0
 15 16  1  0  0  0  0
 16 17  4  0  0  0  0
 17 18  4  0  0  0  0
 19 20  2  0  0  0  0
 20 21  1  0  0  0  0
 21 22  2  0  0  0  0
M  END
>  <Name_Molregno>
N-DESMETHYLCLOZAPINE

>  <5-HT1A>
7.86

>  <5-HT1B>
6.39

>  <5-HT1D>
6.32

>  <5-HT1E>
6.41

>  <5-HT2A>
7.96

>  <5-HT3>
6.57

>  <5-HT5>
6.46

>  <5-HT6>
7.94

>  <5-HT7>
7.22

>  <Alpha-1A>
6.98

>  <Alpha-1B>
7.07

>  <Alpha-2A>
6.86

>  <Alpha-2B>
7.02

>  <Alpha-2C>
6.93

>  <Beta-1>
5.2

>  <Beta-2>
5.33

>  <DOPAMINE D1>
7.84

>  <DOPAMINE D2>
7

>  <DOPAMINE D3>
6.82

>  <DOPAMINE D4>
7.28

>  <DOPAMINE D5>
6.55

>  <Dopamine transporter>
5

>  <HISTAMINE H1>
8.47

>  <HISTAMINE H2>
6.46

>  <HISTAMINE H4>
5.99

>  <Muscarinic acetylcholine receptor M1>
7.17

>  <Muscarinic acetylcholine receptor M2>
6.38

>  <Muscarinic acetylcholine receptor M3>
7.02

>  <Muscarinic acetylcholine receptor M4>
6.77

>  <Muscarinic acetylcholine receptor M5>
7.45

>  <Norepinephrine transporter>
6.31

>  <Serotonin transporter>
6.5

$$$$
NEMONAPRIDE
  Marvin  02231216192D 0   1.00000     0.00000     0

 27 29  0  0  1  0  0  0  0  0999 V2000
    5.2060    2.2336    0.0000 Cl  0  0  0  0  0  0  0  0  0
    4.4916    1.8211    0.0000 C   0  0  0  0  0  0  0  0  0
    4.4916    0.9961    0.0000 C   0  0  0  0  0  0  0  0  0
    3.7771    0.5836    0.0000 C   0  0  0  0  0  0  0  0  0
    3.7771   -0.2414    0.0000 C   0  0  0  0  0  0  0  0  0
    4.4916   -0.6539    0.0000 O   0  0  0  0  0  0  0  0  0
    3.0626   -0.6539    0.0000 N   0  0  0  0  0  0  0  0  0
    3.0626   -1.4789    0.0000 C   0  0  0  0  0  0  0  0  0
    3.7300   -1.9638    0.0000 C   0  0  0  0  0  0  0  0  0
    3.4751   -2.7484    0.0000 C   0  0  0  0  0  0  0  0  0
    2.6501   -2.7484    0.0000 N   0  0  0  0  0  0  0  0  0
    2.1652   -3.4159    0.0000 C   0  0  0  0  0  0  0  0  0
    2.5007   -4.1696    0.0000 C   0  0  0  0  0  0  0  0  0
    3.3212   -4.2558    0.0000 C   0  0  0  0  0  0  0  0  0
    3.6568   -5.0095    0.0000 C   0  0  0  0  0  0  0  0  0
    3.1719   -5.6769    0.0000 C   0  0  0  0  0  0  0  0  0
    2.3514   -5.5907    0.0000 C   0  0  0  0  0  0  0  0  0
    2.0158   -4.8370    0.0000 C   0  0  0  0  0  0  0  0  0
    2.3952   -1.9638    0.0000 C   0  0  0  0  0  0  0  0  0
    1.6105   -1.7089    0.0000 C   0  0  0  0  0  0  0  0  0
    3.0626    0.9961    0.0000 C   0  0  0  0  0  0  0  0  0
    2.3481    0.5836    0.0000 O   0  0  0  0  0  0  0  0  0
    1.6337    0.9961    0.0000 C   0  0  0  0  0  0  0  0  0
    3.0626    1.8211    0.0000 C   0  0  0  0  0  0  0  0  0
    3.7771    2.2336    0.0000 C   0  0  0  0  0  0  0  0  0
    3.7771    3.0586    0.0000 N   0  0  0  0  0  0  0  0  0
    3.0626    3.4711    0.0000 C   0  0  0  0  0  0  0  0  0
  1  2  1  0  0  0  0
  2  3  4  0  0  0  0
  2 25  4  0  0  0  0
  3  4  4  0  0  0  0
  4  5  1  0  0  0  0
  4 21  4  0  0  0  0
  5  6  2  0  0  0  0
  5  7  1  0  0  0  0
  7  8  1  0  0  0  0
  8  9  1  0  0  0  0
  8 19  1  0  0  0  0
  9 10  1  0  0  0  0
 10 11  1  0  0  0  0
 11 12  1  0  0  0  0
 11 19  1  0  0  0  0
 12 13  1  0  0  0  0
 13 14  4  0  0  0  0
 13 18  4  0  0  0  0
 14 15  4  0  0  0  0
 15 16  4  0  0  0  0
 16 17  4  0  0  0  0
 17 18  4  0  0  0  0
 19 20  1  0  0  0  0
 21 22  1  0  0  0  0
 21 24  4  0  0  0  0
 22 23  1  0  0  0  0
 24 25  4  0  0  0  0
 25 26  1  0  0  0  0
 26 27  1  0  0  0  0
M  END
>  <Name_Molregno>
NEMONAPRIDE

>  <5-HT1A>
7.82

>  <DOPAMINE D1>
5.58

>  <DOPAMINE D2>
10.31

>  <DOPAMINE D3>
9.7

>  <DOPAMINE D4>
9.97

$$$$
Ocaperidone
  Marvin  02231216192D 0   1.00000     0.00000     0

 31 35  0  0  0  0  0  0  0  0999 V2000
    1.7758   -2.6889    0.0000 F   0  0  0  0  0  0  0  0  0
    2.0308   -1.9043    0.0000 C   0  0  0  0  0  0  0  0  0
    1.4788   -1.2912    0.0000 C   0  0  0  0  0  0  0  0  0
    1.7337   -0.5066    0.0000 C   0  0  0  0  0  0  0  0  0
    1.3212    0.2079    0.0000 O   0  0  0  0  0  0  0  0  0
    1.8732    0.8210    0.0000 N   0  0  0  0  0  0  0  0  0
    2.6269    0.4854    0.0000 C   0  0  0  0  0  0  0  0  0
    2.5407   -0.3350    0.0000 C   0  0  0  0  0  0  0  0  0
    3.0927   -0.9481    0.0000 C   0  0  0  0  0  0  0  0  0
    2.8378   -1.7327    0.0000 C   0  0  0  0  0  0  0  0  0
    3.3414    0.8979    0.0000 C   0  0  0  0  0  0  0  0  0
    3.3414    1.7229    0.0000 C   0  0  0  0  0  0  0  0  0
    4.0558    2.1354    0.0000 C   0  0  0  0  0  0  0  0  0
    4.7703    1.7229    0.0000 N   0  0  0  0  0  0  0  0  0
    4.7703    0.8979    0.0000 C   0  0  0  0  0  0  0  0  0
    4.0558    0.4854    0.0000 C   0  0  0  0  0  0  0  0  0
    5.4848    2.1354    0.0000 C   0  0  0  0  0  0  0  0  0
    6.1993    1.7229    0.0000 C   0  0  0  0  0  0  0  0  0
    6.9137    2.1354    0.0000 C   0  0  0  0  0  0  0  0  0
    7.6282    1.7229    0.0000 C   0  0  0  0  0  0  0  0  0
    7.6282    0.8979    0.0000 O   0  0  0  0  0  0  0  0  0
    8.3427    2.1354    0.0000 N   0  0  0  0  0  0  0  0  0
    8.3427    2.9604    0.0000 C   0  0  0  0  0  0  0  0  0
    7.6282    3.3729    0.0000 N   0  0  0  0  0  0  0  0  0
    6.9137    2.9604    0.0000 C   0  0  0  0  0  0  0  0  0
    6.1993    3.3729    0.0000 C   0  0  0  0  0  0  0  0  0
    9.0571    3.3729    0.0000 C   0  0  0  0  0  0  0  0  0
    9.7716    2.9604    0.0000 C   0  0  0  0  0  0  0  0  0
    9.7716    2.1354    0.0000 C   0  0  0  0  0  0  0  0  0
    9.0571    1.7229    0.0000 C   0  0  0  0  0  0  0  0  0
    9.0571    4.1979    0.0000 C   0  0  0  0  0  0  0  0  0
  1  2  1  0  0  0  0
  2  3  4  0  0  0  0
  2 10  4  0  0  0  0
  3  4  4  0  0  0  0
  4  5  4  0  0  0  0
  4  8  4  0  0  0  0
  5  6  4  0  0  0  0
  6  7  4  0  0  0  0
  7  8  4  0  0  0  0
  7 11  1  0  0  0  0
  8  9  4  0  0  0  0
  9 10  4  0  0  0  0
 11 12  1  0  0  0  0
 11 16  1  0  0  0  0
 12 13  1  0  0  0  0
 13 14  1  0  0  0  0
 14 15  1  0  0  0  0
 14 17  1  0  0  0  0
 15 16  1  0  0  0  0
 17 18  1  0  0  0  0
 18 19  1  0  0  0  0
 19 20  1  0  0  0  0
 19 25  2  0  0  0  0
 20 21  2  0  0  0  0
 20 22  1  0  0  0  0
 22 23  1  0  0  0  0
 22 30  1  0  0  0  0
 23 24  2  0  0  0  0
 23 27  1  0  0  0  0
 24 25  1  0  0  0  0
 25 26  1  0  0  0  0
 27 28  2  0  0  0  0
 27 31  1  0  0  0  0
 28 29  1  0  0  0  0
 29 30  2  0  0  0  0
M  END
>  <Name_Molregno>
Ocaperidone

>  <5-HT1A>
7.86

>  <DOPAMINE D2>
9.7

>  <DOPAMINE D3>
8.84

>  <DOPAMINE D4>
8.18

$$$$
OLANZAPINE
  Marvin  02231216192D 0   1.00000     0.00000     0

 22 25  0  0  0  0  0  0  0  0999 V2000
   -1.5954    3.4952    0.0000 S   0  0  0  0  0  0  0  0  0
   -0.8919    3.0642    0.0000 C   0  0  0  0  0  0  0  0  0
   -0.1447    3.4138    0.0000 N   0  0  0  0  0  0  0  0  0
    0.5946    3.0476    0.0000 C   0  0  0  0  0  0  0  0  0
    0.7691    2.2413    0.0000 C   0  0  0  0  0  0  0  0  0
    0.2476    1.6020    0.0000 N   0  0  0  0  0  0  0  0  0
   -0.5774    1.6113    0.0000 C   0  0  0  0  0  0  0  0  0
   -0.9436    0.8720    0.0000 N   0  0  0  0  0  0  0  0  0
   -0.4865    0.1852    0.0000 C   0  0  0  0  0  0  0  0  0
   -0.8527   -0.5540    0.0000 C   0  0  0  0  0  0  0  0  0
   -1.6761   -0.6065    0.0000 N   0  0  0  0  0  0  0  0  0
   -2.1332    0.0803    0.0000 C   0  0  0  0  0  0  0  0  0
   -1.7669    0.8196    0.0000 C   0  0  0  0  0  0  0  0  0
   -2.0423   -1.3458    0.0000 C   0  0  0  0  0  0  0  0  0
   -1.0845    2.2620    0.0000 C   0  0  0  0  0  0  0  0  0
   -1.9069    2.1972    0.0000 C   0  0  0  0  0  0  0  0  0
   -2.2227    2.9594    0.0000 C   0  0  0  0  0  0  0  0  0
   -3.0249    3.1520    0.0000 C   0  0  0  0  0  0  0  0  0
    1.5547    1.9893    0.0000 C   0  0  0  0  0  0  0  0  0
    2.1657    2.5436    0.0000 C   0  0  0  0  0  0  0  0  0
    1.9912    3.3499    0.0000 C   0  0  0  0  0  0  0  0  0
    1.2056    3.6019    0.0000 C   0  0  0  0  0  0  0  0  0
  1  2  1  0  0  0  0
  1 17  1  0  0  0  0
  2  3  2  0  0  0  0
  2 15  1  0  0  0  0
  3  4  1  0  0  0  0
  4  5  4  0  0  0  0
  4 22  4  0  0  0  0
  5  6  1  0  0  0  0
  5 19  4  0  0  0  0
  6  7  1  0  0  0  0
  7  8  1  0  0  0  0
  7 15  2  0  0  0  0
  8  9  1  0  0  0  0
  8 13  1  0  0  0  0
  9 10  1  0  0  0  0
 10 11  1  0  0  0  0
 11 12  1  0  0  0  0
 11 14  1  0  0  0  0
 12 13  1  0  0  0  0
 15 16  1  0  0  0  0
 16 17  2  0  0  0  0
 17 18  1  0  0  0  0
 19 20  4  0  0  0  0
 20 21  4  0  0  0  0
 21 22  4  0  0  0  0
M  END
>  <Name_Molregno>
OLANZAPINE

>  <5-HT1A>
5.77

>  <5-HT1B>
6.23

>  <5-HT1D>
6.3

>  <5-HT1E>
5.66

>  <5-HT2A>
8.46

>  <5-HT2C>
7.86

>  <5-HT3>
6.69

>  <5-HT5>
5.92

>  <5-HT6>
7.97

>  <5-HT7>
6.73

>  <Alpha-1A>
6.95

>  <Alpha-1B>
6.58

>  <Alpha-2A>
6.51

>  <Alpha-2B>
6.97

>  <Alpha-2C>
7.21

>  <Beta-1>
5.15

>  <Beta-2>
5.15

>  <DOPAMINE D1>
7.3

>  <DOPAMINE D2>
7.67

>  <DOPAMINE D3>
7.53

>  <DOPAMINE D4>
7.73

>  <DOPAMINE D5>
7.09

>  <Dopamine transporter>
5

>  <HISTAMINE H1>
8.96

>  <HISTAMINE H2>
7.36

>  <HISTAMINE H4>
5

>  <Muscarinic acetylcholine receptor M1>
7.99

>  <Muscarinic acetylcholine receptor M2>
6.93

>  <Muscarinic acetylcholine receptor M3>
7.33

>  <Muscarinic acetylcholine receptor M4>
7.35

>  <Muscarinic acetylcholine receptor M5>
7.78

>  <Norepinephrine transporter>
5

>  <Serotonin transporter>
5.48

$$$$
OLANZAPINE-2
  Marvin  02231216192D 0   1.00000     0.00000     0

 22 25  0  0  0  0  0  0  0  0999 V2000
   -1.5954    3.4952    0.0000 S   0  0  0  0  0  0  0  0  0
   -0.8919    3.0642    0.0000 C   0  0  0  0  0  0  0  0  0
   -0.1447    3.4138    0.0000 N   0  0  0  0  0  0  0  0  0
    0.5946    3.0476    0.0000 C   0  0  0  0  0  0  0  0  0
    0.7691    2.2413    0.0000 C   0  0  0  0  0  0  0  0  0
    0.2476    1.6020    0.0000 N   0  0  0  0  0  0  0  0  0
   -0.5774    1.6113    0.0000 C   0  0  0  0  0  0  0  0  0
   -0.9436    0.8720    0.0000 N   0  0  0  0  0  0  0  0  0
   -0.4865    0.1852    0.0000 C   0  0  0  0  0  0  0  0  0
   -0.8527   -0.5540    0.0000 C   0  0  0  0  0  0  0  0  0
   -1.6761   -0.6065    0.0000 N   0  0  0  0  0  0  0  0  0
   -2.1332    0.0803    0.0000 C   0  0  0  0  0  0  0  0  0
   -1.7669    0.8196    0.0000 C   0  0  0  0  0  0  0  0  0
   -2.0423   -1.3458    0.0000 C   0  0  0  0  0  0  0  0  0
   -1.0845    2.2620    0.0000 C   0  0  0  0  0  0  0  0  0
   -1.9069    2.1972    0.0000 C   0  0  0  0  0  0  0  0  0
   -2.2227    2.9594    0.0000 C   0  0  0  0  0  0  0  0  0
   -3.0249    3.1520    0.0000 C   0  0  0  0  0  0  0  0  0
    1.5547    1.9893    0.0000 C   0  0  0  0  0  0  0  0  0
    2.1657    2.5436    0.0000 C   0  0  0  0  0  0  0  0  0
    1.9912    3.3499    0.0000 C   0  0  0  0  0  0  0  0  0
    1.2056    3.6019    0.0000 C   0  0  0  0  0  0  0  0  0
  1  2  4  0  0  0  0
  1 17  4  0  0  0  0
  2  3  1  0  0  0  0
  2 15  4  0  0  0  0
  3  4  1  0  0  0  0
  4  5  4  0  0  0  0
  4 22  4  0  0  0  0
  5  6  1  0  0  0  0
  5 19  4  0  0  0  0
  6  7  2  0  0  0  0
  7  8  1  0  0  0  0
  7 15  1  0  0  0  0
  8  9  1  0  0  0  0
  8 13  1  0  0  0  0
  9 10  1  0  0  0  0
 10 11  1  0  0  0  0
 11 12  1  0  0  0  0
 11 14  1  0  0  0  0
 12 13  1  0  0  0  0
 15 16  4  0  0  0  0
 16 17  4  0  0  0  0
 17 18  1  0  0  0  0
 19 20  4  0  0  0  0
 20 21  4  0  0  0  0
 21 22  4  0  0  0  0
M  END
>  <Name_Molregno>
OLANZAPINE-2

>  <5-HT1A>
5.68

>  <5-HT2A>
8.66

>  <5-HT2C>
8.05

>  <5-HT3>
6.7

>  <5-HT6>
7.8

>  <5-HT7>
6.77

>  <Alpha-2A>
6.72

>  <Alpha-2C>
7.09

>  <DOPAMINE D1>
7.28

>  <DOPAMINE D2>
7.63

>  <DOPAMINE D3>
7.47

>  <DOPAMINE D4>
7.3

>  <HISTAMINE H1>
8.74

>  <Muscarinic acetylcholine receptor M1>
8.16

>  <Muscarinic acetylcholine receptor M4>
7.9

>  <Serotonin transporter>
4.82

$$$$
ORG-5222
  Marvin  02231216192D 0   1.00000     0.00000     0

 20 23  0  0  1  0  0  0  0  0999 V2000
   -0.0754   -0.1702    0.0000 Cl  0  0  0  0  0  0  0  0  0
    0.7129   -0.4133    0.0000 C   0  0  0  0  0  0  0  0  0
    1.3177    0.1478    0.0000 C   0  0  0  0  0  0  0  0  0
    2.1060   -0.0954    0.0000 C   0  0  0  0  0  0  0  0  0
    2.6204    0.5496    0.0000 C   0  0  0  0  0  0  0  0  0
    3.4454    0.5496    0.0000 C   0  0  0  0  0  0  0  0  0
    3.9598   -0.0954    0.0000 C   0  0  0  0  0  0  0  0  0
    3.7762   -0.8997    0.0000 C   0  0  0  0  0  0  0  0  0
    3.0329   -1.2576    0.0000 O   0  0  0  0  0  0  0  0  0
    2.2896   -0.8997    0.0000 C   0  0  0  0  0  0  0  0  0
    1.6849   -1.4608    0.0000 C   0  0  0  0  0  0  0  0  0
    0.8965   -1.2176    0.0000 C   0  0  0  0  0  0  0  0  0
    4.3810   -1.4608    0.0000 C   0  0  0  0  0  0  0  0  0
    5.1693   -1.2176    0.0000 C   0  0  0  0  0  0  0  0  0
    5.3529   -0.4133    0.0000 C   0  0  0  0  0  0  0  0  0
    4.7482    0.1478    0.0000 C   0  0  0  0  0  0  0  0  0
    3.7004    1.3343    0.0000 C   0  0  0  0  0  0  0  0  0
    3.0329    1.8192    0.0000 N   0  0  0  0  0  0  0  0  0
    2.3655    1.3343    0.0000 C   0  0  0  0  0  0  0  0  0
    3.0329    2.6442    0.0000 C   0  0  0  0  0  0  0  0  0
  1  2  1  0  0  0  0
  2  3  4  0  0  0  0
  2 12  4  0  0  0  0
  3  4  4  0  0  0  0
  4  5  1  0  0  0  0
  4 10  4  0  0  0  0
  5  6  1  0  0  0  0
  5 19  1  0  0  0  0
  6  7  1  0  0  0  0
  6 17  1  0  0  0  0
  7  8  4  0  0  0  0
  7 16  4  0  0  0  0
  8  9  1  0  0  0  0
  8 13  4  0  0  0  0
  9 10  1  0  0  0  0
 10 11  4  0  0  0  0
 11 12  4  0  0  0  0
 13 14  4  0  0  0  0
 14 15  4  0  0  0  0
 15 16  4  0  0  0  0
 17 18  1  0  0  0  0
 18 19  1  0  0  0  0
 18 20  1  0  0  0  0
M  END
>  <Name_Molregno>
ORG-5222

>  <5-HT1A>
7.7

>  <5-HT1B>
8.34

>  <5-HT1D>
8.07

>  <5-HT1E>
7.69

>  <5-HT2A>
9.41

>  <5-HT2C>
9.63

>  <5-HT3>
6.35

>  <5-HT5>
8.4

>  <5-HT6>
8.85

>  <5-HT7>
9.05

>  <Alpha-1A>
8.36

>  <Alpha-1B>
8.41

>  <Alpha-2A>
8.08

>  <Alpha-2B>
8.64

>  <Alpha-2C>
7.82

>  <Beta-1>
5.3

>  <Beta-2>
5.3

>  <DOPAMINE D1>
8.54

>  <DOPAMINE D2>
8.72

>  <DOPAMINE D3>
8.74

>  <DOPAMINE D4>
8.58

>  <DOPAMINE D5>
7.64

>  <Dopamine transporter>
5.5

>  <HISTAMINE H1>
8.91

>  <HISTAMINE H2>
8.64

>  <HISTAMINE H4>
5

>  <Muscarinic acetylcholine receptor M1>
7.61

>  <Muscarinic acetylcholine receptor M2>
7.1

>  <Muscarinic acetylcholine receptor M3>
7.41

>  <Muscarinic acetylcholine receptor M4>
5

>  <Muscarinic acetylcholine receptor M5>
8.02

>  <Norepinephrine transporter>
5

>  <Serotonin transporter>
5.5

$$$$
PERGOLIDE
  Marvin  02231216192D 0   1.00000     0.00000     0

 22 25  0  0  1  0  0  0  0  0999 V2000
    2.3775   -0.9399    0.0000 S   0  0  0  0  0  0  0  0  0
    1.6635   -0.5265    0.0000 C   0  0  0  0  0  0  0  0  0
    1.6645    0.2985    0.0000 C   0  0  0  0  0  0  0  0  0
    2.3795    0.7101    0.0000 C   0  0  0  0  0  0  0  0  0
    2.3805    1.5351    0.0000 C   0  0  0  0  0  0  0  0  0
    1.6665    1.9485    0.0000 C   0  0  0  0  0  0  0  0  0
    0.9515    1.5368    0.0000 N   0  0  0  0  0  0  0  0  0
    0.9505    0.7118    0.0000 C   0  0  0  0  0  0  0  0  0
    0.2376    1.9502    0.0000 C   0  0  0  0  0  0  0  0  0
   -0.4774    1.5385    0.0000 C   0  0  0  0  0  0  0  0  0
   -1.1914    1.9519    0.0000 C   0  0  0  0  0  0  0  0  0
    1.6680    2.7726    0.0000 C   0  0  0  0  0  0  0  0  0
    2.3805    3.1851    0.0000 C   0  0  0  0  0  0  0  0  0
    3.0930    2.7726    0.0000 C   0  0  0  0  0  0  0  0  0
    3.0930    1.9476    0.0000 C   0  0  0  0  0  0  0  0  0
    3.8108    1.5351    0.0000 C   0  0  0  0  0  0  0  0  0
    4.5233    1.9476    0.0000 C   0  0  0  0  0  0  0  0  0
    4.5233    2.7726    0.0000 C   0  0  0  0  0  0  0  0  0
    3.8108    3.1851    0.0000 C   0  0  0  0  0  0  0  0  0
    3.5055    4.0422    0.0000 N   0  0  0  0  0  0  0  0  0
    2.6805    4.0422    0.0000 C   0  0  0  0  0  0  0  0  0
    2.3765   -1.7649    0.0000 C   0  0  0  0  0  0  0  0  0
  1  2  1  0  0  0  0
  1 22  1  0  0  0  0
  2  3  1  0  0  0  0
  3  4  1  0  0  0  0
  3  8  1  0  0  0  0
  4  5  1  0  0  0  0
  5  6  1  0  0  0  0
  5 15  1  0  0  0  0
  6  7  1  0  0  0  0
  6 12  1  0  0  0  0
  7  8  1  0  0  0  0
  7  9  1  0  0  0  0
  9 10  1  0  0  0  0
 10 11  1  0  0  0  0
 12 13  1  0  0  0  0
 13 14  4  0  0  0  0
 13 21  4  0  0  0  0
 14 15  4  0  0  0  0
 14 19  4  0  0  0  0
 15 16  4  0  0  0  0
 16 17  4  0  0  0  0
 17 18  4  0  0  0  0
 18 19  4  0  0  0  0
 19 20  4  0  0  0  0
 20 21  4  0  0  0  0
M  STY  1   1 DAT
M  SAL   1  1  20
M  SDT   1 MRV_IMPLICIT_H                                        
M  SDD   1     0.0000    0.0000    DR    ALL  0       0  
M  SED   1 IMPL_H1
M  END
>  <Name_Molregno>
PERGOLIDE

>  <5-HT1A>
8.56

>  <5-HT1B>
6.55

>  <5-HT1D>
7.88

>  <5-HT2A>
8.08

>  <5-HT2C>
6.53

>  <Alpha-1A>
5.98

>  <Alpha-1B>
6.16

>  <Alpha-2A>
7.3

>  <Alpha-2B>
7.49

>  <Alpha-2C>
7.17

>  <Beta-1>
5

>  <Beta-2>
5

>  <DOPAMINE D1>
6.17

>  <DOPAMINE D2>
7.8

>  <DOPAMINE D3>
8.59

>  <DOPAMINE D4>
7.25

>  <DOPAMINE D5>
6.76

$$$$
PERPHENAZINE
  Marvin  02231216192D 0   1.00000     0.00000     0

 27 30  0  0  0  0  0  0  0  0999 V2000
   -5.2850   -0.3290    0.0000 Cl  0  0  0  0  0  0  0  0  0
   -4.5705    0.0835    0.0000 C   0  0  0  0  0  0  0  0  0
   -3.8561   -0.3290    0.0000 C   0  0  0  0  0  0  0  0  0
   -3.1416    0.0835    0.0000 C   0  0  0  0  0  0  0  0  0
   -2.4271   -0.3290    0.0000 N   0  0  0  0  0  0  0  0  0
   -1.7126    0.0835    0.0000 C   0  0  0  0  0  0  0  0  0
   -1.7126    0.9085    0.0000 C   0  0  0  0  0  0  0  0  0
   -2.4271    1.3210    0.0000 S   0  0  0  0  0  0  0  0  0
   -3.1416    0.9085    0.0000 C   0  0  0  0  0  0  0  0  0
   -3.8561    1.3210    0.0000 C   0  0  0  0  0  0  0  0  0
   -4.5705    0.9085    0.0000 C   0  0  0  0  0  0  0  0  0
   -0.9982    1.3210    0.0000 C   0  0  0  0  0  0  0  0  0
   -0.2837    0.9085    0.0000 C   0  0  0  0  0  0  0  0  0
   -0.2837    0.0835    0.0000 C   0  0  0  0  0  0  0  0  0
   -0.9982   -0.3290    0.0000 C   0  0  0  0  0  0  0  0  0
   -2.4271   -1.1540    0.0000 C   0  0  0  0  0  0  0  0  0
   -3.1416   -1.5665    0.0000 C   0  0  0  0  0  0  0  0  0
   -3.1416   -2.3915    0.0000 C   0  0  0  0  0  0  0  0  0
   -3.8561   -2.8040    0.0000 N   0  0  0  0  0  0  0  0  0
   -3.8561   -3.6290    0.0000 C   0  0  0  0  0  0  0  0  0
   -4.5705   -4.0415    0.0000 C   0  0  0  0  0  0  0  0  0
   -5.2850   -3.6290    0.0000 N   0  0  0  0  0  0  0  0  0
   -5.2850   -2.8040    0.0000 C   0  0  0  0  0  0  0  0  0
   -4.5705   -2.3915    0.0000 C   0  0  0  0  0  0  0  0  0
   -5.9995   -4.0415    0.0000 C   0  0  0  0  0  0  0  0  0
   -6.7139   -3.6290    0.0000 C   0  0  0  0  0  0  0  0  0
   -7.4284   -4.0415    0.0000 O   0  0  0  0  0  0  0  0  0
  1  2  1  0  0  0  0
  2  3  4  0  0  0  0
  2 11  4  0  0  0  0
  3  4  4  0  0  0  0
  4  5  1  0  0  0  0
  4  9  4  0  0  0  0
  5  6  1  0  0  0  0
  5 16  1  0  0  0  0
  6  7  4  0  0  0  0
  6 15  4  0  0  0  0
  7  8  1  0  0  0  0
  7 12  4  0  0  0  0
  8  9  1  0  0  0  0
  9 10  4  0  0  0  0
 10 11  4  0  0  0  0
 12 13  4  0  0  0  0
 13 14  4  0  0  0  0
 14 15  4  0  0  0  0
 16 17  1  0  0  0  0
 17 18  1  0  0  0  0
 18 19  1  0  0  0  0
 19 20  1  0  0  0  0
 19 24  1  0  0  0  0
 20 21  1  0  0  0  0
 21 22  1  0  0  0  0
 22 23  1  0  0  0  0
 22 25  1  0  0  0  0
 23 24  1  0  0  0  0
 25 26  1  0  0  0  0
 26 27  1  0  0  0  0
M  END
>  <Name_Molregno>
PERPHENAZINE

>  <5-HT1A>
6.38

>  <5-HT2A>
8.25

>  <5-HT2C>
6.88

>  <5-HT6>
7.77

>  <5-HT7>
7.64

>  <Alpha-1A>
8

>  <Alpha-2A>
6.09

>  <Alpha-2B>
6.98

>  <Alpha-2C>
7.07

>  <DOPAMINE D2>
9.26

>  <DOPAMINE D3>
9.52

>  <DOPAMINE D4>
7.59

>  <HISTAMINE H1>
8.09

>  <Muscarinic acetylcholine receptor M3>
5.73

$$$$
PIMOZIDE
  Marvin  02231216192D 0   1.00000     0.00000     0

 34 38  0  0  0  0  0  0  0  0999 V2000
    3.4878   -7.4849    0.0000 F   0  0  0  0  0  0  0  0  0
    3.7428   -6.7002    0.0000 C   0  0  0  0  0  0  0  0  0
    3.1908   -6.0871    0.0000 C   0  0  0  0  0  0  0  0  0
    3.4457   -5.3025    0.0000 C   0  0  0  0  0  0  0  0  0
    4.2527   -5.1310    0.0000 C   0  0  0  0  0  0  0  0  0
    4.8047   -5.7441    0.0000 C   0  0  0  0  0  0  0  0  0
    4.5498   -6.5287    0.0000 C   0  0  0  0  0  0  0  0  0
    4.5076   -4.3464    0.0000 C   0  0  0  0  0  0  0  0  0
    3.9556   -3.7333    0.0000 C   0  0  0  0  0  0  0  0  0
    4.2105   -2.9487    0.0000 C   0  0  0  0  0  0  0  0  0
    3.6585   -2.3356    0.0000 C   0  0  0  0  0  0  0  0  0
    3.9134   -1.5509    0.0000 N   0  0  0  0  0  0  0  0  0
    3.3614   -0.9378    0.0000 C   0  0  0  0  0  0  0  0  0
    3.6163   -0.1532    0.0000 C   0  0  0  0  0  0  0  0  0
    4.4233    0.0183    0.0000 C   0  0  0  0  0  0  0  0  0
    4.6782    0.8029    0.0000 N   0  0  0  0  0  0  0  0  0
    5.4629    1.0579    0.0000 C   0  0  0  0  0  0  0  0  0
    5.4629    1.8829    0.0000 C   0  0  0  0  0  0  0  0  0
    4.6782    2.1378    0.0000 N   0  0  0  0  0  0  0  0  0
    4.1933    1.4704    0.0000 C   0  0  0  0  0  0  0  0  0
    3.3683    1.4704    0.0000 O   0  0  0  0  0  0  0  0  0
    6.1773    2.2954    0.0000 C   0  0  0  0  0  0  0  0  0
    6.8918    1.8829    0.0000 C   0  0  0  0  0  0  0  0  0
    6.8918    1.0579    0.0000 C   0  0  0  0  0  0  0  0  0
    6.1773    0.6454    0.0000 C   0  0  0  0  0  0  0  0  0
    4.9753   -0.5948    0.0000 C   0  0  0  0  0  0  0  0  0
    4.7204   -1.3794    0.0000 C   0  0  0  0  0  0  0  0  0
    5.3146   -4.1748    0.0000 C   0  0  0  0  0  0  0  0  0
    5.5695   -3.3902    0.0000 C   0  0  0  0  0  0  0  0  0
    6.3765   -3.2187    0.0000 C   0  0  0  0  0  0  0  0  0
    6.9285   -3.8318    0.0000 C   0  0  0  0  0  0  0  0  0
    7.7355   -3.6603    0.0000 F   0  0  0  0  0  0  0  0  0
    6.6736   -4.6164    0.0000 C   0  0  0  0  0  0  0  0  0
    5.8666   -4.7879    0.0000 C   0  0  0  0  0  0  0  0  0
  1  2  1  0  0  0  0
  2  3  4  0  0  0  0
  2  7  4  0  0  0  0
  3  4  4  0  0  0  0
  4  5  4  0  0  0  0
  5  6  4  0  0  0  0
  5  8  1  0  0  0  0
  6  7  4  0  0  0  0
  8  9  1  0  0  0  0
  8 28  1  0  0  0  0
  9 10  1  0  0  0  0
 10 11  1  0  0  0  0
 11 12  1  0  0  0  0
 12 13  1  0  0  0  0
 12 27  1  0  0  0  0
 13 14  1  0  0  0  0
 14 15  1  0  0  0  0
 15 16  1  0  0  0  0
 15 26  1  0  0  0  0
 16 17  1  0  0  0  0
 16 20  1  0  0  0  0
 17 18  4  0  0  0  0
 17 25  4  0  0  0  0
 18 19  1  0  0  0  0
 18 22  4  0  0  0  0
 19 20  1  0  0  0  0
 20 21  2  0  0  0  0
 22 23  4  0  0  0  0
 23 24  4  0  0  0  0
 24 25  4  0  0  0  0
 26 27  1  0  0  0  0
 28 29  4  0  0  0  0
 28 34  4  0  0  0  0
 29 30  4  0  0  0  0
 30 31  4  0  0  0  0
 31 32  1  0  0  0  0
 31 33  4  0  0  0  0
 33 34  4  0  0  0  0
M  END
>  <Name_Molregno>
PIMOZIDE

>  <5-HT1A>
6.48

>  <5-HT1D>
5.51

>  <5-HT2A>
7.56

>  <5-HT2C>
5.92

>  <5-HT6>
7.15

>  <5-HT7>
9.3

>  <Alpha-1A>
6.7

>  <Alpha-2A>
5.8

>  <Alpha-2B>
6.09

>  <Alpha-2C>
6.42

>  <DOPAMINE D1>
5

>  <DOPAMINE D2>
8.86

>  <DOPAMINE D3>
9.05

>  <DOPAMINE D4>
8.74

>  <HISTAMINE H1>
6.88

>  <Muscarinic acetylcholine receptor M3>
5.71

$$$$
PIPAMPERONE
  Marvin  02231216192D 0   1.00000     0.00000     0

 27 29  0  0  0  0  0  0  0  0999 V2000
    0.0224    0.7508    0.0000 F   0  0  0  0  0  0  0  0  0
    0.7369    0.3383    0.0000 C   0  0  0  0  0  0  0  0  0
    1.4513    0.7508    0.0000 C   0  0  0  0  0  0  0  0  0
    2.1658    0.3383    0.0000 C   0  0  0  0  0  0  0  0  0
    2.1658   -0.4867    0.0000 C   0  0  0  0  0  0  0  0  0
    1.4513   -0.8992    0.0000 C   0  0  0  0  0  0  0  0  0
    0.7369   -0.4867    0.0000 C   0  0  0  0  0  0  0  0  0
    2.8803   -0.8992    0.0000 C   0  0  0  0  0  0  0  0  0
    2.8803   -1.7242    0.0000 O   0  0  0  0  0  0  0  0  0
    3.5947   -0.4867    0.0000 C   0  0  0  0  0  0  0  0  0
    4.3092   -0.8992    0.0000 C   0  0  0  0  0  0  0  0  0
    5.0237   -0.4867    0.0000 C   0  0  0  0  0  0  0  0  0
    5.7382   -0.8992    0.0000 N   0  0  0  0  0  0  0  0  0
    6.4526   -0.4867    0.0000 C   0  0  0  0  0  0  0  0  0
    7.1671   -0.8992    0.0000 C   0  0  0  0  0  0  0  0  0
    7.1671   -1.7242    0.0000 C   0  0  0  0  0  0  0  0  0
    7.9796   -1.5809    0.0000 N   0  0  0  0  0  0  0  0  0
    8.2617   -0.8057    0.0000 C   0  0  0  0  0  0  0  0  0
    9.0742   -0.6624    0.0000 C   0  0  0  0  0  0  0  0  0
    9.6045   -1.2944    0.0000 C   0  0  0  0  0  0  0  0  0
    9.3223   -2.0696    0.0000 C   0  0  0  0  0  0  0  0  0
    8.5099   -2.2129    0.0000 C   0  0  0  0  0  0  0  0  0
    6.4526   -2.1367    0.0000 C   0  0  0  0  0  0  0  0  0
    5.7382   -1.7242    0.0000 C   0  0  0  0  0  0  0  0  0
    7.4493   -2.4994    0.0000 C   0  0  0  0  0  0  0  0  0
    6.9190   -3.1314    0.0000 O   0  0  0  0  0  0  0  0  0
    8.2617   -2.6427    0.0000 N   0  0  0  0  0  0  0  0  0
  1  2  1  0  0  0  0
  2  3  4  0  0  0  0
  2  7  4  0  0  0  0
  3  4  4  0  0  0  0
  4  5  4  0  0  0  0
  5  6  4  0  0  0  0
  5  8  1  0  0  0  0
  6  7  4  0  0  0  0
  8  9  2  0  0  0  0
  8 10  1  0  0  0  0
 10 11  1  0  0  0  0
 11 12  1  0  0  0  0
 12 13  1  0  0  0  0
 13 14  1  0  0  0  0
 13 24  1  0  0  0  0
 14 15  1  0  0  0  0
 15 16  1  0  0  0  0
 16 17  1  0  0  0  0
 16 23  1  0  0  0  0
 16 25  1  0  0  0  0
 17 18  1  0  0  0  0
 17 22  1  0  0  0  0
 18 19  1  0  0  0  0
 19 20  1  0  0  0  0
 20 21  1  0  0  0  0
 21 22  1  0  0  0  0
 23 24  1  0  0  0  0
 25 26  2  0  0  0  0
 25 27  1  0  0  0  0
M  END
>  <Name_Molregno>
PIPAMPERONE

>  <5-HT1A>
5.56

>  <5-HT1B>
6.8

>  <5-HT1D>
6.19

>  <5-HT1E>
5.3

>  <5-HT2A>
8.21

>  <5-HT2C>
6.64

>  <Alpha-2A>
6.07

>  <Alpha-2B>
7.46

>  <Alpha-2C>
6.54

>  <Beta-1>
5.3

>  <Beta-2>
5.3

>  <DOPAMINE D2>
6.94

>  <DOPAMINE D3>
6.6

>  <DOPAMINE D4>
8.29

>  <HISTAMINE H1>
5.62

>  <Serotonin transporter>
6

$$$$
Pipotiazine
  Marvin  02231216192D 0   1.00000     0.00000     0

 32 35  0  0  0  0  0  0  0  0999 V2000
    1.4954   -4.3903    0.0000 S   0  0  0  0  0  0  0  0  0
    2.2098   -3.9778    0.0000 C   0  0  0  0  0  0  0  0  0
    2.2098   -3.1528    0.0000 C   0  0  0  0  0  0  0  0  0
    1.4954   -2.7403    0.0000 N   0  0  0  0  0  0  0  0  0
    0.7809   -3.1528    0.0000 C   0  0  0  0  0  0  0  0  0
    0.7809   -3.9778    0.0000 C   0  0  0  0  0  0  0  0  0
    0.0664   -4.3903    0.0000 C   0  0  0  0  0  0  0  0  0
   -0.6481   -3.9778    0.0000 C   0  0  0  0  0  0  0  0  0
   -0.6481   -3.1528    0.0000 C   0  0  0  0  0  0  0  0  0
    0.0664   -2.7403    0.0000 C   0  0  0  0  0  0  0  0  0
    1.4954   -1.9153    0.0000 C   0  0  0  0  0  0  0  0  0
    0.7809   -1.5028    0.0000 C   0  0  0  0  0  0  0  0  0
    0.7809   -0.6778    0.0000 C   0  0  0  0  0  0  0  0  0
    0.0664   -0.2653    0.0000 N   0  0  0  0  0  0  0  0  0
   -0.6481   -0.6778    0.0000 C   0  0  0  0  0  0  0  0  0
   -1.3625   -0.2653    0.0000 C   0  0  0  0  0  0  0  0  0
   -1.3625    0.5597    0.0000 C   0  0  0  0  0  0  0  0  0
   -0.6481    0.9722    0.0000 C   0  0  0  0  0  0  0  0  0
    0.0664    0.5597    0.0000 C   0  0  0  0  0  0  0  0  0
   -2.0770    0.9722    0.0000 C   0  0  0  0  0  0  0  0  0
   -2.0770    1.7972    0.0000 C   0  0  0  0  0  0  0  0  0
   -2.7915    2.2097    0.0000 O   0  0  0  0  0  0  0  0  0
    2.9243   -2.7403    0.0000 C   0  0  0  0  0  0  0  0  0
    3.6388   -3.1528    0.0000 C   0  0  0  0  0  0  0  0  0
    4.3532   -2.7403    0.0000 S   0  0  0  0  0  0  0  0  0
    4.7657   -3.4548    0.0000 O   0  0  0  0  0  0  0  0  0
    3.9407   -2.0258    0.0000 O   0  0  0  0  0  0  0  0  0
    5.0677   -2.3278    0.0000 N   0  0  0  0  0  0  0  0  0
    5.7822   -2.7403    0.0000 C   0  0  0  0  0  0  0  0  0
    5.0677   -1.5028    0.0000 C   0  0  0  0  0  0  0  0  0
    3.6388   -3.9778    0.0000 C   0  0  0  0  0  0  0  0  0
    2.9243   -4.3903    0.0000 C   0  0  0  0  0  0  0  0  0
  1  2  1  0  0  0  0
  1  6  1  0  0  0  0
  2  3  4  0  0  0  0
  2 32  4  0  0  0  0
  3  4  1  0  0  0  0
  3 23  4  0  0  0  0
  4  5  1  0  0  0  0
  4 11  1  0  0  0  0
  5  6  4  0  0  0  0
  5 10  4  0  0  0  0
  6  7  4  0  0  0  0
  7  8  4  0  0  0  0
  8  9  4  0  0  0  0
  9 10  4  0  0  0  0
 11 12  1  0  0  0  0
 12 13  1  0  0  0  0
 13 14  1  0  0  0  0
 14 15  1  0  0  0  0
 14 19  1  0  0  0  0
 15 16  1  0  0  0  0
 16 17  1  0  0  0  0
 17 18  1  0  0  0  0
 17 20  1  0  0  0  0
 18 19  1  0  0  0  0
 20 21  1  0  0  0  0
 21 22  1  0  0  0  0
 23 24  4  0  0  0  0
 24 25  1  0  0  0  0
 24 31  4  0  0  0  0
 25 26  2  0  0  0  0
 25 27  2  0  0  0  0
 25 28  1  0  0  0  0
 28 29  1  0  0  0  0
 28 30  1  0  0  0  0
 31 32  4  0  0  0  0
M  END
>  <Name_Molregno>
Pipotiazine

>  <DOPAMINE D2>
9.7

>  <DOPAMINE D3>
9.55

$$$$
Piribedil
  Marvin  02231216192D 0   1.00000     0.00000     0

 22 25  0  0  0  0  0  0  0  0999 V2000
   -6.9931    0.7446    0.0000 O   0  0  0  0  0  0  0  0  0
   -6.2084    0.4897    0.0000 C   0  0  0  0  0  0  0  0  0
   -5.4940    0.9022    0.0000 C   0  0  0  0  0  0  0  0  0
   -4.7795    0.4897    0.0000 C   0  0  0  0  0  0  0  0  0
   -4.7795   -0.3353    0.0000 C   0  0  0  0  0  0  0  0  0
   -5.4940   -0.7478    0.0000 C   0  0  0  0  0  0  0  0  0
   -6.2084   -0.3353    0.0000 C   0  0  0  0  0  0  0  0  0
   -6.9931   -0.5902    0.0000 O   0  0  0  0  0  0  0  0  0
   -7.4780    0.0772    0.0000 C   0  0  0  0  0  0  0  0  0
   -4.0650    0.9022    0.0000 C   0  0  0  0  0  0  0  0  0
   -3.3506    0.4897    0.0000 N   0  0  0  0  0  0  0  0  0
   -2.6361    0.9022    0.0000 C   0  0  0  0  0  0  0  0  0
   -1.9216    0.4897    0.0000 C   0  0  0  0  0  0  0  0  0
   -1.9216   -0.3353    0.0000 N   0  0  0  0  0  0  0  0  0
   -2.6361   -0.7478    0.0000 C   0  0  0  0  0  0  0  0  0
   -3.3506   -0.3353    0.0000 C   0  0  0  0  0  0  0  0  0
   -1.2071   -0.7478    0.0000 C   0  0  0  0  0  0  0  0  0
   -0.4927   -0.3353    0.0000 N   0  0  0  0  0  0  0  0  0
    0.2218   -0.7478    0.0000 C   0  0  0  0  0  0  0  0  0
    0.2218   -1.5728    0.0000 C   0  0  0  0  0  0  0  0  0
   -0.4927   -1.9853    0.0000 C   0  0  0  0  0  0  0  0  0
   -1.2071   -1.5728    0.0000 N   0  0  0  0  0  0  0  0  0
  1  2  1  0  0  0  0
  1  9  1  0  0  0  0
  2  3  4  0  0  0  0
  2  7  4  0  0  0  0
  3  4  4  0  0  0  0
  4  5  4  0  0  0  0
  4 10  1  0  0  0  0
  5  6  4  0  0  0  0
  6  7  4  0  0  0  0
  7  8  1  0  0  0  0
  8  9  1  0  0  0  0
 10 11  1  0  0  0  0
 11 12  1  0  0  0  0
 11 16  1  0  0  0  0
 12 13  1  0  0  0  0
 13 14  1  0  0  0  0
 14 15  1  0  0  0  0
 14 17  1  0  0  0  0
 15 16  1  0  0  0  0
 17 18  4  0  0  0  0
 17 22  4  0  0  0  0
 18 19  4  0  0  0  0
 19 20  4  0  0  0  0
 20 21  4  0  0  0  0
 21 22  4  0  0  0  0
M  END
>  <Name_Molregno>
Piribedil

>  <5-HT1A>
6.35

>  <5-HT1B>
5

>  <5-HT1D>
5

>  <5-HT2A>
5

>  <5-HT2C>
5

>  <Alpha-1A>
6.09

>  <Alpha-1B>
5.21

>  <Alpha-2A>
7.05

>  <Alpha-2B>
6.54

>  <Alpha-2C>
7.16

>  <Beta-1>
5

>  <Beta-2>
5

>  <DOPAMINE D1>
5

>  <DOPAMINE D2>
6.88

>  <DOPAMINE D3>
6.63

>  <DOPAMINE D4>
6.51

>  <DOPAMINE D5>
5

>  <Norepinephrine transporter>
5

$$$$
PROCHLORPERAZINE
  Marvin  02231216192D 0   1.00000     0.00000     0

 25 28  0  0  0  0  0  0  0  0999 V2000
   -5.2156   -0.6691    0.0000 Cl  0  0  0  0  0  0  0  0  0
   -4.5011   -0.2566    0.0000 C   0  0  0  0  0  0  0  0  0
   -3.7866   -0.6691    0.0000 C   0  0  0  0  0  0  0  0  0
   -3.0722   -0.2566    0.0000 C   0  0  0  0  0  0  0  0  0
   -2.3577   -0.6691    0.0000 N   0  0  0  0  0  0  0  0  0
   -1.6432   -0.2566    0.0000 C   0  0  0  0  0  0  0  0  0
   -1.6432    0.5684    0.0000 C   0  0  0  0  0  0  0  0  0
   -2.3577    0.9809    0.0000 S   0  0  0  0  0  0  0  0  0
   -3.0722    0.5684    0.0000 C   0  0  0  0  0  0  0  0  0
   -3.7866    0.9809    0.0000 C   0  0  0  0  0  0  0  0  0
   -4.5011    0.5684    0.0000 C   0  0  0  0  0  0  0  0  0
   -0.9287    0.9809    0.0000 C   0  0  0  0  0  0  0  0  0
   -0.2143    0.5684    0.0000 C   0  0  0  0  0  0  0  0  0
   -0.2143   -0.2566    0.0000 C   0  0  0  0  0  0  0  0  0
   -0.9287   -0.6691    0.0000 C   0  0  0  0  0  0  0  0  0
   -2.3577   -1.4941    0.0000 C   0  0  0  0  0  0  0  0  0
   -3.0722   -1.9066    0.0000 C   0  0  0  0  0  0  0  0  0
   -3.0722   -2.7316    0.0000 C   0  0  0  0  0  0  0  0  0
   -3.7866   -3.1441    0.0000 N   0  0  0  0  0  0  0  0  0
   -3.7866   -3.9691    0.0000 C   0  0  0  0  0  0  0  0  0
   -4.5011   -4.3816    0.0000 C   0  0  0  0  0  0  0  0  0
   -5.2156   -3.9691    0.0000 N   0  0  0  0  0  0  0  0  0
   -5.2156   -3.1441    0.0000 C   0  0  0  0  0  0  0  0  0
   -4.5011   -2.7316    0.0000 C   0  0  0  0  0  0  0  0  0
   -5.9300   -4.3816    0.0000 C   0  0  0  0  0  0  0  0  0
  1  2  1  0  0  0  0
  2  3  4  0  0  0  0
  2 11  4  0  0  0  0
  3  4  4  0  0  0  0
  4  5  1  0  0  0  0
  4  9  4  0  0  0  0
  5  6  1  0  0  0  0
  5 16  1  0  0  0  0
  6  7  4  0  0  0  0
  6 15  4  0  0  0  0
  7  8  1  0  0  0  0
  7 12  4  0  0  0  0
  8  9  1  0  0  0  0
  9 10  4  0  0  0  0
 10 11  4  0  0  0  0
 12 13  4  0  0  0  0
 13 14  4  0  0  0  0
 14 15  4  0  0  0  0
 16 17  1  0  0  0  0
 17 18  1  0  0  0  0
 18 19  1  0  0  0  0
 19 20  1  0  0  0  0
 19 24  1  0  0  0  0
 20 21  1  0  0  0  0
 21 22  1  0  0  0  0
 22 23  1  0  0  0  0
 22 25  1  0  0  0  0
 23 24  1  0  0  0  0
M  END
>  <Name_Molregno>
PROCHLORPERAZINE

>  <5-HT1A>
5.23

>  <5-HT2A>
7.82

>  <5-HT2C>
6.91

>  <DOPAMINE D2>
8.76

>  <DOPAMINE D3>
8.61

>  <DOPAMINE D4>
7.3

>  <HISTAMINE H1>
7.72

$$$$
PROMAZINE
  Marvin  02231216192D 0   1.00000     0.00000     0

 20 22  0  0  0  0  0  0  0  0999 V2000
   -0.5198    0.6932    0.0000 S   0  0  0  0  0  0  0  0  0
    0.1947    0.2807    0.0000 C   0  0  0  0  0  0  0  0  0
    0.9091    0.6932    0.0000 C   0  0  0  0  0  0  0  0  0
    0.9091    1.5182    0.0000 N   0  0  0  0  0  0  0  0  0
    0.1947    1.9307    0.0000 C   0  0  0  0  0  0  0  0  0
   -0.5198    1.5182    0.0000 C   0  0  0  0  0  0  0  0  0
   -1.2343    1.9307    0.0000 C   0  0  0  0  0  0  0  0  0
   -1.2343    2.7557    0.0000 C   0  0  0  0  0  0  0  0  0
   -0.5198    3.1682    0.0000 C   0  0  0  0  0  0  0  0  0
    0.1947    2.7557    0.0000 C   0  0  0  0  0  0  0  0  0
    1.6236    1.9307    0.0000 C   0  0  0  0  0  0  0  0  0
    2.3381    1.5182    0.0000 C   0  0  0  0  0  0  0  0  0
    3.0525    1.9307    0.0000 C   0  0  0  0  0  0  0  0  0
    3.7670    1.5182    0.0000 N   0  0  0  0  0  0  0  0  0
    4.4815    1.9307    0.0000 C   0  0  0  0  0  0  0  0  0
    3.7670    0.6932    0.0000 C   0  0  0  0  0  0  0  0  0
    1.6236    0.2807    0.0000 C   0  0  0  0  0  0  0  0  0
    1.6236   -0.5443    0.0000 C   0  0  0  0  0  0  0  0  0
    0.9091   -0.9568    0.0000 C   0  0  0  0  0  0  0  0  0
    0.1947   -0.5443    0.0000 C   0  0  0  0  0  0  0  0  0
  1  2  1  0  0  0  0
  1  6  1  0  0  0  0
  2  3  4  0  0  0  0
  2 20  4  0  0  0  0
  3  4  1  0  0  0  0
  3 17  4  0  0  0  0
  4  5  1  0  0  0  0
  4 11  1  0  0  0  0
  5  6  4  0  0  0  0
  5 10  4  0  0  0  0
  6  7  4  0  0  0  0
  7  8  4  0  0  0  0
  8  9  4  0  0  0  0
  9 10  4  0  0  0  0
 11 12  1  0  0  0  0
 12 13  1  0  0  0  0
 13 14  1  0  0  0  0
 14 15  1  0  0  0  0
 14 16  1  0  0  0  0
 17 18  4  0  0  0  0
 18 19  4  0  0  0  0
 19 20  4  0  0  0  0
M  END
>  <Name_Molregno>
PROMAZINE

>  <5-HT1A>
5

>  <5-HT2A>
7.8

>  <DOPAMINE D2>
6.7

>  <DOPAMINE D3>
6.8

>  <HISTAMINE H1>
8.7

$$$$
Prucalopride
  Marvin  02231216192D 0   1.00000     0.00000     0

 25 27  0  0  0  0  0  0  0  0999 V2000
   -0.3739   -1.3965    0.0000 Cl  0  0  0  0  0  0  0  0  0
    0.3406   -1.8090    0.0000 C   0  0  0  0  0  0  0  0  0
    1.0551   -1.3965    0.0000 C   0  0  0  0  0  0  0  0  0
    1.7696   -1.8090    0.0000 C   0  0  0  0  0  0  0  0  0
    1.7696   -2.6340    0.0000 C   0  0  0  0  0  0  0  0  0
    2.3827   -3.1861    0.0000 O   0  0  0  0  0  0  0  0  0
    2.0471   -3.9397    0.0000 C   0  0  0  0  0  0  0  0  0
    1.2266   -3.8535    0.0000 C   0  0  0  0  0  0  0  0  0
    1.0551   -3.0465    0.0000 C   0  0  0  0  0  0  0  0  0
    0.3406   -2.6340    0.0000 C   0  0  0  0  0  0  0  0  0
   -0.3739   -3.0465    0.0000 N   0  0  0  0  0  0  0  0  0
    2.4840   -1.3965    0.0000 C   0  0  0  0  0  0  0  0  0
    3.1985   -1.8090    0.0000 O   0  0  0  0  0  0  0  0  0
    2.4840   -0.5715    0.0000 N   0  0  0  0  0  0  0  0  0
    3.1985   -0.1590    0.0000 C   0  0  0  0  0  0  0  0  0
    3.1985    0.6660    0.0000 C   0  0  0  0  0  0  0  0  0
    3.9130    1.0785    0.0000 C   0  0  0  0  0  0  0  0  0
    4.6274    0.6660    0.0000 N   0  0  0  0  0  0  0  0  0
    4.6274   -0.1590    0.0000 C   0  0  0  0  0  0  0  0  0
    3.9130   -0.5715    0.0000 C   0  0  0  0  0  0  0  0  0
    5.3419    1.0785    0.0000 C   0  0  0  0  0  0  0  0  0
    6.0564    0.6660    0.0000 C   0  0  0  0  0  0  0  0  0
    6.7709    1.0785    0.0000 C   0  0  0  0  0  0  0  0  0
    7.4853    0.6660    0.0000 O   0  0  0  0  0  0  0  0  0
    8.1998    1.0785    0.0000 C   0  0  0  0  0  0  0  0  0
  1  2  1  0  0  0  0
  2  3  4  0  0  0  0
  2 10  4  0  0  0  0
  3  4  4  0  0  0  0
  4  5  4  0  0  0  0
  4 12  1  0  0  0  0
  5  6  1  0  0  0  0
  5  9  4  0  0  0  0
  6  7  1  0  0  0  0
  7  8  1  0  0  0  0
  8  9  1  0  0  0  0
  9 10  4  0  0  0  0
 10 11  1  0  0  0  0
 12 13  2  0  0  0  0
 12 14  1  0  0  0  0
 14 15  1  0  0  0  0
 15 16  1  0  0  0  0
 15 20  1  0  0  0  0
 16 17  1  0  0  0  0
 17 18  1  0  0  0  0
 18 19  1  0  0  0  0
 18 21  1  0  0  0  0
 19 20  1  0  0  0  0
 21 22  1  0  0  0  0
 22 23  1  0  0  0  0
 23 24  1  0  0  0  0
 24 25  1  0  0  0  0
M  END
>  <Name_Molregno>
Prucalopride

>  <5-HT1A>
5

>  <5-HT1B>
5

>  <5-HT1D>
5

>  <5-HT1E>
5

>  <5-HT2A>
5

>  <5-HT2C>
5

>  <5-HT5>
5

>  <5-HT6>
5

>  <5-HT7>
5

>  <Alpha-2A>
5

>  <Alpha-2B>
5

>  <Alpha-2C>
5

>  <Beta-1>
5

>  <Beta-2>
5

>  <DOPAMINE D2>
5

>  <DOPAMINE D3>
5

>  <DOPAMINE D4>
5.63

>  <HISTAMINE H1>
5

>  <Serotonin transporter>
5

$$$$
QUETIAPINE
  Marvin  02231216192D 0   1.00000     0.00000     0

 27 30  0  0  0  0  0  0  0  0999 V2000
    0.4015    1.2563    0.0000 S   0  0  0  0  0  0  0  0  0
    1.2173    1.3793    0.0000 C   0  0  0  0  0  0  0  0  0
    1.8221    0.8181    0.0000 C   0  0  0  0  0  0  0  0  0
    2.6104    1.0613    0.0000 C   0  0  0  0  0  0  0  0  0
    2.7940    1.8656    0.0000 C   0  0  0  0  0  0  0  0  0
    2.1892    2.4268    0.0000 C   0  0  0  0  0  0  0  0  0
    1.4009    2.1836    0.0000 C   0  0  0  0  0  0  0  0  0
    1.7604   -0.0046    0.0000 C   0  0  0  0  0  0  0  0  0
    1.0788   -0.4693    0.0000 N   0  0  0  0  0  0  0  0  0
    0.2904   -0.2261    0.0000 C   0  0  0  0  0  0  0  0  0
   -0.0110    0.5418    0.0000 C   0  0  0  0  0  0  0  0  0
   -0.8268    0.6648    0.0000 C   0  0  0  0  0  0  0  0  0
   -1.3412    0.0198    0.0000 C   0  0  0  0  0  0  0  0  0
   -1.0398   -0.7482    0.0000 C   0  0  0  0  0  0  0  0  0
   -0.2240   -0.8711    0.0000 C   0  0  0  0  0  0  0  0  0
    2.4749   -0.4171    0.0000 N   0  0  0  0  0  0  0  0  0
    3.1893   -0.0046    0.0000 C   0  0  0  0  0  0  0  0  0
    3.9038   -0.4171    0.0000 C   0  0  0  0  0  0  0  0  0
    3.9038   -1.2421    0.0000 N   0  0  0  0  0  0  0  0  0
    3.1893   -1.6546    0.0000 C   0  0  0  0  0  0  0  0  0
    2.4749   -1.2421    0.0000 C   0  0  0  0  0  0  0  0  0
    4.6183   -1.6546    0.0000 C   0  0  0  0  0  0  0  0  0
    5.3328   -1.2421    0.0000 C   0  0  0  0  0  0  0  0  0
    6.0472   -1.6546    0.0000 O   0  0  0  0  0  0  0  0  0
    6.7617   -1.2421    0.0000 C   0  0  0  0  0  0  0  0  0
    7.4762   -1.6546    0.0000 C   0  0  0  0  0  0  0  0  0
    8.1906   -1.2421    0.0000 O   0  0  0  0  0  0  0  0  0
  1  2  1  0  0  0  0
  1 11  1  0  0  0  0
  2  3  4  0  0  0  0
  2  7  4  0  0  0  0
  3  4  4  0  0  0  0
  3  8  1  0  0  0  0
  4  5  4  0  0  0  0
  5  6  4  0  0  0  0
  6  7  4  0  0  0  0
  8  9  2  0  0  0  0
  8 16  1  0  0  0  0
  9 10  1  0  0  0  0
 10 11  4  0  0  0  0
 10 15  4  0  0  0  0
 11 12  4  0  0  0  0
 12 13  4  0  0  0  0
 13 14  4  0  0  0  0
 14 15  4  0  0  0  0
 16 17  1  0  0  0  0
 16 21  1  0  0  0  0
 17 18  1  0  0  0  0
 18 19  1  0  0  0  0
 19 20  1  0  0  0  0
 19 22  1  0  0  0  0
 20 21  1  0  0  0  0
 22 23  1  0  0  0  0
 23 24  1  0  0  0  0
 24 25  1  0  0  0  0
 25 26  1  0  0  0  0
 26 27  1  0  0  0  0
M  END
>  <Name_Molregno>
QUETIAPINE

>  <5-HT1A>
6.59

>  <5-HT1B>
5.83

>  <5-HT1D>
5.52

>  <5-HT1E>
5.76

>  <5-HT2A>
6.76

>  <5-HT2C>
5.82

>  <5-HT3>
5

>  <5-HT5>
5.51

>  <5-HT6>
6.35

>  <5-HT7>
6.74

>  <Alpha-1A>
7.66

>  <Alpha-1B>
7.41

>  <Alpha-2A>
5.51

>  <Alpha-2B>
6.44

>  <Alpha-2C>
7.18

>  <Beta-1>
5.15

>  <Beta-2>
5.15

>  <DOPAMINE D1>
5.95

>  <DOPAMINE D2>
6.51

>  <DOPAMINE D3>
6.59

>  <DOPAMINE D4>
5.77

>  <DOPAMINE D5>
5.79

>  <Dopamine transporter>
5

>  <HISTAMINE H1>
8.1

>  <HISTAMINE H2>
5

>  <HISTAMINE H4>
5

>  <Muscarinic acetylcholine receptor M1>
6.71

>  <Muscarinic acetylcholine receptor M2>
6.03

>  <Muscarinic acetylcholine receptor M3>
5.69

>  <Muscarinic acetylcholine receptor M4>
6.5

>  <Muscarinic acetylcholine receptor M5>
5.58

>  <Norepinephrine transporter>
5

>  <Serotonin transporter>
5.18

$$$$
R(-)NPA
  Marvin  02231216192D 0   1.00000     0.00000     0

 23 26  0  0  1  0  0  0  0  0999 V2000
    0.3584    0.1728    0.0000 F   0  0  0  0  0  0  0  0  0
    0.3584   -0.6522    0.0000 C   0  0  0  0  0  0  0  0  0
    1.0729   -1.0647    0.0000 C   0  0  0  0  0  0  0  0  0
    1.0729   -1.8897    0.0000 C   0  0  0  0  0  0  0  0  0
    1.7873   -2.3022    0.0000 C   0  0  0  0  0  0  0  0  0
    1.7873   -3.1272    0.0000 C   0  0  0  0  0  0  0  0  0
    1.0729   -3.5397    0.0000 C   0  0  0  0  0  0  0  0  0
    0.3584   -3.1272    0.0000 C   0  0  0  0  0  0  0  0  0
   -0.3561   -3.5397    0.0000 N   0  0  0  0  0  0  0  0  0
   -1.0705   -3.1272    0.0000 C   0  0  0  0  0  0  0  0  0
   -1.0705   -2.3022    0.0000 C   0  0  0  0  0  0  0  0  0
   -0.3561   -1.8897    0.0000 C   0  0  0  0  0  0  0  0  0
   -0.3561   -1.0647    0.0000 C   0  0  0  0  0  0  0  0  0
    0.3584   -2.3022    0.0000 C   0  0  0  0  0  0  0  0  0
   -0.3561   -4.3647    0.0000 C   0  0  0  0  0  0  0  0  0
   -1.0705   -4.7772    0.0000 C   0  0  0  0  0  0  0  0  0
   -1.0705   -5.6022    0.0000 C   0  0  0  0  0  0  0  0  0
    2.5018   -3.5397    0.0000 C   0  0  0  0  0  0  0  0  0
    3.2163   -3.1272    0.0000 C   0  0  0  0  0  0  0  0  0
    3.2163   -2.3022    0.0000 C   0  0  0  0  0  0  0  0  0
    3.9308   -1.8897    0.0000 O   0  0  0  0  0  0  0  0  0
    2.5018   -1.8897    0.0000 C   0  0  0  0  0  0  0  0  0
    2.5018   -1.0647    0.0000 O   0  0  0  0  0  0  0  0  0
  1  2  1  0  0  0  0
  2  3  4  0  0  0  0
  2 13  4  0  0  0  0
  3  4  4  0  0  0  0
  4  5  1  0  0  0  0
  4 14  4  0  0  0  0
  5  6  4  0  0  0  0
  5 22  4  0  0  0  0
  6  7  1  0  0  0  0
  6 18  4  0  0  0  0
  7  8  1  0  0  0  0
  8  9  1  0  0  0  0
  8 14  1  0  0  0  0
  9 10  1  0  0  0  0
  9 15  1  0  0  0  0
 10 11  1  0  0  0  0
 11 12  1  0  0  0  0
 12 13  4  0  0  0  0
 12 14  4  0  0  0  0
 15 16  1  0  0  0  0
 16 17  1  0  0  0  0
 18 19  4  0  0  0  0
 19 20  4  0  0  0  0
 20 21  1  0  0  0  0
 20 22  4  0  0  0  0
 22 23  1  0  0  0  0
M  END
>  <Name_Molregno>
R(-)NPA

>  <DOPAMINE D2>
9.92

>  <DOPAMINE D3>
9.68

$$$$
RACLOPRIDE
  Marvin  02231216192D 0   1.00000     0.00000     0

 22 23  0  0  1  0  0  0  0  0999 V2000
    0.4554    0.1464    0.0000 Cl  0  0  0  0  0  0  0  0  0
    1.1698    0.5589    0.0000 C   0  0  0  0  0  0  0  0  0
    1.1698    1.3839    0.0000 C   0  0  0  0  0  0  0  0  0
    1.8843    1.7964    0.0000 C   0  0  0  0  0  0  0  0  0
    1.8843    2.6214    0.0000 Cl  0  0  0  0  0  0  0  0  0
    2.5988    1.3839    0.0000 C   0  0  0  0  0  0  0  0  0
    3.3132    1.7964    0.0000 O   0  0  0  0  0  0  0  0  0
    2.5988    0.5589    0.0000 C   0  0  0  0  0  0  0  0  0
    3.3132    0.1464    0.0000 C   0  0  0  0  0  0  0  0  0
    4.0277    0.5589    0.0000 O   0  0  0  0  0  0  0  0  0
    3.3132   -0.6786    0.0000 N   0  0  0  0  0  0  0  0  0
    4.0277   -1.0911    0.0000 C   0  0  0  0  0  0  0  0  0
    4.0277   -1.9161    0.0000 C   0  0  0  0  0  0  0  0  0
    4.6952   -2.4010    0.0000 N   0  0  0  0  0  0  0  0  0
    4.4402   -3.1856    0.0000 C   0  0  0  0  0  0  0  0  0
    3.6152   -3.1856    0.0000 C   0  0  0  0  0  0  0  0  0
    3.3603   -2.4010    0.0000 C   0  0  0  0  0  0  0  0  0
    5.4798   -2.1461    0.0000 C   0  0  0  0  0  0  0  0  0
    5.6513   -1.3391    0.0000 C   0  0  0  0  0  0  0  0  0
    1.8843    0.1464    0.0000 C   0  0  0  0  0  0  0  0  0
    1.8843   -0.6786    0.0000 O   0  0  0  0  0  0  0  0  0
    2.5988   -1.0911    0.0000 C   0  0  0  0  0  0  0  0  0
  1  2  1  0  0  0  0
  2  3  4  0  0  0  0
  2 20  4  0  0  0  0
  3  4  4  0  0  0  0
  4  5  1  0  0  0  0
  4  6  4  0  0  0  0
  6  7  1  0  0  0  0
  6  8  4  0  0  0  0
  8  9  1  0  0  0  0
  8 20  4  0  0  0  0
  9 10  2  0  0  0  0
  9 11  1  0  0  0  0
 11 12  1  0  0  0  0
 12 13  1  0  0  0  0
 13 14  1  0  0  0  0
 13 17  1  0  0  0  0
 14 15  1  0  0  0  0
 14 18  1  0  0  0  0
 15 16  1  0  0  0  0
 16 17  1  0  0  0  0
 18 19  1  0  0  0  0
 20 21  1  0  0  0  0
 21 22  1  0  0  0  0
M  END
>  <Name_Molregno>
RACLOPRIDE

>  <5-HT2A>
5.31

>  <DOPAMINE D2>
8.72

>  <DOPAMINE D3>
8.62

>  <DOPAMINE D4>
5.73

$$$$
REMOXIPRIDE
  Marvin  02231216192D 0   1.00000     0.00000     0

 22 23  0  0  1  0  0  0  0  0999 V2000
    0.4227    0.2134    0.0000 Br  0  0  0  0  0  0  0  0  0
    1.1371    0.6259    0.0000 C   0  0  0  0  0  0  0  0  0
    1.1371    1.4509    0.0000 C   0  0  0  0  0  0  0  0  0
    1.8516    1.8634    0.0000 C   0  0  0  0  0  0  0  0  0
    2.5661    1.4509    0.0000 C   0  0  0  0  0  0  0  0  0
    3.2805    1.8634    0.0000 O   0  0  0  0  0  0  0  0  0
    3.9950    1.4509    0.0000 C   0  0  0  0  0  0  0  0  0
    2.5661    0.6259    0.0000 C   0  0  0  0  0  0  0  0  0
    3.2805    0.2134    0.0000 C   0  0  0  0  0  0  0  0  0
    3.9950    0.6259    0.0000 O   0  0  0  0  0  0  0  0  0
    3.2805   -0.6116    0.0000 N   0  0  0  0  0  0  0  0  0
    3.9950   -1.0241    0.0000 C   0  0  0  0  0  0  0  0  0
    3.9950   -1.8491    0.0000 C   0  0  0  0  0  0  0  0  0
    4.6625   -2.3340    0.0000 N   0  0  0  0  0  0  0  0  0
    4.4075   -3.1186    0.0000 C   0  0  0  0  0  0  0  0  0
    3.5825   -3.1186    0.0000 C   0  0  0  0  0  0  0  0  0
    3.3276   -2.3340    0.0000 C   0  0  0  0  0  0  0  0  0
    5.4471   -2.0790    0.0000 C   0  0  0  0  0  0  0  0  0
    5.6186   -1.2721    0.0000 C   0  0  0  0  0  0  0  0  0
    1.8516    0.2134    0.0000 C   0  0  0  0  0  0  0  0  0
    1.8516   -0.6116    0.0000 O   0  0  0  0  0  0  0  0  0
    2.5661   -1.0241    0.0000 C   0  0  0  0  0  0  0  0  0
  1  2  1  0  0  0  0
  2  3  4  0  0  0  0
  2 20  4  0  0  0  0
  3  4  4  0  0  0  0
  4  5  4  0  0  0  0
  5  6  1  0  0  0  0
  5  8  4  0  0  0  0
  6  7  1  0  0  0  0
  8  9  1  0  0  0  0
  8 20  4  0  0  0  0
  9 10  2  0  0  0  0
  9 11  1  0  0  0  0
 11 12  1  0  0  0  0
 12 13  1  0  0  0  0
 13 14  1  0  0  0  0
 13 17  1  0  0  0  0
 14 15  1  0  0  0  0
 14 18  1  0  0  0  0
 15 16  1  0  0  0  0
 16 17  1  0  0  0  0
 18 19  1  0  0  0  0
 20 21  1  0  0  0  0
 21 22  1  0  0  0  0
M  END
>  <Name_Molregno>
REMOXIPRIDE

>  <5-HT2A>
5.24

>  <DOPAMINE D2>
7.01

>  <DOPAMINE D3>
6.12

>  <DOPAMINE D4>
5.6

$$$$
RESERPINE
  Marvin  02231216192D 0   1.00000     0.00000     0

 44 49  0  0  1  0  0  0  0  0999 V2000
    0.2364    0.7485    0.0000 O   0  0  0  0  0  0  0  0  0
   -0.0358   -0.0303    0.0000 C   0  0  0  0  0  0  0  0  0
   -0.3021    1.3736    0.0000 C   0  0  0  0  0  0  0  0  0
   -1.1126    1.2198    0.0000 C   0  0  0  0  0  0  0  0  0
   -1.6510    1.8449    0.0000 C   0  0  0  0  0  0  0  0  0
   -1.3789    2.6238    0.0000 C   0  0  0  0  0  0  0  0  0
   -0.5683    2.7775    0.0000 C   0  0  0  0  0  0  0  0  0
   -0.0299    2.1524    0.0000 C   0  0  0  0  0  0  0  0  0
    0.7806    2.3061    0.0000 O   0  0  0  0  0  0  0  0  0
    1.3190    1.6810    0.0000 C   0  0  0  0  0  0  0  0  0
    1.0469    0.9022    0.0000 O   0  0  0  0  0  0  0  0  0
    2.1296    1.8348    0.0000 C   0  0  0  0  0  0  0  0  0
    2.4017    2.6136    0.0000 C   0  0  0  0  0  0  0  0  0
    3.2123    2.7673    0.0000 C   0  0  0  0  0  0  0  0  0
    3.4844    3.5461    0.0000 O   0  0  0  0  0  0  0  0  0
    4.2950    3.6998    0.0000 C   0  0  0  0  0  0  0  0  0
    3.7507    2.1422    0.0000 C   0  0  0  0  0  0  0  0  0
    4.5613    2.2959    0.0000 O   0  0  0  0  0  0  0  0  0
    5.0997    1.6708    0.0000 C   0  0  0  0  0  0  0  0  0
    3.4786    1.3634    0.0000 C   0  0  0  0  0  0  0  0  0
    4.0170    0.7383    0.0000 O   0  0  0  0  0  0  0  0  0
    3.7448   -0.0405    0.0000 C   0  0  0  0  0  0  0  0  0
    2.6680    1.2097    0.0000 C   0  0  0  0  0  0  0  0  0
   -1.9173    3.2489    0.0000 C   0  0  0  0  0  0  0  0  0
   -2.7278    3.0951    0.0000 N   0  0  0  0  0  0  0  0  0
   -3.0000    2.3163    0.0000 C   0  0  0  0  0  0  0  0  0
   -2.4616    1.6912    0.0000 C   0  0  0  0  0  0  0  0  0
   -3.8105    2.1626    0.0000 C   0  0  0  0  0  0  0  0  0
   -4.2386    1.4574    0.0000 N   0  0  0  0  0  0  0  0  0
   -5.0416    1.6466    0.0000 C   0  0  0  0  0  0  0  0  0
   -5.7196    1.1765    0.0000 C   0  0  0  0  0  0  0  0  0
   -6.4657    1.5285    0.0000 C   0  0  0  0  0  0  0  0  0
   -7.1437    1.0584    0.0000 O   0  0  0  0  0  0  0  0  0
   -7.0755    0.2362    0.0000 C   0  0  0  0  0  0  0  0  0
   -6.5339    2.3507    0.0000 C   0  0  0  0  0  0  0  0  0
   -5.8559    2.8208    0.0000 C   0  0  0  0  0  0  0  0  0
   -5.1098    2.4688    0.0000 C   0  0  0  0  0  0  0  0  0
   -4.3489    2.7877    0.0000 C   0  0  0  0  0  0  0  0  0
   -4.0768    3.5665    0.0000 C   0  0  0  0  0  0  0  0  0
   -3.2662    3.7202    0.0000 C   0  0  0  0  0  0  0  0  0
   -1.3847    0.4410    0.0000 C   0  0  0  0  0  0  0  0  0
   -0.8463   -0.1841    0.0000 O   0  0  0  0  0  0  0  0  0
   -1.1185   -0.9629    0.0000 C   0  0  0  0  0  0  0  0  0
   -2.1953    0.2873    0.0000 O   0  0  0  0  0  0  0  0  0
  1  2  1  0  0  0  0
  1  3  1  0  0  0  0
  3  4  1  0  0  0  0
  3  8  1  0  0  0  0
  4  5  1  0  0  0  0
  4 41  1  0  0  0  0
  5  6  1  0  0  0  0
  5 27  1  0  0  0  0
  6  7  1  0  0  0  0
  6 24  1  0  0  0  0
  7  8  1  0  0  0  0
  8  9  1  0  0  0  0
  9 10  1  0  0  0  0
 10 11  2  0  0  0  0
 10 12  1  0  0  0  0
 12 13  4  0  0  0  0
 12 23  4  0  0  0  0
 13 14  4  0  0  0  0
 14 15  1  0  0  0  0
 14 17  4  0  0  0  0
 15 16  1  0  0  0  0
 17 18  1  0  0  0  0
 17 20  4  0  0  0  0
 18 19  1  0  0  0  0
 20 21  1  0  0  0  0
 20 23  4  0  0  0  0
 21 22  1  0  0  0  0
 24 25  1  0  0  0  0
 25 26  1  0  0  0  0
 25 40  1  0  0  0  0
 26 27  1  0  0  0  0
 26 28  1  0  0  0  0
 28 29  4  0  0  0  0
 28 38  4  0  0  0  0
 29 30  4  0  0  0  0
 30 31  4  0  0  0  0
 30 37  4  0  0  0  0
 31 32  4  0  0  0  0
 32 33  1  0  0  0  0
 32 35  4  0  0  0  0
 33 34  1  0  0  0  0
 35 36  4  0  0  0  0
 36 37  4  0  0  0  0
 37 38  4  0  0  0  0
 38 39  1  0  0  0  0
 39 40  1  0  0  0  0
 41 42  1  0  0  0  0
 41 44  2  0  0  0  0
 42 43  1  0  0  0  0
M  STY  1   1 DAT
M  SAL   1  1  29
M  SDT   1 MRV_IMPLICIT_H                                        
M  SDD   1     0.0000    0.0000    DR    ALL  0       0  
M  SED   1 IMPL_H1
M  END
>  <Name_Molregno>
RESERPINE

>  <5-HT1A>
5.74

>  <DOPAMINE D1>
5.41

>  <DOPAMINE D2>
6.23

>  <DOPAMINE D3>
6.22

>  <Dopamine transporter>
5

$$$$
RIMCAZOLE
  Marvin  02231216192D 0   1.00000     0.00000     0

 24 27  0  0  1  0  0  0  0  0999 V2000
   -0.0949    0.2179    0.0000 N   0  0  0  0  0  0  0  0  0
    0.5725    0.7028    0.0000 C   0  0  0  0  0  0  0  0  0
    0.3176    1.4874    0.0000 C   0  0  0  0  0  0  0  0  0
   -0.5074    1.4874    0.0000 C   0  0  0  0  0  0  0  0  0
   -0.7624    0.7028    0.0000 C   0  0  0  0  0  0  0  0  0
   -1.5693    0.5313    0.0000 C   0  0  0  0  0  0  0  0  0
   -2.1214    1.1444    0.0000 C   0  0  0  0  0  0  0  0  0
   -1.8664    1.9290    0.0000 C   0  0  0  0  0  0  0  0  0
   -1.0595    2.1005    0.0000 C   0  0  0  0  0  0  0  0  0
    0.8696    2.1005    0.0000 C   0  0  0  0  0  0  0  0  0
    1.6766    1.9290    0.0000 C   0  0  0  0  0  0  0  0  0
    1.9315    1.1444    0.0000 C   0  0  0  0  0  0  0  0  0
    1.3795    0.5313    0.0000 C   0  0  0  0  0  0  0  0  0
   -0.0949   -0.6071    0.0000 C   0  0  0  0  0  0  0  0  0
   -0.8094   -1.0196    0.0000 C   0  0  0  0  0  0  0  0  0
   -0.8094   -1.8446    0.0000 C   0  0  0  0  0  0  0  0  0
   -1.5239   -2.2571    0.0000 N   0  0  0  0  0  0  0  0  0
   -1.5239   -3.0821    0.0000 C   0  0  0  0  0  0  0  0  0
   -2.2383   -3.4946    0.0000 C   0  0  0  0  0  0  0  0  0
   -2.9528   -3.0821    0.0000 N   0  0  0  0  0  0  0  0  0
   -2.9528   -2.2571    0.0000 C   0  0  0  0  0  0  0  0  0
   -2.2383   -1.8446    0.0000 C   0  0  0  0  0  0  0  0  0
   -3.6673   -1.8446    0.0000 C   0  0  0  0  0  0  0  0  0
   -2.2383   -4.3196    0.0000 C   0  0  0  0  0  0  0  0  0
  1  2  4  0  0  0  0
  1  5  4  0  0  0  0
  1 14  1  0  0  0  0
  2  3  4  0  0  0  0
  2 13  4  0  0  0  0
  3  4  4  0  0  0  0
  3 10  4  0  0  0  0
  4  5  4  0  0  0  0
  4  9  4  0  0  0  0
  5  6  4  0  0  0  0
  6  7  4  0  0  0  0
  7  8  4  0  0  0  0
  8  9  4  0  0  0  0
 10 11  4  0  0  0  0
 11 12  4  0  0  0  0
 12 13  4  0  0  0  0
 14 15  1  0  0  0  0
 15 16  1  0  0  0  0
 16 17  1  0  0  0  0
 17 18  1  0  0  0  0
 17 22  1  0  0  0  0
 18 19  1  0  0  0  0
 19 20  1  0  0  0  0
 19 24  1  0  0  0  0
 20 21  1  0  0  0  0
 21 22  1  0  0  0  0
 21 23  1  0  0  0  0
M  END
>  <Name_Molregno>
RIMCAZOLE

>  <DOPAMINE D2>
5.06

>  <DOPAMINE D3>
5

>  <HISTAMINE H1>
5.3

$$$$
RISPERIDONE
  Marvin  02231216192D 0   1.00000     0.00000     0

 30 34  0  0  0  0  0  0  0  0999 V2000
    1.8325   -2.9394    0.0000 F   0  0  0  0  0  0  0  0  0
    2.0875   -2.1548    0.0000 C   0  0  0  0  0  0  0  0  0
    1.5354   -1.5417    0.0000 C   0  0  0  0  0  0  0  0  0
    1.7904   -0.7571    0.0000 C   0  0  0  0  0  0  0  0  0
    1.3779   -0.0426    0.0000 O   0  0  0  0  0  0  0  0  0
    1.9299    0.5705    0.0000 N   0  0  0  0  0  0  0  0  0
    2.6836    0.2349    0.0000 C   0  0  0  0  0  0  0  0  0
    2.5974   -0.5856    0.0000 C   0  0  0  0  0  0  0  0  0
    3.1494   -1.1987    0.0000 C   0  0  0  0  0  0  0  0  0
    2.8945   -1.9833    0.0000 C   0  0  0  0  0  0  0  0  0
    3.3981    0.6474    0.0000 C   0  0  0  0  0  0  0  0  0
    3.3981    1.4724    0.0000 C   0  0  0  0  0  0  0  0  0
    4.1125    1.8849    0.0000 C   0  0  0  0  0  0  0  0  0
    4.8270    1.4724    0.0000 N   0  0  0  0  0  0  0  0  0
    4.8270    0.6474    0.0000 C   0  0  0  0  0  0  0  0  0
    4.1125    0.2349    0.0000 C   0  0  0  0  0  0  0  0  0
    5.5415    1.8849    0.0000 C   0  0  0  0  0  0  0  0  0
    6.2559    1.4724    0.0000 C   0  0  0  0  0  0  0  0  0
    6.9704    1.8849    0.0000 C   0  0  0  0  0  0  0  0  0
    7.6849    1.4724    0.0000 C   0  0  0  0  0  0  0  0  0
    7.6849    0.6474    0.0000 O   0  0  0  0  0  0  0  0  0
    8.3994    1.8849    0.0000 N   0  0  0  0  0  0  0  0  0
    8.3994    2.7099    0.0000 C   0  0  0  0  0  0  0  0  0
    7.6849    3.1224    0.0000 N   0  0  0  0  0  0  0  0  0
    6.9704    2.7099    0.0000 C   0  0  0  0  0  0  0  0  0
    6.2559    3.1224    0.0000 C   0  0  0  0  0  0  0  0  0
    9.1138    3.1224    0.0000 C   0  0  0  0  0  0  0  0  0
    9.8283    2.7099    0.0000 C   0  0  0  0  0  0  0  0  0
    9.8283    1.8849    0.0000 C   0  0  0  0  0  0  0  0  0
    9.1138    1.4724    0.0000 C   0  0  0  0  0  0  0  0  0
  1  2  1  0  0  0  0
  2  3  4  0  0  0  0
  2 10  4  0  0  0  0
  3  4  4  0  0  0  0
  4  5  4  0  0  0  0
  4  8  4  0  0  0  0
  5  6  4  0  0  0  0
  6  7  4  0  0  0  0
  7  8  4  0  0  0  0
  7 11  1  0  0  0  0
  8  9  4  0  0  0  0
  9 10  4  0  0  0  0
 11 12  1  0  0  0  0
 11 16  1  0  0  0  0
 12 13  1  0  0  0  0
 13 14  1  0  0  0  0
 14 15  1  0  0  0  0
 14 17  1  0  0  0  0
 15 16  1  0  0  0  0
 17 18  1  0  0  0  0
 18 19  1  0  0  0  0
 19 20  1  0  0  0  0
 19 25  2  0  0  0  0
 20 21  2  0  0  0  0
 20 22  1  0  0  0  0
 22 23  1  0  0  0  0
 22 30  1  0  0  0  0
 23 24  2  0  0  0  0
 23 27  1  0  0  0  0
 24 25  1  0  0  0  0
 25 26  1  0  0  0  0
 27 28  1  0  0  0  0
 28 29  1  0  0  0  0
 29 30  1  0  0  0  0
M  END
>  <Name_Molregno>
RISPERIDONE

>  <5-HT1A>
6.52

>  <5-HT1B>
7.66

>  <5-HT1D>
7.6

>  <5-HT1E>
5.44

>  <5-HT2A>
9.35

>  <5-HT2C>
7.74

>  <5-HT3>
5

>  <5-HT5>
6.69

>  <5-HT6>
5.7

>  <5-HT7>
8.4

>  <Alpha-1A>
8.38

>  <Alpha-1B>
8.05

>  <Alpha-2A>
7.46

>  <Alpha-2B>
7.34

>  <Alpha-2C>
8.56

>  <Beta-1>
5.15

>  <Beta-2>
5.15

>  <DOPAMINE D1>
6.61

>  <DOPAMINE D2>
8.58

>  <DOPAMINE D3>
8.17

>  <DOPAMINE D4>
8.17

>  <DOPAMINE D5>
7.03

>  <Dopamine transporter>
5

>  <HISTAMINE H1>
7.79

>  <HISTAMINE H2>
6.92

>  <HISTAMINE H4>
5

>  <Muscarinic acetylcholine receptor M1>
5.22

>  <Muscarinic acetylcholine receptor M2>
5.14

>  <Muscarinic acetylcholine receptor M3>
5

>  <Muscarinic acetylcholine receptor M4>
5.18

>  <Muscarinic acetylcholine receptor M5>
5

>  <Norepinephrine transporter>
5

>  <Serotonin transporter>
5.67

$$$$
RITANSERIN
  Marvin  02231216192D 0   1.00000     0.00000     0

 34 38  0  0  0  0  0  0  0  0999 V2000
   -9.6255    1.6331    0.0000 S   0  0  0  0  0  0  0  0  0
  -10.1104    0.9657    0.0000 C   0  0  0  0  0  0  0  0  0
   -9.6255    0.2982    0.0000 C   0  0  0  0  0  0  0  0  0
   -8.8409    0.5532    0.0000 N   0  0  0  0  0  0  0  0  0
   -8.8409    1.3782    0.0000 C   0  0  0  0  0  0  0  0  0
   -8.1264    1.7907    0.0000 N   0  0  0  0  0  0  0  0  0
   -7.4119    1.3782    0.0000 C   0  0  0  0  0  0  0  0  0
   -6.6974    1.7907    0.0000 C   0  0  0  0  0  0  0  0  0
   -7.4119    0.5532    0.0000 C   0  0  0  0  0  0  0  0  0
   -6.6974    0.1407    0.0000 C   0  0  0  0  0  0  0  0  0
   -5.9830    0.5532    0.0000 C   0  0  0  0  0  0  0  0  0
   -5.2685    0.1407    0.0000 N   0  0  0  0  0  0  0  0  0
   -4.5540    0.5532    0.0000 C   0  0  0  0  0  0  0  0  0
   -3.8396    0.1407    0.0000 C   0  0  0  0  0  0  0  0  0
   -3.8396   -0.6843    0.0000 C   0  0  0  0  0  0  0  0  0
   -4.5540   -1.0968    0.0000 C   0  0  0  0  0  0  0  0  0
   -5.2685   -0.6843    0.0000 C   0  0  0  0  0  0  0  0  0
   -3.1251   -1.0968    0.0000 C   0  0  0  0  0  0  0  0  0
   -3.1251   -1.9218    0.0000 C   0  0  0  0  0  0  0  0  0
   -2.4106   -2.3343    0.0000 C   0  0  0  0  0  0  0  0  0
   -2.4106   -3.1593    0.0000 C   0  0  0  0  0  0  0  0  0
   -3.1251   -3.5718    0.0000 C   0  0  0  0  0  0  0  0  0
   -3.1251   -4.3968    0.0000 F   0  0  0  0  0  0  0  0  0
   -3.8396   -3.1593    0.0000 C   0  0  0  0  0  0  0  0  0
   -3.8396   -2.3343    0.0000 C   0  0  0  0  0  0  0  0  0
   -2.4106   -0.6843    0.0000 C   0  0  0  0  0  0  0  0  0
   -2.4106    0.1407    0.0000 C   0  0  0  0  0  0  0  0  0
   -1.6961    0.5532    0.0000 C   0  0  0  0  0  0  0  0  0
   -0.9817    0.1407    0.0000 C   0  0  0  0  0  0  0  0  0
   -0.2672    0.5532    0.0000 F   0  0  0  0  0  0  0  0  0
   -0.9817   -0.6843    0.0000 C   0  0  0  0  0  0  0  0  0
   -1.6961   -1.0968    0.0000 C   0  0  0  0  0  0  0  0  0
   -8.1264    0.1407    0.0000 C   0  0  0  0  0  0  0  0  0
   -8.1264   -0.6843    0.0000 O   0  0  0  0  0  0  0  0  0
  1  2  1  0  0  0  0
  1  5  1  0  0  0  0
  2  3  2  0  0  0  0
  3  4  1  0  0  0  0
  4  5  1  0  0  0  0
  4 33  1  0  0  0  0
  5  6  2  0  0  0  0
  6  7  1  0  0  0  0
  7  8  1  0  0  0  0
  7  9  2  0  0  0  0
  9 10  1  0  0  0  0
  9 33  1  0  0  0  0
 10 11  1  0  0  0  0
 11 12  1  0  0  0  0
 12 13  1  0  0  0  0
 12 17  1  0  0  0  0
 13 14  1  0  0  0  0
 14 15  1  0  0  0  0
 15 16  1  0  0  0  0
 15 18  2  0  0  0  0
 16 17  1  0  0  0  0
 18 19  1  0  0  0  0
 18 26  1  0  0  0  0
 19 20  4  0  0  0  0
 19 25  4  0  0  0  0
 20 21  4  0  0  0  0
 21 22  4  0  0  0  0
 22 23  1  0  0  0  0
 22 24  4  0  0  0  0
 24 25  4  0  0  0  0
 26 27  4  0  0  0  0
 26 32  4  0  0  0  0
 27 28  4  0  0  0  0
 28 29  4  0  0  0  0
 29 30  1  0  0  0  0
 29 31  4  0  0  0  0
 31 32  4  0  0  0  0
 33 34  2  0  0  0  0
M  END
>  <Name_Molregno>
RITANSERIN

>  <5-HT1A>
5.53

>  <5-HT1B>
6.56

>  <5-HT1D>
6.29

>  <5-HT2A>
9.14

>  <5-HT2C>
9.04

>  <5-HT3>
5

>  <5-HT6>
7.54

>  <5-HT7>
7.34

>  <DOPAMINE D1>
6.03

>  <DOPAMINE D2>
7.54

>  <DOPAMINE D3>
7.62

>  <DOPAMINE D4>
7.52

$$$$
Ropinirole
  Marvin  02231216192D 0   1.00000     0.00000     0

 19 20  0  0  0  0  0  0  0  0999 V2000
    0.9619   -1.7047    0.0000 O   0  0  0  0  0  0  0  0  0
    1.7869   -1.7047    0.0000 C   0  0  0  0  0  0  0  0  0
    2.2718   -2.3721    0.0000 N   0  0  0  0  0  0  0  0  0
    3.0565   -2.1172    0.0000 C   0  0  0  0  0  0  0  0  0
    3.0565   -1.2922    0.0000 C   0  0  0  0  0  0  0  0  0
    2.2718   -1.0372    0.0000 C   0  0  0  0  0  0  0  0  0
    3.7709   -0.8797    0.0000 C   0  0  0  0  0  0  0  0  0
    4.4854   -1.2922    0.0000 C   0  0  0  0  0  0  0  0  0
    4.4854   -2.1172    0.0000 C   0  0  0  0  0  0  0  0  0
    3.7709   -2.5297    0.0000 C   0  0  0  0  0  0  0  0  0
    3.7709   -0.0547    0.0000 C   0  0  0  0  0  0  0  0  0
    3.0565    0.3578    0.0000 C   0  0  0  0  0  0  0  0  0
    3.0565    1.1828    0.0000 N   0  0  0  0  0  0  0  0  0
    2.3420    1.5953    0.0000 C   0  0  0  0  0  0  0  0  0
    2.3420    2.4203    0.0000 C   0  0  0  0  0  0  0  0  0
    1.6275    2.8328    0.0000 C   0  0  0  0  0  0  0  0  0
    3.7709    1.5953    0.0000 C   0  0  0  0  0  0  0  0  0
    3.7709    2.4203    0.0000 C   0  0  0  0  0  0  0  0  0
    4.4854    2.8328    0.0000 C   0  0  0  0  0  0  0  0  0
  1  2  2  0  0  0  0
  2  3  1  0  0  0  0
  2  6  1  0  0  0  0
  3  4  1  0  0  0  0
  4  5  4  0  0  0  0
  4 10  4  0  0  0  0
  5  6  1  0  0  0  0
  5  7  4  0  0  0  0
  7  8  4  0  0  0  0
  7 11  1  0  0  0  0
  8  9  4  0  0  0  0
  9 10  4  0  0  0  0
 11 12  1  0  0  0  0
 12 13  1  0  0  0  0
 13 14  1  0  0  0  0
 13 17  1  0  0  0  0
 14 15  1  0  0  0  0
 15 16  1  0  0  0  0
 17 18  1  0  0  0  0
 18 19  1  0  0  0  0
M  END
>  <Name_Molregno>
Ropinirole

>  <5-HT1A>
6.28

>  <5-HT1B>
5

>  <5-HT1D>
5.86

>  <5-HT2A>
5

>  <5-HT2C>
5

>  <5-HT5>
5

>  <5-HT6>
5

>  <5-HT7>
5.82

>  <Alpha-1A>
5

>  <Alpha-1B>
5

>  <Alpha-2A>
5.73

>  <Alpha-2B>
6.12

>  <Alpha-2C>
5.92

>  <Beta-1>
5

>  <Beta-2>
5

>  <DOPAMINE D1>
5

>  <DOPAMINE D2>
6.45

>  <DOPAMINE D3>
7.5

>  <DOPAMINE D4>
6.07

>  <DOPAMINE D5>
5

$$$$
Roxindole
  Marvin  02231216192D 0   1.00000     0.00000     0

 26 29  0  0  0  0  0  0  0  0999 V2000
   -0.4898   -0.6830    0.0000 O   0  0  0  0  0  0  0  0  0
   -1.2043   -0.2705    0.0000 C   0  0  0  0  0  0  0  0  0
   -1.9188   -0.6830    0.0000 C   0  0  0  0  0  0  0  0  0
   -2.6332   -0.2705    0.0000 C   0  0  0  0  0  0  0  0  0
   -2.6332    0.5545    0.0000 C   0  0  0  0  0  0  0  0  0
   -3.4179    0.8095    0.0000 N   0  0  0  0  0  0  0  0  0
   -3.9028    0.1420    0.0000 C   0  0  0  0  0  0  0  0  0
   -3.4179   -0.5254    0.0000 C   0  0  0  0  0  0  0  0  0
   -3.6728   -1.3100    0.0000 C   0  0  0  0  0  0  0  0  0
   -3.1208   -1.9231    0.0000 C   0  0  0  0  0  0  0  0  0
   -3.3757   -2.7077    0.0000 C   0  0  0  0  0  0  0  0  0
   -2.8237   -3.3208    0.0000 C   0  0  0  0  0  0  0  0  0
   -3.0786   -4.1055    0.0000 N   0  0  0  0  0  0  0  0  0
   -2.5266   -4.7185    0.0000 C   0  0  0  0  0  0  0  0  0
   -2.7815   -5.5032    0.0000 C   0  0  0  0  0  0  0  0  0
   -3.5885   -5.6747    0.0000 C   0  0  0  0  0  0  0  0  0
   -4.1405   -5.0616    0.0000 C   0  0  0  0  0  0  0  0  0
   -3.8856   -4.2770    0.0000 C   0  0  0  0  0  0  0  0  0
   -3.8434   -6.4593    0.0000 C   0  0  0  0  0  0  0  0  0
   -3.2914   -7.0724    0.0000 C   0  0  0  0  0  0  0  0  0
   -3.5463   -7.8570    0.0000 C   0  0  0  0  0  0  0  0  0
   -4.3533   -8.0286    0.0000 C   0  0  0  0  0  0  0  0  0
   -4.9053   -7.4155    0.0000 C   0  0  0  0  0  0  0  0  0
   -4.6504   -6.6308    0.0000 C   0  0  0  0  0  0  0  0  0
   -1.9188    0.9670    0.0000 C   0  0  0  0  0  0  0  0  0
   -1.2043    0.5545    0.0000 C   0  0  0  0  0  0  0  0  0
  1  2  1  0  0  0  0
  2  3  4  0  0  0  0
  2 26  4  0  0  0  0
  3  4  4  0  0  0  0
  4  5  4  0  0  0  0
  4  8  4  0  0  0  0
  5  6  4  0  0  0  0
  5 25  4  0  0  0  0
  6  7  4  0  0  0  0
  7  8  4  0  0  0  0
  8  9  1  0  0  0  0
  9 10  1  0  0  0  0
 10 11  1  0  0  0  0
 11 12  1  0  0  0  0
 12 13  1  0  0  0  0
 13 14  1  0  0  0  0
 13 18  1  0  0  0  0
 14 15  1  0  0  0  0
 15 16  1  0  0  0  0
 16 17  2  0  0  0  0
 16 19  1  0  0  0  0
 17 18  1  0  0  0  0
 19 20  4  0  0  0  0
 19 24  4  0  0  0  0
 20 21  4  0  0  0  0
 21 22  4  0  0  0  0
 22 23  4  0  0  0  0
 23 24  4  0  0  0  0
 25 26  4  0  0  0  0
M  STY  1   1 DAT
M  SAL   1  1   6
M  SDT   1 MRV_IMPLICIT_H                                        
M  SDD   1     0.0000    0.0000    DR    ALL  0       0  
M  SED   1 IMPL_H1
M  END
>  <Name_Molregno>
Roxindole

>  <5-HT1A>
9.94

>  <5-HT1D>
7.2

>  <5-HT2A>
8.18

>  <5-HT2C>
6.51

>  <Alpha-1A>
8.59

>  <Alpha-1B>
8.55

>  <Alpha-2A>
8.21

>  <Alpha-2B>
8.34

>  <Alpha-2C>
8.75

>  <Beta-1>
5.57

>  <Beta-2>
6.03

>  <DOPAMINE D1>
6.33

>  <DOPAMINE D2>
8.45

>  <DOPAMINE D3>
8.93

>  <DOPAMINE D4>
8.23

>  <DOPAMINE D5>
6.72

$$$$
RU24926
  Marvin  02231216192D 0   1.00000     0.00000     0

 22 23  0  0  0  0  0  0  0  0999 V2000
    7.7232    0.9860    0.0000 O   0  0  0  0  0  0  0  0  0
    6.8982    0.9860    0.0000 C   0  0  0  0  0  0  0  0  0
    6.4857    0.2715    0.0000 C   0  0  0  0  0  0  0  0  0
    5.6607    0.2715    0.0000 C   0  0  0  0  0  0  0  0  0
    5.2482    0.9860    0.0000 C   0  0  0  0  0  0  0  0  0
    5.6607    1.7004    0.0000 C   0  0  0  0  0  0  0  0  0
    6.4857    1.7004    0.0000 C   0  0  0  0  0  0  0  0  0
    5.2482   -0.4430    0.0000 C   0  0  0  0  0  0  0  0  0
    4.4232   -0.4430    0.0000 C   0  0  0  0  0  0  0  0  0
    4.0107   -1.1575    0.0000 N   0  0  0  0  0  0  0  0  0
    3.1857   -1.1575    0.0000 C   0  0  0  0  0  0  0  0  0
    2.7732   -1.8719    0.0000 C   0  0  0  0  0  0  0  0  0
    1.9482   -1.8719    0.0000 C   0  0  0  0  0  0  0  0  0
    1.5357   -2.5864    0.0000 C   0  0  0  0  0  0  0  0  0
    0.7107   -2.5864    0.0000 C   0  0  0  0  0  0  0  0  0
    0.2982   -3.3009    0.0000 O   0  0  0  0  0  0  0  0  0
    0.2982   -1.8719    0.0000 C   0  0  0  0  0  0  0  0  0
    0.7107   -1.1575    0.0000 C   0  0  0  0  0  0  0  0  0
    1.5357   -1.1575    0.0000 C   0  0  0  0  0  0  0  0  0
    4.4232   -1.8719    0.0000 C   0  0  0  0  0  0  0  0  0
    5.2482   -1.8719    0.0000 C   0  0  0  0  0  0  0  0  0
    5.6607   -2.5864    0.0000 C   0  0  0  0  0  0  0  0  0
  1  2  1  0  0  0  0
  2  3  4  0  0  0  0
  2  7  4  0  0  0  0
  3  4  4  0  0  0  0
  4  5  4  0  0  0  0
  4  8  1  0  0  0  0
  5  6  4  0  0  0  0
  6  7  4  0  0  0  0
  8  9  1  0  0  0  0
  9 10  1  0  0  0  0
 10 11  1  0  0  0  0
 10 20  1  0  0  0  0
 11 12  1  0  0  0  0
 12 13  1  0  0  0  0
 13 14  4  0  0  0  0
 13 19  4  0  0  0  0
 14 15  4  0  0  0  0
 15 16  1  0  0  0  0
 15 17  4  0  0  0  0
 17 18  4  0  0  0  0
 18 19  4  0  0  0  0
 20 21  1  0  0  0  0
 21 22  1  0  0  0  0
M  END
>  <Name_Molregno>
RU24926

>  <DOPAMINE D2>
8.17

>  <DOPAMINE D3>
8.91

$$$$
SalvinorinA
  Marvin  02231216192D 0   1.00000     0.00000     0

 31 34  0  0  1  0  0  0  0  0999 V2000
   -4.2035   -1.1582    0.0000 O   0  0  0  0  0  0  0  0  0
   -3.7910   -1.8727    0.0000 C   0  0  0  0  0  0  0  0  0
   -2.9660   -1.8727    0.0000 C   0  0  0  0  0  0  0  0  0
   -2.5535   -1.1582    0.0000 C   0  0  0  0  0  0  0  0  0
   -1.7285   -1.1582    0.0000 C   0  0  0  0  0  0  0  0  0
   -1.3160   -0.4437    0.0000 C   0  0  0  0  0  0  0  0  0
   -1.7285    0.2708    0.0000 C   0  0  0  0  0  0  0  0  0
   -2.5535    0.2708    0.0000 C   0  0  0  0  0  0  0  0  0
   -2.9660   -0.4437    0.0000 C   0  0  0  0  0  0  0  0  0
   -3.7910   -0.4437    0.0000 C   0  0  0  0  0  0  0  0  0
   -4.2035    0.2708    0.0000 O   0  0  0  0  0  0  0  0  0
   -0.9035    0.2708    0.0000 C   0  0  0  0  0  0  0  0  0
   -0.4910   -0.4437    0.0000 C   0  0  0  0  0  0  0  0  0
   -0.0785   -1.1582    0.0000 C   0  0  0  0  0  0  0  0  0
   -0.4910   -1.8727    0.0000 C   0  0  0  0  0  0  0  0  0
   -0.0785   -2.5871    0.0000 O   0  0  0  0  0  0  0  0  0
    0.7465   -2.5871    0.0000 C   0  0  0  0  0  0  0  0  0
    1.1590   -3.3016    0.0000 O   0  0  0  0  0  0  0  0  0
    1.1590   -1.8727    0.0000 C   0  0  0  0  0  0  0  0  0
   -1.3160   -1.8727    0.0000 C   0  0  0  0  0  0  0  0  0
   -1.7285   -2.5871    0.0000 O   0  0  0  0  0  0  0  0  0
   -0.0785    0.2708    0.0000 C   0  0  0  0  0  0  0  0  0
   -0.4910    0.9852    0.0000 O   0  0  0  0  0  0  0  0  0
   -0.0785    1.6997    0.0000 C   0  0  0  0  0  0  0  0  0
    0.7465    0.2708    0.0000 O   0  0  0  0  0  0  0  0  0
   -2.1410   -1.8727    0.0000 C   0  0  0  0  0  0  0  0  0
   -4.2035   -2.5871    0.0000 C   0  0  0  0  0  0  0  0  0
   -3.8680   -3.3408    0.0000 C   0  0  0  0  0  0  0  0  0
   -4.4811   -3.8928    0.0000 C   0  0  0  0  0  0  0  0  0
   -5.1956   -3.4803    0.0000 O   0  0  0  0  0  0  0  0  0
   -5.0240   -2.6734    0.0000 C   0  0  0  0  0  0  0  0  0
  1  2  1  0  0  0  0
  1 10  1  0  0  0  0
  2  3  1  0  0  0  0
  2 27  1  0  0  0  0
  3  4  1  0  0  0  0
  4  5  1  0  0  0  0
  4  9  1  0  0  0  0
  4 26  1  0  0  0  0
  5  6  1  0  0  0  0
  5 20  1  0  0  0  0
  6  7  1  0  0  0  0
  6 12  1  0  0  0  0
  6 13  1  0  0  0  0
  7  8  1  0  0  0  0
  8  9  1  0  0  0  0
  9 10  1  0  0  0  0
 10 11  2  0  0  0  0
 13 14  1  0  0  0  0
 13 22  1  0  0  0  0
 14 15  1  0  0  0  0
 15 16  1  0  0  0  0
 15 20  1  0  0  0  0
 16 17  1  0  0  0  0
 17 18  2  0  0  0  0
 17 19  1  0  0  0  0
 20 21  2  0  0  0  0
 22 23  1  0  0  0  0
 22 25  2  0  0  0  0
 23 24  1  0  0  0  0
 27 28  4  0  0  0  0
 27 31  4  0  0  0  0
 28 29  4  0  0  0  0
 29 30  4  0  0  0  0
 30 31  4  0  0  0  0
M  END
>  <Name_Molregno>
SalvinorinA

>  <5-HT1A>
5

>  <5-HT1B>
5

>  <5-HT1D>
5

>  <5-HT1E>
5

>  <5-HT3>
5

>  <5-HT5>
5

>  <5-HT6>
5

>  <5-HT7>
5

>  <Alpha-1A>
5

>  <Alpha-1B>
5

>  <DOPAMINE D1>
5

>  <DOPAMINE D2>
5

>  <DOPAMINE D3>
5

>  <DOPAMINE D5>
5

>  <HISTAMINE H1>
5

>  <Muscarinic acetylcholine receptor M1>
5

>  <Muscarinic acetylcholine receptor M2>
5

>  <Muscarinic acetylcholine receptor M3>
5

>  <Muscarinic acetylcholine receptor M4>
5

>  <Muscarinic acetylcholine receptor M5>
5

>  <Serotonin transporter>
5

$$$$
SB204070
  Marvin  02231216192D 0   1.00000     0.00000     0

 26 28  0  0  0  0  0  0  0  0999 V2000
   -1.8829   -5.3794    0.0000 Cl  0  0  0  0  0  0  0  0  0
   -1.1685   -4.9669    0.0000 C   0  0  0  0  0  0  0  0  0
   -1.1685   -4.1419    0.0000 C   0  0  0  0  0  0  0  0  0
   -0.4540   -3.7294    0.0000 C   0  0  0  0  0  0  0  0  0
    0.2605   -4.1419    0.0000 C   0  0  0  0  0  0  0  0  0
    0.9749   -3.7294    0.0000 O   0  0  0  0  0  0  0  0  0
    1.6894   -4.1419    0.0000 C   0  0  0  0  0  0  0  0  0
    1.6894   -4.9669    0.0000 C   0  0  0  0  0  0  0  0  0
    0.9749   -5.3794    0.0000 O   0  0  0  0  0  0  0  0  0
    0.2605   -4.9669    0.0000 C   0  0  0  0  0  0  0  0  0
   -0.4540   -5.3794    0.0000 C   0  0  0  0  0  0  0  0  0
   -0.4540   -6.2044    0.0000 N   0  0  0  0  0  0  0  0  0
   -0.4540   -2.9044    0.0000 C   0  0  0  0  0  0  0  0  0
    0.2605   -2.4919    0.0000 O   0  0  0  0  0  0  0  0  0
    0.2605   -1.6669    0.0000 C   0  0  0  0  0  0  0  0  0
    0.9749   -1.2544    0.0000 C   0  0  0  0  0  0  0  0  0
    0.9749   -0.4294    0.0000 C   0  0  0  0  0  0  0  0  0
    1.6894   -0.0169    0.0000 C   0  0  0  0  0  0  0  0  0
    2.4039   -0.4294    0.0000 N   0  0  0  0  0  0  0  0  0
    2.4039   -1.2544    0.0000 C   0  0  0  0  0  0  0  0  0
    1.6894   -1.6669    0.0000 C   0  0  0  0  0  0  0  0  0
    3.1184   -0.0169    0.0000 C   0  0  0  0  0  0  0  0  0
    3.1184    0.8081    0.0000 C   0  0  0  0  0  0  0  0  0
    3.8328    1.2206    0.0000 C   0  0  0  0  0  0  0  0  0
    3.8328    2.0456    0.0000 C   0  0  0  0  0  0  0  0  0
   -1.1685   -2.4919    0.0000 O   0  0  0  0  0  0  0  0  0
  1  2  1  0  0  0  0
  2  3  4  0  0  0  0
  2 11  4  0  0  0  0
  3  4  4  0  0  0  0
  4  5  4  0  0  0  0
  4 13  1  0  0  0  0
  5  6  1  0  0  0  0
  5 10  4  0  0  0  0
  6  7  1  0  0  0  0
  7  8  1  0  0  0  0
  8  9  1  0  0  0  0
  9 10  1  0  0  0  0
 10 11  4  0  0  0  0
 11 12  1  0  0  0  0
 13 14  1  0  0  0  0
 13 26  2  0  0  0  0
 14 15  1  0  0  0  0
 15 16  1  0  0  0  0
 16 17  1  0  0  0  0
 16 21  1  0  0  0  0
 17 18  1  0  0  0  0
 18 19  1  0  0  0  0
 19 20  1  0  0  0  0
 19 22  1  0  0  0  0
 20 21  1  0  0  0  0
 22 23  1  0  0  0  0
 23 24  1  0  0  0  0
 24 25  1  0  0  0  0
M  END
>  <Name_Molregno>
SB204070

>  <5-HT1E>
5

>  <Beta-1>
6

>  <Beta-2>
6

>  <DOPAMINE D3>
6

$$$$
SB204741
  Marvin  02231216192D 0   1.00000     0.00000     0

 20 22  0  0  0  0  0  0  0  0999 V2000
    4.4146    0.8808    0.0000 S   0  0  0  0  0  0  0  0  0
    5.2216    1.0523    0.0000 N   0  0  0  0  0  0  0  0  0
    5.6341    0.3378    0.0000 C   0  0  0  0  0  0  0  0  0
    5.0821   -0.2753    0.0000 C   0  0  0  0  0  0  0  0  0
    4.3284    0.0603    0.0000 C   0  0  0  0  0  0  0  0  0
    3.6139   -0.3522    0.0000 N   0  0  0  0  0  0  0  0  0
    2.8995    0.0603    0.0000 C   0  0  0  0  0  0  0  0  0
    2.8995    0.8853    0.0000 O   0  0  0  0  0  0  0  0  0
    2.1850   -0.3522    0.0000 N   0  0  0  0  0  0  0  0  0
    1.4705    0.0603    0.0000 C   0  0  0  0  0  0  0  0  0
    0.7560   -0.3522    0.0000 C   0  0  0  0  0  0  0  0  0
    0.0416    0.0603    0.0000 C   0  0  0  0  0  0  0  0  0
    0.0416    0.8853    0.0000 C   0  0  0  0  0  0  0  0  0
   -0.7431    1.1402    0.0000 N   0  0  0  0  0  0  0  0  0
   -1.2280    0.4728    0.0000 C   0  0  0  0  0  0  0  0  0
   -0.7431   -0.1946    0.0000 C   0  0  0  0  0  0  0  0  0
   -0.9980    1.9249    0.0000 C   0  0  0  0  0  0  0  0  0
    0.7560    1.2978    0.0000 C   0  0  0  0  0  0  0  0  0
    1.4705    0.8853    0.0000 C   0  0  0  0  0  0  0  0  0
    6.4546    0.2516    0.0000 C   0  0  0  0  0  0  0  0  0
  1  2  4  0  0  0  0
  1  5  4  0  0  0  0
  2  3  4  0  0  0  0
  3  4  4  0  0  0  0
  3 20  1  0  0  0  0
  4  5  4  0  0  0  0
  5  6  1  0  0  0  0
  6  7  1  0  0  0  0
  7  8  2  0  0  0  0
  7  9  1  0  0  0  0
  9 10  1  0  0  0  0
 10 11  4  0  0  0  0
 10 19  4  0  0  0  0
 11 12  4  0  0  0  0
 12 13  4  0  0  0  0
 12 16  4  0  0  0  0
 13 14  4  0  0  0  0
 13 18  4  0  0  0  0
 14 15  4  0  0  0  0
 14 17  1  0  0  0  0
 15 16  4  0  0  0  0
 18 19  4  0  0  0  0
M  END
>  <Name_Molregno>
SB204741

>  <5-HT1B>
5

>  <5-HT1D>
5

>  <5-HT1E>
5

>  <5-HT2A>
5.1

>  <5-HT2C>
5.73

>  <DOPAMINE D1>
5

>  <DOPAMINE D2>
5

>  <DOPAMINE D3>
5

$$$$
SERTINDOLE
  Marvin  02231216192D 0   1.00000     0.00000     0

 31 35  0  0  0  0  0  0  0  0999 V2000
    1.9546   -2.6271    0.0000 Cl  0  0  0  0  0  0  0  0  0
    1.2402   -2.2146    0.0000 C   0  0  0  0  0  0  0  0  0
    0.5257   -2.6271    0.0000 C   0  0  0  0  0  0  0  0  0
   -0.1888   -2.2146    0.0000 C   0  0  0  0  0  0  0  0  0
   -0.1888   -1.3896    0.0000 C   0  0  0  0  0  0  0  0  0
   -0.9734   -1.1347    0.0000 N   0  0  0  0  0  0  0  0  0
   -1.4583   -1.8021    0.0000 C   0  0  0  0  0  0  0  0  0
   -0.9734   -2.4695    0.0000 C   0  0  0  0  0  0  0  0  0
   -1.2283   -3.2542    0.0000 C   0  0  0  0  0  0  0  0  0
   -0.6763   -3.8672    0.0000 C   0  0  0  0  0  0  0  0  0
   -0.9312   -4.6519    0.0000 C   0  0  0  0  0  0  0  0  0
   -1.7382   -4.8234    0.0000 N   0  0  0  0  0  0  0  0  0
   -2.2902   -4.2103    0.0000 C   0  0  0  0  0  0  0  0  0
   -2.0353   -3.4257    0.0000 C   0  0  0  0  0  0  0  0  0
   -1.9931   -5.6080    0.0000 C   0  0  0  0  0  0  0  0  0
   -2.8001   -5.7795    0.0000 C   0  0  0  0  0  0  0  0  0
   -3.0551   -6.5642    0.0000 N   0  0  0  0  0  0  0  0  0
   -2.5701   -7.2316    0.0000 C   0  0  0  0  0  0  0  0  0
   -3.0551   -7.8990    0.0000 C   0  0  0  0  0  0  0  0  0
   -3.8397   -7.6441    0.0000 N   0  0  0  0  0  0  0  0  0
   -3.8397   -6.8191    0.0000 C   0  0  0  0  0  0  0  0  0
   -4.5071   -6.3342    0.0000 O   0  0  0  0  0  0  0  0  0
   -1.2283   -0.3500    0.0000 C   0  0  0  0  0  0  0  0  0
   -2.0353   -0.1785    0.0000 C   0  0  0  0  0  0  0  0  0
   -2.2902    0.6061    0.0000 C   0  0  0  0  0  0  0  0  0
   -1.7382    1.2192    0.0000 C   0  0  0  0  0  0  0  0  0
   -1.9931    2.0038    0.0000 F   0  0  0  0  0  0  0  0  0
   -0.9312    1.0477    0.0000 C   0  0  0  0  0  0  0  0  0
   -0.6763    0.2631    0.0000 C   0  0  0  0  0  0  0  0  0
    0.5257   -0.9771    0.0000 C   0  0  0  0  0  0  0  0  0
    1.2402   -1.3896    0.0000 C   0  0  0  0  0  0  0  0  0
  1  2  1  0  0  0  0
  2  3  4  0  0  0  0
  2 31  4  0  0  0  0
  3  4  4  0  0  0  0
  4  5  4  0  0  0  0
  4  8  4  0  0  0  0
  5  6  4  0  0  0  0
  5 30  4  0  0  0  0
  6  7  4  0  0  0  0
  6 23  1  0  0  0  0
  7  8  4  0  0  0  0
  8  9  1  0  0  0  0
  9 10  1  0  0  0  0
  9 14  1  0  0  0  0
 10 11  1  0  0  0  0
 11 12  1  0  0  0  0
 12 13  1  0  0  0  0
 12 15  1  0  0  0  0
 13 14  1  0  0  0  0
 15 16  1  0  0  0  0
 16 17  1  0  0  0  0
 17 18  1  0  0  0  0
 17 21  1  0  0  0  0
 18 19  1  0  0  0  0
 19 20  1  0  0  0  0
 20 21  1  0  0  0  0
 21 22  2  0  0  0  0
 23 24  4  0  0  0  0
 23 29  4  0  0  0  0
 24 25  4  0  0  0  0
 25 26  4  0  0  0  0
 26 27  1  0  0  0  0
 26 28  4  0  0  0  0
 28 29  4  0  0  0  0
 30 31  4  0  0  0  0
M  END
>  <Name_Molregno>
SERTINDOLE

>  <5-HT1A>
6.36

>  <5-HT1B>
7.22

>  <5-HT1D>
7.36

>  <5-HT1E>
6.37

>  <5-HT2A>
9.49

>  <5-HT2C>
8.64

>  <5-HT6>
8.27

>  <5-HT7>
7.55

>  <Alpha-1A>
8.74

>  <Alpha-2A>
6.19

>  <Alpha-2B>
6.35

>  <Alpha-2C>
6.35

>  <Beta-1>
5.3

>  <Beta-2>
5.3

>  <DOPAMINE D2>
8.54

>  <DOPAMINE D3>
8.35

>  <DOPAMINE D4>
8.2

>  <HISTAMINE H1>
6.76

>  <Muscarinic acetylcholine receptor M3>
5.57

>  <Serotonin transporter>
6

$$$$
SKF77434
  Marvin  02231216192D 0   1.00000     0.00000     0

 22 24  0  0  1  0  0  0  0  0999 V2000
   -0.2985    0.9950    0.0000 O   0  0  0  0  0  0  0  0  0
    0.4160    1.4075    0.0000 C   0  0  0  0  0  0  0  0  0
    1.1304    0.9950    0.0000 C   0  0  0  0  0  0  0  0  0
    1.8449    1.4075    0.0000 C   0  0  0  0  0  0  0  0  0
    1.8449    2.2325    0.0000 C   0  0  0  0  0  0  0  0  0
    1.1304    2.6450    0.0000 C   0  0  0  0  0  0  0  0  0
    0.4160    2.2325    0.0000 C   0  0  0  0  0  0  0  0  0
   -0.2985    2.6450    0.0000 O   0  0  0  0  0  0  0  0  0
    2.4899    2.7469    0.0000 C   0  0  0  0  0  0  0  0  0
    3.2942    2.5633    0.0000 C   0  0  0  0  0  0  0  0  0
    3.6522    1.8200    0.0000 N   0  0  0  0  0  0  0  0  0
    3.2942    1.0767    0.0000 C   0  0  0  0  0  0  0  0  0
    2.4899    0.8931    0.0000 C   0  0  0  0  0  0  0  0  0
    2.3063    0.0888    0.0000 C   0  0  0  0  0  0  0  0  0
    2.9111   -0.4723    0.0000 C   0  0  0  0  0  0  0  0  0
    2.7275   -1.2766    0.0000 C   0  0  0  0  0  0  0  0  0
    1.9392   -1.5198    0.0000 C   0  0  0  0  0  0  0  0  0
    1.3344   -0.9587    0.0000 C   0  0  0  0  0  0  0  0  0
    1.5180   -0.1543    0.0000 C   0  0  0  0  0  0  0  0  0
    4.4772    1.8200    0.0000 C   0  0  0  0  0  0  0  0  0
    4.8897    1.1055    0.0000 C   0  0  0  0  0  0  0  0  0
    5.7147    1.1055    0.0000 C   0  0  0  0  0  0  0  0  0
  1  2  1  0  0  0  0
  2  3  4  0  0  0  0
  2  7  4  0  0  0  0
  3  4  4  0  0  0  0
  4  5  4  0  0  0  0
  4 13  1  0  0  0  0
  5  6  4  0  0  0  0
  5  9  1  0  0  0  0
  6  7  4  0  0  0  0
  7  8  1  0  0  0  0
  9 10  1  0  0  0  0
 10 11  1  0  0  0  0
 11 12  1  0  0  0  0
 11 20  1  0  0  0  0
 12 13  1  0  0  0  0
 13 14  1  0  0  0  0
 14 15  4  0  0  0  0
 14 19  4  0  0  0  0
 15 16  4  0  0  0  0
 16 17  4  0  0  0  0
 17 18  4  0  0  0  0
 18 19  4  0  0  0  0
 20 21  1  0  0  0  0
 21 22  2  0  0  0  0
M  END
>  <Name_Molregno>
SKF77434

>  <5-HT1A>
5.68

>  <DOPAMINE D1>
7.14

>  <DOPAMINE D2>
6.24

>  <DOPAMINE D3>
8

$$$$
SKF81297
  Marvin  02231216192D 0   1.00000     0.00000     0

 20 22  0  0  1  0  0  0  0  0999 V2000
    1.6428   -1.7438    0.0000 Cl  0  0  0  0  0  0  0  0  0
    1.6428   -0.9188    0.0000 C   0  0  0  0  0  0  0  0  0
    2.3573   -0.5063    0.0000 C   0  0  0  0  0  0  0  0  0
    2.3573    0.3187    0.0000 C   0  0  0  0  0  0  0  0  0
    1.6428    0.7312    0.0000 C   0  0  0  0  0  0  0  0  0
    0.9283    0.3187    0.0000 C   0  0  0  0  0  0  0  0  0
    0.2139    0.7312    0.0000 O   0  0  0  0  0  0  0  0  0
    0.9283   -0.5063    0.0000 C   0  0  0  0  0  0  0  0  0
    0.2139   -0.9188    0.0000 O   0  0  0  0  0  0  0  0  0
    3.0023    0.8331    0.0000 C   0  0  0  0  0  0  0  0  0
    3.8066    0.6495    0.0000 C   0  0  0  0  0  0  0  0  0
    4.1646   -0.0938    0.0000 N   0  0  0  0  0  0  0  0  0
    3.8066   -0.8371    0.0000 C   0  0  0  0  0  0  0  0  0
    3.0023   -1.0207    0.0000 C   0  0  0  0  0  0  0  0  0
    2.8187    1.6374    0.0000 C   0  0  0  0  0  0  0  0  0
    2.0304    1.8805    0.0000 C   0  0  0  0  0  0  0  0  0
    1.8468    2.6849    0.0000 C   0  0  0  0  0  0  0  0  0
    2.4516    3.2460    0.0000 C   0  0  0  0  0  0  0  0  0
    3.2399    3.0028    0.0000 C   0  0  0  0  0  0  0  0  0
    3.4235    2.1985    0.0000 C   0  0  0  0  0  0  0  0  0
  1  2  1  0  0  0  0
  2  3  4  0  0  0  0
  2  8  4  0  0  0  0
  3  4  4  0  0  0  0
  3 14  1  0  0  0  0
  4  5  4  0  0  0  0
  4 10  1  0  0  0  0
  5  6  4  0  0  0  0
  6  7  1  0  0  0  0
  6  8  4  0  0  0  0
  8  9  1  0  0  0  0
 10 11  1  0  0  0  0
 10 15  1  0  0  0  0
 11 12  1  0  0  0  0
 12 13  1  0  0  0  0
 13 14  1  0  0  0  0
 15 16  4  0  0  0  0
 15 20  4  0  0  0  0
 16 17  4  0  0  0  0
 17 18  4  0  0  0  0
 18 19  4  0  0  0  0
 19 20  4  0  0  0  0
M  END
>  <Name_Molregno>
SKF81297

>  <5-HT1A>
5.26

>  <DOPAMINE D1>
6.95

>  <DOPAMINE D2>
5

>  <DOPAMINE D3>
5.55

$$$$
SKF82958
  Marvin  02231216192D 0   1.00000     0.00000     0

 23 25  0  0  1  0  0  0  0  0999 V2000
   -0.8720   -4.5282    0.0000 Cl  0  0  0  0  0  0  0  0  0
   -0.8720   -3.7032    0.0000 C   0  0  0  0  0  0  0  0  0
   -0.1576   -3.2907    0.0000 C   0  0  0  0  0  0  0  0  0
   -0.1576   -2.4657    0.0000 C   0  0  0  0  0  0  0  0  0
   -0.8720   -2.0532    0.0000 C   0  0  0  0  0  0  0  0  0
   -1.5865   -2.4657    0.0000 C   0  0  0  0  0  0  0  0  0
   -2.3010   -2.0532    0.0000 O   0  0  0  0  0  0  0  0  0
   -1.5865   -3.2907    0.0000 C   0  0  0  0  0  0  0  0  0
   -2.3010   -3.7032    0.0000 O   0  0  0  0  0  0  0  0  0
    0.4875   -1.9514    0.0000 C   0  0  0  0  0  0  0  0  0
    1.2918   -2.1349    0.0000 C   0  0  0  0  0  0  0  0  0
    1.6497   -2.8782    0.0000 N   0  0  0  0  0  0  0  0  0
    1.2918   -3.6215    0.0000 C   0  0  0  0  0  0  0  0  0
    0.4875   -3.8051    0.0000 C   0  0  0  0  0  0  0  0  0
    2.4747   -2.8782    0.0000 C   0  0  0  0  0  0  0  0  0
    2.8872   -3.5927    0.0000 C   0  0  0  0  0  0  0  0  0
    3.7122   -3.5927    0.0000 C   0  0  0  0  0  0  0  0  0
    0.3039   -1.1470    0.0000 C   0  0  0  0  0  0  0  0  0
   -0.4845   -0.9039    0.0000 C   0  0  0  0  0  0  0  0  0
   -0.6681   -0.0996    0.0000 C   0  0  0  0  0  0  0  0  0
   -0.0633    0.4616    0.0000 C   0  0  0  0  0  0  0  0  0
    0.7251    0.2184    0.0000 C   0  0  0  0  0  0  0  0  0
    0.9086   -0.5859    0.0000 C   0  0  0  0  0  0  0  0  0
  1  2  1  0  0  0  0
  2  3  4  0  0  0  0
  2  8  4  0  0  0  0
  3  4  4  0  0  0  0
  3 14  1  0  0  0  0
  4  5  4  0  0  0  0
  4 10  1  0  0  0  0
  5  6  4  0  0  0  0
  6  7  1  0  0  0  0
  6  8  4  0  0  0  0
  8  9  1  0  0  0  0
 10 11  1  0  0  0  0
 10 18  1  0  0  0  0
 11 12  1  0  0  0  0
 12 13  1  0  0  0  0
 12 15  1  0  0  0  0
 13 14  1  0  0  0  0
 15 16  1  0  0  0  0
 16 17  2  0  0  0  0
 18 19  4  0  0  0  0
 18 23  4  0  0  0  0
 19 20  4  0  0  0  0
 20 21  4  0  0  0  0
 21 22  4  0  0  0  0
 22 23  4  0  0  0  0
M  END
>  <Name_Molregno>
SKF82958

>  <5-HT1A>
5.75

>  <DOPAMINE D1>
7.66

>  <DOPAMINE D2>
6.87

>  <DOPAMINE D3>
7.14

$$$$
SPIPERONE
  Marvin  02231216192D 0   1.00000     0.00000     0

 29 32  0  0  0  0  0  0  0  0999 V2000
   10.5422    0.0060    0.0000 F   0  0  0  0  0  0  0  0  0
    9.7172    0.0060    0.0000 C   0  0  0  0  0  0  0  0  0
    9.3047   -0.7084    0.0000 C   0  0  0  0  0  0  0  0  0
    8.4797   -0.7084    0.0000 C   0  0  0  0  0  0  0  0  0
    8.0672    0.0060    0.0000 C   0  0  0  0  0  0  0  0  0
    8.4797    0.7205    0.0000 C   0  0  0  0  0  0  0  0  0
    9.3047    0.7205    0.0000 C   0  0  0  0  0  0  0  0  0
    7.2422    0.0060    0.0000 C   0  0  0  0  0  0  0  0  0
    6.8297    0.7205    0.0000 O   0  0  0  0  0  0  0  0  0
    6.8297   -0.7084    0.0000 C   0  0  0  0  0  0  0  0  0
    6.0047   -0.7084    0.0000 C   0  0  0  0  0  0  0  0  0
    5.5922   -1.4229    0.0000 C   0  0  0  0  0  0  0  0  0
    4.7672   -1.4229    0.0000 N   0  0  0  0  0  0  0  0  0
    4.3547   -2.1374    0.0000 C   0  0  0  0  0  0  0  0  0
    3.5297   -2.1374    0.0000 C   0  0  0  0  0  0  0  0  0
    3.1172   -1.4229    0.0000 C   0  0  0  0  0  0  0  0  0
    2.6323   -2.0903    0.0000 N   0  0  0  0  0  0  0  0  0
    1.8476   -1.8354    0.0000 C   0  0  0  0  0  0  0  0  0
    1.8476   -1.0104    0.0000 N   0  0  0  0  0  0  0  0  0
    2.6323   -0.7555    0.0000 C   0  0  0  0  0  0  0  0  0
    2.8872    0.0292    0.0000 O   0  0  0  0  0  0  0  0  0
    2.8872   -2.8750    0.0000 C   0  0  0  0  0  0  0  0  0
    3.6942   -3.0465    0.0000 C   0  0  0  0  0  0  0  0  0
    3.9491   -3.8311    0.0000 C   0  0  0  0  0  0  0  0  0
    3.3971   -4.4442    0.0000 C   0  0  0  0  0  0  0  0  0
    2.5901   -4.2727    0.0000 C   0  0  0  0  0  0  0  0  0
    2.3352   -3.4880    0.0000 C   0  0  0  0  0  0  0  0  0
    3.5297   -0.7084    0.0000 C   0  0  0  0  0  0  0  0  0
    4.3547   -0.7084    0.0000 C   0  0  0  0  0  0  0  0  0
  1  2  1  0  0  0  0
  2  3  4  0  0  0  0
  2  7  4  0  0  0  0
  3  4  4  0  0  0  0
  4  5  4  0  0  0  0
  5  6  4  0  0  0  0
  5  8  1  0  0  0  0
  6  7  4  0  0  0  0
  8  9  2  0  0  0  0
  8 10  1  0  0  0  0
 10 11  1  0  0  0  0
 11 12  1  0  0  0  0
 12 13  1  0  0  0  0
 13 14  1  0  0  0  0
 13 29  1  0  0  0  0
 14 15  1  0  0  0  0
 15 16  1  0  0  0  0
 16 17  1  0  0  0  0
 16 20  1  0  0  0  0
 16 28  1  0  0  0  0
 17 18  1  0  0  0  0
 17 22  1  0  0  0  0
 18 19  1  0  0  0  0
 19 20  1  0  0  0  0
 20 21  2  0  0  0  0
 22 23  4  0  0  0  0
 22 27  4  0  0  0  0
 23 24  4  0  0  0  0
 24 25  4  0  0  0  0
 25 26  4  0  0  0  0
 26 27  4  0  0  0  0
 28 29  1  0  0  0  0
M  END
>  <Name_Molregno>
SPIPERONE

>  <5-HT1A>
7

>  <5-HT1B>
5.5

>  <5-HT1D>
5.4

>  <5-HT1E>
5.3

>  <5-HT2A>
8.65

>  <5-HT2C>
6.12

>  <5-HT5>
4.2

>  <5-HT6>
5.8

>  <5-HT7>
7.17

>  <Alpha-1A>
7.9

>  <Alpha-1B>
8.51

>  <DOPAMINE D1>
6.42

>  <DOPAMINE D2>
10.02

>  <DOPAMINE D3>
9.55

>  <DOPAMINE D4>
9.31

>  <DOPAMINE D5>
5.35

>  <HISTAMINE H1>
6.4

$$$$
SR144528
  Marvin  02231216192D 0   1.00000     0.00000     0

 34 38  0  0  1  0  0  0  0  0999 V2000
   -3.4859   -7.8445    0.0000 Cl  0  0  0  0  0  0  0  0  0
   -3.3410   -7.0323    0.0000 C   0  0  0  0  0  0  0  0  0
   -3.9720   -6.5008    0.0000 C   0  0  0  0  0  0  0  0  0
   -3.8271   -5.6886    0.0000 C   0  0  0  0  0  0  0  0  0
   -3.0513   -5.4080    0.0000 C   0  0  0  0  0  0  0  0  0
   -2.4203   -5.9395    0.0000 C   0  0  0  0  0  0  0  0  0
   -2.5652   -6.7517    0.0000 C   0  0  0  0  0  0  0  0  0
   -1.9343   -7.2833    0.0000 C   0  0  0  0  0  0  0  0  0
   -2.9064   -4.5958    0.0000 C   0  0  0  0  0  0  0  0  0
   -3.4783   -4.0012    0.0000 N   0  0  0  0  0  0  0  0  0
   -3.0895   -3.2735    0.0000 N   0  0  0  0  0  0  0  0  0
   -2.2773   -3.4184    0.0000 C   0  0  0  0  0  0  0  0  0
   -2.1641   -4.2356    0.0000 C   0  0  0  0  0  0  0  0  0
   -1.6827   -2.8465    0.0000 C   0  0  0  0  0  0  0  0  0
   -1.8807   -2.0456    0.0000 O   0  0  0  0  0  0  0  0  0
   -0.8901   -3.0755    0.0000 N   0  0  0  0  0  0  0  0  0
   -0.2955   -2.5036    0.0000 C   0  0  0  0  0  0  0  0  0
    0.0698   -1.8431    0.0000 C   0  0  0  0  0  0  0  0  0
    0.7101   -1.3929    0.0000 C   0  0  0  0  0  0  0  0  0
    0.5501   -0.5775    0.0000 C   0  0  0  0  0  0  0  0  0
    0.4800   -2.1133    0.0000 C   0  0  0  0  0  0  0  0  0
    1.2105   -2.4836    0.0000 C   0  0  0  0  0  0  0  0  0
    1.5056   -1.8582    0.0000 C   0  0  0  0  0  0  0  0  0
    0.4788   -2.9383    0.0000 C   0  0  0  0  0  0  0  0  0
   -0.7153   -1.5897    0.0000 C   0  0  0  0  0  0  0  0  0
   -0.2665   -1.0898    0.0000 C   0  0  0  0  0  0  0  0  0
   -4.2955   -4.1144    0.0000 C   0  0  0  0  0  0  0  0  0
   -4.8021   -3.4633    0.0000 C   0  0  0  0  0  0  0  0  0
   -5.6193   -3.5764    0.0000 C   0  0  0  0  0  0  0  0  0
   -6.1259   -2.9253    0.0000 C   0  0  0  0  0  0  0  0  0
   -5.8153   -2.1610    0.0000 C   0  0  0  0  0  0  0  0  0
   -4.9981   -2.0478    0.0000 C   0  0  0  0  0  0  0  0  0
   -4.4915   -2.6989    0.0000 C   0  0  0  0  0  0  0  0  0
   -6.3219   -1.5099    0.0000 C   0  0  0  0  0  0  0  0  0
  1  2  1  0  0  0  0
  2  3  4  0  0  0  0
  2  7  4  0  0  0  0
  3  4  4  0  0  0  0
  4  5  4  0  0  0  0
  5  6  4  0  0  0  0
  5  9  1  0  0  0  0
  6  7  4  0  0  0  0
  7  8  1  0  0  0  0
  9 10  4  0  0  0  0
  9 13  4  0  0  0  0
 10 11  4  0  0  0  0
 10 27  1  0  0  0  0
 11 12  4  0  0  0  0
 12 13  4  0  0  0  0
 12 14  1  0  0  0  0
 14 15  2  0  0  0  0
 14 16  1  0  0  0  0
 16 17  1  0  0  0  0
 17 18  1  0  0  0  0
 17 21  1  0  0  0  0
 18 19  1  0  0  0  0
 18 25  1  0  0  0  0
 18 26  1  0  0  0  0
 19 20  1  0  0  0  0
 19 23  1  0  0  0  0
 20 21  1  0  0  0  0
 21 22  1  0  0  0  0
 21 24  1  0  0  0  0
 22 23  1  0  0  0  0
 27 28  1  0  0  0  0
 28 29  4  0  0  0  0
 28 33  4  0  0  0  0
 29 30  4  0  0  0  0
 30 31  4  0  0  0  0
 31 32  4  0  0  0  0
 31 34  1  0  0  0  0
 32 33  4  0  0  0  0
M  END
>  <Name_Molregno>
SR144528

>  <5-HT1A>
5

>  <5-HT1B>
5

>  <5-HT1D>
5

>  <5-HT2A>
5

>  <5-HT2C>
5

>  <5-HT3>
5

>  <Beta-1>
5

>  <Beta-2>
5

>  <DOPAMINE D1>
5

>  <DOPAMINE D2>
5

>  <DOPAMINE D3>
5

>  <DOPAMINE D4>
5

>  <HISTAMINE H1>
5

>  <HISTAMINE H2>
5

>  <HISTAMINE H3>
5

>  <Muscarinic acetylcholine receptor M1>
5

>  <Muscarinic acetylcholine receptor M2>
5

>  <Muscarinic acetylcholine receptor M4>
5

$$$$
sulforidazine
  Marvin  02231216192D 0   1.00000     0.00000     0

 27 30  0  0  1  0  0  0  0  0999 V2000
   -1.0315   -3.8301    0.0000 S   0  0  0  0  0  0  0  0  0
   -0.3170   -3.4176    0.0000 C   0  0  0  0  0  0  0  0  0
   -0.3170   -2.5926    0.0000 C   0  0  0  0  0  0  0  0  0
   -1.0315   -2.1801    0.0000 N   0  0  0  0  0  0  0  0  0
   -1.7460   -2.5926    0.0000 C   0  0  0  0  0  0  0  0  0
   -1.7460   -3.4176    0.0000 C   0  0  0  0  0  0  0  0  0
   -2.4604   -3.8301    0.0000 C   0  0  0  0  0  0  0  0  0
   -3.1749   -3.4176    0.0000 C   0  0  0  0  0  0  0  0  0
   -3.1749   -2.5926    0.0000 C   0  0  0  0  0  0  0  0  0
   -2.4604   -2.1801    0.0000 C   0  0  0  0  0  0  0  0  0
   -1.0315   -1.3551    0.0000 C   0  0  0  0  0  0  0  0  0
   -1.7460   -0.9426    0.0000 C   0  0  0  0  0  0  0  0  0
   -1.7460   -0.1176    0.0000 C   0  0  0  0  0  0  0  0  0
   -2.4604    0.2949    0.0000 N   0  0  0  0  0  0  0  0  0
   -2.4604    1.1199    0.0000 C   0  0  0  0  0  0  0  0  0
   -1.7460    1.5324    0.0000 C   0  0  0  0  0  0  0  0  0
   -1.0315    1.1199    0.0000 C   0  0  0  0  0  0  0  0  0
   -1.0315    0.2949    0.0000 C   0  0  0  0  0  0  0  0  0
   -3.1749   -0.1176    0.0000 C   0  0  0  0  0  0  0  0  0
    0.3974   -2.1801    0.0000 C   0  0  0  0  0  0  0  0  0
    1.1119   -2.5926    0.0000 C   0  0  0  0  0  0  0  0  0
    1.8264   -2.1801    0.0000 S   0  0  0  0  0  0  0  0  0
    2.5409   -1.7676    0.0000 O   0  0  0  0  0  0  0  0  0
    2.2389   -2.8946    0.0000 O   0  0  0  0  0  0  0  0  0
    1.4139   -1.4656    0.0000 C   0  0  0  0  0  0  0  0  0
    1.1119   -3.4176    0.0000 C   0  0  0  0  0  0  0  0  0
    0.3974   -3.8301    0.0000 C   0  0  0  0  0  0  0  0  0
  1  2  1  0  0  0  0
  1  6  1  0  0  0  0
  2  3  4  0  0  0  0
  2 27  4  0  0  0  0
  3  4  1  0  0  0  0
  3 20  4  0  0  0  0
  4  5  1  0  0  0  0
  4 11  1  0  0  0  0
  5  6  4  0  0  0  0
  5 10  4  0  0  0  0
  6  7  4  0  0  0  0
  7  8  4  0  0  0  0
  8  9  4  0  0  0  0
  9 10  4  0  0  0  0
 11 12  1  0  0  0  0
 12 13  1  0  0  0  0
 13 14  1  0  0  0  0
 13 18  1  0  0  0  0
 14 15  1  0  0  0  0
 14 19  1  0  0  0  0
 15 16  1  0  0  0  0
 16 17  1  0  0  0  0
 17 18  1  0  0  0  0
 20 21  4  0  0  0  0
 21 22  1  0  0  0  0
 21 26  4  0  0  0  0
 22 23  2  0  0  0  0
 22 24  2  0  0  0  0
 22 25  1  0  0  0  0
 26 27  4  0  0  0  0
M  END
>  <Name_Molregno>
sulforidazine

>  <DOPAMINE D2>
9.61

>  <DOPAMINE D3>
9.15

$$$$
SULPIRIDE
  Marvin  02231216192D 0   1.00000     0.00000     0

 23 24  0  0  1  0  0  0  0  0999 V2000
   -2.6543    0.9455    0.0000 S   0  0  0  0  0  0  0  0  0
   -2.6543    1.7705    0.0000 O   0  0  0  0  0  0  0  0  0
   -3.4793    0.9455    0.0000 O   0  0  0  0  0  0  0  0  0
   -1.8293    0.9455    0.0000 N   0  0  0  0  0  0  0  0  0
   -2.6543    0.1205    0.0000 C   0  0  0  0  0  0  0  0  0
   -1.9398   -0.2920    0.0000 C   0  0  0  0  0  0  0  0  0
   -1.9398   -1.1170    0.0000 C   0  0  0  0  0  0  0  0  0
   -1.2253   -1.5295    0.0000 C   0  0  0  0  0  0  0  0  0
   -0.5109   -1.1170    0.0000 O   0  0  0  0  0  0  0  0  0
   -1.2253   -2.3545    0.0000 N   0  0  0  0  0  0  0  0  0
   -0.5109   -2.7670    0.0000 C   0  0  0  0  0  0  0  0  0
   -0.5109   -3.5920    0.0000 C   0  0  0  0  0  0  0  0  0
    0.1566   -4.0770    0.0000 N   0  0  0  0  0  0  0  0  0
   -0.0984   -4.8616    0.0000 C   0  0  0  0  0  0  0  0  0
   -0.9234   -4.8616    0.0000 C   0  0  0  0  0  0  0  0  0
   -1.1783   -4.0770    0.0000 C   0  0  0  0  0  0  0  0  0
    0.9412   -3.8220    0.0000 C   0  0  0  0  0  0  0  0  0
    1.1127   -3.0150    0.0000 C   0  0  0  0  0  0  0  0  0
   -2.6543   -1.5295    0.0000 C   0  0  0  0  0  0  0  0  0
   -2.6543   -2.3545    0.0000 O   0  0  0  0  0  0  0  0  0
   -3.3687   -2.7670    0.0000 C   0  0  0  0  0  0  0  0  0
   -3.3687   -1.1170    0.0000 C   0  0  0  0  0  0  0  0  0
   -3.3687   -0.2920    0.0000 C   0  0  0  0  0  0  0  0  0
  1  2  2  0  0  0  0
  1  3  2  0  0  0  0
  1  4  1  0  0  0  0
  1  5  1  0  0  0  0
  5  6  4  0  0  0  0
  5 23  4  0  0  0  0
  6  7  4  0  0  0  0
  7  8  1  0  0  0  0
  7 19  4  0  0  0  0
  8  9  2  0  0  0  0
  8 10  1  0  0  0  0
 10 11  1  0  0  0  0
 11 12  1  0  0  0  0
 12 13  1  0  0  0  0
 12 16  1  0  0  0  0
 13 14  1  0  0  0  0
 13 17  1  0  0  0  0
 14 15  1  0  0  0  0
 15 16  1  0  0  0  0
 17 18  1  0  0  0  0
 19 20  1  0  0  0  0
 19 22  4  0  0  0  0
 20 21  1  0  0  0  0
 22 23  4  0  0  0  0
M  END
>  <Name_Molregno>
SULPIRIDE

>  <5-HT1A>
5

>  <5-HT3>
5

>  <DOPAMINE D1>
5

>  <DOPAMINE D2>
7.23

>  <DOPAMINE D3>
7.64

>  <DOPAMINE D4>
6.54

>  <DOPAMINE D5>
5

$$$$
Sulpiride-S
  Marvin  02231216192D 0   1.00000     0.00000     0

 14 14  0  0  0  0  0  0  0  0999 V2000
    3.1762   -1.8675    0.0000 O   0  0  0  0  0  0  0  0  0
    3.1762   -1.0425    0.0000 C   0  0  0  0  0  0  0  0  0
    2.4617   -0.6300    0.0000 C   0  0  0  0  0  0  0  0  0
    1.7473   -1.0425    0.0000 C   0  0  0  0  0  0  0  0  0
    1.0328   -0.6300    0.0000 O   0  0  0  0  0  0  0  0  0
    2.4617    0.1950    0.0000 C   0  0  0  0  0  0  0  0  0
    1.7473    0.6075    0.0000 C   0  0  0  0  0  0  0  0  0
    1.7473    1.4325    0.0000 C   0  0  0  0  0  0  0  0  0
    2.4617    1.8450    0.0000 C   0  0  0  0  0  0  0  0  0
    2.4617    2.6700    0.0000 N   0  3  0  0  0  0  0  0  0
    1.7473    3.0825    0.0000 O   0  5  0  0  0  0  0  0  0
    3.1762    3.0825    0.0000 O   0  5  0  0  0  0  0  0  0
    3.1762    1.4325    0.0000 C   0  0  0  0  0  0  0  0  0
    3.1762    0.6075    0.0000 C   0  0  0  0  0  0  0  0  0
  1  2  2  0  0  0  0
  2  3  1  0  0  0  0
  3  4  1  0  0  0  0
  3  6  1  0  0  0  0
  4  5  2  0  0  0  0
  6  7  4  0  0  0  0
  6 14  4  0  0  0  0
  7  8  4  0  0  0  0
  8  9  4  0  0  0  0
  9 10  1  0  0  0  0
  9 13  4  0  0  0  0
 10 11  1  0  0  0  0
 10 12  1  0  0  0  0
 13 14  4  0  0  0  0
M  CHG  3  10   1  11  -1  12  -1
M  END
>  <Name_Molregno>
Sulpiride-S

>  <DOPAMINE D2>
7.89

>  <DOPAMINE D3>
7.94

>  <DOPAMINE D4>
6.27

$$$$
Sultopride
  Marvin  02231216192D 0   1.00000     0.00000     0

 24 25  0  0  1  0  0  0  0  0999 V2000
   -2.5118    0.9689    0.0000 S   0  0  0  0  0  0  0  0  0
   -3.3368    0.9689    0.0000 O   0  0  0  0  0  0  0  0  0
   -1.6868    0.9689    0.0000 O   0  0  0  0  0  0  0  0  0
   -2.5118    1.7939    0.0000 C   0  0  0  0  0  0  0  0  0
   -3.2262    2.2064    0.0000 C   0  0  0  0  0  0  0  0  0
   -2.5118    0.1439    0.0000 C   0  0  0  0  0  0  0  0  0
   -1.7973   -0.2686    0.0000 C   0  0  0  0  0  0  0  0  0
   -1.7973   -1.0936    0.0000 C   0  0  0  0  0  0  0  0  0
   -1.0828   -1.5061    0.0000 C   0  0  0  0  0  0  0  0  0
   -0.3684   -1.0936    0.0000 O   0  0  0  0  0  0  0  0  0
   -1.0828   -2.3311    0.0000 N   0  0  0  0  0  0  0  0  0
   -0.3684   -2.7436    0.0000 C   0  0  0  0  0  0  0  0  0
   -0.3684   -3.5686    0.0000 C   0  0  0  0  0  0  0  0  0
    0.2991   -4.0535    0.0000 N   0  0  0  0  0  0  0  0  0
    0.0441   -4.8381    0.0000 C   0  0  0  0  0  0  0  0  0
   -0.7809   -4.8381    0.0000 C   0  0  0  0  0  0  0  0  0
   -1.0358   -4.0535    0.0000 C   0  0  0  0  0  0  0  0  0
    1.0837   -3.7986    0.0000 C   0  0  0  0  0  0  0  0  0
    1.6968   -4.3506    0.0000 C   0  0  0  0  0  0  0  0  0
   -2.5118   -1.5061    0.0000 C   0  0  0  0  0  0  0  0  0
   -2.5118   -2.3311    0.0000 O   0  0  0  0  0  0  0  0  0
   -3.2262   -2.7436    0.0000 C   0  0  0  0  0  0  0  0  0
   -3.2262   -1.0936    0.0000 C   0  0  0  0  0  0  0  0  0
   -3.2262   -0.2686    0.0000 C   0  0  0  0  0  0  0  0  0
  1  2  2  0  0  0  0
  1  3  2  0  0  0  0
  1  4  1  0  0  0  0
  1  6  1  0  0  0  0
  4  5  1  0  0  0  0
  6  7  4  0  0  0  0
  6 24  4  0  0  0  0
  7  8  4  0  0  0  0
  8  9  1  0  0  0  0
  8 20  4  0  0  0  0
  9 10  2  0  0  0  0
  9 11  1  0  0  0  0
 11 12  1  0  0  0  0
 12 13  1  0  0  0  0
 13 14  1  0  0  0  0
 13 17  1  0  0  0  0
 14 15  1  0  0  0  0
 14 18  1  0  0  0  0
 15 16  1  0  0  0  0
 16 17  1  0  0  0  0
 18 19  1  0  0  0  0
 20 21  1  0  0  0  0
 20 23  4  0  0  0  0
 21 22  1  0  0  0  0
 23 24  4  0  0  0  0
M  END
>  <Name_Molregno>
Sultopride

>  <DOPAMINE D2>
8.58

>  <DOPAMINE D3>
8.42

$$$$
tefludazine
  Marvin  02231216192D 0   1.00000     0.00000     0

 29 32  0  0  1  0  0  0  0  0999 V2000
    2.9970    4.2461    0.0000 F   0  0  0  0  0  0  0  0  0
    3.2520    3.4614    0.0000 C   0  0  0  0  0  0  0  0  0
    4.0590    3.2899    0.0000 C   0  0  0  0  0  0  0  0  0
    4.3139    2.5053    0.0000 C   0  0  0  0  0  0  0  0  0
    3.7619    1.8922    0.0000 C   0  0  0  0  0  0  0  0  0
    2.9549    2.0637    0.0000 C   0  0  0  0  0  0  0  0  0
    2.7000    2.8483    0.0000 C   0  0  0  0  0  0  0  0  0
    4.0168    1.1076    0.0000 C   0  0  0  0  0  0  0  0  0
    3.5319    0.4401    0.0000 C   0  0  0  0  0  0  0  0  0
    4.0168   -0.2273    0.0000 C   0  0  0  0  0  0  0  0  0
    3.7619   -1.0119    0.0000 N   0  0  0  0  0  0  0  0  0
    4.3139   -1.6250    0.0000 C   0  0  0  0  0  0  0  0  0
    4.0590   -2.4096    0.0000 C   0  0  0  0  0  0  0  0  0
    3.2520   -2.5812    0.0000 N   0  0  0  0  0  0  0  0  0
    2.7000   -1.9681    0.0000 C   0  0  0  0  0  0  0  0  0
    2.9549   -1.1835    0.0000 C   0  0  0  0  0  0  0  0  0
    2.9970   -3.3658    0.0000 C   0  0  0  0  0  0  0  0  0
    2.1901   -3.5373    0.0000 C   0  0  0  0  0  0  0  0  0
    1.9351   -4.3219    0.0000 O   0  0  0  0  0  0  0  0  0
    4.8014    0.0276    0.0000 C   0  0  0  0  0  0  0  0  0
    4.8014    0.8526    0.0000 C   0  0  0  0  0  0  0  0  0
    5.5159    1.2651    0.0000 C   0  0  0  0  0  0  0  0  0
    6.2304    0.8526    0.0000 C   0  0  0  0  0  0  0  0  0
    6.2304    0.0276    0.0000 C   0  0  0  0  0  0  0  0  0
    5.5159   -0.3849    0.0000 C   0  0  0  0  0  0  0  0  0
    6.9448   -0.3849    0.0000 C   0  0  0  0  0  0  0  0  0
    7.6593   -0.7974    0.0000 F   0  0  0  0  0  0  0  0  0
    6.5323   -1.0993    0.0000 F   0  0  0  0  0  0  0  0  0
    7.3573    0.3296    0.0000 F   0  0  0  0  0  0  0  0  0
  1  2  1  0  0  0  0
  2  3  4  0  0  0  0
  2  7  4  0  0  0  0
  3  4  4  0  0  0  0
  4  5  4  0  0  0  0
  5  6  4  0  0  0  0
  5  8  1  0  0  0  0
  6  7  4  0  0  0  0
  8  9  1  0  0  0  0
  8 21  1  0  0  0  0
  9 10  1  0  0  0  0
 10 11  1  0  0  0  0
 10 20  1  0  0  0  0
 11 12  1  0  0  0  0
 11 16  1  0  0  0  0
 12 13  1  0  0  0  0
 13 14  1  0  0  0  0
 14 15  1  0  0  0  0
 14 17  1  0  0  0  0
 15 16  1  0  0  0  0
 17 18  1  0  0  0  0
 18 19  1  0  0  0  0
 20 21  4  0  0  0  0
 20 25  4  0  0  0  0
 21 22  4  0  0  0  0
 22 23  4  0  0  0  0
 23 24  4  0  0  0  0
 24 25  4  0  0  0  0
 24 26  1  0  0  0  0
 26 27  1  0  0  0  0
 26 28  1  0  0  0  0
 26 29  1  0  0  0  0
M  END
>  <Name_Molregno>
tefludazine

>  <DOPAMINE D2>
9.34

>  <DOPAMINE D3>
9

>  <DOPAMINE D4>
8.35

$$$$
TERGURIDE
  Marvin  02231216192D 0   1.00000     0.00000     0

 25 28  0  0  1  0  0  0  0  0999 V2000
   -0.3965   -3.1617    0.0000 O   0  0  0  0  0  0  0  0  0
    0.3175   -3.5751    0.0000 C   0  0  0  0  0  0  0  0  0
    1.0325   -3.1634    0.0000 N   0  0  0  0  0  0  0  0  0
    1.0334   -2.3384    0.0000 C   0  0  0  0  0  0  0  0  0
    1.7484   -1.9268    0.0000 C   0  0  0  0  0  0  0  0  0
    1.7494   -1.1018    0.0000 C   0  0  0  0  0  0  0  0  0
    1.0354   -0.6884    0.0000 C   0  0  0  0  0  0  0  0  0
    0.3205   -1.1001    0.0000 N   0  0  0  0  0  0  0  0  0
    0.3195   -1.9251    0.0000 C   0  0  0  0  0  0  0  0  0
   -0.3935   -0.6867    0.0000 C   0  0  0  0  0  0  0  0  0
    1.0369    0.1357    0.0000 C   0  0  0  0  0  0  0  0  0
    1.7494    0.5482    0.0000 C   0  0  0  0  0  0  0  0  0
    2.4619    0.1357    0.0000 C   0  0  0  0  0  0  0  0  0
    2.4619   -0.6893    0.0000 C   0  0  0  0  0  0  0  0  0
    3.1798   -1.1018    0.0000 C   0  0  0  0  0  0  0  0  0
    3.8923   -0.6893    0.0000 C   0  0  0  0  0  0  0  0  0
    3.8923    0.1357    0.0000 C   0  0  0  0  0  0  0  0  0
    3.1798    0.5482    0.0000 C   0  0  0  0  0  0  0  0  0
    2.8744    1.4054    0.0000 N   0  0  0  0  0  0  0  0  0
    2.0494    1.4054    0.0000 C   0  0  0  0  0  0  0  0  0
    0.3165   -4.4001    0.0000 N   0  0  0  0  0  0  0  0  0
   -0.3985   -4.8117    0.0000 C   0  0  0  0  0  0  0  0  0
   -0.3994   -5.6367    0.0000 C   0  0  0  0  0  0  0  0  0
    1.0305   -4.8134    0.0000 C   0  0  0  0  0  0  0  0  0
    1.0295   -5.6384    0.0000 C   0  0  0  0  0  0  0  0  0
  1  2  2  0  0  0  0
  2  3  1  0  0  0  0
  2 21  1  0  0  0  0
  3  4  1  0  0  0  0
  4  5  1  0  0  0  0
  4  9  1  0  0  0  0
  5  6  1  0  0  0  0
  6  7  1  0  0  0  0
  6 14  1  0  0  0  0
  7  8  1  0  0  0  0
  7 11  1  0  0  0  0
  8  9  1  0  0  0  0
  8 10  1  0  0  0  0
 11 12  1  0  0  0  0
 12 13  4  0  0  0  0
 12 20  4  0  0  0  0
 13 14  4  0  0  0  0
 13 18  4  0  0  0  0
 14 15  4  0  0  0  0
 15 16  4  0  0  0  0
 16 17  4  0  0  0  0
 17 18  4  0  0  0  0
 18 19  4  0  0  0  0
 19 20  4  0  0  0  0
 21 22  1  0  0  0  0
 21 24  1  0  0  0  0
 22 23  1  0  0  0  0
 24 25  1  0  0  0  0
M  STY  1   1 DAT
M  SAL   1  1  19
M  SDT   1 MRV_IMPLICIT_H                                        
M  SDD   1     0.0000    0.0000    DR    ALL  0       0  
M  SED   1 IMPL_H1
M  END
>  <Name_Molregno>
TERGURIDE

>  <5-HT1A>
8.46

>  <5-HT1B>
6.59

>  <5-HT1D>
7.79

>  <5-HT2A>
8.32

>  <5-HT2C>
7.32

>  <Alpha-1A>
8.45

>  <Alpha-1B>
7.46

>  <Alpha-2A>
9.53

>  <Alpha-2B>
9.35

>  <Alpha-2C>
9.12

>  <Beta-1>
6.18

>  <Beta-2>
7.7

>  <DOPAMINE D1>
7.55

>  <DOPAMINE D2>
9.06

>  <DOPAMINE D3>
9

>  <DOPAMINE D4>
8.18

>  <DOPAMINE D5>
7.63

$$$$
TERTATOLOL
  Marvin  02231216192D 0   1.00000     0.00000     0

 20 21  0  0  1  0  0  0  0  0999 V2000
    0.2340   -1.0636    0.0000 S   0  0  0  0  0  0  0  0  0
    0.2340   -0.2386    0.0000 C   0  0  0  0  0  0  0  0  0
   -0.4805    0.1739    0.0000 C   0  0  0  0  0  0  0  0  0
   -1.1949   -0.2386    0.0000 C   0  0  0  0  0  0  0  0  0
   -1.1949   -1.0636    0.0000 C   0  0  0  0  0  0  0  0  0
   -0.4805   -1.4761    0.0000 C   0  0  0  0  0  0  0  0  0
   -0.4805    0.9989    0.0000 C   0  0  0  0  0  0  0  0  0
    0.2340    1.4114    0.0000 C   0  0  0  0  0  0  0  0  0
    0.9485    0.9989    0.0000 C   0  0  0  0  0  0  0  0  0
    0.9485    0.1739    0.0000 C   0  0  0  0  0  0  0  0  0
    1.6630   -0.2386    0.0000 O   0  0  0  0  0  0  0  0  0
    2.3774    0.1739    0.0000 C   0  0  0  0  0  0  0  0  0
    3.0919   -0.2386    0.0000 C   0  0  0  0  0  0  0  0  0
    3.0919   -1.0636    0.0000 O   0  0  0  0  0  0  0  0  0
    3.8064    0.1739    0.0000 C   0  0  0  0  0  0  0  0  0
    4.5208   -0.2386    0.0000 N   0  0  0  0  0  0  0  0  0
    5.2353    0.1739    0.0000 C   0  0  0  0  0  0  0  0  0
    5.9498    0.5864    0.0000 C   0  0  0  0  0  0  0  0  0
    5.6478   -0.5406    0.0000 C   0  0  0  0  0  0  0  0  0
    4.8228    0.8884    0.0000 C   0  0  0  0  0  0  0  0  0
  1  2  1  0  0  0  0
  1  6  1  0  0  0  0
  2  3  4  0  0  0  0
  2 10  4  0  0  0  0
  3  4  1  0  0  0  0
  3  7  4  0  0  0  0
  4  5  1  0  0  0  0
  5  6  1  0  0  0  0
  7  8  4  0  0  0  0
  8  9  4  0  0  0  0
  9 10  4  0  0  0  0
 10 11  1  0  0  0  0
 11 12  1  0  0  0  0
 12 13  1  0  0  0  0
 13 14  1  0  0  0  0
 13 15  1  0  0  0  0
 15 16  1  0  0  0  0
 16 17  1  0  0  0  0
 17 18  1  0  0  0  0
 17 19  1  0  0  0  0
 17 20  1  0  0  0  0
M  END
>  <Name_Molregno>
TERTATOLOL

>  <5-HT1A>
8.17

>  <DOPAMINE D2>
5

>  <DOPAMINE D3>
5

$$$$
Thioproperazine
  Marvin  02231216192D 0   1.00000     0.00000     0

 30 33  0  0  0  0  0  0  0  0999 V2000
   -1.0464   -4.0231    0.0000 S   0  0  0  0  0  0  0  0  0
   -0.3319   -3.6106    0.0000 C   0  0  0  0  0  0  0  0  0
   -0.3319   -2.7856    0.0000 C   0  0  0  0  0  0  0  0  0
   -1.0464   -2.3731    0.0000 N   0  0  0  0  0  0  0  0  0
   -1.7609   -2.7856    0.0000 C   0  0  0  0  0  0  0  0  0
   -1.7609   -3.6106    0.0000 C   0  0  0  0  0  0  0  0  0
   -2.4754   -4.0231    0.0000 C   0  0  0  0  0  0  0  0  0
   -3.1898   -3.6106    0.0000 C   0  0  0  0  0  0  0  0  0
   -3.1898   -2.7856    0.0000 C   0  0  0  0  0  0  0  0  0
   -2.4754   -2.3731    0.0000 C   0  0  0  0  0  0  0  0  0
   -1.0464   -1.5481    0.0000 C   0  0  0  0  0  0  0  0  0
   -1.7609   -1.1356    0.0000 C   0  0  0  0  0  0  0  0  0
   -1.7609   -0.3106    0.0000 C   0  0  0  0  0  0  0  0  0
   -2.4754    0.1019    0.0000 N   0  0  0  0  0  0  0  0  0
   -3.1898   -0.3106    0.0000 C   0  0  0  0  0  0  0  0  0
   -3.9043    0.1019    0.0000 C   0  0  0  0  0  0  0  0  0
   -3.9043    0.9269    0.0000 N   0  0  0  0  0  0  0  0  0
   -3.1898    1.3394    0.0000 C   0  0  0  0  0  0  0  0  0
   -2.4754    0.9269    0.0000 C   0  0  0  0  0  0  0  0  0
   -4.6188    1.3394    0.0000 C   0  0  0  0  0  0  0  0  0
    0.3825   -2.3731    0.0000 C   0  0  0  0  0  0  0  0  0
    1.0970   -2.7856    0.0000 C   0  0  0  0  0  0  0  0  0
    1.8115   -2.3731    0.0000 S   0  0  0  0  0  0  0  0  0
    2.2240   -3.0875    0.0000 O   0  0  0  0  0  0  0  0  0
    1.3990   -1.6586    0.0000 O   0  0  0  0  0  0  0  0  0
    2.5259   -1.9606    0.0000 N   0  0  0  0  0  0  0  0  0
    2.5259   -1.1356    0.0000 C   0  0  0  0  0  0  0  0  0
    3.2404   -2.3731    0.0000 C   0  0  0  0  0  0  0  0  0
    1.0970   -3.6106    0.0000 C   0  0  0  0  0  0  0  0  0
    0.3825   -4.0231    0.0000 C   0  0  0  0  0  0  0  0  0
  1  2  1  0  0  0  0
  1  6  1  0  0  0  0
  2  3  4  0  0  0  0
  2 30  4  0  0  0  0
  3  4  1  0  0  0  0
  3 21  4  0  0  0  0
  4  5  1  0  0  0  0
  4 11  1  0  0  0  0
  5  6  4  0  0  0  0
  5 10  4  0  0  0  0
  6  7  4  0  0  0  0
  7  8  4  0  0  0  0
  8  9  4  0  0  0  0
  9 10  4  0  0  0  0
 11 12  1  0  0  0  0
 12 13  1  0  0  0  0
 13 14  1  0  0  0  0
 14 15  1  0  0  0  0
 14 19  1  0  0  0  0
 15 16  1  0  0  0  0
 16 17  1  0  0  0  0
 17 18  1  0  0  0  0
 17 20  1  0  0  0  0
 18 19  1  0  0  0  0
 21 22  4  0  0  0  0
 22 23  1  0  0  0  0
 22 29  4  0  0  0  0
 23 24  2  0  0  0  0
 23 25  2  0  0  0  0
 23 26  1  0  0  0  0
 26 27  1  0  0  0  0
 26 28  1  0  0  0  0
 29 30  4  0  0  0  0
M  END
>  <Name_Molregno>
Thioproperazine

>  <DOPAMINE D2>
9.35

>  <DOPAMINE D3>
8.92

$$$$
THIORIDAZINE
  Marvin  02231216192D 0   1.00000     0.00000     0

 25 28  0  0  1  0  0  0  0  0999 V2000
    1.0601   -0.3753    0.0000 S   0  0  0  0  0  0  0  0  0
    1.7746    0.0372    0.0000 C   0  0  0  0  0  0  0  0  0
    1.7746    0.8622    0.0000 C   0  0  0  0  0  0  0  0  0
    1.0601    1.2747    0.0000 N   0  0  0  0  0  0  0  0  0
    0.3456    0.8622    0.0000 C   0  0  0  0  0  0  0  0  0
    0.3456    0.0372    0.0000 C   0  0  0  0  0  0  0  0  0
   -0.3689   -0.3753    0.0000 C   0  0  0  0  0  0  0  0  0
   -1.0833    0.0372    0.0000 C   0  0  0  0  0  0  0  0  0
   -1.0833    0.8622    0.0000 C   0  0  0  0  0  0  0  0  0
   -0.3689    1.2747    0.0000 C   0  0  0  0  0  0  0  0  0
    1.0601    2.0997    0.0000 C   0  0  0  0  0  0  0  0  0
    0.3456    2.5122    0.0000 C   0  0  0  0  0  0  0  0  0
    0.3456    3.3372    0.0000 C   0  0  0  0  0  0  0  0  0
   -0.3689    3.7497    0.0000 N   0  0  0  0  0  0  0  0  0
   -0.3689    4.5747    0.0000 C   0  0  0  0  0  0  0  0  0
    0.3456    4.9872    0.0000 C   0  0  0  0  0  0  0  0  0
    1.0601    4.5747    0.0000 C   0  0  0  0  0  0  0  0  0
    1.0601    3.7497    0.0000 C   0  0  0  0  0  0  0  0  0
   -1.0833    3.3372    0.0000 C   0  0  0  0  0  0  0  0  0
    2.4890    1.2747    0.0000 C   0  0  0  0  0  0  0  0  0
    3.2035    0.8622    0.0000 C   0  0  0  0  0  0  0  0  0
    3.9180    1.2747    0.0000 S   0  0  0  0  0  0  0  0  0
    3.9180    2.0997    0.0000 C   0  0  0  0  0  0  0  0  0
    3.2035    0.0372    0.0000 C   0  0  0  0  0  0  0  0  0
    2.4890   -0.3753    0.0000 C   0  0  0  0  0  0  0  0  0
  1  2  1  0  0  0  0
  1  6  1  0  0  0  0
  2  3  4  0  0  0  0
  2 25  4  0  0  0  0
  3  4  1  0  0  0  0
  3 20  4  0  0  0  0
  4  5  1  0  0  0  0
  4 11  1  0  0  0  0
  5  6  4  0  0  0  0
  5 10  4  0  0  0  0
  6  7  4  0  0  0  0
  7  8  4  0  0  0  0
  8  9  4  0  0  0  0
  9 10  4  0  0  0  0
 11 12  1  0  0  0  0
 12 13  1  0  0  0  0
 13 14  1  0  0  0  0
 13 18  1  0  0  0  0
 14 15  1  0  0  0  0
 14 19  1  0  0  0  0
 15 16  1  0  0  0  0
 16 17  1  0  0  0  0
 17 18  1  0  0  0  0
 20 21  4  0  0  0  0
 21 22  1  0  0  0  0
 21 24  4  0  0  0  0
 22 23  1  0  0  0  0
 24 25  4  0  0  0  0
M  END
>  <Name_Molregno>
THIORIDAZINE

>  <5-HT1A>
6.85

>  <5-HT1B>
6.96

>  <5-HT1D>
6.24

>  <5-HT1E>
6.71

>  <5-HT2A>
7.95

>  <5-HT2C>
7.28

>  <5-HT3>
5

>  <5-HT5>
6.44

>  <5-HT6>
7.24

>  <5-HT7>
7.05

>  <Alpha-1A>
8.6

>  <Alpha-1B>
8.62

>  <Alpha-2A>
6.87

>  <Alpha-2B>
6.47

>  <Alpha-2C>
7.13

>  <Beta-1>
5

>  <Beta-2>
5

>  <DOPAMINE D1>
7.03

>  <DOPAMINE D2>
8.31

>  <DOPAMINE D3>
8.59

>  <DOPAMINE D4>
8.21

>  <DOPAMINE D5>
6.6

>  <Dopamine transporter>
5.77

>  <HISTAMINE H1>
7.79

>  <HISTAMINE H2>
6.87

>  <HISTAMINE H4>
5.62

>  <Muscarinic acetylcholine receptor M1>
8.21

>  <Muscarinic acetylcholine receptor M2>
7.26

>  <Muscarinic acetylcholine receptor M3>
7.6

>  <Muscarinic acetylcholine receptor M4>
7.38

>  <Muscarinic acetylcholine receptor M5>
7.9

>  <Norepinephrine transporter>
6.07

>  <Serotonin transporter>
5.9

$$$$
Tiapride
  Marvin  02231216192D 0   1.00000     0.00000     0

 22 22  0  0  0  0  0  0  0  0999 V2000
   -4.5785    0.9169    0.0000 S   0  0  0  0  0  0  0  0  0
   -4.9910    1.6313    0.0000 O   0  0  0  0  0  0  0  0  0
   -5.2929    0.5044    0.0000 O   0  0  0  0  0  0  0  0  0
   -3.8640    1.3294    0.0000 C   0  0  0  0  0  0  0  0  0
   -4.1660    0.2024    0.0000 C   0  0  0  0  0  0  0  0  0
   -3.3410    0.2024    0.0000 C   0  0  0  0  0  0  0  0  0
   -2.9285   -0.5121    0.0000 C   0  0  0  0  0  0  0  0  0
   -2.1035   -0.5121    0.0000 C   0  0  0  0  0  0  0  0  0
   -1.6910    0.2024    0.0000 O   0  0  0  0  0  0  0  0  0
   -1.6910   -1.2265    0.0000 N   0  0  0  0  0  0  0  0  0
   -0.8660   -1.2265    0.0000 C   0  0  0  0  0  0  0  0  0
   -0.4535   -1.9410    0.0000 C   0  0  0  0  0  0  0  0  0
    0.3715   -1.9410    0.0000 N   0  0  0  0  0  0  0  0  0
    0.7840   -2.6555    0.0000 C   0  0  0  0  0  0  0  0  0
    1.6090   -2.6555    0.0000 C   0  0  0  0  0  0  0  0  0
    0.7840   -1.2265    0.0000 C   0  0  0  0  0  0  0  0  0
    1.6090   -1.2265    0.0000 C   0  0  0  0  0  0  0  0  0
   -3.3410   -1.2265    0.0000 C   0  0  0  0  0  0  0  0  0
   -2.9285   -1.9410    0.0000 O   0  0  0  0  0  0  0  0  0
   -3.3410   -2.6555    0.0000 C   0  0  0  0  0  0  0  0  0
   -4.1660   -1.2265    0.0000 C   0  0  0  0  0  0  0  0  0
   -4.5785   -0.5121    0.0000 C   0  0  0  0  0  0  0  0  0
  1  2  2  0  0  0  0
  1  3  2  0  0  0  0
  1  4  1  0  0  0  0
  1  5  1  0  0  0  0
  5  6  4  0  0  0  0
  5 22  4  0  0  0  0
  6  7  4  0  0  0  0
  7  8  1  0  0  0  0
  7 18  4  0  0  0  0
  8  9  2  0  0  0  0
  8 10  1  0  0  0  0
 10 11  1  0  0  0  0
 11 12  1  0  0  0  0
 12 13  1  0  0  0  0
 13 14  1  0  0  0  0
 13 16  1  0  0  0  0
 14 15  1  0  0  0  0
 16 17  1  0  0  0  0
 18 19  1  0  0  0  0
 18 21  4  0  0  0  0
 19 20  1  0  0  0  0
 21 22  4  0  0  0  0
M  END
>  <Name_Molregno>
Tiapride

>  <DOPAMINE D2>
7.08

>  <DOPAMINE D3>
6.75

>  <DOPAMINE D4>
7.85

$$$$
TRIFLUOPERAZINE
  Marvin  02231216192D 0   1.00000     0.00000     0

 28 31  0  0  0  0  0  0  0  0999 V2000
   -1.0248   -3.8592    0.0000 S   0  0  0  0  0  0  0  0  0
   -0.3103   -3.4467    0.0000 C   0  0  0  0  0  0  0  0  0
   -0.3103   -2.6217    0.0000 C   0  0  0  0  0  0  0  0  0
   -1.0248   -2.2092    0.0000 N   0  0  0  0  0  0  0  0  0
   -1.7393   -2.6217    0.0000 C   0  0  0  0  0  0  0  0  0
   -1.7393   -3.4467    0.0000 C   0  0  0  0  0  0  0  0  0
   -2.4538   -3.8592    0.0000 C   0  0  0  0  0  0  0  0  0
   -3.1682   -3.4467    0.0000 C   0  0  0  0  0  0  0  0  0
   -3.1682   -2.6217    0.0000 C   0  0  0  0  0  0  0  0  0
   -2.4538   -2.2092    0.0000 C   0  0  0  0  0  0  0  0  0
   -1.0248   -1.3842    0.0000 C   0  0  0  0  0  0  0  0  0
   -1.7393   -0.9717    0.0000 C   0  0  0  0  0  0  0  0  0
   -1.7393   -0.1467    0.0000 C   0  0  0  0  0  0  0  0  0
   -2.4538    0.2658    0.0000 N   0  0  0  0  0  0  0  0  0
   -3.1682   -0.1467    0.0000 C   0  0  0  0  0  0  0  0  0
   -3.8827    0.2658    0.0000 C   0  0  0  0  0  0  0  0  0
   -3.8827    1.0908    0.0000 N   0  0  0  0  0  0  0  0  0
   -3.1682    1.5033    0.0000 C   0  0  0  0  0  0  0  0  0
   -2.4538    1.0908    0.0000 C   0  0  0  0  0  0  0  0  0
   -4.5972    1.5033    0.0000 C   0  0  0  0  0  0  0  0  0
    0.4041   -2.2092    0.0000 C   0  0  0  0  0  0  0  0  0
    1.1186   -2.6217    0.0000 C   0  0  0  0  0  0  0  0  0
    1.1186   -3.4467    0.0000 C   0  0  0  0  0  0  0  0  0
    0.4041   -3.8592    0.0000 C   0  0  0  0  0  0  0  0  0
    1.8331   -2.2092    0.0000 C   0  0  0  0  0  0  0  0  0
    2.5475   -1.7967    0.0000 F   0  0  0  0  0  0  0  0  0
    2.2456   -2.9236    0.0000 F   0  0  0  0  0  0  0  0  0
    1.4206   -1.4947    0.0000 F   0  0  0  0  0  0  0  0  0
  1  2  1  0  0  0  0
  1  6  1  0  0  0  0
  2  3  4  0  0  0  0
  2 24  4  0  0  0  0
  3  4  1  0  0  0  0
  3 21  4  0  0  0  0
  4  5  1  0  0  0  0
  4 11  1  0  0  0  0
  5  6  4  0  0  0  0
  5 10  4  0  0  0  0
  6  7  4  0  0  0  0
  7  8  4  0  0  0  0
  8  9  4  0  0  0  0
  9 10  4  0  0  0  0
 11 12  1  0  0  0  0
 12 13  1  0  0  0  0
 13 14  1  0  0  0  0
 14 15  1  0  0  0  0
 14 19  1  0  0  0  0
 15 16  1  0  0  0  0
 16 17  1  0  0  0  0
 17 18  1  0  0  0  0
 17 20  1  0  0  0  0
 18 19  1  0  0  0  0
 21 22  4  0  0  0  0
 22 23  4  0  0  0  0
 22 25  1  0  0  0  0
 23 24  4  0  0  0  0
 25 26  1  0  0  0  0
 25 27  1  0  0  0  0
 25 28  1  0  0  0  0
M  END
>  <Name_Molregno>
TRIFLUOPERAZINE

>  <5-HT1A>
6.02

>  <5-HT2A>
7.78

>  <5-HT2C>
6.42

>  <5-HT6>
6.85

>  <5-HT7>
6.54

>  <Alpha-1A>
7.62

>  <Alpha-2A>
6.18

>  <Alpha-2B>
6.79

>  <Alpha-2C>
6.41

>  <DOPAMINE D2>
8.75

>  <DOPAMINE D3>
9.22

>  <DOPAMINE D4>
7.24

>  <HISTAMINE H1>
7.2

>  <Muscarinic acetylcholine receptor M3>
6

$$$$
TRIFLUORPERIDOL
  Marvin  02231216192D 0   1.00000     0.00000     0

 29 31  0  0  0  0  0  0  0  0999 V2000
    0.4425    2.3016    0.0000 F   0  0  0  0  0  0  0  0  0
    1.1570    1.8891    0.0000 C   0  0  0  0  0  0  0  0  0
    1.8715    2.3016    0.0000 C   0  0  0  0  0  0  0  0  0
    2.5859    1.8891    0.0000 C   0  0  0  0  0  0  0  0  0
    2.5859    1.0641    0.0000 C   0  0  0  0  0  0  0  0  0
    1.8715    0.6516    0.0000 C   0  0  0  0  0  0  0  0  0
    1.1570    1.0641    0.0000 C   0  0  0  0  0  0  0  0  0
    3.3004    0.6516    0.0000 C   0  0  0  0  0  0  0  0  0
    3.3004   -0.1734    0.0000 O   0  0  0  0  0  0  0  0  0
    4.0149    1.0641    0.0000 C   0  0  0  0  0  0  0  0  0
    4.7293    0.6516    0.0000 C   0  0  0  0  0  0  0  0  0
    5.4438    1.0641    0.0000 C   0  0  0  0  0  0  0  0  0
    6.1583    0.6516    0.0000 N   0  0  0  0  0  0  0  0  0
    6.8727    1.0641    0.0000 C   0  0  0  0  0  0  0  0  0
    7.5872    0.6516    0.0000 C   0  0  0  0  0  0  0  0  0
    7.5872   -0.1734    0.0000 C   0  0  0  0  0  0  0  0  0
    8.3997   -0.0301    0.0000 O   0  0  0  0  0  0  0  0  0
    6.8727   -0.5859    0.0000 C   0  0  0  0  0  0  0  0  0
    6.1583   -0.1734    0.0000 C   0  0  0  0  0  0  0  0  0
    7.8694   -0.9486    0.0000 C   0  0  0  0  0  0  0  0  0
    8.6819   -1.0919    0.0000 C   0  0  0  0  0  0  0  0  0
    8.9640   -1.8671    0.0000 C   0  0  0  0  0  0  0  0  0
    8.4337   -2.4991    0.0000 C   0  0  0  0  0  0  0  0  0
    7.6213   -2.3559    0.0000 C   0  0  0  0  0  0  0  0  0
    7.3391   -1.5806    0.0000 C   0  0  0  0  0  0  0  0  0
    9.7765   -2.0104    0.0000 C   0  0  0  0  0  0  0  0  0
   10.5890   -2.1537    0.0000 F   0  0  0  0  0  0  0  0  0
    9.6332   -2.8229    0.0000 F   0  0  0  0  0  0  0  0  0
    9.9197   -1.1979    0.0000 F   0  0  0  0  0  0  0  0  0
  1  2  1  0  0  0  0
  2  3  4  0  0  0  0
  2  7  4  0  0  0  0
  3  4  4  0  0  0  0
  4  5  4  0  0  0  0
  5  6  4  0  0  0  0
  5  8  1  0  0  0  0
  6  7  4  0  0  0  0
  8  9  2  0  0  0  0
  8 10  1  0  0  0  0
 10 11  1  0  0  0  0
 11 12  1  0  0  0  0
 12 13  1  0  0  0  0
 13 14  1  0  0  0  0
 13 19  1  0  0  0  0
 14 15  1  0  0  0  0
 15 16  1  0  0  0  0
 16 17  1  0  0  0  0
 16 18  1  0  0  0  0
 16 20  1  0  0  0  0
 18 19  1  0  0  0  0
 20 21  4  0  0  0  0
 20 25  4  0  0  0  0
 21 22  4  0  0  0  0
 22 23  4  0  0  0  0
 22 26  1  0  0  0  0
 23 24  4  0  0  0  0
 24 25  4  0  0  0  0
 26 27  1  0  0  0  0
 26 28  1  0  0  0  0
 26 29  1  0  0  0  0
M  END
>  <Name_Molregno>
TRIFLUORPERIDOL

>  <DOPAMINE D2>
9.55

>  <DOPAMINE D3>
8.42

>  <DOPAMINE D4>
7.97

$$$$
UH232
  Marvin  02231216192D 0   1.00000     0.00000     0

 20 21  0  0  1  0  0  0  0  0999 V2000
   -1.5022   -1.5972    0.0000 O   0  0  0  0  0  0  0  0  0
   -1.5022   -2.4222    0.0000 C   0  0  0  0  0  0  0  0  0
   -2.2166   -1.1847    0.0000 C   0  0  0  0  0  0  0  0  0
   -2.2166   -0.3597    0.0000 C   0  0  0  0  0  0  0  0  0
   -2.9311    0.0528    0.0000 C   0  0  0  0  0  0  0  0  0
   -3.6456   -0.3597    0.0000 C   0  0  0  0  0  0  0  0  0
   -3.6456   -1.1847    0.0000 C   0  0  0  0  0  0  0  0  0
   -2.9311   -1.5972    0.0000 C   0  0  0  0  0  0  0  0  0
   -2.9311    0.8778    0.0000 C   0  0  0  0  0  0  0  0  0
   -3.6456    1.2903    0.0000 C   0  0  0  0  0  0  0  0  0
   -2.2166    1.2903    0.0000 C   0  0  0  0  0  0  0  0  0
   -2.2166    2.1153    0.0000 N   0  0  0  0  0  0  0  0  0
   -2.9311    2.5278    0.0000 C   0  0  0  0  0  0  0  0  0
   -2.9311    3.3528    0.0000 C   0  0  0  0  0  0  0  0  0
   -3.6456    3.7653    0.0000 C   0  0  0  0  0  0  0  0  0
   -1.5022    2.5278    0.0000 C   0  0  0  0  0  0  0  0  0
   -1.5022    3.3528    0.0000 C   0  0  0  0  0  0  0  0  0
   -0.7877    3.7653    0.0000 C   0  0  0  0  0  0  0  0  0
   -1.5022    0.8778    0.0000 C   0  0  0  0  0  0  0  0  0
   -1.5022    0.0528    0.0000 C   0  0  0  0  0  0  0  0  0
  1  2  1  0  0  0  0
  1  3  1  0  0  0  0
  3  4  4  0  0  0  0
  3  8  4  0  0  0  0
  4  5  4  0  0  0  0
  4 20  1  0  0  0  0
  5  6  4  0  0  0  0
  5  9  1  0  0  0  0
  6  7  4  0  0  0  0
  7  8  4  0  0  0  0
  9 10  1  0  0  0  0
  9 11  1  0  0  0  0
 11 12  1  0  0  0  0
 11 19  1  0  0  0  0
 12 13  1  0  0  0  0
 12 16  1  0  0  0  0
 13 14  1  0  0  0  0
 14 15  1  0  0  0  0
 16 17  1  0  0  0  0
 17 18  1  0  0  0  0
 19 20  2  0  0  0  0
M  END
>  <Name_Molregno>
UH232

>  <DOPAMINE D2>
7.67

>  <DOPAMINE D3>
8.14

>  <DOPAMINE D4>
7.18

$$$$
Venlafaxine
  Marvin  02231216192D 0   1.00000     0.00000     0

 20 21  0  0  1  0  0  0  0  0999 V2000
    2.4113    2.7171    0.0000 O   0  0  0  0  0  0  0  0  0
    1.6968    3.1296    0.0000 C   0  0  0  0  0  0  0  0  0
    2.4113    1.8921    0.0000 C   0  0  0  0  0  0  0  0  0
    3.1257    1.4796    0.0000 C   0  0  0  0  0  0  0  0  0
    3.1257    0.6546    0.0000 C   0  0  0  0  0  0  0  0  0
    2.4113    0.2421    0.0000 C   0  0  0  0  0  0  0  0  0
    1.6968    0.6546    0.0000 C   0  0  0  0  0  0  0  0  0
    1.6968    1.4796    0.0000 C   0  0  0  0  0  0  0  0  0
    2.4113   -0.5829    0.0000 C   0  0  0  0  0  0  0  0  0
    1.6968   -0.9954    0.0000 C   0  0  0  0  0  0  0  0  0
    1.6968   -1.8204    0.0000 N   0  0  0  0  0  0  0  0  0
    2.4113   -2.2329    0.0000 C   0  0  0  0  0  0  0  0  0
    0.9823   -2.2329    0.0000 C   0  0  0  0  0  0  0  0  0
    3.1257   -0.9954    0.0000 C   0  0  0  0  0  0  0  0  0
    2.5954   -1.6274    0.0000 O   0  0  0  0  0  0  0  0  0
    3.4079   -0.2201    0.0000 C   0  0  0  0  0  0  0  0  0
    4.2204   -0.0769    0.0000 C   0  0  0  0  0  0  0  0  0
    4.7507   -0.7089    0.0000 C   0  0  0  0  0  0  0  0  0
    4.4685   -1.4841    0.0000 C   0  0  0  0  0  0  0  0  0
    3.6560   -1.6274    0.0000 C   0  0  0  0  0  0  0  0  0
  1  2  1  0  0  0  0
  1  3  1  0  0  0  0
  3  4  4  0  0  0  0
  3  8  4  0  0  0  0
  4  5  4  0  0  0  0
  5  6  4  0  0  0  0
  6  7  4  0  0  0  0
  6  9  1  0  0  0  0
  7  8  4  0  0  0  0
  9 10  1  0  0  0  0
  9 14  1  0  0  0  0
 10 11  1  0  0  0  0
 11 12  1  0  0  0  0
 11 13  1  0  0  0  0
 14 15  1  0  0  0  0
 14 16  1  0  0  0  0
 14 20  1  0  0  0  0
 16 17  1  0  0  0  0
 17 18  1  0  0  0  0
 18 19  1  0  0  0  0
 19 20  1  0  0  0  0
M  END
>  <Name_Molregno>
Venlafaxine

>  <5-HT1A>
5

>  <5-HT1B>
5

>  <5-HT1D>
5

>  <5-HT1E>
5

>  <5-HT2A>
5.33

>  <5-HT2C>
5.35

>  <5-HT6>
5.55

>  <5-HT7>
5

>  <Alpha-1A>
5

>  <Alpha-2A>
5.5

>  <DOPAMINE D2>
5

>  <DOPAMINE D3>
5

>  <Dopamine transporter>
5.17

>  <HISTAMINE H1>
5

>  <Muscarinic acetylcholine receptor M1>
5.5

>  <Muscarinic acetylcholine receptor M2>
5.5

>  <Muscarinic acetylcholine receptor M3>
5

>  <Muscarinic acetylcholine receptor M4>
5

>  <Muscarinic acetylcholine receptor M5>
5

>  <Norepinephrine transporter>
5.82

>  <Serotonin transporter>
7.43

$$$$
ZIPRASIDONE
  Marvin  02231216192D 0   1.00000     0.00000     0

 28 32  0  0  0  0  0  0  0  0999 V2000
   -5.2868    0.2535    0.0000 Cl  0  0  0  0  0  0  0  0  0
   -4.7347    0.8666    0.0000 C   0  0  0  0  0  0  0  0  0
   -4.9897    1.6513    0.0000 C   0  0  0  0  0  0  0  0  0
   -4.4376    2.2643    0.0000 C   0  0  0  0  0  0  0  0  0
   -4.5239    3.0848    0.0000 N   0  0  0  0  0  0  0  0  0
   -3.7702    3.4204    0.0000 C   0  0  0  0  0  0  0  0  0
   -3.5987    4.2274    0.0000 O   0  0  0  0  0  0  0  0  0
   -3.2182    2.8073    0.0000 C   0  0  0  0  0  0  0  0  0
   -3.6307    2.0928    0.0000 C   0  0  0  0  0  0  0  0  0
   -3.3757    1.3082    0.0000 C   0  0  0  0  0  0  0  0  0
   -3.9278    0.6951    0.0000 C   0  0  0  0  0  0  0  0  0
   -3.6728   -0.0895    0.0000 C   0  0  0  0  0  0  0  0  0
   -2.8658   -0.2610    0.0000 C   0  0  0  0  0  0  0  0  0
   -2.6109   -1.0457    0.0000 N   0  0  0  0  0  0  0  0  0
   -1.8039   -1.2172    0.0000 C   0  0  0  0  0  0  0  0  0
   -1.5490   -2.0018    0.0000 C   0  0  0  0  0  0  0  0  0
   -2.1010   -2.6149    0.0000 N   0  0  0  0  0  0  0  0  0
   -2.9080   -2.4434    0.0000 C   0  0  0  0  0  0  0  0  0
   -3.1629   -1.6588    0.0000 C   0  0  0  0  0  0  0  0  0
   -1.8461   -3.3995    0.0000 C   0  0  0  0  0  0  0  0  0
   -2.3310   -4.0670    0.0000 N   0  0  0  0  0  0  0  0  0
   -1.8461   -4.7344    0.0000 S   0  0  0  0  0  0  0  0  0
   -1.0615   -4.4795    0.0000 C   0  0  0  0  0  0  0  0  0
   -1.0615   -3.6545    0.0000 C   0  0  0  0  0  0  0  0  0
   -0.3470   -3.2420    0.0000 C   0  0  0  0  0  0  0  0  0
    0.3675   -3.6545    0.0000 C   0  0  0  0  0  0  0  0  0
    0.3675   -4.4795    0.0000 C   0  0  0  0  0  0  0  0  0
   -0.3470   -4.8920    0.0000 C   0  0  0  0  0  0  0  0  0
  1  2  1  0  0  0  0
  2  3  4  0  0  0  0
  2 11  4  0  0  0  0
  3  4  4  0  0  0  0
  4  5  1  0  0  0  0
  4  9  4  0  0  0  0
  5  6  1  0  0  0  0
  6  7  2  0  0  0  0
  6  8  1  0  0  0  0
  8  9  1  0  0  0  0
  9 10  4  0  0  0  0
 10 11  4  0  0  0  0
 11 12  1  0  0  0  0
 12 13  1  0  0  0  0
 13 14  1  0  0  0  0
 14 15  1  0  0  0  0
 14 19  1  0  0  0  0
 15 16  1  0  0  0  0
 16 17  1  0  0  0  0
 17 18  1  0  0  0  0
 17 20  1  0  0  0  0
 18 19  1  0  0  0  0
 20 21  4  0  0  0  0
 20 24  4  0  0  0  0
 21 22  4  0  0  0  0
 22 23  4  0  0  0  0
 23 24  4  0  0  0  0
 23 28  4  0  0  0  0
 24 25  4  0  0  0  0
 25 26  4  0  0  0  0
 26 27  4  0  0  0  0
 27 28  4  0  0  0  0
M  END
>  <Name_Molregno>
ZIPRASIDONE

>  <5-HT1A>
8.19

>  <5-HT1B>
8.7

>  <5-HT1D>
8.32

>  <5-HT1E>
6.17

>  <5-HT2A>
9.54

>  <5-HT2C>
8.82

>  <5-HT3>
5.7

>  <5-HT5>
6.54

>  <5-HT6>
7.17

>  <5-HT7>
8.23

>  <Alpha-1A>
7.74

>  <Alpha-1B>
8.05

>  <Alpha-2A>
6.8

>  <Alpha-2B>
7.32

>  <Alpha-2C>
7.15

>  <Beta-1>
5.3

>  <Beta-2>
5.15

>  <DOPAMINE D1>
7.1

>  <DOPAMINE D2>
8.39

>  <DOPAMINE D3>
8.21

>  <DOPAMINE D4>
7.43

>  <DOPAMINE D5>
6.82

>  <Dopamine transporter>
5

>  <HISTAMINE H1>
7.51

>  <HISTAMINE H2>
5.46

>  <HISTAMINE H4>
5

>  <Muscarinic acetylcholine receptor M1>
5.53

>  <Muscarinic acetylcholine receptor M2>
5.26

>  <Muscarinic acetylcholine receptor M3>
5.3

>  <Muscarinic acetylcholine receptor M4>
5.4

>  <Muscarinic acetylcholine receptor M5>
5.4

>  <Norepinephrine transporter>
7.36

>  <Serotonin transporter>
6.92

$$$$
ZOTEPINE
  Marvin  02231216192D 0   1.00000     0.00000     0

 22 24  0  0  0  0  0  0  0  0999 V2000
    1.8575   -4.4413    0.0000 Cl  0  0  0  0  0  0  0  0  0
    1.0691   -4.1981    0.0000 C   0  0  0  0  0  0  0  0  0
    0.8856   -3.3938    0.0000 C   0  0  0  0  0  0  0  0  0
    0.0972   -3.1507    0.0000 C   0  0  0  0  0  0  0  0  0
   -0.5076   -3.7118    0.0000 C   0  0  0  0  0  0  0  0  0
   -1.3233   -3.5888    0.0000 S   0  0  0  0  0  0  0  0  0
   -1.7358   -2.8744    0.0000 C   0  0  0  0  0  0  0  0  0
   -1.4344   -2.1064    0.0000 C   0  0  0  0  0  0  0  0  0
   -0.6461   -1.8632    0.0000 C   0  0  0  0  0  0  0  0  0
    0.0356   -2.3280    0.0000 C   0  0  0  0  0  0  0  0  0
    0.7500   -1.9155    0.0000 O   0  0  0  0  0  0  0  0  0
    1.4645   -2.3280    0.0000 C   0  0  0  0  0  0  0  0  0
    2.1790   -1.9155    0.0000 C   0  0  0  0  0  0  0  0  0
    2.8934   -2.3280    0.0000 N   0  0  0  0  0  0  0  0  0
    3.6079   -1.9155    0.0000 C   0  0  0  0  0  0  0  0  0
    2.8934   -3.1530    0.0000 C   0  0  0  0  0  0  0  0  0
   -1.9488   -1.4614    0.0000 C   0  0  0  0  0  0  0  0  0
   -2.7646   -1.5843    0.0000 C   0  0  0  0  0  0  0  0  0
   -3.0660   -2.3523    0.0000 C   0  0  0  0  0  0  0  0  0
   -2.5516   -2.9973    0.0000 C   0  0  0  0  0  0  0  0  0
   -0.3240   -4.5161    0.0000 C   0  0  0  0  0  0  0  0  0
    0.4644   -4.7593    0.0000 C   0  0  0  0  0  0  0  0  0
  1  2  1  0  0  0  0
  2  3  4  0  0  0  0
  2 22  4  0  0  0  0
  3  4  4  0  0  0  0
  4  5  4  0  0  0  0
  4 10  1  0  0  0  0
  5  6  1  0  0  0  0
  5 21  4  0  0  0  0
  6  7  1  0  0  0  0
  7  8  4  0  0  0  0
  7 20  4  0  0  0  0
  8  9  1  0  0  0  0
  8 17  4  0  0  0  0
  9 10  2  0  0  0  0
 10 11  1  0  0  0  0
 11 12  1  0  0  0  0
 12 13  1  0  0  0  0
 13 14  1  0  0  0  0
 14 15  1  0  0  0  0
 14 16  1  0  0  0  0
 17 18  4  0  0  0  0
 18 19  4  0  0  0  0
 19 20  4  0  0  0  0
 21 22  4  0  0  0  0
M  END
>  <Name_Molregno>
ZOTEPINE

>  <5-HT1A>
6.41

>  <5-HT1B>
7.23

>  <5-HT1D>
7.02

>  <5-HT1E>
6.23

>  <5-HT2A>
8.58

>  <5-HT2C>
8.49

>  <5-HT3>
6.33

>  <5-HT5>
7.54

>  <5-HT6>
8.22

>  <5-HT7>
7.92

>  <Alpha-1A>
8.15

>  <Alpha-1B>
8.3

>  <Alpha-2A>
6.68

>  <Alpha-2B>
8.27

>  <Alpha-2C>
7.02

>  <Beta-1>
5.19

>  <Beta-2>
5.32

>  <DOPAMINE D1>
7.15

>  <DOPAMINE D2>
7.98

>  <DOPAMINE D3>
8.19

>  <DOPAMINE D4>
7.57

>  <DOPAMINE D5>
6.61

>  <Dopamine transporter>
5.44

>  <HISTAMINE H1>
8.64

>  <HISTAMINE H2>
6.3

>  <HISTAMINE H4>
5.7

>  <Muscarinic acetylcholine receptor M1>
6.37

>  <Muscarinic acetylcholine receptor M2>
5.92

>  <Muscarinic acetylcholine receptor M3>
6.07

>  <Muscarinic acetylcholine receptor M4>
6.06

>  <Muscarinic acetylcholine receptor M5>
5.8

>  <Norepinephrine transporter>
6.28

>  <Serotonin transporter>
6.41

$$$$
